# generated using pymatgen
data_Cu5(Si2O7)2
_symmetry_space_group_name_H-M   'P 1'
_cell_length_a   5.56998398
_cell_length_b   9.48354180
_cell_length_c   20.01855427
_cell_angle_alpha   90.00000000
_cell_angle_beta   90.00000000
_cell_angle_gamma   90.00000000
_symmetry_Int_Tables_number   1
_chemical_formula_structural   Cu5(Si2O7)2
_chemical_formula_sum   'Cu20 Si16 O56'
_cell_volume   1057.44361346
_cell_formula_units_Z   4
loop_
 _symmetry_equiv_pos_site_id
 _symmetry_equiv_pos_as_xyz
  1  'x, y, z'
loop_
 _atom_site_type_symbol
 _atom_site_label
 _atom_site_symmetry_multiplicity
 _atom_site_fract_x
 _atom_site_fract_y
 _atom_site_fract_z
 _atom_site_occupancy
  Cu  Cu0  1  0.81804463  0.75341858  0.23509556  1
  Cu  Cu1  1  0.68195537  0.25341858  0.76490444  1
  Cu  Cu2  1  0.31804463  0.24658142  0.26490444  1
  Cu  Cu3  1  0.18195537  0.74658142  0.73509556  1
  Cu  Cu4  1  0.18195537  0.24658142  0.76490444  1
  Cu  Cu5  1  0.31804463  0.74658142  0.23509556  1
  Cu  Cu6  1  0.68195537  0.75341858  0.73509556  1
  Cu  Cu7  1  0.81804463  0.25341858  0.26490444  1
  Cu  Cu8  1  0.47137309  0.68209331  0.99695674  1
  Cu  Cu9  1  0.02862691  0.18209331  0.00304326  1
  Cu  Cu10  1  0.97137309  0.31790669  0.50304326  1
  Cu  Cu11  1  0.52862691  0.81790669  0.49695674  1
  Cu  Cu12  1  0.52862691  0.31790669  0.00304326  1
  Cu  Cu13  1  0.97137309  0.81790669  0.99695674  1
  Cu  Cu14  1  0.02862691  0.68209331  0.49695674  1
  Cu  Cu15  1  0.47137309  0.18209331  0.50304326  1
  Cu  Cu16  1  0.50000000  -0.00000000  -0.00000000  1
  Cu  Cu17  1  0.00000000  0.50000000  -0.00000000  1
  Cu  Cu18  1  0.00000000  -0.00000000  0.50000000  1
  Cu  Cu19  1  0.50000000  0.50000000  0.50000000  1
  Si  Si20  1  0.07632720  0.94091208  0.13765718  1
  Si  Si21  1  0.42367280  0.44091208  0.86234282  1
  Si  Si22  1  0.57632720  0.05908792  0.36234282  1
  Si  Si23  1  0.92367280  0.55908792  0.63765718  1
  Si  Si24  1  0.92367280  0.05908792  0.86234282  1
  Si  Si25  1  0.57632720  0.55908792  0.13765718  1
  Si  Si26  1  0.42367280  0.94091208  0.63765718  1
  Si  Si27  1  0.07632720  0.44091208  0.36234282  1
  Si  Si28  1  0.57750875  0.09140742  0.14830718  1
  Si  Si29  1  0.92249125  0.59140742  0.85169282  1
  Si  Si30  1  0.07750875  0.90859258  0.35169282  1
  Si  Si31  1  0.42249125  0.40859258  0.64830718  1
  Si  Si32  1  0.42249125  0.90859258  0.85169282  1
  Si  Si33  1  0.07750875  0.40859258  0.14830718  1
  Si  Si34  1  0.92249125  0.09140742  0.64830718  1
  Si  Si35  1  0.57750875  0.59140742  0.35169282  1
  O  O36  1  0.06879959  0.77986951  0.17025867  1
  O  O37  1  0.43120041  0.27986951  0.82974133  1
  O  O38  1  0.56879959  0.22013049  0.32974133  1
  O  O39  1  0.93120041  0.72013049  0.67025867  1
  O  O40  1  0.93120041  0.22013049  0.82974133  1
  O  O41  1  0.56879959  0.72013049  0.17025867  1
  O  O42  1  0.43120041  0.77986951  0.67025867  1
  O  O43  1  0.06879959  0.27986951  0.32974133  1
  O  O44  1  0.09675008  0.96108857  0.05719607  1
  O  O45  1  0.40324992  0.46108857  0.94280393  1
  O  O46  1  0.59675008  0.03891143  0.44280393  1
  O  O47  1  0.90324992  0.53891143  0.55719607  1
  O  O48  1  0.90324992  0.03891143  0.94280393  1
  O  O49  1  0.59675008  0.53891143  0.05719607  1
  O  O50  1  0.40324992  0.96108857  0.55719607  1
  O  O51  1  0.09675008  0.46108857  0.44280393  1
  O  O52  1  0.32862830  0.00745164  0.16802375  1
  O  O53  1  0.17137170  0.50745164  0.83197625  1
  O  O54  1  0.82862830  0.99254836  0.33197625  1
  O  O55  1  0.67137170  0.49254836  0.66802375  1
  O  O56  1  0.67137170  0.99254836  0.83197625  1
  O  O57  1  0.82862830  0.49254836  0.16802375  1
  O  O58  1  0.17137170  0.00745164  0.66802375  1
  O  O59  1  0.32862830  0.50745164  0.33197625  1
  O  O60  1  0.82500883  0.00671988  0.16875618  1
  O  O61  1  0.67499117  0.50671988  0.83124382  1
  O  O62  1  0.32500883  0.99328012  0.33124382  1
  O  O63  1  0.17499117  0.49328012  0.66875618  1
  O  O64  1  0.17499117  0.99328012  0.83124382  1
  O  O65  1  0.32500883  0.49328012  0.16875618  1
  O  O66  1  0.67499117  0.00671988  0.66875618  1
  O  O67  1  0.82500883  0.50671988  0.33124382  1
  O  O68  1  0.56953232  0.22803578  0.19972092  1
  O  O69  1  0.93046768  0.72803578  0.80027908  1
  O  O70  1  0.06953232  0.77196422  0.30027908  1
  O  O71  1  0.43046768  0.27196422  0.69972092  1
  O  O72  1  0.43046768  0.77196422  0.80027908  1
  O  O73  1  0.06953232  0.27196422  0.19972092  1
  O  O74  1  0.93046768  0.22803578  0.69972092  1
  O  O75  1  0.56953232  0.72803578  0.30027908  1
  O  O76  1  0.59646241  0.13666389  0.06916685  1
  O  O77  1  0.90353759  0.63666389  0.93083315  1
  O  O78  1  0.09646241  0.86333611  0.43083315  1
  O  O79  1  0.40353759  0.36333611  0.56916685  1
  O  O80  1  0.40353759  0.86333611  0.93083315  1
  O  O81  1  0.09646241  0.36333611  0.06916685  1
  O  O82  1  0.90353759  0.13666389  0.56916685  1
  O  O83  1  0.59646241  0.63666389  0.43083315  1
  O  O84  1  0.34842708  0.16138975  0.96846504  1
  O  O85  1  0.15157292  0.66138975  0.03153496  1
  O  O86  1  0.84842708  0.83861025  0.53153496  1
  O  O87  1  0.65157292  0.33861025  0.46846504  1
  O  O88  1  0.65157292  0.83861025  0.03153496  1
  O  O89  1  0.84842708  0.33861025  0.96846504  1
  O  O90  1  0.15157292  0.16138975  0.46846504  1
  O  O91  1  0.34842708  0.66138975  0.53153496  1
