# generated using pymatgen
data_Cr(PO3)4
_symmetry_space_group_name_H-M   'P 1'
_cell_length_a   7.01677611
_cell_length_b   9.49338523
_cell_length_c   7.01677629
_cell_angle_alpha   88.52600795
_cell_angle_beta   71.15553811
_cell_angle_gamma   91.47398832
_symmetry_Int_Tables_number   1
_chemical_formula_structural   Cr(PO3)4
_chemical_formula_sum   'Cr2 P8 O24'
_cell_volume   441.92207519
_cell_formula_units_Z   2
loop_
 _symmetry_equiv_pos_site_id
 _symmetry_equiv_pos_as_xyz
  1  'x, y, z'
loop_
 _atom_site_type_symbol
 _atom_site_label
 _atom_site_symmetry_multiplicity
 _atom_site_fract_x
 _atom_site_fract_y
 _atom_site_fract_z
 _atom_site_occupancy
  Cr  Cr0  1  0.89159916  0.25000000  0.39159916  1
  Cr  Cr1  1  0.10840084  0.75000000  0.60840084  1
  P  P2  1  0.27673713  0.02886238  0.29783496  1
  P  P3  1  0.72351186  0.03309130  0.13255346  1
  P  P4  1  0.27648814  0.96690870  0.86744654  1
  P  P5  1  0.20216504  0.52886238  0.22326287  1
  P  P6  1  0.72326287  0.97113762  0.70216504  1
  P  P7  1  0.36744654  0.53309130  0.77648814  1
  P  P8  1  0.79783496  0.47113762  0.77673713  1
  P  P9  1  0.63255346  0.46690870  0.22351186  1
  O  O10  1  0.23116992  0.96968820  0.10478562  1
  O  O11  1  0.11510240  0.64502152  0.36162276  1
  O  O12  1  0.13837724  0.14502152  0.38489760  1
  O  O13  1  0.86162276  0.85497848  0.61510240  1
  O  O14  1  0.34252727  0.64565155  0.62896115  1
  O  O15  1  0.88489760  0.35497848  0.63837724  1
  O  O16  1  0.73371955  0.89277820  0.22902553  1
  O  O17  1  0.65747273  0.35434845  0.37103885  1
  O  O18  1  0.06859045  0.40337266  0.21823165  1
  O  O19  1  0.72902553  0.60722180  0.23371956  1
  O  O20  1  0.39521438  0.46968820  0.26883008  1
  O  O21  1  0.76883008  0.03031180  0.89521438  1
  O  O22  1  0.60478562  0.53031180  0.73116992  1
  O  O23  1  0.26628045  0.10722180  0.77097447  1
  O  O24  1  0.49998376  0.90207265  0.79339242  1
  O  O25  1  0.28176835  0.90337266  0.43140955  1
  O  O26  1  0.70660758  0.40207265  0.00001624  1
  O  O27  1  0.29339242  0.59792735  -0.00001624  1
  O  O28  1  0.12896115  0.85434845  0.84252727  1
  O  O29  1  0.50001624  0.09792735  0.20660758  1
  O  O30  1  0.27097447  0.39277820  0.76628044  1
  O  O31  1  0.93140955  0.59662734  0.78176835  1
  O  O32  1  0.71823165  0.09662734  0.56859045  1
  O  O33  1  0.87103885  0.14565155  0.15747273  1
