# generated using pymatgen
data_LiV2(PO4)3
_symmetry_space_group_name_H-M   'P 1'
_cell_length_a   8.57758755
_cell_length_b   8.57758783
_cell_length_c   6.32863325
_cell_angle_alpha   74.83077241
_cell_angle_beta   105.16922805
_cell_angle_gamma   86.37485436
_symmetry_Int_Tables_number   1
_chemical_formula_structural   LiV2(PO4)3
_chemical_formula_sum   'Li2 V4 P6 O24'
_cell_volume   429.39000314
_cell_formula_units_Z   2
loop_
 _symmetry_equiv_pos_site_id
 _symmetry_equiv_pos_as_xyz
  1  'x, y, z'
loop_
 _atom_site_type_symbol
 _atom_site_label
 _atom_site_symmetry_multiplicity
 _atom_site_fract_x
 _atom_site_fract_y
 _atom_site_fract_z
 _atom_site_occupancy
  Li  Li0  1  0.50000000  0.50000000  0.50000000  1
  Li  Li1  1  0.50000000  0.50000000  -0.00000000  1
  V  V2  1  0.36955101  0.94671543  0.13543615  1
  V  V3  1  0.05328457  0.63044899  0.63543615  1
  V  V4  1  0.94671543  0.36955101  0.36456385  1
  V  V5  1  0.63044899  0.05328457  0.86456385  1
  P  P6  1  0.28291436  0.28291436  0.75000000  1
  P  P7  1  0.64994057  0.15900003  0.35121449  1
  P  P8  1  0.84099997  0.35005943  0.85121449  1
  P  P9  1  0.35005943  0.84099997  0.64878551  1
  P  P10  1  0.15900003  0.64994057  0.14878551  1
  P  P11  1  0.71708564  0.71708564  0.25000000  1
  O  O12  1  0.05765820  0.59352300  0.32802796  1
  O  O13  1  0.45963865  0.68341856  0.71912902  1
  O  O14  1  0.94234180  0.40647700  0.67197204  1
  O  O15  1  0.18474632  0.83158805  0.12455616  1
  O  O16  1  0.64213638  0.04029664  0.58034360  1
  O  O17  1  0.83158805  0.18474632  0.37544384  1
  O  O18  1  0.59352300  0.05765820  0.17197204  1
  O  O19  1  0.73821814  0.84134828  0.03362080  1
  O  O20  1  0.54036135  0.31658144  0.28087098  1
  O  O21  1  0.74946288  0.54028086  0.23769407  1
  O  O22  1  0.15865172  0.26178186  0.53362080  1
  O  O23  1  0.84134828  0.73821814  0.46637920  1
  O  O24  1  0.04029664  0.64213638  0.91965640  1
  O  O25  1  0.54028086  0.74946288  0.26230593  1
  O  O26  1  0.45971914  0.25053712  0.73769407  1
  O  O27  1  0.25053712  0.45971914  0.76230593  1
  O  O28  1  0.26178186  0.15865172  0.96637920  1
  O  O29  1  0.81525368  0.16841195  0.87544384  1
  O  O30  1  0.31658144  0.54036135  0.21912902  1
  O  O31  1  0.68341856  0.45963865  0.78087098  1
  O  O32  1  0.35786362  0.95970336  0.41965640  1
  O  O33  1  0.95970336  0.35786362  0.08034360  1
  O  O34  1  0.16841195  0.81525368  0.62455616  1
  O  O35  1  0.40647700  0.94234180  0.82802796  1
