# generated using pymatgen
data_Fe(Se2O5)2
_symmetry_space_group_name_H-M   'P 1'
_cell_length_a   6.08586884
_cell_length_b   7.00232247
_cell_length_c   10.54704671
_cell_angle_alpha   89.99874389
_cell_angle_beta   90.00066384
_cell_angle_gamma   89.99996075
_symmetry_Int_Tables_number   1
_chemical_formula_structural   Fe(Se2O5)2
_chemical_formula_sum   'Fe2 Se8 O20'
_cell_volume   449.46467499
_cell_formula_units_Z   2
loop_
 _symmetry_equiv_pos_site_id
 _symmetry_equiv_pos_as_xyz
  1  'x, y, z'
loop_
 _atom_site_type_symbol
 _atom_site_label
 _atom_site_symmetry_multiplicity
 _atom_site_fract_x
 _atom_site_fract_y
 _atom_site_fract_z
 _atom_site_occupancy
  O  O0  1  0.57331689  0.25840304  0.13159820  1
  O  O1  1  0.89097588  0.81912514  0.04337424  1
  O  O2  1  0.99998808  0.99998735  0.26825921  1
  O  O3  1  0.00001399  0.49998801  0.76827927  1
  O  O4  1  0.10901102  0.18088396  0.04337528  1
  O  O5  1  0.10903683  0.31912816  0.54340370  1
  O  O6  1  0.16421069  0.14072330  0.76301808  1
  O  O7  1  0.16418092  0.35928509  0.26304836  1
  O  O8  1  0.26380817  0.67547659  0.39996097  1
  O  O9  1  0.26379085  0.82454599  0.89995417  1
  O  O10  1  0.42668773  0.74157361  0.13159958  1
  O  O11  1  0.42667126  0.75841765  0.63158422  1
  O  O12  1  0.49998378  0.50000223  0.92025785  1
  O  O13  1  0.50000840  0.99999677  0.42023178  1
  O  O14  1  0.57332758  0.24155770  0.63158606  1
  O  O15  1  0.83583190  0.64069544  0.26304891  1
  O  O16  1  0.73624101  0.32453215  0.39996293  1
  O  O17  1  0.73615108  0.17548565  0.89995185  1
  O  O18  1  0.83578653  0.85926722  0.76301573  1
  O  O19  1  0.89098159  0.68087137  0.54340374  1
  Fe  Fe20  1  0.00003749  0.50000388  0.40028382  1
  Fe  Fe21  1  0.99995380  0.00002604  0.90017387  1
  Se  Se22  1  0.21784931  0.14953914  0.19187197  1
  Se  Se23  1  0.21791943  0.35052103  0.69188951  1
  Se  Se24  1  0.28859056  0.64591550  0.00885027  1
  Se  Se25  1  0.28859025  0.85415162  0.50883910  1
  Se  Se26  1  0.71142170  0.14586406  0.50882755  1
  Se  Se27  1  0.71139246  0.35411167  0.00886494  1
  Se  Se28  1  0.78209341  0.64947247  0.69189049  1
  Se  Se29  1  0.78214742  0.85044819  0.19187035  1
