# generated using pymatgen
data_LiNi2P3O11
_symmetry_space_group_name_H-M   'P 1'
_cell_length_a   7.23042509
_cell_length_b   7.23042509
_cell_length_c   8.78803476
_cell_angle_alpha   70.14973628
_cell_angle_beta   109.85026373
_cell_angle_gamma   105.44649973
_symmetry_Int_Tables_number   1
_chemical_formula_structural   LiNi2P3O11
_chemical_formula_sum   'Li2 Ni4 P6 O22'
_cell_volume   400.48940415
_cell_formula_units_Z   2
loop_
 _symmetry_equiv_pos_site_id
 _symmetry_equiv_pos_as_xyz
  1  'x, y, z'
loop_
 _atom_site_type_symbol
 _atom_site_label
 _atom_site_symmetry_multiplicity
 _atom_site_fract_x
 _atom_site_fract_y
 _atom_site_fract_z
 _atom_site_occupancy
  Li  Li0  1  0.43370290  0.98968935  0.05995967  1
  Li  Li1  1  0.98968959  0.43370346  0.44003963  1
  O  O2  1  0.04357256  0.26395590  0.74273184  1
  O  O3  1  0.89676555  0.00711013  0.58775688  1
  O  O4  1  0.77286875  0.37766957  0.22064146  1
  O  O5  1  0.53000545  0.14785038  0.38255106  1
  O  O6  1  0.00710934  0.89676470  0.91224359  1
  O  O7  1  0.10302883  1.00453016  0.40872200  1
  O  O8  1  0.24578547  0.62641800  0.80916404  1
  O  O9  1  0.46768338  0.84897417  0.62475048  1
  O  O10  1  0.61560287  0.72022500  0.94144604  1
  O  O11  1  1.00453010  0.10303001  0.09127703  1
  O  O12  1  0.37766838  0.77286884  0.27935756  1
  O  O13  1  0.48733519  0.48733500  0.74999970  1
  O  O14  1  0.14785171  0.53000614  0.11744966  1
  O  O15  1  0.26640550  0.40415813  0.43395560  1
  O  O16  1  0.73898866  0.96151132  0.24548598  1
  O  O17  1  0.40415791  0.26640534  0.06604492  1
  O  O18  1  0.72022425  0.61560336  0.55855407  1
  O  O19  1  0.84897448  0.46768283  0.87524907  1
  O  O20  1  0.50742472  0.50742509  0.25000016  1
  O  O21  1  0.62641746  0.24578532  0.69083630  1
  O  O22  1  0.96151030  0.73898874  0.25451425  1
  O  O23  1  0.26395647  0.04357271  0.75726874  1
  P  P24  1  0.55481656  0.31787730  0.22342572  1
  P  P25  1  0.95240782  0.95240882  0.24999998  1
  P  P26  1  0.67836671  0.45399734  0.71427376  1
  P  P27  1  0.31787719  0.55481607  0.27657378  1
  P  P28  1  0.45399803  0.67836701  0.78572566  1
  P  P29  1  0.04724285  0.04724288  0.74999965  1
  Ni  Ni30  1  0.12152754  0.37152029  0.95112788  1
  Ni  Ni31  1  0.62639689  0.88161543  0.45376817  1
  Ni  Ni32  1  0.37152022  0.12152797  0.54887243  1
  Ni  Ni33  1  0.88161526  0.62639721  0.04623222  1
