# generated using pymatgen
data_KNa7V7MoO24
_symmetry_space_group_name_H-M   'P 1'
_cell_length_a   7.61141964
_cell_length_b   7.61141964
_cell_length_c   7.61141964
_cell_angle_alpha   90.01830213
_cell_angle_beta   89.98169787
_cell_angle_gamma   90.01830213
_symmetry_Int_Tables_number   1
_chemical_formula_structural   KNa7V7MoO24
_chemical_formula_sum   'K1 Na7 V7 Mo1 O24'
_cell_volume   440.95770326
_cell_formula_units_Z   1
loop_
 _symmetry_equiv_pos_site_id
 _symmetry_equiv_pos_as_xyz
  1  'x, y, z'
loop_
 _atom_site_type_symbol
 _atom_site_label
 _atom_site_symmetry_multiplicity
 _atom_site_fract_x
 _atom_site_fract_y
 _atom_site_fract_z
 _atom_site_occupancy
  K  K0  1  0.25359500  0.74640500  0.25359500  1
  Na  Na1  1  0.25542350  0.25525402  0.25542350  1
  Na  Na2  1  0.25537585  0.25529286  0.74470714  1
  Na  Na3  1  0.25542350  0.74457650  0.74474598  1
  Na  Na4  1  0.74470714  0.25529286  0.25537585  1
  Na  Na5  1  0.74476404  0.25523596  0.74476404  1
  Na  Na6  1  0.74474598  0.74457650  0.25542350  1
  Na  Na7  1  0.74470714  0.74462415  0.74470714  1
  V  V8  1  0.99944788  0.00055212  0.50067898  1
  V  V9  1  0.99944788  0.49932102  0.99944788  1
  V  V10  1  0.99944026  0.49828901  0.50171099  1
  V  V11  1  0.50067898  0.00055212  0.99944788  1
  V  V12  1  0.50171099  0.00055974  0.50171099  1
  V  V13  1  0.50171099  0.49828901  0.99944026  1
  V  V14  1  0.50178289  0.49821711  0.50178289  1
  Mo  Mo15  1  0.99923047  0.00076953  0.99923047  1
  O  O16  1  0.25182751  0.00294110  0.99705890  1
  O  O17  1  0.24904834  0.00336354  0.50314827  1
  O  O18  1  0.24904834  0.49685173  0.99663646  1
  O  O19  1  0.24970646  0.49648229  0.50351771  1
  O  O20  1  0.74766211  0.00140413  0.99859587  1
  O  O21  1  0.75044657  0.00151968  0.50114487  1
  O  O22  1  0.75044657  0.49885513  0.99848032  1
  O  O23  1  0.74985440  0.49869881  0.50130119  1
  O  O24  1  0.99859587  0.25233789  0.99859587  1
  O  O25  1  0.99848032  0.24955343  0.50114487  1
  O  O26  1  0.99705890  0.74817249  0.99705890  1
  O  O27  1  0.99663646  0.75095166  0.50314827  1
  O  O28  1  0.50114487  0.24955343  0.99848032  1
  O  O29  1  0.50130119  0.25014560  0.50130119  1
  O  O30  1  0.50314827  0.75095166  0.99663646  1
  O  O31  1  0.50351771  0.75029354  0.50351771  1
  O  O32  1  0.99705890  0.00294110  0.25182751  1
  O  O33  1  0.99859587  0.00140413  0.74766211  1
  O  O34  1  0.99663646  0.49685173  0.24904834  1
  O  O35  1  0.99848032  0.49885513  0.75044657  1
  O  O36  1  0.50314827  0.00336354  0.24904834  1
  O  O37  1  0.50114487  0.00151968  0.75044657  1
  O  O38  1  0.50351771  0.49648229  0.24970646  1
  O  O39  1  0.50130119  0.49869881  0.74985440  1
