# generated using pymatgen
data_Nb4Zn2C
_symmetry_space_group_name_H-M   'P 1'
_cell_length_a   8.45008714
_cell_length_b   8.45008651
_cell_length_c   8.45008660
_cell_angle_alpha   59.99999966
_cell_angle_beta   60.00000210
_cell_angle_gamma   60.00000135
_symmetry_Int_Tables_number   1
_chemical_formula_structural   Nb4Zn2C
_chemical_formula_sum   'Nb16 Zn8 C4'
_cell_volume   426.64682196
_cell_formula_units_Z   4
loop_
 _symmetry_equiv_pos_site_id
 _symmetry_equiv_pos_as_xyz
  1  'x, y, z'
loop_
 _atom_site_type_symbol
 _atom_site_label
 _atom_site_symmetry_multiplicity
 _atom_site_fract_x
 _atom_site_fract_y
 _atom_site_fract_z
 _atom_site_occupancy
  Nb  Nb0  1  0.56482681  0.18517319  0.18517319  1
  Nb  Nb1  1  0.81482681  0.81482681  0.43517319  1
  Nb  Nb2  1  0.43517319  0.43517319  0.81482681  1
  Nb  Nb3  1  0.81482681  0.43517319  0.43517319  1
  Nb  Nb4  1  0.81482681  0.43517319  0.81482681  1
  Nb  Nb5  1  0.43517319  0.81482681  0.43517319  1
  Nb  Nb6  1  0.18517319  0.56482681  0.18517319  1
  Nb  Nb7  1  0.18517319  0.18517319  0.56482681  1
  Nb  Nb8  1  0.56482681  0.56482681  0.18517319  1
  Nb  Nb9  1  0.56482681  0.18517319  0.56482681  1
  Nb  Nb10  1  0.43517319  0.81482681  0.81482681  1
  Nb  Nb11  1  0.18517319  0.56482681  0.56482681  1
  Nb  Nb12  1  0.00000000  0.00000000  0.00000000  1
  Nb  Nb13  1  0.00000000  0.00000000  0.50000000  1
  Nb  Nb14  1  0.50000000  0.00000000  0.00000000  1
  Nb  Nb15  1  0.00000000  0.50000000  0.00000000  1
  Zn  Zn16  1  0.78568630  0.78568630  0.78568630  1
  Zn  Zn17  1  0.21431370  0.21431370  0.85705890  1
  Zn  Zn18  1  0.85705890  0.21431370  0.21431370  1
  Zn  Zn19  1  0.21431370  0.85705890  0.21431370  1
  Zn  Zn20  1  0.14294110  0.78568630  0.78568630  1
  Zn  Zn21  1  0.78568630  0.14294110  0.78568630  1
  Zn  Zn22  1  0.78568630  0.78568630  0.14294110  1
  Zn  Zn23  1  0.21431370  0.21431370  0.21431370  1
  C  C24  1  0.50000000  0.50000000  0.50000000  1
  C  C25  1  0.50000000  0.50000000  0.00000000  1
  C  C26  1  0.00000000  0.50000000  0.50000000  1
  C  C27  1  0.50000000  0.00000000  0.50000000  1
