# generated using pymatgen
data_Y2Zr24O51
_symmetry_space_group_name_H-M   'P 1'
_cell_length_a   3.65864841
_cell_length_b   3.64465701
_cell_length_c   69.04576882
_cell_angle_alpha   90.00000000
_cell_angle_beta   90.00000000
_cell_angle_gamma   90.00000000
_symmetry_Int_Tables_number   1
_chemical_formula_structural   Y2Zr24O51
_chemical_formula_sum   'Y2 Zr24 O51'
_cell_volume   920.69208683
_cell_formula_units_Z   1
loop_
 _symmetry_equiv_pos_site_id
 _symmetry_equiv_pos_as_xyz
  1  'x, y, z'
loop_
 _atom_site_type_symbol
 _atom_site_label
 _atom_site_symmetry_multiplicity
 _atom_site_fract_x
 _atom_site_fract_y
 _atom_site_fract_z
 _atom_site_occupancy
  Y  Y0  1  0.25000000  0.75000000  0.98503550  1
  Y  Y1  1  0.75000000  0.25000000  0.94005930  1
  Zr  Zr2  1  0.25000000  0.75000000  0.05873172  1
  Zr  Zr3  1  0.25000000  0.75000000  0.13430311  1
  Zr  Zr4  1  0.25000000  0.75000000  0.21103390  1
  Zr  Zr5  1  0.25000000  0.75000000  0.28814869  1
  Zr  Zr6  1  0.25000000  0.75000000  0.36525769  1
  Zr  Zr7  1  0.25000000  0.75000000  0.44227599  1
  Zr  Zr8  1  0.25000000  0.75000000  0.51923527  1
  Zr  Zr9  1  0.25000000  0.75000000  0.59615993  1
  Zr  Zr10  1  0.25000000  0.75000000  0.67304439  1
  Zr  Zr11  1  0.25000000  0.75000000  0.74983639  1
  Zr  Zr12  1  0.25000000  0.75000000  0.82648986  1
  Zr  Zr13  1  0.25000000  0.75000000  0.90289267  1
  Zr  Zr14  1  0.75000000  0.25000000  0.02143248  1
  Zr  Zr15  1  0.75000000  0.25000000  0.09629850  1
  Zr  Zr16  1  0.75000000  0.25000000  0.17253085  1
  Zr  Zr17  1  0.75000000  0.25000000  0.24952242  1
  Zr  Zr18  1  0.75000000  0.25000000  0.32665869  1
  Zr  Zr19  1  0.75000000  0.25000000  0.40372291  1
  Zr  Zr20  1  0.75000000  0.25000000  0.48070687  1
  Zr  Zr21  1  0.75000000  0.25000000  0.63455536  1
  Zr  Zr22  1  0.75000000  0.25000000  0.55764841  1
  Zr  Zr23  1  0.75000000  0.25000000  0.78813138  1
  Zr  Zr24  1  0.75000000  0.25000000  0.71140470  1
  Zr  Zr25  1  0.75000000  0.25000000  0.86469460  1
  O  O26  1  0.25000000  0.25000000  0.00187761  1
  O  O27  1  0.25000000  0.25000000  0.04062719  1
  O  O28  1  0.25000000  0.25000000  0.07969135  1
  O  O29  1  0.25000000  0.25000000  0.15728289  1
  O  O30  1  0.25000000  0.25000000  0.11853590  1
  O  O31  1  0.25000000  0.25000000  0.19592049  1
  O  O32  1  0.25000000  0.25000000  0.23456828  1
  O  O33  1  0.25000000  0.25000000  0.27316803  1
  O  O34  1  0.25000000  0.25000000  0.31178144  1
  O  O35  1  0.25000000  0.25000000  0.35033550  1
  O  O36  1  0.25000000  0.25000000  0.38889514  1
  O  O37  1  0.25000000  0.25000000  0.42739304  1
  O  O38  1  0.25000000  0.25000000  0.46590571  1
  O  O39  1  0.25000000  0.25000000  0.54285137  1
  O  O40  1  0.25000000  0.25000000  0.50436681  1
  O  O41  1  0.25000000  0.25000000  0.58128697  1
  O  O42  1  0.25000000  0.25000000  0.61974322  1
  O  O43  1  0.25000000  0.25000000  0.65814303  1
  O  O44  1  0.25000000  0.25000000  0.69654792  1
  O  O45  1  0.25000000  0.25000000  0.73487336  1
  O  O46  1  0.25000000  0.25000000  0.77319925  1
  O  O47  1  0.25000000  0.25000000  0.81144072  1
  O  O48  1  0.25000000  0.25000000  0.84965731  1
  O  O49  1  0.25000000  0.25000000  0.88768775  1
  O  O50  1  0.25000000  0.25000000  0.92539640  1
  O  O51  1  0.75000000  0.75000000  0.07553335  1
  O  O52  1  0.75000000  0.75000000  0.22584720  1
  O  O53  1  0.75000000  0.75000000  0.14958328  1
  O  O54  1  0.75000000  0.75000000  0.38000774  1
  O  O55  1  0.75000000  0.75000000  0.30287241  1
  O  O56  1  0.75000000  0.75000000  0.53404263  1
  O  O57  1  0.75000000  0.75000000  0.45706432  1
  O  O58  1  0.75000000  0.75000000  0.68784102  1
  O  O59  1  0.75000000  0.75000000  0.03958302  1
  O  O60  1  0.75000000  0.75000000  0.61096962  1
  O  O61  1  0.75000000  0.75000000  0.84131330  1
  O  O62  1  0.75000000  0.75000000  0.76461555  1
  O  O63  1  0.75000000  0.75000000  0.11221339  1
  O  O64  1  0.75000000  0.75000000  0.18757046  1
  O  O65  1  0.75000000  0.75000000  0.91801814  1
  O  O66  1  0.75000000  0.75000000  0.00368206  1
  O  O67  1  0.75000000  0.75000000  0.26433703  1
  O  O68  1  0.75000000  0.75000000  0.34146176  1
  O  O69  1  0.75000000  0.75000000  0.49557867  1
  O  O70  1  0.75000000  0.75000000  0.41856598  1
  O  O71  1  0.75000000  0.75000000  0.64943163  1
  O  O72  1  0.75000000  0.75000000  0.57253058  1
  O  O73  1  0.75000000  0.75000000  0.80298791  1
  O  O74  1  0.75000000  0.75000000  0.72626189  1
  O  O75  1  0.75000000  0.75000000  0.96207975  1
  O  O76  1  0.75000000  0.75000000  0.87968602  1
