# generated using pymatgen
data_Sn(CO2)2
_symmetry_space_group_name_H-M   'P 1'
_cell_length_a   5.79917950
_cell_length_b   6.02401267
_cell_length_c   7.53862095
_cell_angle_alpha   76.72774094
_cell_angle_beta   67.35708484
_cell_angle_gamma   61.23520972
_symmetry_Int_Tables_number   1
_chemical_formula_structural   Sn(CO2)2
_chemical_formula_sum   'Sn2 C4 O8'
_cell_volume   212.74510440
_cell_formula_units_Z   2
loop_
 _symmetry_equiv_pos_site_id
 _symmetry_equiv_pos_as_xyz
  1  'x, y, z'
loop_
 _atom_site_type_symbol
 _atom_site_label
 _atom_site_symmetry_multiplicity
 _atom_site_fract_x
 _atom_site_fract_y
 _atom_site_fract_z
 _atom_site_occupancy
  Sn  Sn0  1  0.89833735  0.75001463  0.25001849  1
  Sn  Sn1  1  0.10166265  0.24998537  0.74998151  1
  O  O2  1  0.12206744  0.67707982  0.46271878  1
  O  O3  1  0.26196625  0.82295629  0.03727799  1
  O  O4  1  0.87793256  0.32292018  0.53728122  1
  O  O5  1  0.73803375  0.17704371  0.96272201  1
  O  O6  1  0.78479979  0.14992010  0.35415160  1
  O  O7  1  0.28865253  0.35016645  0.14590747  1
  O  O8  1  0.21520021  0.85007990  0.64584840  1
  O  O9  1  0.71134747  0.64983355  0.85409253  1
  C  C10  1  0.90364827  0.13418932  0.46837349  1
  C  C11  1  0.50606211  0.36585222  0.03166252  1
  C  C12  1  0.09635173  0.86581068  0.53162651  1
  C  C13  1  0.49393789  0.63414778  0.96833748  1
