# generated using pymatgen
data_MnPO4
_symmetry_space_group_name_H-M   'P 1'
_cell_length_a   5.00653876
_cell_length_b   9.77519151
_cell_length_c   7.02101289
_cell_angle_alpha   90.00000000
_cell_angle_beta   87.62090697
_cell_angle_gamma   90.00000000
_symmetry_Int_Tables_number   1
_chemical_formula_structural   MnPO4
_chemical_formula_sum   'Mn4 P4 O16'
_cell_volume   343.31132003
_cell_formula_units_Z   4
loop_
 _symmetry_equiv_pos_site_id
 _symmetry_equiv_pos_as_xyz
  1  'x, y, z'
loop_
 _atom_site_type_symbol
 _atom_site_label
 _atom_site_symmetry_multiplicity
 _atom_site_fract_x
 _atom_site_fract_y
 _atom_site_fract_z
 _atom_site_occupancy
  Mn  Mn0  1  0.21259187  0.12231192  0.44997224  1
  Mn  Mn1  1  0.28740813  0.62231192  0.05002876  1
  Mn  Mn2  1  0.71259187  0.37768808  0.94997224  1
  Mn  Mn3  1  0.78740813  0.87768808  0.55002776  1
  O  O4  1  0.15119535  0.63938286  0.78973638  1
  O  O5  1  0.16723211  0.55929210  0.30478366  1
  O  O6  1  0.20457898  0.91489725  0.45610407  1
  O  O7  1  0.23503878  0.81186096  0.10825535  1
  O  O8  1  0.26496122  0.31186096  0.39174465  1
  O  O9  1  0.29542102  0.41489725  0.04389593  1
  O  O10  1  0.33276789  0.05929210  0.19521634  1
  O  O11  1  0.34880465  0.13938286  0.71026362  1
  O  O12  1  0.65119535  0.86061714  0.28973638  1
  O  O13  1  0.66723211  0.94070790  0.80478366  1
  O  O14  1  0.70457898  0.58510275  0.95610407  1
  O  O15  1  0.73503878  0.68813904  0.60825535  1
  O  O16  1  0.76496122  0.18813904  0.89174465  1
  O  O17  1  0.79542102  0.08510275  0.54389593  1
  O  O18  1  0.83276789  0.44070790  0.69521634  1
  O  O19  1  0.84880465  0.36061714  0.21026362  1
  P  P20  1  0.13546604  0.40567043  0.24785483  1
  P  P21  1  0.36453396  0.90567043  0.25214517  1
  P  P22  1  0.63546604  0.09432957  0.74785483  1
  P  P23  1  0.86453396  0.59432957  0.75214517  1
