# generated using pymatgen
data_LiEr(PO3)4
_symmetry_space_group_name_H-M   'P 1'
_cell_length_a   7.19417285
_cell_length_b   9.01450137
_cell_length_c   9.07525324
_cell_angle_alpha   65.04346926
_cell_angle_beta   66.65084299
_cell_angle_gamma   66.48263411
_symmetry_Int_Tables_number   1
_chemical_formula_structural   LiEr(PO3)4
_chemical_formula_sum   'Li2 Er2 P8 O24'
_cell_volume   470.51642825
_cell_formula_units_Z   2
loop_
 _symmetry_equiv_pos_site_id
 _symmetry_equiv_pos_as_xyz
  1  'x, y, z'
loop_
 _atom_site_type_symbol
 _atom_site_label
 _atom_site_symmetry_multiplicity
 _atom_site_fract_x
 _atom_site_fract_y
 _atom_site_fract_z
 _atom_site_occupancy
  Li  Li0  1  0.00000000  0.00000000  0.00000000  1
  Li  Li1  1  0.00000000  0.50000000  0.50000000  1
  Er  Er2  1  0.23530277  0.24998922  0.74999168  1
  Er  Er3  1  0.76469723  0.75001078  0.25000832  1
  P  P4  1  0.58653171  0.38718745  0.34366986  1
  P  P5  1  0.30798976  0.79272482  0.90860132  1
  P  P6  1  0.00929814  0.70727263  0.59142281  1
  P  P7  1  0.31739806  0.11284277  0.15628029  1
  P  P8  1  0.99070186  0.29272737  0.40857719  1
  P  P9  1  0.41346829  0.61281255  0.65633014  1
  P  P10  1  0.68260194  0.88715723  0.84371971  1
  P  P11  1  0.69201024  0.20727518  0.09139868  1
  O  O12  1  -0.00728449  0.47386621  0.29465779  1
  O  O13  1  0.99180688  0.74011383  0.42029408  1
  O  O14  1  0.84778122  0.24009403  0.92029241  1
  O  O15  1  0.81410442  0.82901140  0.96266863  1
  O  O16  1  0.82931241  0.84936715  0.66885220  1
  O  O17  1  0.53908047  0.75714181  0.92184809  1
  O  O18  1  0.44451476  0.93114816  0.20599606  1
  O  O19  1  0.15221878  0.75990597  0.07970759  1
  O  O20  1  0.18589558  0.17098860  0.03733137  1
  O  O21  1  1.00728449  0.52613379  0.70534221  1
  O  O22  1  0.17068759  0.15063285  0.33114780  1
  O  O23  1  0.60575462  0.67097208  0.53735694  1
  O  O24  1  0.55548524  0.06885184  0.79400394  1
  O  O25  1  0.39424538  0.32902792  0.46264306  1
  O  O26  1  0.76122951  0.02614922  0.20535057  1
  O  O27  1  0.46091953  0.24285819  0.07815191  1
  O  O28  1  0.41832799  0.43112449  0.70604883  1
  O  O29  1  0.65248220  0.34937633  0.16881616  1
  O  O30  1  0.58167201  0.56887551  0.29395117  1
  O  O31  1  0.00819312  0.25988617  0.57970592  1
  O  O32  1  0.21805626  0.74282521  0.57818984  1
  O  O33  1  0.78194374  0.25717479  0.42181016  1
  O  O34  1  0.34751780  0.65062367  0.83118384  1
  O  O35  1  0.23877049  0.97385078  0.79464943  1
