# generated using pymatgen
data_La6Sm2V5Cr3O24
_symmetry_space_group_name_H-M   'P 1'
_cell_length_a   7.91481786
_cell_length_b   7.86126061
_cell_length_c   7.91334660
_cell_angle_alpha   90.00000000
_cell_angle_beta   90.00000000
_cell_angle_gamma   90.05149355
_symmetry_Int_Tables_number   1
_chemical_formula_structural   La6Sm2V5Cr3O24
_chemical_formula_sum   'La6 Sm2 V5 Cr3 O24'
_cell_volume   492.37175454
_cell_formula_units_Z   1
loop_
 _symmetry_equiv_pos_site_id
 _symmetry_equiv_pos_as_xyz
  1  'x, y, z'
loop_
 _atom_site_type_symbol
 _atom_site_label
 _atom_site_symmetry_multiplicity
 _atom_site_fract_x
 _atom_site_fract_y
 _atom_site_fract_z
 _atom_site_occupancy
  La  La0  1  0.24768440  0.25072930  0.24750147  1
  La  La1  1  0.24768440  0.25072930  0.75249853  1
  La  La2  1  0.24737194  0.74918351  0.24744729  1
  La  La3  1  0.24737194  0.74918351  0.75255271  1
  La  La4  1  0.75221791  0.74926474  0.24743750  1
  La  La5  1  0.75221791  0.74926474  0.75256250  1
  Sm  Sm6  1  0.75297336  0.25119112  0.24694169  1
  Sm  Sm7  1  0.75297336  0.25119112  0.75305831  1
  V  V8  1  0.99948107  0.00062949  0.00000000  1
  V  V9  1  0.99948025  0.00050881  0.50000000  1
  V  V10  1  0.50060075  0.00057873  0.00000000  1
  V  V11  1  0.50055189  0.00043273  0.50000000  1
  V  V12  1  0.50066930  0.49938801  0.50000000  1
  Cr  Cr13  1  0.99949012  0.49953808  0.00000000  1
  Cr  Cr14  1  0.99950808  0.49950662  0.50000000  1
  Cr  Cr15  1  0.50051204  0.49951400  0.00000000  1
  O  O16  1  0.24707453  0.99962770  0.00000000  1
  O  O17  1  0.24978994  0.00040210  0.50000000  1
  O  O18  1  0.25027679  0.49974350  0.00000000  1
  O  O19  1  0.24632955  0.50040909  0.50000000  1
  O  O20  1  0.75282187  0.00341711  0.00000000  1
  O  O21  1  0.75019980  0.00243465  0.50000000  1
  O  O22  1  0.74968655  0.49695533  0.00000000  1
  O  O23  1  0.75374022  0.49625018  0.50000000  1
  O  O24  1  0.99665654  0.25451130  0.00000000  1
  O  O25  1  0.99730061  0.25018745  0.50000000  1
  O  O26  1  0.00005102  0.74553640  0.00000000  1
  O  O27  1  0.99969264  0.74986178  0.50000000  1
  O  O28  1  0.50319996  0.25165938  0.00000000  1
  O  O29  1  0.50294134  0.24969588  0.50000000  1
  O  O30  1  0.49981622  0.74848861  0.00000000  1
  O  O31  1  0.49982010  0.75014262  0.50000000  1
  O  O32  1  0.99850626  0.00158869  0.24738889  1
  O  O33  1  0.99850626  0.00158869  0.75261111  1
  O  O34  1  0.99833763  0.49834897  0.24993589  1
  O  O35  1  0.99833763  0.49834897  0.75006411  1
  O  O36  1  0.50152593  0.00146421  0.24691524  1
  O  O37  1  0.50152593  0.00146421  0.75308476  1
  O  O38  1  0.50153696  0.49851967  0.24911223  1
  O  O39  1  0.50153696  0.49851967  0.75088777  1
