# generated using pymatgen
data_Li2Cr(PO3)8
_symmetry_space_group_name_H-M   'P 1'
_cell_length_a   7.22469370
_cell_length_b   7.36072195
_cell_length_c   9.97522527
_cell_angle_alpha   69.80456678
_cell_angle_beta   81.54053903
_cell_angle_gamma   109.95885240
_symmetry_Int_Tables_number   1
_chemical_formula_structural   Li2Cr(PO3)8
_chemical_formula_sum   'Li2 Cr1 P8 O24'
_cell_volume   446.35127334
_cell_formula_units_Z   1
loop_
 _symmetry_equiv_pos_site_id
 _symmetry_equiv_pos_as_xyz
  1  'x, y, z'
loop_
 _atom_site_type_symbol
 _atom_site_label
 _atom_site_symmetry_multiplicity
 _atom_site_fract_x
 _atom_site_fract_y
 _atom_site_fract_z
 _atom_site_occupancy
  Cr  Cr0  1  0.94599001  0.20084063  0.25453852  1
  Li  Li1  1  0.05737049  0.80457694  0.75076353  1
  Li  Li2  1  0.47944749  0.99110199  0.51568453  1
  O  O3  1  0.14743951  0.48891378  0.10393530  1
  O  O4  1  0.26460201  0.80745255  0.16173965  1
  O  O5  1  0.20573757  0.85837439  0.90405612  1
  O  O6  1  0.08891472  0.25108589  0.39997308  1
  O  O7  1  0.36454369  0.96557739  0.33927338  1
  O  O8  1  0.11379770  0.05603562  0.20263745  1
  O  O9  1  0.27293109  0.69352094  0.66862140  1
  O  O10  1  0.22482692  0.44272190  0.54630947  1
  O  O11  1  0.18915565  0.30340663  0.82844096  1
  O  O12  1  0.29355083  0.11443925  0.57312790  1
  O  O13  1  0.47351008  0.46043442  0.33306126  1
  O  O14  1  0.50337572  0.77602398  0.96970922  1
  O  O15  1  0.48432476  0.20805741  0.05723609  1
  O  O16  1  0.53849978  0.54428034  0.63588380  1
  O  O17  1  0.73291830  0.91194469  0.41636514  1
  O  O18  1  0.82407951  0.69307026  0.14345011  1
  O  O19  1  0.79175652  0.58423069  0.42008264  1
  O  O20  1  0.74043145  0.30637697  0.32359804  1
  O  O21  1  0.87558720  0.94645764  0.80321655  1
  O  O22  1  0.61347696  0.01917753  0.68467913  1
  O  O23  1  0.80257489  0.15176052  0.10699784  1
  O  O24  1  0.91944025  0.74751369  0.59010389  1
  O  O25  1  0.71221598  0.17508113  0.86510849  1
  O  O26  1  0.83788032  0.50591585  0.90795950  1
  P  P27  1  0.26219614  0.72874825  0.02885900  1
  P  P28  1  0.26132849  0.29339531  0.46881895  1
  P  P29  1  0.29570758  0.49428883  0.67966975  1
  P  P30  1  0.30257976  0.00955459  0.19934328  1
  P  P31  1  0.67987033  0.97687176  0.82413304  1
  P  P32  1  0.71527928  0.51257408  0.29549201  1
  P  P33  1  0.75627313  0.71360408  0.51524254  1
  P  P34  1  0.72548390  0.26957706  0.98698341  1
