# generated using pymatgen
data_Zr2Nb3Ge4
_symmetry_space_group_name_H-M   'P 1'
_cell_length_a   6.87491650
_cell_length_b   6.98467269
_cell_length_c   13.53529697
_cell_angle_alpha   90.00000000
_cell_angle_beta   90.00000000
_cell_angle_gamma   90.00000000
_symmetry_Int_Tables_number   1
_chemical_formula_structural   Zr2Nb3Ge4
_chemical_formula_sum   'Zr8 Nb12 Ge16'
_cell_volume   649.95198724
_cell_formula_units_Z   4
loop_
 _symmetry_equiv_pos_site_id
 _symmetry_equiv_pos_as_xyz
  1  'x, y, z'
loop_
 _atom_site_type_symbol
 _atom_site_label
 _atom_site_symmetry_multiplicity
 _atom_site_fract_x
 _atom_site_fract_y
 _atom_site_fract_z
 _atom_site_occupancy
  Nb  Nb0  1  0.02009246  0.17846068  0.90939440  1
  Nb  Nb1  1  0.52009246  0.32153932  0.59060560  1
  Nb  Nb2  1  0.47990754  0.67846068  0.09060560  1
  Nb  Nb3  1  0.97990754  0.82153932  0.40939440  1
  Nb  Nb4  1  0.97990754  0.82153932  0.09060560  1
  Nb  Nb5  1  0.47990754  0.67846068  0.40939440  1
  Nb  Nb6  1  0.52009246  0.32153932  0.90939440  1
  Nb  Nb7  1  0.02009246  0.17846068  0.59060560  1
  Nb  Nb8  1  0.67438835  0.99618677  0.75000000  1
  Nb  Nb9  1  0.17438835  0.50381323  0.75000000  1
  Nb  Nb10  1  0.82561165  0.49618677  0.25000000  1
  Nb  Nb11  1  0.32561165  0.00381323  0.25000000  1
  Zr  Zr12  1  0.84818955  0.66606410  0.87623590  1
  Zr  Zr13  1  0.34818955  0.83393590  0.62376410  1
  Zr  Zr14  1  0.65181045  0.16606410  0.12376410  1
  Zr  Zr15  1  0.15181045  0.33393590  0.37623590  1
  Zr  Zr16  1  0.15181045  0.33393590  0.12376410  1
  Zr  Zr17  1  0.65181045  0.16606410  0.37623590  1
  Zr  Zr18  1  0.34818955  0.83393590  0.87623590  1
  Zr  Zr19  1  0.84818955  0.66606410  0.62376410  1
  Ge  Ge20  1  0.81933692  0.34113432  0.75000000  1
  Ge  Ge21  1  0.31933692  0.15886568  0.75000000  1
  Ge  Ge22  1  0.68066308  0.84113432  0.25000000  1
  Ge  Ge23  1  0.18066308  0.65886568  0.25000000  1
  Ge  Ge24  1  0.04444909  0.90278492  0.75000000  1
  Ge  Ge25  1  0.54444909  0.59721508  0.75000000  1
  Ge  Ge26  1  0.45555091  0.40278492  0.25000000  1
  Ge  Ge27  1  0.95555091  0.09721508  0.25000000  1
  Ge  Ge28  1  0.80367709  0.47354323  0.04245573  1
  Ge  Ge29  1  0.30367709  0.02645677  0.45754427  1
  Ge  Ge30  1  0.69632291  0.97354323  0.95754427  1
  Ge  Ge31  1  0.19632291  0.52645677  0.54245573  1
  Ge  Ge32  1  0.19632291  0.52645677  0.95754427  1
  Ge  Ge33  1  0.69632291  0.97354323  0.54245573  1
  Ge  Ge34  1  0.30367709  0.02645677  0.04245573  1
  Ge  Ge35  1  0.80367709  0.47354323  0.45754427  1
