# generated using pymatgen
data_H12C3NF3
_symmetry_space_group_name_H-M   'P 1'
_cell_length_a   6.44154857
_cell_length_b   9.90013527
_cell_length_c   10.60756754
_cell_angle_alpha   90.00000000
_cell_angle_beta   90.00000000
_cell_angle_gamma   90.00000000
_symmetry_Int_Tables_number   1
_chemical_formula_structural   H12C3NF3
_chemical_formula_sum   'H48 C12 N4 F12'
_cell_volume   676.46794192
_cell_formula_units_Z   4
loop_
 _symmetry_equiv_pos_site_id
 _symmetry_equiv_pos_as_xyz
  1  'x, y, z'
loop_
 _atom_site_type_symbol
 _atom_site_label
 _atom_site_symmetry_multiplicity
 _atom_site_fract_x
 _atom_site_fract_y
 _atom_site_fract_z
 _atom_site_occupancy
  H  H0  1  0.44759122  0.37408739  0.90137705  1
  H  H1  1  0.84080465  0.14072617  0.75550032  1
  H  H2  1  0.67576977  0.62506306  0.63489960  1
  H  H3  1  0.62483334  0.75000000  0.91044258  1
  H  H4  1  0.84080465  0.35927383  0.75550032  1
  H  H5  1  0.26850562  0.46254609  0.00213378  1
  H  H6  1  0.05240878  0.37408739  0.40137705  1
  H  H7  1  0.15919535  0.64072617  0.24449968  1
  H  H8  1  0.76850562  0.53745391  0.49786622  1
  H  H9  1  0.15919535  0.85927383  0.24449968  1
  H  H10  1  0.73149438  0.96254609  0.99786622  1
  H  H11  1  0.67576977  0.87493694  0.63489960  1
  H  H12  1  0.03920630  0.15891124  0.13918183  1
  H  H13  1  0.34080465  0.64072617  0.74449968  1
  H  H14  1  0.03920630  0.34108876  0.13918183  1
  H  H15  1  0.56711923  0.25000000  0.50787631  1
  H  H16  1  0.34080465  0.85927383  0.74449968  1
  H  H17  1  0.17576977  0.37493694  0.86510040  1
  H  H18  1  0.32423023  0.37493694  0.36510040  1
  H  H19  1  0.87516666  0.75000000  0.41044258  1
  H  H20  1  0.26850562  0.03745391  0.00213378  1
  H  H21  1  0.43288077  0.75000000  0.49212369  1
  H  H22  1  0.96079370  0.65891124  0.86081817  1
  H  H23  1  0.37516666  0.25000000  0.08955742  1
  H  H24  1  0.23149438  0.03745391  0.50213378  1
  H  H25  1  0.93288077  0.25000000  0.00787631  1
  H  H26  1  0.17576977  0.12506306  0.86510040  1
  H  H27  1  0.44759122  0.12591261  0.90137705  1
  H  H28  1  0.53920630  0.65891124  0.36081817  1
  H  H29  1  0.73149438  0.53745391  0.99786622  1
  H  H30  1  0.65919535  0.35927383  0.25550032  1
  H  H31  1  0.55240878  0.87408739  0.09862295  1
  H  H32  1  0.05240878  0.12591261  0.40137705  1
  H  H33  1  0.06711923  0.75000000  0.99212369  1
  H  H34  1  0.32423023  0.12506306  0.36510040  1
  H  H35  1  0.65919535  0.14072617  0.25550032  1
  H  H36  1  0.23149438  0.46254609  0.50213378  1
  H  H37  1  0.94759122  0.87408739  0.59862295  1
  H  H38  1  0.76850562  0.96254609  0.49786622  1
  H  H39  1  0.82423023  0.62506306  0.13489960  1
  H  H40  1  0.12483334  0.25000000  0.58955742  1
  H  H41  1  0.82423023  0.87493694  0.13489960  1
  H  H42  1  0.96079370  0.84108876  0.86081817  1
  H  H43  1  0.46079370  0.34108876  0.63918183  1
  H  H44  1  0.46079370  0.15891124  0.63918183  1
  H  H45  1  0.55240878  0.62591261  0.09862295  1
  H  H46  1  0.53920630  0.84108876  0.36081817  1
  H  H47  1  0.94759122  0.62591261  0.59862295  1
  C  C48  1  0.29061850  0.12551628  0.94116267  1
  C  C49  1  0.20938150  0.37448372  0.44116267  1
  C  C50  1  0.05282785  0.25000000  0.08117570  1
  C  C51  1  0.70938150  0.62551628  0.05883733  1
  C  C52  1  0.20938150  0.12551628  0.44116267  1
  C  C53  1  0.29061850  0.37448372  0.94116267  1
  C  C54  1  0.70938150  0.87448372  0.05883733  1
  C  C55  1  0.55282785  0.75000000  0.41882430  1
  C  C56  1  0.94717215  0.75000000  0.91882430  1
  C  C57  1  0.79061850  0.62551628  0.55883733  1
  C  C58  1  0.44717215  0.25000000  0.58117570  1
  C  C59  1  0.79061850  0.87448372  0.55883733  1
  N  N60  1  0.23932668  0.25000000  0.51870873  1
  N  N61  1  0.76067332  0.75000000  0.48129127  1
  N  N62  1  0.26067332  0.25000000  0.01870873  1
  N  N63  1  0.73932668  0.75000000  0.98129127  1
  F  F64  1  0.77143909  0.06531479  0.80365637  1
  F  F65  1  0.77143909  0.43468521  0.80365637  1
  F  F66  1  0.06835774  0.75000000  0.30481549  1
  F  F67  1  0.22856091  0.93468521  0.19634363  1
  F  F68  1  0.27143909  0.93468521  0.69634363  1
  F  F69  1  0.56835774  0.25000000  0.19518451  1
  F  F70  1  0.72856091  0.06531479  0.30365637  1
  F  F71  1  0.93164226  0.25000000  0.69518451  1
  F  F72  1  0.27143909  0.56531479  0.69634363  1
  F  F73  1  0.43164226  0.75000000  0.80481549  1
  F  F74  1  0.22856091  0.56531479  0.19634363  1
  F  F75  1  0.72856091  0.43468521  0.30365637  1
