# generated using pymatgen
data_Tl3(FeS2)2
_symmetry_space_group_name_H-M   'P 1'
_cell_length_a   7.48230117
_cell_length_b   10.64281473
_cell_length_c   11.30913675
_cell_angle_alpha   90.00000000
_cell_angle_beta   90.00000000
_cell_angle_gamma   90.00000000
_symmetry_Int_Tables_number   1
_chemical_formula_structural   Tl3(FeS2)2
_chemical_formula_sum   'Tl12 Fe8 S16'
_cell_volume   900.57760419
_cell_formula_units_Z   4
loop_
 _symmetry_equiv_pos_site_id
 _symmetry_equiv_pos_as_xyz
  1  'x, y, z'
loop_
 _atom_site_type_symbol
 _atom_site_label
 _atom_site_symmetry_multiplicity
 _atom_site_fract_x
 _atom_site_fract_y
 _atom_site_fract_z
 _atom_site_occupancy
  Tl  Tl0  1  0.45194005  0.07705615  0.63732247  1
  Tl  Tl1  1  0.45194005  0.42294385  0.63732247  1
  Tl  Tl2  1  0.91059358  0.25000000  0.22511170  1
  Tl  Tl3  1  0.41059358  0.25000000  0.27488830  1
  Tl  Tl4  1  0.95194005  0.07705615  0.86267753  1
  Tl  Tl5  1  0.08940642  0.75000000  0.77488830  1
  Tl  Tl6  1  0.95194005  0.42294385  0.86267753  1
  Tl  Tl7  1  0.04805995  0.57705615  0.13732247  1
  Tl  Tl8  1  0.58940642  0.75000000  0.72511170  1
  Tl  Tl9  1  0.04805995  0.92294385  0.13732247  1
  Tl  Tl10  1  0.54805995  0.92294385  0.36267753  1
  Tl  Tl11  1  0.54805995  0.57705615  0.36267753  1
  Fe  Fe12  1  0.03356197  0.87275420  0.46733403  1
  Fe  Fe13  1  0.46643803  0.37275420  0.96733403  1
  Fe  Fe14  1  0.96643803  0.37275420  0.53266597  1
  Fe  Fe15  1  0.03356197  0.62724580  0.46733403  1
  Fe  Fe16  1  0.53356197  0.62724580  0.03266597  1
  Fe  Fe17  1  0.96643803  0.12724580  0.53266597  1
  Fe  Fe18  1  0.53356197  0.87275420  0.03266597  1
  Fe  Fe19  1  0.46643803  0.12724580  0.96733403  1
  S  S20  1  0.76567553  0.75000000  0.97349839  1
  S  S21  1  0.23432447  0.25000000  0.02650161  1
  S  S22  1  0.13462421  0.44877693  0.38292522  1
  S  S23  1  0.38435424  0.75000000  0.16609340  1
  S  S24  1  0.63462421  0.44877693  0.11707478  1
  S  S25  1  0.61564576  0.25000000  0.83390660  1
  S  S26  1  0.88435424  0.75000000  0.33390660  1
  S  S27  1  0.11564576  0.25000000  0.66609340  1
  S  S28  1  0.73432447  0.25000000  0.47349839  1
  S  S29  1  0.36537579  0.94877693  0.88292522  1
  S  S30  1  0.36537579  0.55122307  0.88292522  1
  S  S31  1  0.86537579  0.55122307  0.61707478  1
  S  S32  1  0.13462421  0.05122307  0.38292522  1
  S  S33  1  0.26567553  0.75000000  0.52650161  1
  S  S34  1  0.86537579  0.94877693  0.61707478  1
  S  S35  1  0.63462421  0.05122307  0.11707478  1
