# generated using pymatgen
data_Cr2P3O13
_symmetry_space_group_name_H-M   'P 1'
_cell_length_a   6.21715889
_cell_length_b   21.89924386
_cell_length_c   7.01821056
_cell_angle_alpha   90.00000000
_cell_angle_beta   80.02152328
_cell_angle_gamma   90.00000000
_symmetry_Int_Tables_number   1
_chemical_formula_structural   Cr2P3O13
_chemical_formula_sum   'Cr8 P12 O52'
_cell_volume   941.08244897
_cell_formula_units_Z   4
loop_
 _symmetry_equiv_pos_site_id
 _symmetry_equiv_pos_as_xyz
  1  'x, y, z'
loop_
 _atom_site_type_symbol
 _atom_site_label
 _atom_site_symmetry_multiplicity
 _atom_site_fract_x
 _atom_site_fract_y
 _atom_site_fract_z
 _atom_site_occupancy
  Cr  Cr0  1  0.21729441  0.20941040  0.03984696  1
  Cr  Cr1  1  0.22670246  0.93566067  0.21856866  1
  Cr  Cr2  1  0.27329754  0.43566067  0.28143134  1
  Cr  Cr3  1  0.28270559  0.70941040  0.46015304  1
  Cr  Cr4  1  0.71729441  0.29058960  0.53984696  1
  Cr  Cr5  1  0.72670246  0.56433933  0.71856866  1
  Cr  Cr6  1  0.77329754  0.06433933  0.78143134  1
  Cr  Cr7  1  0.78270559  0.79058960  0.96015304  1
  O  O8  1  0.01305938  0.31057466  0.55935148  1
  O  O9  1  0.01339144  0.56662950  0.78474433  1
  O  O10  1  0.12732152  0.12286864  0.17369288  1
  O  O11  1  0.11221126  0.92598815  0.53071865  1
  O  O12  1  0.08249946  0.05858096  0.78457118  1
  O  O13  1  0.22907922  0.61438084  0.01608550  1
  O  O14  1  0.18816995  0.23762433  0.30263121  1
  O  O15  1  0.21085072  0.84864077  0.23163043  1
  O  O16  1  0.22555056  0.02029470  0.29371172  1
  O  O17  1  0.09653142  0.78745804  0.95850891  1
  O  O18  1  0.20228566  0.44297346  0.50801371  1
  O  O19  1  0.27444944  0.52029470  0.20628828  1
  O  O20  1  0.28914928  0.34864077  0.26836957  1
  O  O21  1  0.31183005  0.73762433  0.19736879  1
  O  O22  1  0.23934492  0.77496399  0.55534810  1
  O  O23  1  0.27092078  0.11438084  0.48391450  1
  O  O24  1  0.23968547  0.66436802  0.70066165  1
  O  O25  1  0.26031453  0.16436802  0.79933835  1
  O  O26  1  0.37267848  0.62286864  0.32630712  1
  O  O27  1  0.26065508  0.27496399  0.94465190  1
  O  O28  1  0.29771434  0.94297346  0.99198629  1
  O  O29  1  0.40346858  0.28745804  0.54149109  1
  O  O30  1  0.51305938  0.18942534  0.05935148  1
  O  O31  1  0.41750054  0.55858096  0.71542882  1
  O  O32  1  0.51339144  0.93337050  0.28474433  1
  O  O33  1  0.38778874  0.42598815  0.96928135  1
  O  O34  1  0.61221126  0.57401185  0.03071865  1
  O  O35  1  0.48660856  0.06662950  0.71525567  1
  O  O36  1  0.58249946  0.44141904  0.28457118  1
  O  O37  1  0.48694062  0.81057466  0.94064852  1
  O  O38  1  0.59653142  0.71254196  0.45850891  1
  O  O39  1  0.70228566  0.05702654  0.00801371  1
  O  O40  1  0.73934492  0.72503601  0.05534810  1
  O  O41  1  0.62732152  0.37713136  0.67369288  1
  O  O42  1  0.73968547  0.83563198  0.20066165  1
  O  O43  1  0.76031453  0.33563198  0.29933835  1
  O  O44  1  0.72907922  0.88561916  0.51608550  1
  O  O45  1  0.76065508  0.22503601  0.44465190  1
  O  O46  1  0.68816995  0.26237567  0.80263121  1
  O  O47  1  0.71085072  0.65135923  0.73163043  1
  O  O48  1  0.72555056  0.47970530  0.79371172  1
  O  O49  1  0.79771434  0.55702654  0.49198629  1
  O  O50  1  0.90346858  0.21254196  0.04149109  1
  O  O51  1  0.77444944  0.97970530  0.70628828  1
  O  O52  1  0.78914928  0.15135923  0.76836957  1
  O  O53  1  0.81183005  0.76237567  0.69736879  1
  O  O54  1  0.77092078  0.38561916  0.98391450  1
  O  O55  1  0.91750054  0.94141904  0.21542882  1
  O  O56  1  0.88778874  0.07401185  0.46928135  1
  O  O57  1  0.87267848  0.87713136  0.82630712  1
  O  O58  1  0.98660856  0.43337050  0.21525567  1
  O  O59  1  0.98694062  0.68942534  0.44064852  1
  P  P60  1  0.11568526  0.08223072  0.34928158  1
  P  P61  1  0.27377406  0.79603231  0.08381558  1
  P  P62  1  0.22622594  0.29603231  0.41618442  1
  P  P63  1  0.22447590  0.60076502  0.79276532  1
  P  P64  1  0.27552410  0.10076502  0.70723468  1
  P  P65  1  0.38431474  0.58223072  0.15071842  1
  P  P66  1  0.61568526  0.41776928  0.84928158  1
  P  P67  1  0.72447590  0.89923498  0.29276532  1
  P  P68  1  0.77552410  0.39923398  0.20723468  1
  P  P69  1  0.77377406  0.70396769  0.58381558  1
  P  P70  1  0.72622594  0.20396769  0.91618442  1
  P  P71  1  0.88431474  0.91776928  0.65071842  1
