# generated using pymatgen
data_As2Se2S(NF6)2
_symmetry_space_group_name_H-M   'P 1'
_cell_length_a   7.79320827
_cell_length_b   7.79320884
_cell_length_c   10.94276936
_cell_angle_alpha   87.08508036
_cell_angle_beta   87.08508015
_cell_angle_gamma   68.74913733
_symmetry_Int_Tables_number   1
_chemical_formula_structural   As2Se2S(NF6)2
_chemical_formula_sum   'As4 Se4 S2 N4 F24'
_cell_volume   618.23130125
_cell_formula_units_Z   2
loop_
 _symmetry_equiv_pos_site_id
 _symmetry_equiv_pos_as_xyz
  1  'x, y, z'
loop_
 _atom_site_type_symbol
 _atom_site_label
 _atom_site_symmetry_multiplicity
 _atom_site_fract_x
 _atom_site_fract_y
 _atom_site_fract_z
 _atom_site_occupancy
  Se  Se0  1  0.84539436  0.56821072  0.85735789  1
  Se  Se1  1  0.43178928  0.15460564  0.14264211  1
  Se  Se2  1  0.86195765  0.57590514  0.63866260  1
  Se  Se3  1  0.42409486  0.13804235  0.36133740  1
  N  N4  1  0.61562806  0.71523702  0.86342110  1
  N  N5  1  0.28476298  0.38437194  0.13657890  1
  N  N6  1  0.63365332  0.72379800  0.62706836  1
  N  N7  1  0.27620200  0.36634668  0.37293164  1
  S  S8  1  0.50190473  0.79502149  0.74381043  1
  S  S9  1  0.20497851  0.49809527  0.25618957  1
  As  As10  1  0.38399153  0.34399253  0.74786061  1
  As  As11  1  0.65600747  0.61600847  0.25213939  1
  F  F12  1  0.44727001  0.16562040  0.86309753  1
  F  F13  1  0.83437960  0.55272999  0.13690247  1
  F  F14  1  0.31217817  0.51993334  0.63298684  1
  F  F15  1  0.48006666  0.68782183  0.36701316  1
  F  F16  1  0.60481771  0.35804000  0.74363496  1
  F  F17  1  0.64196000  0.39518229  0.25636504  1
  F  F18  1  0.45257897  0.17425398  0.63492520  1
  F  F19  1  0.82574602  0.54742103  0.36507480  1
  F  F20  1  0.15471928  0.33420571  0.75120291  1
  F  F21  1  0.66579429  0.84528072  0.24879709  1
  F  F22  1  0.30642562  0.50949868  0.86236583  1
  F  F23  1  0.49050132  0.69357438  0.13763417  1
  As  As24  1  0.00212720  0.99787280  0.50000000  1
  F  F25  1  0.22577335  0.94000614  0.55725592  1
  F  F26  1  0.05999386  0.77422665  0.44274408  1
  F  F27  1  0.93903581  0.22155295  0.55938262  1
  F  F28  1  0.77844705  0.06096419  0.44061738  1
  F  F29  1  0.92476994  0.91758131  0.63984360  1
  F  F30  1  0.08241869  0.07523006  0.36015640  1
  As  As31  1  0.99506318  0.00493682  0.00000000  1
  F  F32  1  0.18981320  0.92064906  0.90095373  1
  F  F33  1  0.07935094  0.81018680  0.09904627  1
  F  F34  1  0.87669458  0.89230598  0.91706618  1
  F  F35  1  0.10769402  0.12330542  0.08293382  1
  F  F36  1  0.90387090  0.20443515  0.90179642  1
  F  F37  1  0.79556485  0.09612910  0.09820358  1
