# generated using pymatgen
data_Sr2FeWO6
_symmetry_space_group_name_H-M   'P 1'
_cell_length_a   5.66895468
_cell_length_b   5.69260046
_cell_length_c   5.66765364
_cell_angle_alpha   119.96767291
_cell_angle_beta   119.92293240
_cell_angle_gamma   89.84522115
_symmetry_Int_Tables_number   1
_chemical_formula_structural   Sr2FeWO6
_chemical_formula_sum   'Sr2 Fe1 W1 O6'
_cell_volume   129.71710814
_cell_formula_units_Z   1
loop_
 _symmetry_equiv_pos_site_id
 _symmetry_equiv_pos_as_xyz
  1  'x, y, z'
loop_
 _atom_site_type_symbol
 _atom_site_label
 _atom_site_symmetry_multiplicity
 _atom_site_fract_x
 _atom_site_fract_y
 _atom_site_fract_z
 _atom_site_occupancy
  Sr  Sr0  1  0.75009035  0.25067107  0.50030499  1
  Sr  Sr1  1  0.24990965  0.74932793  0.49969601  1
  Fe  Fe2  1  0.50000100  0.50000100  0.00000100  1
  W  W3  1  0.00000000  0.00000000  0.00000000  1
  O  O4  1  0.24499681  0.24513349  0.48967236  1
  O  O5  1  0.75500319  0.75486551  0.51032664  1
  O  O6  1  0.74981187  0.75983992  0.99953928  1
  O  O7  1  0.25018813  0.24016008  0.00045972  1
  O  O8  1  0.76052028  0.25039541  0.00044779  1
  O  O9  1  0.23947972  0.74960459  0.99955121  1
