# generated using pymatgen
data_Co3C2(SeO5)2
_symmetry_space_group_name_H-M   'P 1'
_cell_length_a   5.70342849
_cell_length_b   5.70523762
_cell_length_c   7.82550984
_cell_angle_alpha   98.04844749
_cell_angle_beta   110.35034822
_cell_angle_gamma   108.97026188
_symmetry_Int_Tables_number   1
_chemical_formula_structural   Co3C2(SeO5)2
_chemical_formula_sum   'Co3 C2 Se2 O10'
_cell_volume   216.38630484
_cell_formula_units_Z   1
loop_
 _symmetry_equiv_pos_site_id
 _symmetry_equiv_pos_as_xyz
  1  'x, y, z'
loop_
 _atom_site_type_symbol
 _atom_site_label
 _atom_site_symmetry_multiplicity
 _atom_site_fract_x
 _atom_site_fract_y
 _atom_site_fract_z
 _atom_site_occupancy
  O  O0  1  0.82173173  0.69584387  0.51862703  1
  C  C1  1  0.10714909  0.45646484  0.56399940  1
  Se  Se2  1  0.58280737  0.15980018  0.74129008  1
  O  O3  1  0.18051016  0.94121360  0.12201212  1
  O  O4  1  0.35307171  0.11544621  0.84607619  1
  Co  Co5  1  0.98852475  0.19199756  0.18013307  1
  C  C6  1  0.89284875  0.54353753  0.43600102  1
  O  O7  1  0.17826457  0.30415726  0.48137199  1
  Co  Co8  1  0.01147290  0.80800293  0.81986574  1
  O  O9  1  0.81949031  0.05878582  0.87798520  1
  Co  Co10  1  0.50000552  0.49999816  0.00000361  1
  Se  Se11  1  0.41719170  0.84019944  0.25870842  1
  O  O12  1  0.26916002  0.50647533  0.15149611  1
  O  O13  1  0.80780967  0.45143753  0.25696114  1
  O  O14  1  0.73084092  0.49352404  0.84850401  1
  O  O15  1  0.19218988  0.54856343  0.74303975  1
  O  O16  1  0.64693096  0.88455228  0.15392511  1
