# generated using pymatgen
data_SiO2
_symmetry_space_group_name_H-M   'P 1'
_cell_length_a   9.95923679
_cell_length_b   15.80455013
_cell_length_c   15.80455013
_cell_angle_alpha   90.00000000
_cell_angle_beta   90.00000000
_cell_angle_gamma   90.00000000
_symmetry_Int_Tables_number   1
_chemical_formula_structural   SiO2
_chemical_formula_sum   'Si32 O64'
_cell_volume   2487.65605843
_cell_formula_units_Z   32
loop_
 _symmetry_equiv_pos_site_id
 _symmetry_equiv_pos_as_xyz
  1  'x, y, z'
loop_
 _atom_site_type_symbol
 _atom_site_label
 _atom_site_symmetry_multiplicity
 _atom_site_fract_x
 _atom_site_fract_y
 _atom_site_fract_z
 _atom_site_occupancy
  Si  Si0  1  0.64234904  0.08136239  0.70764202  1
  Si  Si1  1  0.15638558  0.07199206  0.57199206  1
  Si  Si2  1  0.84361442  0.57199206  0.92800794  1
  Si  Si3  1  0.15638558  0.42800794  0.07199206  1
  Si  Si4  1  0.64234904  0.91863761  0.29235798  1
  Si  Si5  1  0.64234904  0.58136239  0.79235798  1
  Si  Si6  1  0.35765096  0.08136239  0.70764202  1
  Si  Si7  1  0.35765096  0.58136239  0.79235798  1
  Si  Si8  1  0.50000000  0.13382958  0.04833073  1
  Si  Si9  1  0.50000000  0.86617042  0.95166927  1
  Si  Si10  1  0.64234904  0.70764202  0.91863761  1
  Si  Si11  1  0.35765096  0.91863761  0.29235798  1
  Si  Si12  1  0.84361442  0.07199206  0.57199206  1
  Si  Si13  1  0.35765096  0.41863761  0.20764202  1
  Si  Si14  1  0.35765096  0.29235798  0.08136239  1
  Si  Si15  1  0.50000000  0.36617042  0.54833073  1
  Si  Si16  1  0.35765096  0.20764202  0.58136239  1
  Si  Si17  1  0.15638558  0.57199206  0.92800794  1
  Si  Si18  1  0.50000000  0.04833073  0.86617042  1
  Si  Si19  1  0.35765096  0.79235798  0.41863761  1
  Si  Si20  1  0.50000000  0.45166927  0.36617042  1
  Si  Si21  1  0.64234904  0.41863761  0.20764202  1
  Si  Si22  1  0.50000000  0.95166927  0.13382958  1
  Si  Si23  1  0.64234904  0.20764202  0.58136239  1
  Si  Si24  1  0.64234904  0.29235798  0.08136239  1
  Si  Si25  1  0.35765096  0.70764202  0.91863761  1
  Si  Si26  1  0.15638558  0.92800794  0.42800794  1
  Si  Si27  1  0.84361442  0.42800794  0.07199206  1
  Si  Si28  1  0.50000000  0.63382958  0.45166927  1
  Si  Si29  1  0.84361442  0.92800794  0.42800794  1
  Si  Si30  1  0.64234904  0.79235798  0.41863761  1
  Si  Si31  1  0.50000000  0.54833073  0.63382958  1
  O  O32  1  0.50000000  0.82810485  0.45867000  1
  O  O33  1  0.36369708  0.43129118  0.31023246  1
  O  O34  1  0.63630292  0.06870882  0.81023246  1
  O  O35  1  0.50000000  0.45867000  0.17189515  1
  O  O36  1  0.16819191  0.50000000  0.00000000  1
  O  O37  1  0.63630292  0.56870882  0.68976754  1
  O  O38  1  0.50000000  0.54133000  0.82810485  1
  O  O39  1  0.77005866  0.65921059  0.96194917  1
  O  O40  1  0.83180809  0.50000000  0.00000000  1
  O  O41  1  0.22994134  0.53805083  0.84078941  1
  O  O42  1  0.64858822  0.31716510  0.18283490  1
  O  O43  1  0.22994134  0.46194917  0.15921059  1
  O  O44  1  0.36369708  0.81023246  0.93129118  1
  O  O45  1  0.22994134  0.65921059  0.96194917  1
  O  O46  1  0.35141178  0.18283490  0.68283490  1
  O  O47  1  0.35141178  0.81716510  0.31716510  1
  O  O48  1  0.22994134  0.84078941  0.46194917  1
  O  O49  1  0.50000000  0.55079022  0.39222973  1
  O  O50  1  0.50000000  0.44920978  0.60777027  1
  O  O51  1  0.36369708  0.68976754  0.43129118  1
  O  O52  1  0.35141178  0.31716510  0.18283490  1
  O  O53  1  0.22994134  0.15921059  0.53805083  1
  O  O54  1  0.16819191  0.00000000  0.50000000  1
  O  O55  1  0.36369708  0.31023246  0.56870882  1
  O  O56  1  0.22994134  0.34078941  0.03805083  1
  O  O57  1  0.77005866  0.53805083  0.84078941  1
  O  O58  1  0.50000000  0.94920978  0.89222973  1
  O  O59  1  0.77005866  0.46194917  0.15921059  1
  O  O60  1  0.77005866  0.15921059  0.53805083  1
  O  O61  1  0.50000000  0.39222973  0.44920978  1
  O  O62  1  0.22994134  0.96194917  0.34078941  1
  O  O63  1  0.22994134  0.03805083  0.65921059  1
  O  O64  1  0.64858822  0.68283490  0.81716510  1
  O  O65  1  0.50000000  0.05079022  0.10777027  1
  O  O66  1  0.77005866  0.96194917  0.34078941  1
  O  O67  1  0.36369708  0.06870882  0.81023246  1
  O  O68  1  0.50000000  0.89222973  0.05079022  1
  O  O69  1  0.83180809  0.00000000  0.50000000  1
  O  O70  1  0.63630292  0.18976754  0.06870882  1
  O  O71  1  0.77005866  0.84078941  0.46194917  1
  O  O72  1  0.00000000  0.90783073  0.40783073  1
  O  O73  1  0.00000000  0.09216927  0.59216927  1
  O  O74  1  0.63630292  0.93129118  0.18976754  1
  O  O75  1  0.63630292  0.31023246  0.56870882  1
  O  O76  1  0.00000000  0.59216927  0.90783073  1
  O  O77  1  0.63630292  0.81023246  0.93129118  1
  O  O78  1  0.63630292  0.68976754  0.43129118  1
  O  O79  1  0.64858822  0.18283490  0.68283490  1
  O  O80  1  0.63630292  0.43129118  0.31023246  1
  O  O81  1  0.36369708  0.18976754  0.06870882  1
  O  O82  1  0.77005866  0.03805083  0.65921059  1
  O  O83  1  0.36369708  0.93129118  0.18976754  1
  O  O84  1  0.50000000  0.32810485  0.04133000  1
  O  O85  1  0.77005866  0.34078941  0.03805083  1
  O  O86  1  0.50000000  0.95867000  0.32810485  1
  O  O87  1  0.00000000  0.40783073  0.09216927  1
  O  O88  1  0.64858822  0.81716510  0.31716510  1
  O  O89  1  0.50000000  0.10777027  0.94920978  1
  O  O90  1  0.50000000  0.04133000  0.67189515  1
  O  O91  1  0.36369708  0.56870882  0.68976754  1
  O  O92  1  0.50000000  0.17189515  0.54133000  1
  O  O93  1  0.35141178  0.68283490  0.81716510  1
  O  O94  1  0.50000000  0.60777027  0.55079022  1
  O  O95  1  0.50000000  0.67189515  0.95867000  1
