# generated using pymatgen
data_Sr2CoMoO6
_symmetry_space_group_name_H-M   'P 1'
_cell_length_a   5.68853664
_cell_length_b   5.68955123
_cell_length_c   5.48013469
_cell_angle_alpha   61.19816266
_cell_angle_beta   61.21790295
_cell_angle_gamma   57.58941484
_symmetry_Int_Tables_number   1
_chemical_formula_structural   Sr2CoMoO6
_chemical_formula_sum   'Sr2 Co1 Mo1 O6'
_cell_volume   125.09605089
_cell_formula_units_Z   1
loop_
 _symmetry_equiv_pos_site_id
 _symmetry_equiv_pos_as_xyz
  1  'x, y, z'
loop_
 _atom_site_type_symbol
 _atom_site_label
 _atom_site_symmetry_multiplicity
 _atom_site_fract_x
 _atom_site_fract_y
 _atom_site_fract_z
 _atom_site_occupancy
  Sr  Sr0  1  0.74991203  0.74997881  0.75005558  1
  Sr  Sr1  1  0.25008797  0.25002019  0.24994542  1
  Co  Co2  1  0.00000000  0.00000000  0.00000000  1
  Mo  Mo3  1  0.50000000  0.50000000  0.50000000  1
  O  O4  1  0.73433158  0.73433041  0.26566670  1
  O  O5  1  0.74979303  0.25021960  0.25017252  1
  O  O6  1  0.25020797  0.74978040  0.74982748  1
  O  O7  1  0.26566742  0.26567059  0.73433330  1
  O  O8  1  0.74990933  0.25008897  0.74992563  1
  O  O9  1  0.25009067  0.74991103  0.25007337  1
