# generated using pymatgen
data_Sb4OsC6(O3F11)2
_symmetry_space_group_name_H-M   'P 1'
_cell_length_a   9.97986408
_cell_length_b   10.76266776
_cell_length_c   12.77946213
_cell_angle_alpha   90.00000000
_cell_angle_beta   90.00000000
_cell_angle_gamma   110.82279639
_symmetry_Int_Tables_number   1
_chemical_formula_structural   Sb4OsC6(O3F11)2
_chemical_formula_sum   'Sb8 Os2 C12 O12 F44'
_cell_volume   1282.98651314
_cell_formula_units_Z   2
loop_
 _symmetry_equiv_pos_site_id
 _symmetry_equiv_pos_as_xyz
  1  'x, y, z'
loop_
 _atom_site_type_symbol
 _atom_site_label
 _atom_site_symmetry_multiplicity
 _atom_site_fract_x
 _atom_site_fract_y
 _atom_site_fract_z
 _atom_site_occupancy
  Sb  Sb0  1  0.98453038  0.22623873  0.63099608  1
  Sb  Sb1  1  0.01546962  0.77376127  0.36900392  1
  Sb  Sb2  1  0.40293129  0.00333253  0.70006365  1
  Sb  Sb3  1  0.90293129  0.50333253  0.79993635  1
  Sb  Sb4  1  0.51546962  0.27376127  0.13099608  1
  Sb  Sb5  1  0.48453038  0.72623873  0.86900392  1
  Sb  Sb6  1  0.59706871  0.99666747  0.29993635  1
  Sb  Sb7  1  0.09706871  0.49666747  0.20006365  1
  Os  Os8  1  0.00000000  0.00000000  0.00000000  1
  Os  Os9  1  0.50000000  0.50000000  0.50000000  1
  C  C10  1  0.35726616  0.32691532  0.44652487  1
  C  C11  1  0.52395119  0.57372582  0.35306274  1
  C  C12  1  0.34266088  0.57352440  0.52305720  1
  C  C13  1  0.85726616  0.82691532  0.05347513  1
  C  C14  1  0.65733912  0.42647560  0.47694280  1
  C  C15  1  0.14273384  0.17308468  0.94652487  1
  C  C16  1  0.84266088  0.07352440  0.97694280  1
  C  C17  1  0.47604881  0.42627418  0.64693726  1
  C  C18  1  0.15733912  0.92647560  0.02305720  1
  C  C19  1  0.02395119  0.07372582  0.14693726  1
  C  C20  1  0.64273384  0.67308468  0.55347513  1
  C  C21  1  0.97604881  0.92627418  0.85306274  1
  O  O22  1  0.27775472  0.22903890  0.41652291  1
  O  O23  1  0.53476630  0.61632522  0.27079591  1
  O  O24  1  0.22224528  0.27096110  0.91652291  1
  O  O25  1  0.74416374  0.38200344  0.46640944  1
  O  O26  1  0.72224528  0.77096110  0.58347709  1
  O  O27  1  0.77775472  0.72903890  0.08347709  1
  O  O28  1  0.96523370  0.88367478  0.77079591  1
  O  O29  1  0.75583626  0.11799656  0.96640944  1
  O  O30  1  0.25583626  0.61799656  0.53359056  1
  O  O31  1  0.03476630  0.11632522  0.22920409  1
  O  O32  1  0.24416374  0.88200344  0.03359056  1
  O  O33  1  0.46523370  0.38367478  0.72920409  1
  F  F34  1  0.07530660  0.61030281  0.73441829  1
  F  F35  1  0.02621118  0.32423623  0.50380018  1
  F  F36  1  0.20466551  0.87210187  0.41167500  1
  F  F37  1  0.16632370  0.34448597  0.68099375  1
  F  F38  1  0.39863546  0.86311841  0.81614172  1
  F  F39  1  0.52621118  0.82423623  0.99619982  1
  F  F40  1  0.55403447  0.34759608  0.26953463  1
  F  F41  1  0.06330578  0.09805513  0.58870894  1
  F  F42  1  0.66632370  0.84448597  0.81900625  1
  F  F43  1  0.50211783  0.91969392  0.61519795  1
  F  F44  1  0.70516037  0.94082801  0.19753723  1
  F  F45  1  0.44596553  0.65240392  0.73046537  1
  F  F46  1  0.83367630  0.65551403  0.31900625  1
  F  F47  1  0.10136454  0.63688159  0.31614172  1
  F  F48  1  0.56330578  0.59805513  0.91129106  1
  F  F49  1  0.43669422  0.40194487  0.08870894  1
  F  F50  1  0.72670918  0.37916711  0.84736489  1
  F  F51  1  0.97378882  0.67576377  0.49619982  1
  F  F52  1  0.89863546  0.36311841  0.68385828  1
  F  F53  1  0.29483963  0.05917199  0.80246277  1
  F  F54  1  0.90904587  0.64033435  0.89660308  1
  F  F55  1  0.79483963  0.55917199  0.69753723  1
  F  F56  1  0.42469340  0.88969719  0.23441829  1
  F  F57  1  0.59095413  0.85966565  0.39660308  1
  F  F58  1  0.49788217  0.08030608  0.38480205  1
  F  F59  1  0.70466551  0.37210187  0.08832500  1
  F  F60  1  0.27329082  0.62083289  0.15263511  1
  F  F61  1  0.47378882  0.17576377  0.00380018  1
  F  F62  1  0.92469340  0.38969719  0.26558171  1
  F  F63  1  0.99788217  0.58030608  0.11519795  1
  F  F64  1  0.00211783  0.41969392  0.88480205  1
  F  F65  1  0.09095413  0.35966565  0.10339692  1
  F  F66  1  0.20516037  0.44082801  0.30246277  1
  F  F67  1  0.60136454  0.13688159  0.18385828  1
  F  F68  1  0.29533449  0.62789813  0.91167500  1
  F  F69  1  0.57530660  0.11030281  0.76558171  1
  F  F70  1  0.05403447  0.84759608  0.23046537  1
  F  F71  1  0.94596553  0.15240392  0.76953463  1
  F  F72  1  0.77329082  0.12083289  0.34736489  1
  F  F73  1  0.93669422  0.90194487  0.41129106  1
  F  F74  1  0.33367630  0.15551403  0.18099375  1
  F  F75  1  0.22670918  0.87916711  0.65263511  1
  F  F76  1  0.79533449  0.12789813  0.58832500  1
  F  F77  1  0.40904587  0.14033435  0.60339692  1
