# generated using pymatgen
data_MgH6(CO3)2
_symmetry_space_group_name_H-M   'P 1'
_cell_length_a   7.55848952
_cell_length_b   8.53677308
_cell_length_c   8.75460787
_cell_angle_alpha   90.00000000
_cell_angle_beta   90.00000000
_cell_angle_gamma   90.00000000
_symmetry_Int_Tables_number   1
_chemical_formula_structural   MgH6(CO3)2
_chemical_formula_sum   'Mg4 H24 C8 O24'
_cell_volume   564.89203459
_cell_formula_units_Z   4
loop_
 _symmetry_equiv_pos_site_id
 _symmetry_equiv_pos_as_xyz
  1  'x, y, z'
loop_
 _atom_site_type_symbol
 _atom_site_label
 _atom_site_symmetry_multiplicity
 _atom_site_fract_x
 _atom_site_fract_y
 _atom_site_fract_z
 _atom_site_occupancy
  Mg  Mg0  1  0.50000000  0.50000000  0.00000000  1
  Mg  Mg1  1  0.00000000  0.50000000  0.50000000  1
  Mg  Mg2  1  0.00000000  0.00000000  0.00000000  1
  Mg  Mg3  1  0.50000000  0.00000000  0.50000000  1
  H  H4  1  0.83833433  0.48174006  0.88416116  1
  H  H5  1  0.93037602  0.31257379  0.17272327  1
  H  H6  1  0.16166567  0.01825994  0.38416116  1
  H  H7  1  0.15469505  0.88080843  0.50726007  1
  H  H8  1  0.56962398  0.81257379  0.82727673  1
  H  H9  1  0.06962398  0.68742621  0.82727673  1
  H  H10  1  0.43037602  0.68742621  0.32727673  1
  H  H11  1  0.93037602  0.81257379  0.32727673  1
  H  H12  1  0.34530495  0.38080843  0.49273993  1
  H  H13  1  0.66166567  0.98174006  0.11583884  1
  H  H14  1  0.84530495  0.11919157  0.49273993  1
  H  H15  1  0.33833433  0.01825994  0.88416116  1
  H  H16  1  0.15469505  0.38080843  0.99273993  1
  H  H17  1  0.66166567  0.48174006  0.38416116  1
  H  H18  1  0.06962398  0.18742621  0.67272327  1
  H  H19  1  0.56962398  0.31257379  0.67272327  1
  H  H20  1  0.65469505  0.61919157  0.50726007  1
  H  H21  1  0.84530495  0.61919157  0.00726007  1
  H  H22  1  0.34530495  0.88080843  0.00726007  1
  H  H23  1  0.16166567  0.51825994  0.11583884  1
  H  H24  1  0.43037602  0.18742621  0.17272327  1
  H  H25  1  0.83833433  0.98174006  0.61583884  1
  H  H26  1  0.65469505  0.11919157  0.99273993  1
  H  H27  1  0.33833433  0.51825994  0.61583884  1
  C  C28  1  0.51638560  0.73322790  0.73831277  1
  C  C29  1  0.48361440  0.76677210  0.23831277  1
  C  C30  1  0.48361440  0.26677210  0.26168723  1
  C  C31  1  0.01638560  0.76677210  0.73831277  1
  C  C32  1  0.01638560  0.26677210  0.76168723  1
  C  C33  1  0.98361440  0.23322790  0.26168723  1
  C  C34  1  0.98361440  0.73322790  0.23831277  1
  C  C35  1  0.51638560  0.23322790  0.76168723  1
  O  O36  1  0.04384769  0.60109421  0.27971737  1
  O  O37  1  0.77207831  0.53228464  0.96883534  1
  O  O38  1  0.72792169  0.03228464  0.03116466  1
  O  O39  1  0.97863511  0.27886498  0.40001957  1
  O  O40  1  0.54384769  0.89890579  0.27971737  1
  O  O41  1  0.27207831  0.96771536  0.96883534  1
  O  O42  1  0.22792169  0.96771536  0.46883534  1
  O  O43  1  0.45615231  0.10109421  0.72028263  1
  O  O44  1  0.04384769  0.10109421  0.22028263  1
  O  O45  1  0.27207831  0.46771536  0.53116466  1
  O  O46  1  0.02136489  0.72113502  0.59998043  1
  O  O47  1  0.54384769  0.39890579  0.22028263  1
  O  O48  1  0.52136489  0.77886498  0.59998043  1
  O  O49  1  0.02136489  0.22113502  0.90001957  1
  O  O50  1  0.95615231  0.89890579  0.77971737  1
  O  O51  1  0.95615231  0.39890579  0.72028263  1
  O  O52  1  0.52136489  0.27886498  0.90001957  1
  O  O53  1  0.72792169  0.53228464  0.46883534  1
  O  O54  1  0.45615231  0.60109421  0.77971737  1
  O  O55  1  0.22792169  0.46771536  0.03116466  1
  O  O56  1  0.97863511  0.77886498  0.09998043  1
  O  O57  1  0.47863511  0.22113502  0.40001957  1
  O  O58  1  0.47863511  0.72113502  0.09998043  1
  O  O59  1  0.77207831  0.03228464  0.53116466  1
