# generated using pymatgen
data_SbC2N(OF3)2
_symmetry_space_group_name_H-M   'P 1'
_cell_length_a   5.59679758
_cell_length_b   9.02008229
_cell_length_c   15.59140927
_cell_angle_alpha   101.04098482
_cell_angle_beta   90.00000000
_cell_angle_gamma   90.00000000
_symmetry_Int_Tables_number   1
_chemical_formula_structural   SbC2N(OF3)2
_chemical_formula_sum   'Sb4 C8 N4 O8 F24'
_cell_volume   772.54101639
_cell_formula_units_Z   4
loop_
 _symmetry_equiv_pos_site_id
 _symmetry_equiv_pos_as_xyz
  1  'x, y, z'
loop_
 _atom_site_type_symbol
 _atom_site_label
 _atom_site_symmetry_multiplicity
 _atom_site_fract_x
 _atom_site_fract_y
 _atom_site_fract_z
 _atom_site_occupancy
  Sb  Sb0  1  0.74113121  0.70520410  0.40159503  1
  Sb  Sb1  1  0.24113121  0.29479590  0.09840497  1
  Sb  Sb2  1  0.25886879  0.29479590  0.59840497  1
  Sb  Sb3  1  0.75886879  0.70520410  0.90159503  1
  C  C4  1  0.85053722  0.35631493  0.85766614  1
  C  C5  1  0.64946278  0.35631493  0.35766614  1
  C  C6  1  0.40654596  0.85119515  0.16855895  1
  C  C7  1  0.35053722  0.64368507  0.64233386  1
  C  C8  1  0.09345404  0.85119515  0.66855895  1
  C  C9  1  0.14946278  0.64368507  0.14233386  1
  C  C10  1  0.59345404  0.14880485  0.83144105  1
  C  C11  1  0.90654596  0.14880485  0.33144105  1
  N  N12  1  0.70796637  0.21036417  0.33940190  1
  N  N13  1  0.20796637  0.78963583  0.16059810  1
  N  N14  1  0.79203363  0.21036417  0.83940190  1
  N  N15  1  0.29203363  0.78963583  0.66059810  1
  O  O16  1  0.42210891  0.07510269  0.82039752  1
  O  O17  1  0.07789109  0.07510269  0.32039752  1
  O  O18  1  0.70758987  0.46376300  0.87496371  1
  O  O19  1  0.92210891  0.92489731  0.67960248  1
  O  O20  1  0.57789109  0.92489731  0.17960248  1
  O  O21  1  0.79241013  0.46376300  0.37496371  1
  O  O22  1  0.29241013  0.53623700  0.12503629  1
  O  O23  1  0.20758987  0.53623700  0.62503629  1
  F  F24  1  0.05369302  0.32365603  0.20267584  1
  F  F25  1  0.93335240  0.70244977  0.50205031  1
  F  F26  1  0.47793450  0.70438060  0.83283287  1
  F  F27  1  0.46624520  0.67407287  0.46801301  1
  F  F28  1  0.02206550  0.70438060  0.33283287  1
  F  F29  1  0.08278452  0.38036096  0.85583332  1
  F  F30  1  0.52206550  0.29561940  0.16716713  1
  F  F31  1  0.97793450  0.29561940  0.66716713  1
  F  F32  1  0.43335240  0.29755023  0.99794969  1
  F  F33  1  0.58278452  0.61963904  0.64416668  1
  F  F34  1  0.29073147  0.08153169  0.57751427  1
  F  F35  1  0.55369302  0.67634397  0.29732416  1
  F  F36  1  0.94630698  0.67634397  0.79732416  1
  F  F37  1  0.79073147  0.91846831  0.92248573  1
  F  F38  1  0.70926853  0.91846831  0.42248573  1
  F  F39  1  0.91721548  0.61963904  0.14416668  1
  F  F40  1  0.41721548  0.38036096  0.35583332  1
  F  F41  1  0.20926853  0.08153169  0.07751427  1
  F  F42  1  0.44630698  0.32365603  0.70267584  1
  F  F43  1  0.03375480  0.67407287  0.96801301  1
  F  F44  1  0.06664760  0.29755023  0.49794969  1
  F  F45  1  0.96624520  0.32592713  0.03198699  1
  F  F46  1  0.53375480  0.32592713  0.53198699  1
  F  F47  1  0.56664760  0.70244977  0.00205031  1
