# generated using pymatgen
data_MgH8C2S2(NO2)2
_symmetry_space_group_name_H-M   'P 1'
_cell_length_a   7.59296628
_cell_length_b   7.97918094
_cell_length_c   9.09245343
_cell_angle_alpha   90.00000000
_cell_angle_beta   90.00000000
_cell_angle_gamma   115.30937653
_symmetry_Int_Tables_number   1
_chemical_formula_structural   MgH8C2S2(NO2)2
_chemical_formula_sum   'Mg2 H16 C4 S4 N4 O8'
_cell_volume   497.99542534
_cell_formula_units_Z   2
loop_
 _symmetry_equiv_pos_site_id
 _symmetry_equiv_pos_as_xyz
  1  'x, y, z'
loop_
 _atom_site_type_symbol
 _atom_site_label
 _atom_site_symmetry_multiplicity
 _atom_site_fract_x
 _atom_site_fract_y
 _atom_site_fract_z
 _atom_site_occupancy
  Mg  Mg0  1  0.00000000  0.00000000  0.00000000  1
  Mg  Mg1  1  0.50000000  0.00000000  0.50000000  1
  H  H2  1  0.84456684  0.24616731  0.94243947  1
  H  H3  1  0.65543316  0.75383269  0.44243947  1
  H  H4  1  0.89250372  0.20852550  0.53752904  1
  H  H5  1  0.60749628  0.79147450  0.03752904  1
  H  H6  1  0.15543316  0.75383269  0.05756053  1
  H  H7  1  0.94512430  0.67477217  0.12053321  1
  H  H8  1  0.67997244  0.87590300  0.19418969  1
  H  H9  1  0.44512430  0.67477217  0.37946679  1
  H  H10  1  0.17997244  0.87590300  0.30581031  1
  H  H11  1  0.10749628  0.79147450  0.46247096  1
  H  H12  1  0.82002756  0.12409700  0.69418969  1
  H  H13  1  0.55487570  0.32522783  0.62053321  1
  H  H14  1  0.39250372  0.20852550  0.96247096  1
  H  H15  1  0.32002756  0.12409700  0.80581031  1
  H  H16  1  0.05487570  0.32522783  0.87946679  1
  H  H17  1  0.34456684  0.24616731  0.55756053  1
  C  C18  1  0.85922720  0.73096745  0.70920141  1
  C  C19  1  0.14077280  0.26903255  0.29079859  1
  C  C20  1  0.64077280  0.26903255  0.20920141  1
  C  C21  1  0.35922720  0.73096745  0.79079859  1
  S  S22  1  0.81083102  0.60350325  0.56056737  1
  S  S23  1  0.18916898  0.39649675  0.43943263  1
  S  S24  1  0.68916898  0.39649675  0.06056737  1
  S  S25  1  0.31083102  0.60350325  0.93943263  1
  N  N26  1  0.89719524  0.82354846  0.81611241  1
  N  N27  1  0.39719524  0.82354846  0.68388759  1
  N  N28  1  0.10280476  0.17645154  0.18388759  1
  N  N29  1  0.60280476  0.17645154  0.31611241  1
  O  O30  1  0.43411658  0.20822663  0.61379195  1
  O  O31  1  0.77960262  0.11524364  0.59037136  1
  O  O32  1  0.06588342  0.79177337  0.11379195  1
  O  O33  1  0.72039738  0.88475636  0.09037136  1
  O  O34  1  0.27960262  0.11524364  0.90962864  1
  O  O35  1  0.22039738  0.88475636  0.40962864  1
  O  O36  1  0.56588342  0.79177337  0.38620805  1
  O  O37  1  0.93411658  0.20822663  0.88620805  1
