# generated using pymatgen
data_La7SmCo6(AgO12)2
_symmetry_space_group_name_H-M   'P 1'
_cell_length_a   7.78697860
_cell_length_b   7.88537410
_cell_length_c   7.78697860
_cell_angle_alpha   89.98727891
_cell_angle_beta   89.92930707
_cell_angle_gamma   90.01272109
_symmetry_Int_Tables_number   1
_chemical_formula_structural   La7SmCo6(AgO12)2
_chemical_formula_sum   'La7 Sm1 Co6 Ag2 O24'
_cell_volume   478.14532321
_cell_formula_units_Z   1
loop_
 _symmetry_equiv_pos_site_id
 _symmetry_equiv_pos_as_xyz
  1  'x, y, z'
loop_
 _atom_site_type_symbol
 _atom_site_label
 _atom_site_symmetry_multiplicity
 _atom_site_fract_x
 _atom_site_fract_y
 _atom_site_fract_z
 _atom_site_occupancy
  La  La0  1  0.25034872  0.24409521  0.25032089  1
  La  La1  1  0.25021435  0.24262473  0.74978565  1
  La  La2  1  0.25031941  0.75733946  0.25034389  1
  La  La3  1  0.25015569  0.75649880  0.74984431  1
  La  La4  1  0.74967911  0.24409521  0.74965128  1
  La  La5  1  0.74980794  0.75757531  0.25019206  1
  La  La6  1  0.74965611  0.75733946  0.74968059  1
  Sm  Sm7  1  0.74981421  0.23927896  0.25018579  1
  Co  Co8  1  0.99943548  0.00094616  0.00056452  1
  Co  Co9  1  -0.00002532  0.00073119  0.50000745  1
  Co  Co10  1  0.99918028  0.49964465  0.00081972  1
  Co  Co11  1  0.49999255  0.00073119  0.00002532  1
  Co  Co12  1  0.50064729  0.00079983  0.49935271  1
  Co  Co13  1  0.50082573  0.49962794  0.49917427  1
  Ag  Ag14  1  0.00013209  0.50020095  0.50012677  1
  Ag  Ag15  1  0.49987323  0.50020095  0.99986791  1
  O  O16  1  0.25261435  0.00057360  0.00059545  1
  O  O17  1  0.24686299  0.00038354  0.50051492  1
  O  O18  1  0.23620575  0.49943027  0.00034407  1
  O  O19  1  0.26373721  0.49941374  0.49965104  1
  O  O20  1  0.74723198  0.00224175  0.00188811  1
  O  O21  1  0.75331493  0.00242113  0.49702221  1
  O  O22  1  0.76311587  0.49683866  0.00200226  1
  O  O23  1  0.73694209  0.49685144  0.49799089  1
  O  O24  1  0.99753450  0.25464369  0.00246550  1
  O  O25  1  0.99514855  0.23745909  0.49522241  1
  O  O26  1  0.99983810  0.74548157  0.00016190  1
  O  O27  1  0.99888991  0.76333081  0.49880325  1
  O  O28  1  0.50477759  0.23745909  0.00485145  1
  O  O29  1  0.50221883  0.25508173  0.49778117  1
  O  O30  1  0.50119675  0.76333081  0.00111009  1
  O  O31  1  0.50032263  0.74517492  0.49967737  1
  O  O32  1  0.99811189  0.00224175  0.25276802  1
  O  O33  1  0.99940455  0.00057360  0.74738565  1
  O  O34  1  0.99799774  0.49683866  0.23688413  1
  O  O35  1  0.99965593  0.49943027  0.76379425  1
  O  O36  1  0.50297779  0.00242113  0.24668507  1
  O  O37  1  0.49948508  0.00038354  0.75313701  1
  O  O38  1  0.50200911  0.49685144  0.26305791  1
  O  O39  1  0.50034896  0.49941374  0.73626279  1
