# generated using pymatgen
data_Ag2S
_symmetry_space_group_name_H-M   'P 1'
_cell_length_a   4.25678185
_cell_length_b   6.50614355
_cell_length_c   4.72456139
_cell_angle_alpha   90.00000000
_cell_angle_beta   76.94042282
_cell_angle_gamma   90.00000000
_symmetry_Int_Tables_number   1
_chemical_formula_structural   Ag2S
_chemical_formula_sum   'Ag4 S2'
_cell_volume   127.46353546
_cell_formula_units_Z   2
loop_
 _symmetry_equiv_pos_site_id
 _symmetry_equiv_pos_as_xyz
  1  'x, y, z'
loop_
 _atom_site_type_symbol
 _atom_site_label
 _atom_site_symmetry_multiplicity
 _atom_site_fract_x
 _atom_site_fract_y
 _atom_site_fract_z
 _atom_site_occupancy
  Ag  Ag0  1  0.47007897  0.50185749  0.52228204  1
  Ag  Ag1  1  0.85999817  0.36872619  0.92963867  1
  Ag  Ag2  1  0.14000183  0.86872619  0.07036133  1
  Ag  Ag3  1  0.52992103  1.00185749  0.47771796  1
  S  S4  1  0.28455284  0.25441632  0.21096235  1
  S  S5  1  0.71544716  0.75441632  0.78903765  1
