# generated using pymatgen
data_Yb4Mn2Sn5
_symmetry_space_group_name_H-M   'P 1'
_cell_length_a   4.62132028
_cell_length_b   7.69440726
_cell_length_c   8.67355109
_cell_angle_alpha   106.78960082
_cell_angle_beta   105.45033734
_cell_angle_gamma   90.00000289
_symmetry_Int_Tables_number   1
_chemical_formula_structural   Yb4Mn2Sn5
_chemical_formula_sum   'Yb4 Mn2 Sn5'
_cell_volume   283.60782861
_cell_formula_units_Z   1
loop_
 _symmetry_equiv_pos_site_id
 _symmetry_equiv_pos_as_xyz
  1  'x, y, z'
loop_
 _atom_site_type_symbol
 _atom_site_label
 _atom_site_symmetry_multiplicity
 _atom_site_fract_x
 _atom_site_fract_y
 _atom_site_fract_z
 _atom_site_occupancy
  Yb  Yb0  1  0.92050646  0.13679354  0.84101292  1
  Yb  Yb1  1  0.84973669  0.56242187  0.69947338  1
  Yb  Yb2  1  0.07949354  0.86320646  0.15898708  1
  Yb  Yb3  1  0.15026331  0.43757813  0.30052662  1
  Mn  Mn4  1  0.27600822  0.88863927  0.55201644  1
  Mn  Mn5  1  0.72399178  0.11136073  0.44798356  1
  Sn  Sn6  1  0.42924368  0.83864626  0.85848737  1
  Sn  Sn7  1  0.30406131  0.25589880  0.60812261  1
  Sn  Sn8  1  0.50000000  0.50000000  0.00000000  1
  Sn  Sn9  1  0.57075632  0.16135374  0.14151263  1
  Sn  Sn10  1  0.69593869  0.74410120  0.39187739  1
