# generated using pymatgen
data_Ag3N5O6
_symmetry_space_group_name_H-M   'P 1'
_cell_length_a   6.16659598
_cell_length_b   7.38748686
_cell_length_c   9.32769560
_cell_angle_alpha   90.00000000
_cell_angle_beta   90.00000000
_cell_angle_gamma   114.66850708
_symmetry_Int_Tables_number   1
_chemical_formula_structural   Ag3N5O6
_chemical_formula_sum   'Ag6 N10 O12'
_cell_volume   386.14919919
_cell_formula_units_Z   2
loop_
 _symmetry_equiv_pos_site_id
 _symmetry_equiv_pos_as_xyz
  1  'x, y, z'
loop_
 _atom_site_type_symbol
 _atom_site_label
 _atom_site_symmetry_multiplicity
 _atom_site_fract_x
 _atom_site_fract_y
 _atom_site_fract_z
 _atom_site_occupancy
  Ag  Ag0  1  0.57648971  0.00000000  0.95581916  1
  Ag  Ag1  1  0.04797315  0.27242848  0.39367558  1
  Ag  Ag2  1  0.42351029  0.00000000  0.45581916  1
  Ag  Ag3  1  0.95202685  0.72757152  0.89367558  1
  Ag  Ag4  1  0.77554467  0.72757152  0.39367558  1
  Ag  Ag5  1  0.22445533  0.27242848  0.89367558  1
  N  N6  1  0.18178304  0.00000000  0.16654019  1
  N  N7  1  0.83069095  0.39631992  0.12384183  1
  N  N8  1  0.16930905  0.60368008  0.62384183  1
  N  N9  1  0.81821696  0.00000000  0.66654019  1
  N  N10  1  0.85228285  0.00000000  0.79191675  1
  N  N11  1  0.78791188  0.00000000  0.54050422  1
  N  N12  1  0.21208812  0.00000000  0.04050422  1
  N  N13  1  0.56562897  0.39631992  0.62384183  1
  N  N14  1  0.14771715  0.00000000  0.29191675  1
  N  N15  1  0.43437103  0.60368008  0.12384183  1
  O  O16  1  0.77344605  0.39998661  0.99177861  1
  O  O17  1  0.21575505  0.77297830  0.68065897  1
  O  O18  1  0.62225997  0.55485001  0.69305985  1
  O  O19  1  0.44277675  0.22702170  0.68065897  1
  O  O20  1  0.22655395  0.60001339  0.49177861  1
  O  O21  1  0.55722325  0.77297830  0.18065897  1
  O  O22  1  0.37774003  0.44514999  0.19305985  1
  O  O23  1  0.37345944  0.60001339  0.99177861  1
  O  O24  1  0.93259003  0.55485001  0.19305985  1
  O  O25  1  0.78424495  0.22702170  0.18065897  1
  O  O26  1  0.62654056  0.39998661  0.49177861  1
  O  O27  1  0.06740997  0.44514999  0.69305985  1
