# generated using pymatgen
data_Ca2Cu2O5
_symmetry_space_group_name_H-M   'P 1'
_cell_length_a   5.37815221
_cell_length_b   5.49884434
_cell_length_c   8.40746621
_cell_angle_alpha   109.08809173
_cell_angle_beta   108.65347998
_cell_angle_gamma   90.00000000
_symmetry_Int_Tables_number   1
_chemical_formula_structural   Ca2Cu2O5
_chemical_formula_sum   'Ca4 Cu4 O10'
_cell_volume   221.10121721
_cell_formula_units_Z   2
loop_
 _symmetry_equiv_pos_site_id
 _symmetry_equiv_pos_as_xyz
  1  'x, y, z'
loop_
 _atom_site_type_symbol
 _atom_site_label
 _atom_site_symmetry_multiplicity
 _atom_site_fract_x
 _atom_site_fract_y
 _atom_site_fract_z
 _atom_site_occupancy
  Ca  Ca0  1  0.61090074  0.12305800  0.21331729  1
  Ca  Ca1  1  0.39758345  0.87694200  0.78668271  1
  Ca  Ca2  1  0.11090074  0.59025929  0.21331729  1
  Ca  Ca3  1  0.89758345  0.40974071  0.78668271  1
  Cu  Cu4  1  0.01055865  0.00000000  0.00000000  1
  Cu  Cu5  1  0.51055865  0.50000000  0.00000000  1
  Cu  Cu6  1  0.21492819  0.19622179  0.50000000  1
  Cu  Cu7  1  0.71492819  0.80377821  0.50000000  1
  O  O8  1  0.24763456  0.24253937  0.98027226  1
  O  O9  1  0.26736230  0.75746063  0.01972774  1
  O  O10  1  0.74763456  0.23773289  0.98027226  1
  O  O11  1  0.76736230  0.76226711  0.01972774  1
  O  O12  1  0.15789050  0.18581297  0.26832217  1
  O  O13  1  0.88956833  0.81418703  0.73167783  1
  O  O14  1  0.65789050  0.58250920  0.26832217  1
  O  O15  1  0.38956833  0.41749080  0.73167783  1
  O  O16  1  0.86757327  0.13237517  0.50000000  1
  O  O17  1  0.36757327  0.86762483  0.50000000  1
