# generated using pymatgen
data_CeSmI4
_symmetry_space_group_name_H-M   'P 1'
_cell_length_a   7.63020095
_cell_length_b   8.06815184
_cell_length_c   8.88060232
_cell_angle_alpha   112.78806055
_cell_angle_beta   110.70360163
_cell_angle_gamma   99.77957716
_symmetry_Int_Tables_number   1
_chemical_formula_structural   CeSmI4
_chemical_formula_sum   'Ce2 Sm2 I8'
_cell_volume   440.63978562
_cell_formula_units_Z   2
loop_
 _symmetry_equiv_pos_site_id
 _symmetry_equiv_pos_as_xyz
  1  'x, y, z'
loop_
 _atom_site_type_symbol
 _atom_site_label
 _atom_site_symmetry_multiplicity
 _atom_site_fract_x
 _atom_site_fract_y
 _atom_site_fract_z
 _atom_site_occupancy
  Ce  Ce0  1  0.24597989  0.49488073  0.99237779  1
  Ce  Ce1  1  0.75402011  0.50511927  0.00762221  1
  Sm  Sm2  1  0.11983777  0.86984726  0.73648967  1
  Sm  Sm3  1  0.88016223  0.13015274  0.26351033  1
  I  I4  1  0.12842357  0.87553701  0.12202619  1
  I  I5  1  0.49417020  0.24721513  0.12162113  1
  I  I6  1  0.28163676  0.18903972  0.63480626  1
  I  I7  1  0.14601038  0.55410937  0.36520388  1
  I  I8  1  0.85398962  0.44589063  0.63479612  1
  I  I9  1  0.50582980  0.75278487  0.87837887  1
  I  I10  1  0.71836324  0.81096028  0.36519374  1
  I  I11  1  0.87157643  0.12446299  0.87797381  1
