# generated using pymatgen
data_NiH20(C4N5)2
_symmetry_space_group_name_H-M   'P 1'
_cell_length_a   6.58165330
_cell_length_b   9.13508906
_cell_length_c   11.44278096
_cell_angle_alpha   90.00000000
_cell_angle_beta   98.35305493
_cell_angle_gamma   90.00000000
_symmetry_Int_Tables_number   1
_chemical_formula_structural   NiH20(C4N5)2
_chemical_formula_sum   'Ni2 H40 C16 N20'
_cell_volume   680.68727471
_cell_formula_units_Z   2
loop_
 _symmetry_equiv_pos_site_id
 _symmetry_equiv_pos_as_xyz
  1  'x, y, z'
loop_
 _atom_site_type_symbol
 _atom_site_label
 _atom_site_symmetry_multiplicity
 _atom_site_fract_x
 _atom_site_fract_y
 _atom_site_fract_z
 _atom_site_occupancy
  Ni  Ni0  1  0.50000000  0.50000000  0.50000000  1
  Ni  Ni1  1  0.50000000  0.00000000  0.00000000  1
  H  H2  1  0.36497605  0.46349627  0.86384459  1
  H  H3  1  0.36497605  0.03650373  0.36384459  1
  H  H4  1  0.60986148  0.42439271  0.30754667  1
  H  H5  1  0.07336083  0.60920502  0.69790731  1
  H  H6  1  0.79513100  0.15574239  0.96448072  1
  H  H7  1  0.52428445  0.18364750  0.40594419  1
  H  H8  1  0.63502395  0.53650373  0.13615541  1
  H  H9  1  0.15175315  0.20534202  0.77647300  1
  H  H10  1  0.16366468  0.40346214  0.04672266  1
  H  H11  1  0.10799583  0.47696641  0.22394823  1
  H  H12  1  0.79513100  0.34425761  0.46448072  1
  H  H13  1  0.63502395  0.96349627  0.63615541  1
  H  H14  1  0.04337741  0.83510532  0.55551171  1
  H  H15  1  0.13135949  0.21120500  0.02993299  1
  H  H16  1  0.89200417  0.97696641  0.27605177  1
  H  H17  1  0.39013852  0.92439271  0.19245333  1
  H  H18  1  0.47571555  0.68364750  0.09405581  1
  H  H19  1  0.39013852  0.57560729  0.69245333  1
  H  H20  1  0.89200417  0.52303359  0.77605177  1
  H  H21  1  0.86864051  0.71120500  0.47006701  1
  H  H22  1  0.84824685  0.79465798  0.22352700  1
  H  H23  1  0.20486900  0.84425761  0.03551928  1
  H  H24  1  0.83633532  0.90346214  0.45327734  1
  H  H25  1  0.84824685  0.70534202  0.72352700  1
  H  H26  1  0.92663917  0.39079498  0.30209269  1
  H  H27  1  0.20486900  0.65574239  0.53551928  1
  H  H28  1  0.10799583  0.02303359  0.72394823  1
  H  H29  1  0.07336083  0.89079498  0.19790731  1
  H  H30  1  0.15175315  0.29465798  0.27647300  1
  H  H31  1  0.86864051  0.78879500  0.97006701  1
  H  H32  1  0.13135949  0.28879500  0.52993299  1
  H  H33  1  0.95662259  0.16489468  0.44448829  1
  H  H34  1  0.04337741  0.66489468  0.05551171  1
  H  H35  1  0.95662259  0.33510532  0.94448829  1
  H  H36  1  0.16366468  0.09653786  0.54672266  1
  H  H37  1  0.83633532  0.59653786  0.95327734  1
  H  H38  1  0.52428445  0.31635250  0.90594419  1
  H  H39  1  0.92663917  0.10920502  0.80209269  1
  H  H40  1  0.47571555  0.81635250  0.59405581  1
  H  H41  1  0.60986148  0.07560729  0.80754667  1
  C  C42  1  0.04819640  0.18365680  0.53146599  1
  C  C43  1  0.46007944  0.89280593  0.76141464  1
  C  C44  1  0.96745766  0.62698266  0.76152442  1
  C  C45  1  0.03254234  0.12698266  0.73847558  1
  C  C46  1  0.53992056  0.39280593  0.73858536  1
  C  C47  1  0.46007944  0.60719407  0.26141464  1
  C  C48  1  0.76175839  0.22196320  0.12513731  1
  C  C49  1  0.96745766  0.87301734  0.26152442  1
  C  C50  1  0.95180360  0.81634320  0.46853401  1
  C  C51  1  0.76175839  0.27803680  0.62513731  1
  C  C52  1  0.04819640  0.31634320  0.03146599  1
  C  C53  1  0.53992056  0.10719407  0.23858536  1
  C  C54  1  0.23824161  0.72196320  0.37486269  1
  C  C55  1  0.23824161  0.77803680  0.87486269  1
  C  C56  1  0.95180360  0.68365680  0.96853401  1
  C  C57  1  0.03254234  0.37301734  0.23847558  1
  N  N58  1  0.53657844  0.51015718  0.34226215  1
  N  N59  1  0.67459877  0.28430142  0.72478674  1
  N  N60  1  0.49034322  0.40397586  0.85151143  1
  N  N61  1  0.53657844  0.98984282  0.84226215  1
  N  N62  1  0.29743404  0.85670910  0.97223852  1
  N  N63  1  0.29743404  0.64329090  0.47223852  1
  N  N64  1  0.50965678  0.59602414  0.14848857  1
  N  N65  1  0.07861721  0.67773019  0.87403689  1
  N  N66  1  0.49034322  0.09602414  0.35151143  1
  N  N67  1  0.46342156  0.01015718  0.15773785  1
  N  N68  1  0.70256596  0.14329090  0.02776148  1
  N  N69  1  0.70256596  0.35670910  0.52776148  1
  N  N70  1  0.32540123  0.71569858  0.27521326  1
  N  N71  1  0.67459877  0.21569858  0.22478674  1
  N  N72  1  0.07861721  0.82226981  0.37403689  1
  N  N73  1  0.46342156  0.48984282  0.65773785  1
  N  N74  1  0.32540123  0.78430142  0.77521326  1
  N  N75  1  0.92138279  0.17773019  0.62596311  1
  N  N76  1  0.50965678  0.90397586  0.64848857  1
  N  N77  1  0.92138279  0.32226981  0.12596311  1
