# generated using pymatgen
data_Li4Mo3O8
_symmetry_space_group_name_H-M   'P 1'
_cell_length_a   11.34249478
_cell_length_b   11.34249443
_cell_length_c   11.34249425
_cell_angle_alpha   29.78663588
_cell_angle_beta   29.78663875
_cell_angle_gamma   29.78663872
_symmetry_Int_Tables_number   1
_chemical_formula_structural   Li4Mo3O8
_chemical_formula_sum   'Li8 Mo6 O16'
_cell_volume   318.88135589
_cell_formula_units_Z   2
loop_
 _symmetry_equiv_pos_site_id
 _symmetry_equiv_pos_as_xyz
  1  'x, y, z'
loop_
 _atom_site_type_symbol
 _atom_site_label
 _atom_site_symmetry_multiplicity
 _atom_site_fract_x
 _atom_site_fract_y
 _atom_site_fract_z
 _atom_site_occupancy
  Li  Li0  1  0.24559752  0.24559752  0.24559752  1
  Li  Li1  1  0.17420263  0.17420263  0.17420263  1
  Li  Li2  1  0.82579737  0.82579737  0.82579737  1
  Li  Li3  1  0.68498502  0.68498502  0.68498502  1
  Li  Li4  1  0.75440248  0.75440248  0.75440248  1
  Li  Li5  1  0.00000000  0.00000000  0.00000000  1
  Li  Li6  1  0.50000000  0.50000000  0.50000000  1
  Li  Li7  1  0.31501498  0.31501498  0.31501498  1
  Mo  Mo8  1  0.26788596  0.71448395  0.26788596  1
  Mo  Mo9  1  0.73211404  0.73211404  0.28551605  1
  Mo  Mo10  1  0.71448395  0.26788596  0.26788596  1
  Mo  Mo11  1  0.73211404  0.28551605  0.73211404  1
  Mo  Mo12  1  0.28551605  0.73211404  0.73211404  1
  Mo  Mo13  1  0.26788596  0.26788596  0.71448395  1
  O  O14  1  0.11265643  0.62196970  0.11265643  1
  O  O15  1  0.61970986  0.61970986  0.12857102  1
  O  O16  1  0.37803030  0.88734357  0.88734357  1
  O  O17  1  0.11265643  0.11265643  0.62196970  1
  O  O18  1  0.88421669  0.88421669  0.88421669  1
  O  O19  1  0.38029014  0.38029014  0.87142898  1
  O  O20  1  0.61970986  0.12857102  0.61970986  1
  O  O21  1  0.87142898  0.38029014  0.38029014  1
  O  O22  1  0.62813066  0.62813066  0.62813066  1
  O  O23  1  0.11578331  0.11578331  0.11578331  1
  O  O24  1  0.88734357  0.88734357  0.37803030  1
  O  O25  1  0.38029014  0.87142898  0.38029014  1
  O  O26  1  0.88734357  0.37803030  0.88734357  1
  O  O27  1  0.62196970  0.11265643  0.11265643  1
  O  O28  1  0.37186934  0.37186934  0.37186934  1
  O  O29  1  0.12857102  0.61970986  0.61970986  1
