# generated using pymatgen
data_Na2TiSiO5
_symmetry_space_group_name_H-M   'P 1'
_cell_length_a   9.25448207
_cell_length_b   10.15382601
_cell_length_c   10.15382601
_cell_angle_alpha   90.00000000
_cell_angle_beta   90.00000000
_cell_angle_gamma   90.00000000
_symmetry_Int_Tables_number   1
_chemical_formula_structural   Na2TiSiO5
_chemical_formula_sum   'Na16 Ti8 Si8 O40'
_cell_volume   954.13879167
_cell_formula_units_Z   8
loop_
 _symmetry_equiv_pos_site_id
 _symmetry_equiv_pos_as_xyz
  1  'x, y, z'
loop_
 _atom_site_type_symbol
 _atom_site_label
 _atom_site_symmetry_multiplicity
 _atom_site_fract_x
 _atom_site_fract_y
 _atom_site_fract_z
 _atom_site_occupancy
  Na  Na0  1  0.50000000  0.75317615  0.49879499  1
  Na  Na1  1  0.75058174  0.75205296  0.23942499  1
  Na  Na2  1  0.00000000  0.99959342  0.24695000  1
  Na  Na3  1  0.50000000  0.75305000  0.99959342  1
  Na  Na4  1  0.24941826  0.75205296  0.23942499  1
  Na  Na5  1  0.25058174  0.76057501  0.75205296  1
  Na  Na6  1  0.00000000  0.49879499  0.24682385  1
  Na  Na7  1  0.00000000  0.00040658  0.75305000  1
  Na  Na8  1  0.24941826  0.24794704  0.76057501  1
  Na  Na9  1  0.74941826  0.76057501  0.75205296  1
  Na  Na10  1  0.50000000  0.24682385  0.50120501  1
  Na  Na11  1  0.75058174  0.24794704  0.76057501  1
  Na  Na12  1  0.74941826  0.23942499  0.24794704  1
  Na  Na13  1  0.50000000  0.24695000  0.00040658  1
  Na  Na14  1  0.00000000  0.50120501  0.75317615  1
  Na  Na15  1  0.25058174  0.23942499  0.24794704  1
  Ti  Ti16  1  0.00000000  0.24041847  0.53498654  1
  Ti  Ti17  1  0.00000000  0.75917433  0.96545425  1
  Ti  Ti18  1  0.00000000  0.75958153  0.46501346  1
  Ti  Ti19  1  0.00000000  0.24082567  0.03454575  1
  Ti  Ti20  1  0.50000000  0.46501346  0.24041847  1
  Ti  Ti21  1  0.50000000  0.96545425  0.24082567  1
  Ti  Ti22  1  0.50000000  0.53498654  0.75958153  1
  Ti  Ti23  1  0.50000000  0.03454575  0.75917433  1
  Si  Si24  1  0.75000000  0.00000000  0.00000000  1
  Si  Si25  1  0.25000000  0.00000000  0.00000000  1
  Si  Si26  1  0.24815999  0.00000000  0.50000000  1
  Si  Si27  1  0.75184001  0.00000000  0.50000000  1
  Si  Si28  1  0.25184001  0.50000000  0.00000000  1
  Si  Si29  1  0.25000000  0.50000000  0.50000000  1
  Si  Si30  1  0.75000000  0.50000000  0.50000000  1
  Si  Si31  1  0.74815999  0.50000000  0.00000000  1
  O  O32  1  0.35099286  0.04834602  0.62189029  1
  O  O33  1  0.14925339  0.12555849  0.95353099  1
  O  O34  1  0.35132901  0.44884161  0.37824090  1
  O  O35  1  0.85089062  0.12563018  0.45100703  1
  O  O36  1  0.64925339  0.04646901  0.12555849  1
  O  O37  1  0.35089062  0.54899297  0.12563018  1
  O  O38  1  0.14867099  0.62175910  0.44884161  1
  O  O39  1  0.85074661  0.12555849  0.95353099  1
  O  O40  1  0.35132901  0.55115839  0.62175910  1
  O  O41  1  0.64910938  0.45100703  0.87436982  1
  O  O42  1  0.14925339  0.87444151  0.04646901  1
  O  O43  1  0.85099286  0.37810971  0.04834602  1
  O  O44  1  0.00000000  0.20882440  0.20125847  1
  O  O45  1  0.64925339  0.95353099  0.87444151  1
  O  O46  1  0.14900714  0.62189029  0.95165398  1
  O  O47  1  0.14900714  0.37810971  0.04834602  1
  O  O48  1  0.00000000  0.20739198  0.70125991  1
  O  O49  1  0.50000000  0.20125847  0.79117560  1
  O  O50  1  0.85089062  0.87436982  0.54899297  1
  O  O51  1  0.85099286  0.62189029  0.95165398  1
  O  O52  1  0.14910938  0.87436982  0.54899297  1
  O  O53  1  0.35099286  0.95165398  0.37810971  1
  O  O54  1  0.00000000  0.79117560  0.79874153  1
  O  O55  1  0.64867099  0.55115839  0.62175910  1
  O  O56  1  0.50000000  0.70125991  0.79260802  1
  O  O57  1  0.85132901  0.37824090  0.55115839  1
  O  O58  1  0.14910938  0.12563018  0.45100703  1
  O  O59  1  0.14867099  0.37824090  0.55115839  1
  O  O60  1  0.35089062  0.45100703  0.87436982  1
  O  O61  1  0.35074661  0.04646901  0.12555849  1
  O  O62  1  0.64900714  0.95165398  0.37810971  1
  O  O63  1  0.64910938  0.54899297  0.12563018  1
  O  O64  1  0.64867099  0.44884161  0.37824090  1
  O  O65  1  0.35074661  0.95353099  0.87444151  1
  O  O66  1  0.64900714  0.04834602  0.62189029  1
  O  O67  1  0.00000000  0.79260802  0.29874009  1
  O  O68  1  0.85074661  0.87444151  0.04646901  1
  O  O69  1  0.50000000  0.29874009  0.20739198  1
  O  O70  1  0.50000000  0.79874153  0.20882440  1
  O  O71  1  0.85132901  0.62175910  0.44884161  1
