# generated using pymatgen
data_Co2GeO4
_symmetry_space_group_name_H-M   'P 1'
_cell_length_a   5.87150072
_cell_length_b   5.90036151
_cell_length_c   5.96110458
_cell_angle_alpha   59.32705872
_cell_angle_beta   59.80260009
_cell_angle_gamma   61.06136742
_symmetry_Int_Tables_number   1
_chemical_formula_structural   Co2GeO4
_chemical_formula_sum   'Co4 Ge2 O8'
_cell_volume   146.16792075
_cell_formula_units_Z   2
loop_
 _symmetry_equiv_pos_site_id
 _symmetry_equiv_pos_as_xyz
  1  'x, y, z'
loop_
 _atom_site_type_symbol
 _atom_site_label
 _atom_site_symmetry_multiplicity
 _atom_site_fract_x
 _atom_site_fract_y
 _atom_site_fract_z
 _atom_site_occupancy
  Co  Co0  1  0.49999913  1.00000358  0.49999947  1
  Co  Co1  1  1.00000316  0.49999737  0.49999871  1
  Co  Co2  1  0.49999647  0.49999965  0.50000447  1
  Co  Co3  1  0.50000298  0.50000135  0.99999380  1
  Ge  Ge4  1  0.87035423  0.86997657  0.87936534  1
  Ge  Ge5  1  0.12964199  0.13001910  0.12064213  1
  O  O6  1  0.25629483  0.25495360  0.24459544  1
  O  O7  1  0.24329327  0.74963096  0.75485677  1
  O  O8  1  0.74364873  0.74480751  0.25412072  1
  O  O9  1  0.75670355  0.25037531  0.24514110  1
  O  O10  1  0.75138696  0.24318777  0.75108770  1
  O  O11  1  0.24861715  0.75680849  0.24890945  1
  O  O12  1  0.25634820  0.25518905  0.74588669  1
  O  O13  1  0.74371033  0.74504867  0.75539723  1
