# generated using pymatgen
data_V6H4O13
_symmetry_space_group_name_H-M   'P 1'
_cell_length_a   6.57448665
_cell_length_b   6.57448665
_cell_length_c   10.11767314
_cell_angle_alpha   79.43011626
_cell_angle_beta   100.56988374
_cell_angle_gamma   143.81089663
_symmetry_Int_Tables_number   1
_chemical_formula_structural   V6H4O13
_chemical_formula_sum   'V6 H4 O13'
_cell_volume   253.36577487
_cell_formula_units_Z   1
loop_
 _symmetry_equiv_pos_site_id
 _symmetry_equiv_pos_as_xyz
  1  'x, y, z'
loop_
 _atom_site_type_symbol
 _atom_site_label
 _atom_site_symmetry_multiplicity
 _atom_site_fract_x
 _atom_site_fract_y
 _atom_site_fract_z
 _atom_site_occupancy
  V  V0  1  0.64330225  0.35669775  0.99813484  1
  V  V1  1  0.35669775  0.64330225  0.00186516  1
  V  V2  1  0.59465705  0.40534295  0.62688265  1
  V  V3  1  0.40534295  0.59465705  0.37311735  1
  V  V4  1  0.28893726  0.71106274  0.62560874  1
  V  V5  1  0.71106274  0.28893726  0.37439126  1
  H  H6  1  0.80585448  0.19414552  0.87853218  1
  H  H7  1  0.19414552  0.80585448  0.12146782  1
  H  H8  1  0.09440096  0.90559904  0.49964250  1
  H  H9  1  0.90559904  0.09440096  0.50035750  1
  O  O10  1  0.81683705  0.18316295  0.97726299  1
  O  O11  1  0.18316295  0.81683705  0.02273701  1
  O  O12  1  0.11438040  0.88561960  0.59871599  1
  O  O13  1  0.88561960  0.11438040  0.40128401  1
  O  O14  1  0.75448899  0.24551101  0.59172985  1
  O  O15  1  0.24551101  0.75448899  0.40827015  1
  O  O16  1  0.50000000  0.50000000  0.00000000  1
  O  O17  1  0.61896652  0.38103348  0.79883545  1
  O  O18  1  0.38103348  0.61896652  0.20116455  1
  O  O19  1  0.31470595  0.68529405  0.79698655  1
  O  O20  1  0.68529405  0.31470595  0.20301345  1
  O  O21  1  0.43232862  0.56767138  0.57839277  1
  O  O22  1  0.56767138  0.43232862  0.42160723  1
