# generated using pymatgen
data_H7NO6
_symmetry_space_group_name_H-M   'P 1'
_cell_length_a   9.97853454
_cell_length_b   15.24941258
_cell_length_c   3.59412999
_cell_angle_alpha   90.00000000
_cell_angle_beta   90.10829484
_cell_angle_gamma   90.00000000
_symmetry_Int_Tables_number   1
_chemical_formula_structural   H7NO6
_chemical_formula_sum   'H28 N4 O24'
_cell_volume   546.90624709
_cell_formula_units_Z   4
loop_
 _symmetry_equiv_pos_site_id
 _symmetry_equiv_pos_as_xyz
  1  'x, y, z'
loop_
 _atom_site_type_symbol
 _atom_site_label
 _atom_site_symmetry_multiplicity
 _atom_site_fract_x
 _atom_site_fract_y
 _atom_site_fract_z
 _atom_site_occupancy
  H  H0  1  0.56222433  0.71169987  0.27109506  1
  H  H1  1  0.90511572  0.27792095  0.83065702  1
  H  H2  1  0.09488428  0.77792095  0.66934298  1
  H  H3  1  0.43777567  0.21169987  0.22890494  1
  H  H4  1  0.84753104  0.94265527  0.24388825  1
  H  H5  1  0.15246896  0.44265527  0.25611175  1
  H  H6  1  0.47208988  0.68082948  0.94291239  1
  H  H7  1  0.54009488  0.56246728  0.30568859  1
  H  H8  1  0.95800267  0.40347713  0.77806862  1
  H  H9  1  0.00076087  0.32691371  0.47061771  1
  H  H10  1  0.04199733  0.90347713  0.72193138  1
  H  H11  1  0.99923913  0.82691371  0.02938229  1
  H  H12  1  0.45990512  0.06246728  0.19431141  1
  H  H13  1  0.52791012  0.18082948  0.55708761  1
  H  H14  1  0.56284588  0.98930383  0.15186722  1
  H  H15  1  0.08300969  0.03412801  0.61150983  1
  H  H16  1  0.92836236  0.03357027  0.69631322  1
  H  H17  1  0.91699031  0.53412801  0.88849017  1
  H  H18  1  0.07163764  0.53357027  0.80368678  1
  H  H19  1  0.43715412  0.48930383  0.34813278  1
  H  H20  1  0.34495821  0.93330615  0.22868319  1
  H  H21  1  0.31261519  0.85724940  0.50632044  1
  H  H22  1  0.29028901  0.11694473  0.64985807  1
  H  H23  1  0.18761198  0.15034370  0.94668331  1
  H  H24  1  0.81238802  0.65034370  0.55331669  1
  H  H25  1  0.70971099  0.61694473  0.85014193  1
  H  H26  1  0.68738481  0.35724940  0.99367956  1
  H  H27  1  0.65504179  0.43330615  0.27131681  1
  N  N28  1  0.72957292  0.84329312  0.34755863  1
  N  N29  1  0.76917465  0.16946600  0.81792411  1
  N  N30  1  0.23082535  0.66946600  0.68207589  1
  N  N31  1  0.27042708  0.34329312  0.15244137  1
  O  O32  1  0.61712578  0.83017569  0.46853787  1
  O  O33  1  0.88366762  0.20168256  0.93419952  1
  O  O34  1  0.11633238  0.70168256  0.56580048  1
  O  O35  1  0.38287422  0.33017569  0.03146213  1
  O  O36  1  0.82210305  0.79135891  0.30992854  1
  O  O37  1  0.67249827  0.22015684  0.76972651  1
  O  O38  1  0.32750173  0.72015684  0.73027349  1
  O  O39  1  0.17789695  0.29135891  0.19007146  1
  O  O40  1  0.74968857  0.93019745  0.22537213  1
  O  O41  1  0.76328421  0.08873596  0.76515599  1
  O  O42  1  0.23671579  0.58873596  0.73484401  1
  O  O43  1  0.25031143  0.43019745  0.27462787  1
  O  O44  1  0.55756618  0.66784597  0.07315132  1
  O  O45  1  0.96866392  0.33769401  0.72251770  1
  O  O46  1  0.03133608  0.83769401  0.77748230  1
  O  O47  1  0.44243382  0.16784597  0.42684868  1
  O  O48  1  0.47624722  0.00773572  0.05460830  1
  O  O49  1  0.99987825  0.99725328  0.58442011  1
  O  O50  1  0.00012175  0.49725328  0.91557989  1
  O  O51  1  0.52375278  0.50773572  0.44539170  1
  O  O52  1  0.27588853  0.88916820  0.29432223  1
  O  O53  1  0.20031217  0.10657149  0.75279080  1
  O  O54  1  0.79968783  0.60657149  0.74720920  1
  O  O55  1  0.72411147  0.38916820  0.20567777  1
