# generated using pymatgen
data_AlSiHO4
_symmetry_space_group_name_H-M   'P 1'
_cell_length_a   7.20960579
_cell_length_b   4.40730700
_cell_length_c   7.07360508
_cell_angle_alpha   90.00000000
_cell_angle_beta   98.87274772
_cell_angle_gamma   90.00000000
_symmetry_Int_Tables_number   1
_chemical_formula_structural   AlSiHO4
_chemical_formula_sum   'Al4 Si4 H4 O16'
_cell_volume   222.07375261
_cell_formula_units_Z   4
loop_
 _symmetry_equiv_pos_site_id
 _symmetry_equiv_pos_as_xyz
  1  'x, y, z'
loop_
 _atom_site_type_symbol
 _atom_site_label
 _atom_site_symmetry_multiplicity
 _atom_site_fract_x
 _atom_site_fract_y
 _atom_site_fract_z
 _atom_site_occupancy
  Al  Al0  1  0.43569352  0.52693784  0.79480055  1
  Al  Al1  1  0.93569352  0.97306216  0.29480055  1
  Al  Al2  1  0.56430648  0.47306216  0.20519945  1
  Al  Al3  1  0.06430648  0.02693784  0.70519945  1
  Si  Si4  1  0.81952414  0.52299680  0.91313499  1
  Si  Si5  1  0.31952414  0.97700320  0.41313499  1
  Si  Si6  1  0.18047586  0.47700320  0.08686501  1
  Si  Si7  1  0.68047586  0.02299680  0.58686501  1
  H  H8  1  0.68724815  0.03368399  0.04900046  1
  H  H9  1  0.18724815  0.46631601  0.54900046  1
  H  H10  1  0.31275185  0.96631601  0.95099954  1
  H  H11  1  0.81275185  0.53368399  0.45099954  1
  O  O12  1  0.34686265  0.70443596  0.23937603  1
  O  O13  1  0.84686265  0.79556404  0.73937603  1
  O  O14  1  0.65313735  0.29556404  0.76062397  1
  O  O15  1  0.15313735  0.20443596  0.26062397  1
  O  O16  1  0.97960665  0.69057934  0.10521021  1
  O  O17  1  0.47960665  0.80942066  0.60521021  1
  O  O18  1  0.02039335  0.30942066  0.89478979  1
  O  O19  1  0.52039335  0.19057934  0.39478979  1
  O  O20  1  0.62443049  0.69491398  0.98646292  1
  O  O21  1  0.12443049  0.80508602  0.48646292  1
  O  O22  1  0.37556951  0.30508602  0.01353708  1
  O  O23  1  0.87556951  0.19491398  0.51353708  1
  O  O24  1  0.74206040  0.70339168  0.37221213  1
  O  O25  1  0.24206040  0.79660832  0.87221213  1
  O  O26  1  0.25793960  0.29660832  0.62778787  1
  O  O27  1  0.75793960  0.20339168  0.12778787  1
