# generated using pymatgen
data_Fe4Si2Sn7O16
_symmetry_space_group_name_H-M   'P 1'
_cell_length_a   6.94033317
_cell_length_b   6.94011436
_cell_length_c   9.33908229
_cell_angle_alpha   90.00676471
_cell_angle_beta   89.99951473
_cell_angle_gamma   120.00348631
_symmetry_Int_Tables_number   1
_chemical_formula_structural   Fe4Si2Sn7O16
_chemical_formula_sum   'Fe4 Si2 Sn7 O16'
_cell_volume   389.55296886
_cell_formula_units_Z   1
loop_
 _symmetry_equiv_pos_site_id
 _symmetry_equiv_pos_as_xyz
  1  'x, y, z'
loop_
 _atom_site_type_symbol
 _atom_site_label
 _atom_site_symmetry_multiplicity
 _atom_site_fract_x
 _atom_site_fract_y
 _atom_site_fract_z
 _atom_site_occupancy
  Fe  Fe0  1  0.49998394  0.99996155  0.50003409  1
  Fe  Fe1  1  0.99999696  0.00000828  0.00000617  1
  Fe  Fe2  1  0.99999726  0.50000195  0.50001779  1
  Fe  Fe3  1  0.50004707  0.49999202  0.49996163  1
  Si  Si4  1  0.33334138  0.66661065  0.23455111  1
  Si  Si5  1  0.66666049  0.33339900  0.76545114  1
  Sn  Sn6  1  0.16601710  0.33195112  0.83732548  1
  Sn  Sn7  1  0.00000585  0.00001986  0.50000244  1
  Sn  Sn8  1  0.16598311  0.83405038  0.83731498  1
  Sn  Sn9  1  0.66807580  0.83406825  0.83732352  1
  Sn  Sn10  1  0.33190683  0.16595841  0.16270668  1
  Sn  Sn11  1  0.83396717  0.16591531  0.16270301  1
  Sn  Sn12  1  0.83401545  0.66802850  0.16264113  1
  O  O13  1  0.46292078  0.92588666  0.18283518  1
  O  O14  1  0.46292072  0.53706076  0.18273673  1
  O  O15  1  0.33334675  0.66670780  0.87602878  1
  O  O16  1  0.53704956  0.07411724  0.81716857  1
  O  O17  1  0.07406648  0.53701788  0.18283972  1
  O  O18  1  0.84509169  0.15488594  0.38670670  1
  O  O19  1  0.92593396  0.46297795  0.81712554  1
  O  O20  1  0.15495715  0.30980753  0.61333273  1
  O  O21  1  0.53709420  0.46297497  0.81725514  1
  O  O22  1  0.66659748  0.33335603  0.58621270  1
  O  O23  1  0.84506016  0.69021356  0.38664764  1
  O  O24  1  0.66663378  0.33328208  0.12393987  1
  O  O25  1  0.30978451  0.15489693  0.38668626  1
  O  O26  1  0.33339087  0.66661504  0.41379080  1
  O  O27  1  0.15488740  0.84513234  0.61331554  1
  O  O28  1  0.69026610  0.84510201  0.61333893  1
