# generated using pymatgen
data_Mo2Cl8O
_symmetry_space_group_name_H-M   'P 1'
_cell_length_a   6.66673695
_cell_length_b   10.38143200
_cell_length_c   18.46577576
_cell_angle_alpha   100.19914764
_cell_angle_beta   90.00000000
_cell_angle_gamma   90.00000000
_symmetry_Int_Tables_number   1
_chemical_formula_structural   Mo2Cl8O
_chemical_formula_sum   'Mo8 Cl32 O4'
_cell_volume   1257.82645820
_cell_formula_units_Z   4
loop_
 _symmetry_equiv_pos_site_id
 _symmetry_equiv_pos_as_xyz
  1  'x, y, z'
loop_
 _atom_site_type_symbol
 _atom_site_label
 _atom_site_symmetry_multiplicity
 _atom_site_fract_x
 _atom_site_fract_y
 _atom_site_fract_z
 _atom_site_occupancy
  Mo  Mo0  1  0.18044847  0.10837130  0.87278283  1
  Mo  Mo1  1  0.81955153  0.89162870  0.12721717  1
  Mo  Mo2  1  0.18044847  0.89162870  0.62721717  1
  Mo  Mo3  1  0.03852656  0.55534545  0.16378129  1
  Mo  Mo4  1  0.96147344  0.55534545  0.66378129  1
  Mo  Mo5  1  0.03852656  0.44465455  0.33621871  1
  Mo  Mo6  1  0.96147344  0.44465455  0.83621871  1
  Mo  Mo7  1  0.81955153  0.10837130  0.37278283  1
  Cl  Cl8  1  0.68371131  0.78856882  0.01830640  1
  Cl  Cl9  1  0.65765038  0.45236678  0.89630494  1
  Cl  Cl10  1  0.86395698  0.91264748  0.58253428  1
  Cl  Cl11  1  0.00730860  0.00000000  0.75000000  1
  Cl  Cl12  1  0.77196690  0.50000000  0.25000000  1
  Cl  Cl13  1  0.13604302  0.91264748  0.08253428  1
  Cl  Cl14  1  0.43256714  0.84254142  0.70090517  1
  Cl  Cl15  1  0.10520156  0.40225244  0.57270146  1
  Cl  Cl16  1  0.69736297  0.90975058  0.38774677  1
  Cl  Cl17  1  0.68371131  0.21143118  0.48169360  1
  Cl  Cl18  1  0.81016953  0.34687278  0.71764625  1
  Cl  Cl19  1  0.56743286  0.15745858  0.29909483  1
  Cl  Cl20  1  0.22803310  0.50000000  0.75000000  1
  Cl  Cl21  1  0.18983047  0.65312722  0.28235375  1
  Cl  Cl22  1  0.65765038  0.54763322  0.60369506  1
  Cl  Cl23  1  0.56743286  0.84254142  0.20090517  1
  Cl  Cl24  1  0.34234962  0.45236678  0.39630494  1
  Cl  Cl25  1  0.13604302  0.08735252  0.41746572  1
  Cl  Cl26  1  0.69736297  0.09024942  0.11225323  1
  Cl  Cl27  1  0.34234962  0.54763322  0.10369506  1
  Cl  Cl28  1  0.31628869  0.78856882  0.51830640  1
  Cl  Cl29  1  0.99269140  0.00000000  0.25000000  1
  Cl  Cl30  1  0.31628869  0.21143118  0.98169360  1
  Cl  Cl31  1  0.10520156  0.59774756  0.92729854  1
  Cl  Cl32  1  0.89479844  0.59774756  0.42729854  1
  Cl  Cl33  1  0.18983047  0.34687278  0.21764625  1
  Cl  Cl34  1  0.43256714  0.15745858  0.79909483  1
  Cl  Cl35  1  0.30263703  0.90975058  0.88774677  1
  Cl  Cl36  1  0.30263703  0.09024942  0.61225323  1
  Cl  Cl37  1  0.81016953  0.65312722  0.78235375  1
  Cl  Cl38  1  0.89479844  0.40225244  0.07270146  1
  Cl  Cl39  1  0.86395698  0.08735252  0.91746572  1
  O  O40  1  0.93571397  0.70278915  0.14555901  1
  O  O41  1  0.06428603  0.29721085  0.85444099  1
  O  O42  1  0.93571397  0.29721085  0.35444099  1
  O  O43  1  0.06428603  0.70278915  0.64555901  1
