# generated using pymatgen
data_H8PtO6
_symmetry_space_group_name_H-M   'P 1'
_cell_length_a   5.59689667
_cell_length_b   5.70811246
_cell_length_c   7.49069070
_cell_angle_alpha   87.76930338
_cell_angle_beta   95.70891286
_cell_angle_gamma   101.23477353
_symmetry_Int_Tables_number   1
_chemical_formula_structural   H8PtO6
_chemical_formula_sum   'H16 Pt2 O12'
_cell_volume   233.51353568
_cell_formula_units_Z   2
loop_
 _symmetry_equiv_pos_site_id
 _symmetry_equiv_pos_as_xyz
  1  'x, y, z'
loop_
 _atom_site_type_symbol
 _atom_site_label
 _atom_site_symmetry_multiplicity
 _atom_site_fract_x
 _atom_site_fract_y
 _atom_site_fract_z
 _atom_site_occupancy
  H  H0  1  0.91159489  0.72019640  0.76121050  1
  H  H1  1  0.74354252  0.01462614  0.72697199  1
  H  H2  1  0.86433270  0.38989440  0.15138394  1
  H  H3  1  0.15466715  0.51477655  0.17472863  1
  H  H4  1  0.27146963  0.07401444  0.24966259  1
  H  H5  1  0.46687056  0.53145826  0.99686424  1
  H  H6  1  0.20522179  0.60289335  0.89287088  1
  H  H7  1  0.57750951  0.18728470  0.36968237  1
  H  H8  1  0.55096122  0.30437423  0.56171777  1
  H  H9  1  0.75822288  0.39674388  0.90376882  1
  H  H10  1  0.38390463  0.78598563  0.40969980  1
  H  H11  1  0.42568359  0.79520067  0.62502789  1
  H  H12  1  0.17393491  0.15360602  0.79905067  1
  H  H13  1  0.03635849  0.06105713  0.51704214  1
  H  H14  1  0.95653936  0.97393711  0.02210982  1
  H  H15  1  0.85631769  0.82849277  0.29559118  1
  Pt  Pt16  1  0.99938507  0.50401902  0.49857412  1
  Pt  Pt17  1  0.50679997  0.99974643  -0.00008805  1
  O  O18  1  0.96792433  0.56809062  0.75829248  1
  O  O19  1  0.56767058  0.99111830  0.74022044  1
  O  O20  1  0.02810934  0.40835408  0.24062345  1
  O  O21  1  0.42329160  0.00958896  0.26033132  1
  O  O22  1  0.34106013  0.64082531  0.99820673  1
  O  O23  1  0.64370161  0.33718985  0.45498966  1
  O  O24  1  0.66409017  0.34931288  0.01099429  1
  O  O25  1  0.35469913  0.67746681  0.51962853  1
  O  O26  1  0.19074586  0.11808280  0.93291707  1
  O  O27  1  0.12556616  0.20593331  0.58744442  1
  O  O28  1  0.81332666  0.86967938  0.07697106  1
  O  O29  1  0.88867988  0.81502759  0.43074224  1
