# generated using pymatgen
data_La5Sm3Cr6(FeO12)2
_symmetry_space_group_name_H-M   'P 1'
_cell_length_a   7.83910985
_cell_length_b   7.84106952
_cell_length_c   7.84106952
_cell_angle_alpha   90.01402897
_cell_angle_beta   90.00000000
_cell_angle_gamma   90.00000000
_symmetry_Int_Tables_number   1
_chemical_formula_structural   La5Sm3Cr6(FeO12)2
_chemical_formula_sum   'La5 Sm3 Cr6 Fe2 O24'
_cell_volume   481.96704721
_cell_formula_units_Z   1
loop_
 _symmetry_equiv_pos_site_id
 _symmetry_equiv_pos_as_xyz
  1  'x, y, z'
loop_
 _atom_site_type_symbol
 _atom_site_label
 _atom_site_symmetry_multiplicity
 _atom_site_fract_x
 _atom_site_fract_y
 _atom_site_fract_z
 _atom_site_occupancy
  La  La0  1  0.25000000  0.25053826  0.25051269  1
  La  La1  1  0.25000000  0.25054184  0.74945816  1
  La  La2  1  0.25000000  0.74945810  0.25054190  1
  La  La3  1  0.25000000  0.74948731  0.74946174  1
  La  La4  1  0.75000000  0.74943748  0.25056252  1
  Sm  Sm5  1  0.75000000  0.25067357  0.25071209  1
  Sm  Sm6  1  0.75000000  0.25072744  0.74927256  1
  Sm  Sm7  1  0.75000000  0.74928791  0.74932643  1
  Cr  Cr8  1  0.99903344  0.00032984  0.50029664  1
  Cr  Cr9  1  0.99903344  0.49970336  0.99967016  1
  Cr  Cr10  1  0.99906827  0.49971344  0.50028656  1
  Cr  Cr11  1  0.50096656  0.00032984  0.50029664  1
  Cr  Cr12  1  0.50096656  0.49970336  0.99967016  1
  Cr  Cr13  1  0.50093173  0.49971344  0.50028656  1
  Fe  Fe14  1  0.99884245  0.00037398  0.99962602  1
  Fe  Fe15  1  0.50115755  0.00037398  0.99962602  1
  O  O16  1  0.25000000  0.00009739  0.99990261  1
  O  O17  1  0.25000000  0.00008944  0.50007888  1
  O  O18  1  0.25000000  0.49992112  0.99991056  1
  O  O19  1  0.25000000  0.49991128  0.50008872  1
  O  O20  1  0.75000000  0.00145463  0.99854537  1
  O  O21  1  0.75000000  0.00169234  0.50172343  1
  O  O22  1  0.75000000  0.49827657  0.99830766  1
  O  O23  1  0.75000000  0.49828757  0.50171243  1
  O  O24  1  0.99669391  0.25076809  0.99987643  1
  O  O25  1  0.99639214  0.25030588  0.50010166  1
  O  O26  1  0.99817204  0.74929942  0.99836871  1
  O  O27  1  0.99801511  0.74971272  0.50180106  1
  O  O28  1  0.50330609  0.25076809  0.99987643  1
  O  O29  1  0.50360786  0.25030588  0.50010166  1
  O  O30  1  0.50182796  0.74929942  0.99836871  1
  O  O31  1  0.50198489  0.74971272  0.50180106  1
  O  O32  1  0.99817204  0.00163129  0.25070058  1
  O  O33  1  0.99669391  0.00012357  0.74923191  1
  O  O34  1  0.99801511  0.49819894  0.25028728  1
  O  O35  1  0.99639214  0.49989834  0.74969412  1
  O  O36  1  0.50182796  0.00163129  0.25070058  1
  O  O37  1  0.50330609  0.00012357  0.74923191  1
  O  O38  1  0.50198489  0.49819894  0.25028728  1
  O  O39  1  0.50360786  0.49989834  0.74969412  1
