# generated using pymatgen
data_RbAl3Cd(SiO4)3
_symmetry_space_group_name_H-M   'P 1'
_cell_length_a   12.33841779
_cell_length_b   12.39163030
_cell_length_c   12.31226621
_cell_angle_alpha   89.69603647
_cell_angle_beta   89.81124650
_cell_angle_gamma   89.34944592
_symmetry_Int_Tables_number   1
_chemical_formula_structural   RbAl3Cd(SiO4)3
_chemical_formula_sum   'Rb4 Al12 Cd4 Si12 O48'
_cell_volume   1882.30301689
_cell_formula_units_Z   4
loop_
 _symmetry_equiv_pos_site_id
 _symmetry_equiv_pos_as_xyz
  1  'x, y, z'
loop_
 _atom_site_type_symbol
 _atom_site_label
 _atom_site_symmetry_multiplicity
 _atom_site_fract_x
 _atom_site_fract_y
 _atom_site_fract_z
 _atom_site_occupancy
  Rb  Rb0  1  0.02999981  0.50813898  0.53226612  1
  Rb  Rb1  1  0.47262682  0.55037109  0.02851490  1
  Rb  Rb2  1  0.48474265  0.02441955  0.47574193  1
  Rb  Rb3  1  0.66487943  0.73023055  0.71070650  1
  Al  Al4  1  0.99729992  0.18667080  0.62515172  1
  Al  Al5  1  0.36102133  0.81421397  0.00190839  1
  Al  Al6  1  0.61650285  0.01171733  0.19313819  1
  Al  Al7  1  0.61491349  0.19221945  0.98579726  1
  Al  Al8  1  0.62226962  0.99134255  0.80685740  1
  Al  Al9  1  0.62485732  0.81377540  0.01018142  1
  Al  Al10  1  0.83137039  0.00168827  0.35928098  1
  Al  Al11  1  0.82684725  0.99727511  0.63223231  1
  Al  Al12  1  0.82683205  0.36692917  0.99672912  1
  Al  Al13  1  0.83583515  0.63718457  0.00590452  1
  Al  Al14  1  0.00559596  0.63129415  0.81818008  1
  Al  Al15  1  0.00272380  0.81118321  0.36883889  1
  Cd  Cd16  1  0.78953068  0.18257544  0.18958349  1
  Cd  Cd17  1  0.79764189  0.19638238  0.81483525  1
  Cd  Cd18  1  0.79615365  0.80224465  0.18353459  1
  Cd  Cd19  1  0.84673535  0.85832770  0.84946205  1
  Si  Si20  1  0.00407354  0.18869713  0.36920720  1
  Si  Si21  1  0.99902189  0.36629157  0.18301861  1
  Si  Si22  1  0.00265857  0.37461867  0.80765422  1
  Si  Si23  1  0.01155092  0.81280895  0.62887400  1
  Si  Si24  1  0.18336812  0.00201708  0.37451845  1
  Si  Si25  1  0.18670861  0.99718110  0.62061823  1
  Si  Si26  1  0.18044598  0.36954841  0.99402022  1
  Si  Si27  1  0.18976428  0.61357826  0.01081829  1
  Si  Si28  1  0.36240809  0.00255727  0.18352732  1
  Si  Si29  1  0.35764875  0.17486999  0.99105936  1
  Si  Si30  1  0.35682408  0.98870590  0.81711391  1
  Si  Si31  1  0.01190699  0.61935037  0.19548193  1
  O  O32  1  0.02189465  0.29677484  0.29282321  1
  O  O33  1  0.01312227  0.30788115  0.69600754  1
  O  O34  1  0.01836183  0.68225331  0.30941241  1
  O  O35  1  0.97794255  0.78233101  0.50629973  1
  O  O36  1  0.97560434  0.49937319  0.77662974  1
  O  O37  1  0.02439118  0.70116743  0.69646380  1
  O  O38  1  0.11281623  0.11479513  0.36686680  1
  O  O39  1  0.09875609  0.35343884  0.09837963  1
  O  O40  1  0.10691310  0.09881710  0.63663628  1
  O  O41  1  0.12440569  0.62030664  0.12758370  1
  O  O42  1  0.11225269  0.36526484  0.88151849  1
  O  O43  1  0.11176962  0.89722351  0.35354362  1
  O  O44  1  0.11062629  0.63487671  0.90976340  1
  O  O45  1  0.12238116  0.88285482  0.63605690  1
  O  O46  1  0.24092204  0.99813799  0.49651198  1
  O  O47  1  0.23989212  0.48699612  0.00484231  1
  O  O48  1  0.28298599  0.01419882  0.28994730  1
  O  O49  1  0.27157876  0.27644024  0.99404946  1
  O  O50  1  0.29090653  0.99855786  0.70110243  1
  O  O51  1  0.29346708  0.68982586  0.01500943  1
  O  O52  1  0.33884156  0.10664175  0.10319465  1
  O  O53  1  0.33359588  0.10216946  0.88359412  1
  O  O54  1  0.34584957  0.89112683  0.12047995  1
  O  O55  1  0.31731171  0.88668891  0.88716273  1
  O  O56  1  0.48305198  0.01396973  0.23778999  1
  O  O57  1  0.47833972  0.22523884  0.98516555  1
  O  O58  1  0.48500066  0.97885374  0.78249594  1
  O  O59  1  0.49637889  0.77029609  0.98556872  1
  O  O60  1  0.65101677  0.12209465  0.10650021  1
  O  O61  1  0.65429126  0.11523063  0.86897536  1
  O  O62  1  0.65180159  0.89030228  0.12830346  1
  O  O63  1  0.67811839  0.88399659  0.89240756  1
  O  O64  1  0.70601487  0.03249516  0.30067920  1
  O  O65  1  0.70038411  0.96890868  0.68991727  1
  O  O66  1  0.70722433  0.29797200  0.97947889  1
  O  O67  1  0.71589207  0.70630038  0.03586045  1
  O  O68  1  0.82746584  0.50229339  0.99548947  1
  O  O69  1  0.83544704  0.99538671  0.49586052  1
  O  O70  1  0.90524454  0.12027358  0.31074805  1
  O  O71  1  0.88050306  0.12094940  0.68271443  1
  O  O72  1  0.88736770  0.31913231  0.12458035  1
  O  O73  1  0.90446595  0.31869337  0.88206738  1
  O  O74  1  0.91444024  0.67543049  0.12217449  1
  O  O75  1  0.89026076  0.69411353  0.88363628  1
  O  O76  1  0.88797554  0.87850908  0.30657195  1
  O  O77  1  0.91093441  0.88644452  0.68755737  1
  O  O78  1  0.97423404  0.22911243  0.48985204  1
  O  O79  1  0.98119407  0.49144906  0.22096558  1
