# generated using pymatgen
data_NaRuO2
_symmetry_space_group_name_H-M   'P 1'
_cell_length_a   5.69188900
_cell_length_b   23.65563571
_cell_length_c   22.88958804
_cell_angle_alpha   7.80133252
_cell_angle_beta   26.93697258
_cell_angle_gamma   29.98474559
_symmetry_Int_Tables_number   1
_chemical_formula_structural   NaRuO2
_chemical_formula_sum   'Na4 Ru4 O8'
_cell_volume   182.04203339
_cell_formula_units_Z   4
loop_
 _symmetry_equiv_pos_site_id
 _symmetry_equiv_pos_as_xyz
  1  'x, y, z'
loop_
 _atom_site_type_symbol
 _atom_site_label
 _atom_site_symmetry_multiplicity
 _atom_site_fract_x
 _atom_site_fract_y
 _atom_site_fract_z
 _atom_site_occupancy
  Na  Na0  1  0.72822339  0.01979830  0.55073686  1
  Na  Na1  1  0.73565115  0.27904800  0.54083739  1
  Na  Na2  1  0.72752841  0.53473588  0.53556178  1
  Na  Na3  1  0.73751298  0.77010697  0.54954551  1
  Ru  Ru4  1  0.58173015  0.34971868  0.37974994  1
  Ru  Ru5  1  0.52048732  0.58852922  0.40418322  1
  Ru  Ru6  1  0.58125426  0.84436192  0.38532701  1
  Ru  Ru7  1  0.52160869  0.07796710  0.41476713  1
  O  O8  1  0.17337672  0.29680302  0.98738811  1
  O  O9  1  0.16542076  0.54899627  0.98081826  1
  O  O10  1  0.17153610  0.80401626  0.98049331  1
  O  O11  1  0.16269876  0.06131518  0.96885306  1
  O  O12  1  0.92847562  0.13585605  0.80230421  1
  O  O13  1  0.93427942  0.37298364  0.82058282  1
  O  O14  1  0.93161529  0.62400950  0.81362158  1
  O  O15  1  0.93420197  0.87770601  0.81582982  1
