# generated using pymatgen
data_Hg2SbF6
_symmetry_space_group_name_H-M   'P 1'
_cell_length_a   7.55784037
_cell_length_b   7.55784013
_cell_length_c   8.00209512
_cell_angle_alpha   117.01751468
_cell_angle_beta   117.01751348
_cell_angle_gamma   90.09604121
_symmetry_Int_Tables_number   1
_chemical_formula_structural   Hg2SbF6
_chemical_formula_sum   'Hg4 Sb2 F12'
_cell_volume   350.08108855
_cell_formula_units_Z   2
loop_
 _symmetry_equiv_pos_site_id
 _symmetry_equiv_pos_as_xyz
  1  'x, y, z'
loop_
 _atom_site_type_symbol
 _atom_site_label
 _atom_site_symmetry_multiplicity
 _atom_site_fract_x
 _atom_site_fract_y
 _atom_site_fract_z
 _atom_site_occupancy
  Hg  Hg0  1  0.00000000  0.00000000  0.50000000  1
  Hg  Hg1  1  0.00000000  0.00000000  0.00000000  1
  Hg  Hg2  1  0.00000000  0.50000000  0.00000000  1
  Hg  Hg3  1  0.50000000  0.00000000  0.50000000  1
  Sb  Sb4  1  0.37473911  0.62526089  0.75000000  1
  Sb  Sb5  1  0.62526089  0.37473911  0.25000000  1
  F  F6  1  0.19491007  0.80508993  0.75000000  1
  F  F7  1  0.19568687  0.44641733  0.75257136  1
  F  F8  1  0.21877793  0.47055691  0.43702350  1
  F  F9  1  0.47055691  0.21877793  0.93702350  1
  F  F10  1  0.55463266  0.44536734  0.75000000  1
  F  F11  1  0.55358267  0.80431313  0.74742864  1
  F  F12  1  0.44641733  0.19568687  0.25257136  1
  F  F13  1  0.44536734  0.55463266  0.25000000  1
  F  F14  1  0.52944309  0.78122207  0.06297650  1
  F  F15  1  0.78122207  0.52944309  0.56297650  1
  F  F16  1  0.80431313  0.55358267  0.24742864  1
  F  F17  1  0.80508993  0.19491007  0.25000000  1
