# generated using pymatgen
data_Li3Sn(PO3)6
_symmetry_space_group_name_H-M   'P 1'
_cell_length_a   7.21766462
_cell_length_b   7.50408643
_cell_length_c   7.56785515
_cell_angle_alpha   66.00282535
_cell_angle_beta   107.10598168
_cell_angle_gamma   83.04349162
_symmetry_Int_Tables_number   1
_chemical_formula_structural   Li3Sn(PO3)6
_chemical_formula_sum   'Li3 Sn1 P6 O18'
_cell_volume   344.02390707
_cell_formula_units_Z   1
loop_
 _symmetry_equiv_pos_site_id
 _symmetry_equiv_pos_as_xyz
  1  'x, y, z'
loop_
 _atom_site_type_symbol
 _atom_site_label
 _atom_site_symmetry_multiplicity
 _atom_site_fract_x
 _atom_site_fract_y
 _atom_site_fract_z
 _atom_site_occupancy
  Li  Li0  1  0.52560656  0.48801248  0.04219561  1
  Li  Li1  1  0.83840394  0.69315501  0.12842120  1
  Li  Li2  1  0.13748656  0.63530004  0.53632356  1
  Sn  Sn3  1  0.09365287  0.20750233  0.92748587  1
  P  P4  1  0.77279110  0.01493707  0.31279490  1
  P  P5  1  0.23582395  0.34633456  0.32787938  1
  P  P6  1  0.48863045  0.78425460  0.25760593  1
  P  P7  1  0.76733401  0.67634097  0.67773985  1
  P  P8  1  0.24746266  0.98257645  0.67561919  1
  P  P9  1  0.51082528  0.22651868  0.74095318  1
  O  O10  1  0.73122235  0.19423155  0.84467849  1
  O  O11  1  0.46256723  0.00800579  0.79252941  1
  O  O12  1  0.74296169  0.64065162  0.87632967  1
  O  O13  1  0.25392267  0.37545656  0.12386858  1
  O  O14  1  0.92866627  0.88196503  0.29198370  1
  O  O15  1  0.74710111  0.23502075  0.24101232  1
  O  O16  1  0.45533043  0.32029958  0.49058004  1
  O  O17  1  0.55760399  0.68573519  0.51112923  1
  O  O18  1  0.55328689  0.99162820  0.20115728  1
  O  O19  1  0.59753765  0.64660066  0.20105004  1
  O  O20  1  0.26802427  0.76691795  0.72560414  1
  O  O21  1  0.35773746  0.34387642  0.78479419  1
  O  O22  1  0.08584960  0.49956121  0.32967101  1
  O  O23  1  0.94059204  0.52406378  0.68904430  1
  O  O24  1  0.08270179  0.09390275  0.71307548  1
  O  O25  1  0.79152219  0.89923723  0.55938638  1
  O  O26  1  0.21212064  0.11750230  0.43257007  1
  O  O27  1  0.26047736  0.85782223  0.15578000  1
