# generated using pymatgen
data_La7SmMn2(FeO4)6
_symmetry_space_group_name_H-M   'P 1'
_cell_length_a   7.86440346
_cell_length_b   7.87519435
_cell_length_c   7.86440346
_cell_angle_alpha   90.00000000
_cell_angle_beta   89.37282503
_cell_angle_gamma   90.00000000
_symmetry_Int_Tables_number   1
_chemical_formula_structural   La7SmMn2(FeO4)6
_chemical_formula_sum   'La7 Sm1 Mn2 Fe6 O24'
_cell_volume   487.04246894
_cell_formula_units_Z   1
loop_
 _symmetry_equiv_pos_site_id
 _symmetry_equiv_pos_as_xyz
  1  'x, y, z'
loop_
 _atom_site_type_symbol
 _atom_site_label
 _atom_site_symmetry_multiplicity
 _atom_site_fract_x
 _atom_site_fract_y
 _atom_site_fract_z
 _atom_site_occupancy
  La  La0  1  0.25000000  0.24512157  0.25000000  1
  La  La1  1  0.25000000  0.23977108  0.75000000  1
  La  La2  1  0.25000000  0.75497876  0.25000000  1
  La  La3  1  0.25000000  0.75349710  0.75000000  1
  La  La4  1  0.75000000  0.24512157  0.75000000  1
  La  La5  1  0.75000000  0.76037252  0.25000000  1
  La  La6  1  0.75000000  0.75497876  0.75000000  1
  Sm  Sm7  1  0.75000000  0.24241098  0.25000000  1
  Mn  Mn8  1  0.99938142  0.49953883  0.49938142  1
  Mn  Mn9  1  0.50061858  0.49953883  0.00061858  1
  Fe  Fe10  1  0.99997001  0.00021151  0.00002999  1
  Fe  Fe11  1  0.99946484  0.00058091  0.49946484  1
  Fe  Fe12  1  0.99923626  0.49939913  0.00076374  1
  Fe  Fe13  1  0.50053516  0.00058091  0.00053516  1
  Fe  Fe14  1  0.50002999  0.00021151  0.49997001  1
  Fe  Fe15  1  0.50076374  0.49939913  0.49923626  1
  O  O16  1  0.25473254  0.99860367  0.00193335  1
  O  O17  1  0.24526746  0.99860367  0.49806665  1
  O  O18  1  0.25458215  0.49912061  0.00089213  1
  O  O19  1  0.24541785  0.49912061  0.49910787  1
  O  O20  1  0.74567189  0.00442715  0.00104811  1
  O  O21  1  0.75432811  0.00442715  0.49895189  1
  O  O22  1  0.74542049  0.49891161  0.00112814  1
  O  O23  1  0.75457951  0.49891161  0.49887186  1
  O  O24  1  0.99664414  0.25861404  0.00335586  1
  O  O25  1  0.99863138  0.25558520  0.49863138  1
  O  O26  1  0.00078978  0.74112935  0.99921022  1
  O  O27  1  0.99895753  0.74468879  0.49895753  1
  O  O28  1  0.50136862  0.25558520  0.00136862  1
  O  O29  1  0.50335586  0.25861404  0.49664414  1
  O  O30  1  0.50104247  0.74468879  0.00104247  1
  O  O31  1  0.49921022  0.74112935  0.50078978  1
  O  O32  1  0.99895189  0.00442715  0.25432811  1
  O  O33  1  0.99806665  0.99860367  0.74526746  1
  O  O34  1  0.99887186  0.49891161  0.25457951  1
  O  O35  1  0.99910787  0.49912061  0.74541785  1
  O  O36  1  0.50104811  0.00442715  0.24567189  1
  O  O37  1  0.50193335  0.99860367  0.75473254  1
  O  O38  1  0.50112814  0.49891161  0.24542049  1
  O  O39  1  0.50089213  0.49912061  0.75458215  1
