# generated using pymatgen
data_K2Sn5Cl12
_symmetry_space_group_name_H-M   'P 1'
_cell_length_a   12.07179182
_cell_length_b   11.72150405
_cell_length_c   10.18739165
_cell_angle_alpha   90.00000000
_cell_angle_beta   90.00000000
_cell_angle_gamma   119.76181548
_symmetry_Int_Tables_number   1
_chemical_formula_structural   K2Sn5Cl12
_chemical_formula_sum   'K4 Sn10 Cl24'
_cell_volume   1251.37095493
_cell_formula_units_Z   2
loop_
 _symmetry_equiv_pos_site_id
 _symmetry_equiv_pos_as_xyz
  1  'x, y, z'
loop_
 _atom_site_type_symbol
 _atom_site_label
 _atom_site_symmetry_multiplicity
 _atom_site_fract_x
 _atom_site_fract_y
 _atom_site_fract_z
 _atom_site_occupancy
  K  K0  1  0.31933274  0.93794473  0.50000000  1
  K  K1  1  0.09828394  0.39576006  0.00000000  1
  K  K2  1  0.00532400  0.99595353  0.00000000  1
  K  K3  1  0.98312016  0.99836882  0.50000000  1
  Sn  Sn4  1  0.36611352  0.85690617  0.00000000  1
  Sn  Sn5  1  0.12032836  0.49619340  0.50000000  1
  Sn  Sn6  1  0.51630466  0.66615966  0.50000000  1
  Sn  Sn7  1  0.51483879  0.62558026  0.00000000  1
  Sn  Sn8  1  0.43058125  0.27365189  0.22988009  1
  Sn  Sn9  1  0.43058125  0.27365189  0.77011991  1
  Sn  Sn10  1  0.86268654  0.57690104  0.28840248  1
  Sn  Sn11  1  0.86268654  0.57690104  0.71159752  1
  Sn  Sn12  1  0.71763988  0.14317014  0.24499657  1
  Sn  Sn13  1  0.71763988  0.14317014  0.75500343  1
  Cl  Cl14  1  0.21991180  0.07991341  0.28894877  1
  Cl  Cl15  1  0.21991180  0.07991341  0.71105123  1
  Cl  Cl16  1  0.08040741  0.56696870  0.76953972  1
  Cl  Cl17  1  0.08040741  0.56696870  0.23046028  1
  Cl  Cl18  1  0.91601055  0.12648872  0.23163777  1
  Cl  Cl19  1  0.91601055  0.12648872  0.76836223  1
  Cl  Cl20  1  0.48124423  0.91221210  0.25744208  1
  Cl  Cl21  1  0.48124423  0.91221210  0.74255792  1
  Cl  Cl22  1  0.42487848  0.51254520  0.26384271  1
  Cl  Cl23  1  0.42487848  0.51254520  0.73615729  1
  Cl  Cl24  1  0.30028095  0.28780465  0.00000000  1
  Cl  Cl25  1  0.16297226  0.31008861  0.50000000  1
  Cl  Cl26  1  0.89926091  0.79797528  0.23377285  1
  Cl  Cl27  1  0.89926091  0.79797528  0.76622715  1
  Cl  Cl28  1  0.66186274  0.52832275  0.00000000  1
  Cl  Cl29  1  0.67611587  0.58305231  0.50000000  1
  Cl  Cl30  1  0.47019085  0.11135175  0.00000000  1
  Cl  Cl31  1  0.50738379  0.23211082  0.50000000  1
  Cl  Cl32  1  0.15364441  0.84006641  0.00000000  1
  Cl  Cl33  1  0.00654701  0.70054819  0.50000000  1
  Cl  Cl34  1  0.79478755  0.26004665  0.00000000  1
  Cl  Cl35  1  0.87394213  0.34337277  0.50000000  1
  Cl  Cl36  1  0.68427842  0.86720968  0.00000000  1
  Cl  Cl37  1  0.69450572  0.91140580  0.50000000  1
