# generated using pymatgen
data_Ca6Al6Si3(HO12)2
_symmetry_space_group_name_H-M   'P 1'
_cell_length_a   7.87667970
_cell_length_b   7.68000680
_cell_length_c   23.02162551
_cell_angle_alpha   108.88217405
_cell_angle_beta   110.03641736
_cell_angle_gamma   109.77020282
_symmetry_Int_Tables_number   1
_chemical_formula_structural   Ca6Al6Si3(HO12)2
_chemical_formula_sum   'Ca12 Al12 Si6 H4 O48'
_cell_volume   1068.31494157
_cell_formula_units_Z   2
loop_
 _symmetry_equiv_pos_site_id
 _symmetry_equiv_pos_as_xyz
  1  'x, y, z'
loop_
 _atom_site_type_symbol
 _atom_site_label
 _atom_site_symmetry_multiplicity
 _atom_site_fract_x
 _atom_site_fract_y
 _atom_site_fract_z
 _atom_site_occupancy
  Ca  Ca0  1  -0.00002666  0.00578574  0.90076920  1
  Ca  Ca1  1  0.01300465  0.70952121  0.66790277  1
  Ca  Ca2  1  0.29579659  0.28243491  0.76165164  1
  Ca  Ca3  1  0.01326521  0.70867388  0.33584468  1
  Ca  Ca4  1  0.00376195  0.99149606  0.23444383  1
  Ca  Ca5  1  0.99880994  0.99100335  0.56669950  1
  Ca  Ca6  1  0.30232731  0.29423234  0.42966221  1
  Ca  Ca7  1  0.68945093  0.99970953  0.66845830  1
  Ca  Ca8  1  0.30032412  0.29703665  0.09701094  1
  Ca  Ca9  1  0.69371807  0.00305716  0.33589668  1
  Ca  Ca10  1  0.71292342  0.00683477  0.99981048  1
  Ca  Ca11  1  0.99124999  0.69953518  0.99733795  1
  Al  Al12  1  0.24429103  0.49910997  0.91745851  1
  Al  Al13  1  0.49298616  0.24793400  0.91333482  1
  Al  Al14  1  0.50053501  0.74641169  0.75331398  1
  Al  Al15  1  0.24233330  0.75468684  0.49951093  1
  Al  Al16  1  0.74915841  0.25027355  0.83372295  1
  Al  Al17  1  0.74935461  0.49836439  0.74993010  1
  Al  Al18  1  0.49387471  0.74233706  0.41717869  1
  Al  Al19  1  0.24848785  0.75612915  0.16660833  1
  Al  Al20  1  0.74350010  0.49844976  0.41677800  1
  Al  Al21  1  0.75403527  0.24272531  0.50064583  1
  Al  Al22  1  0.75124950  0.24418345  0.16641535  1
  Al  Al23  1  0.74907063  0.50120460  0.08146640  1
  Si  Si24  1  0.24740473  0.74674801  0.83280804  1
  Si  Si25  1  0.25433101  0.50297853  0.58372751  1
  Si  Si26  1  0.50614717  0.26179390  0.58374360  1
  Si  Si27  1  0.25423026  0.49982988  0.24924219  1
  Si  Si28  1  0.50104695  0.74900679  0.08418570  1
  Si  Si29  1  0.50698678  0.26072786  0.25094616  1
  H  H30  1  0.65489746  0.65505430  0.88539013  1
  H  H31  1  0.36237089  0.00927240  0.66969089  1
  H  H32  1  0.36149923  0.00770504  0.33599769  1
  H  H33  1  0.34975064  0.01363769  0.00401543  1
  O  O34  1  0.42553347  0.98525841  0.90205377  1
  O  O35  1  0.28001752  0.57024451  0.85360110  1
  O  O36  1  0.97634339  0.17951825  0.66421579  1
  O  O37  1  0.98788541  0.00296853  0.39623557  1
  O  O38  1  0.01910192  0.42862392  0.57312434  1
  O  O39  1  0.27555198  0.27743233  0.90508636  1
  O  O40  1  0.27780231  0.71689687  0.76308855  1
  O  O41  1  0.99438310  0.72134267  0.47864295  1
  O  O42  1  0.43173107  0.02157341  0.57327682  1
  O  O43  1  0.42326803  0.70544162  0.66423480  1
  O  O44  1  0.22780944  0.98930194  0.66303543  1
  O  O45  1  0.72009615  0.99678680  0.81403629  1
  O  O46  1  0.28053680  0.56700122  0.52483410  1
  O  O47  1  0.78086306  0.78246539  0.92602367  1
  O  O48  1  0.98032238  0.18456319  0.33216347  1
  O  O49  1  0.00808679  0.01015227  0.07635707  1
  O  O50  1  0.55163920  0.27740618  0.84894386  1
  O  O51  1  0.01837064  0.42040756  0.23872925  1
  O  O52  1  0.29959458  0.29829273  0.57273554  1
  O  O53  1  0.27407794  0.71490227  0.42557030  1
  O  O54  1  0.55794737  0.55090382  0.76044288  1
  O  O55  1  0.71760489  0.27233540  0.75689329  1
  O  O56  1  0.42674168  0.70596375  0.32903435  1
  O  O57  1  0.43636101  0.02152600  0.24139303  1
  O  O58  1  0.23149058  0.99426938  0.33246736  1
  O  O59  1  0.70878621  0.44365860  0.66261873  1
  O  O60  1  0.71900049  0.99062552  0.48086738  1
  O  O61  1  0.28082276  0.56484036  0.19065357  1
  O  O62  1  0.79531107  0.81240606  0.60522225  1
  O  O63  1  0.00646676  0.22570673  0.00259499  1
  O  O64  1  0.97974379  0.99291270  0.72675650  1
  O  O65  1  0.00027762  0.44925231  0.90790850  1
  O  O66  1  0.01221527  0.71670157  0.81023333  1
  O  O67  1  0.56970652  0.28636643  0.52468347  1
  O  O68  1  0.29949919  0.72243925  0.09559287  1
  O  O69  1  0.54785887  0.54552952  0.42443859  1
  O  O70  1  0.30066933  0.29649740  0.24011349  1
  O  O71  1  0.44456349  0.72576040  0.00543094  1
  O  O72  1  0.71233805  0.27284846  0.42570582  1
  O  O73  1  0.21716954  0.99718509  0.99914559  1
  O  O74  1  0.70886239  0.44175820  0.33014828  1
  O  O75  1  0.70839586  0.98556072  0.14704299  1
  O  O76  1  0.79652891  0.81327990  0.27230769  1
  O  O77  1  0.57182755  0.28745934  0.19263542  1
  O  O78  1  0.56238453  0.57154034  0.09378551  1
  O  O79  1  0.70410778  0.27452054  0.09197766  1
  O  O80  1  0.72008869  0.43442618  0.99744844  1
  O  O81  1  0.00193346  0.72332806  0.14755762  1
