# generated using pymatgen
data_Sm4Ag2Se7
_symmetry_space_group_name_H-M   'P 1'
_cell_length_a   7.40960584
_cell_length_b   7.78967361
_cell_length_c   15.25400068
_cell_angle_alpha   110.72000071
_cell_angle_beta   108.71369251
_cell_angle_gamma   108.84023684
_symmetry_Int_Tables_number   1
_chemical_formula_structural   Sm4Ag2Se7
_chemical_formula_sum   'Sm8 Ag4 Se14'
_cell_volume   678.72977380
_cell_formula_units_Z   2
loop_
 _symmetry_equiv_pos_site_id
 _symmetry_equiv_pos_as_xyz
  1  'x, y, z'
loop_
 _atom_site_type_symbol
 _atom_site_label
 _atom_site_symmetry_multiplicity
 _atom_site_fract_x
 _atom_site_fract_y
 _atom_site_fract_z
 _atom_site_occupancy
  Sm  Sm0  1  0.13932084  0.75758481  0.96558156  1
  Sm  Sm1  1  0.23669534  0.64331176  0.69479807  1
  Sm  Sm2  1  0.34709920  0.25371562  0.80520193  1
  Sm  Sm3  1  0.70815771  0.82642168  0.53441844  1
  Sm  Sm4  1  0.58550328  0.34903043  0.60707570  1
  Sm  Sm5  1  0.87135188  0.13487904  0.89292430  1
  Sm  Sm6  1  0.59713750  0.36391297  0.11797593  1
  Sm  Sm7  1  0.86118564  0.12796111  0.38202407  1
  Ag  Ag8  1  0.13406198  0.72024008  0.43071703  1
  Ag  Ag9  1  0.31482805  0.65959428  0.19881791  1
  Ag  Ag10  1  0.41719223  0.26195847  0.30118209  1
  Ag  Ag11  1  0.77262791  0.85880601  0.06928297  1
  Se  Se12  1  0.96471524  0.86392441  0.73816137  1
  Se  Se13  1  0.98839249  0.38760167  0.76183863  1
  Se  Se14  1  0.47255363  0.00879620  0.91770054  1
  Se  Se15  1  0.13715254  0.17339512  0.58229946  1
  Se  Se16  1  0.30382262  0.44274187  0.44977977  1
  Se  Se17  1  0.63840847  0.63717088  0.81901994  1
  Se  Se18  1  0.45877567  0.96383303  0.40981688  1
  Se  Se19  1  0.13914191  0.14419927  0.09018312  1
  Se  Se20  1  0.50036858  0.99913099  0.68098006  1
  Se  Se21  1  0.33797635  0.48775531  0.99810634  1
  Se  Se22  1  0.73975048  0.69165341  0.32599840  1
  Se  Se23  1  0.84176367  0.49154263  0.50189366  1
  Se  Se24  1  0.58775368  0.03965661  0.17400160  1
  Se  Se25  1  0.90426309  0.54318233  0.05022023  1
