# generated using pymatgen
data_Ca2LaF7
_symmetry_space_group_name_H-M   'P 1'
_cell_length_a   3.98858547
_cell_length_b   4.08617227
_cell_length_c   12.06479851
_cell_angle_alpha   59.66168643
_cell_angle_beta   60.69926196
_cell_angle_gamma   59.58785072
_symmetry_Int_Tables_number   1
_chemical_formula_structural   Ca2LaF7
_chemical_formula_sum   'Ca2 La1 F7'
_cell_volume   138.95352306
_cell_formula_units_Z   1
loop_
 _symmetry_equiv_pos_site_id
 _symmetry_equiv_pos_as_xyz
  1  'x, y, z'
loop_
 _atom_site_type_symbol
 _atom_site_label
 _atom_site_symmetry_multiplicity
 _atom_site_fract_x
 _atom_site_fract_y
 _atom_site_fract_z
 _atom_site_occupancy
  Ca  Ca0  1  0.96582209  0.02335553  0.33451922  1
  Ca  Ca1  1  0.02883642  0.01323652  0.64836267  1
  La  La2  1  0.05900683  0.96644390  -0.00008780  1
  F  F3  1  0.24452504  0.25611743  0.41721288  1
  F  F4  1  0.60172574  0.51169034  0.12747327  1
  F  F5  1  0.75608128  0.74129013  0.25823700  1
  F  F6  1  0.28558363  0.25383359  0.73575678  1
  F  F7  1  0.76758095  0.76045907  0.57183925  1
  F  F8  1  0.37398830  0.29277484  0.01363448  1
  F  F9  1  0.83247174  0.76846365  0.87643423  1
