# generated using pymatgen
data_UP3H7O8
_symmetry_space_group_name_H-M   'P 1'
_cell_length_a   7.25255168
_cell_length_b   7.34379781
_cell_length_c   17.74345918
_cell_angle_alpha   90.00000000
_cell_angle_beta   90.00000000
_cell_angle_gamma   90.00000000
_symmetry_Int_Tables_number   1
_chemical_formula_structural   UP3H7O8
_chemical_formula_sum   'U4 P12 H28 O32'
_cell_volume   945.03922591
_cell_formula_units_Z   4
loop_
 _symmetry_equiv_pos_site_id
 _symmetry_equiv_pos_as_xyz
  1  'x, y, z'
loop_
 _atom_site_type_symbol
 _atom_site_label
 _atom_site_symmetry_multiplicity
 _atom_site_fract_x
 _atom_site_fract_y
 _atom_site_fract_z
 _atom_site_occupancy
  U  U0  1  0.80452305  0.52104748  0.12320985  1
  U  U1  1  0.69547695  0.47895252  0.62320985  1
  U  U2  1  0.30452305  0.97895252  0.87679015  1
  U  U3  1  0.19547695  0.02104748  0.37679015  1
  P  P4  1  0.36781306  0.80522639  0.12674880  1
  P  P5  1  0.13218694  0.19477361  0.62674880  1
  P  P6  1  0.86781306  0.69477361  0.87325120  1
  P  P7  1  0.63218694  0.30522639  0.37325120  1
  P  P8  1  0.44142537  0.38799700  0.97483804  1
  P  P9  1  0.05857463  0.61200300  0.47483804  1
  P  P10  1  0.94142537  0.11200300  0.02516196  1
  P  P11  1  0.55857463  0.88799700  0.52516196  1
  P  P12  1  0.21142855  0.35470453  0.22761019  1
  P  P13  1  0.28857145  0.64529547  0.72761019  1
  P  P14  1  0.71142855  0.14529547  0.77238981  1
  P  P15  1  0.78857145  0.85470453  0.27238981  1
  H  H16  1  0.22670859  0.80393114  0.18087916  1
  H  H17  1  0.27329141  0.19606886  0.68087916  1
  H  H18  1  0.72670859  0.69606886  0.81912084  1
  H  H19  1  0.77329141  0.30393114  0.31912084  1
  H  H20  1  0.29451992  0.73179160  0.05990095  1
  H  H21  1  0.20548008  0.26820840  0.55990095  1
  H  H22  1  0.79451992  0.76820840  0.94009905  1
  H  H23  1  0.70548008  0.23179160  0.44009905  1
  H  H24  1  0.41692143  0.06667361  0.06002242  1
  H  H25  1  0.08307857  0.93332639  0.56002242  1
  H  H26  1  0.91692143  0.43332639  0.93997758  1
  H  H27  1  0.58307857  0.56667361  0.43997758  1
  H  H28  1  0.48576870  0.44017354  0.90031138  1
  H  H29  1  0.01423130  0.55982646  0.40031138  1
  H  H30  1  0.98576870  0.05982646  0.09968862  1
  H  H31  1  0.51423130  0.94017354  0.59968862  1
  H  H32  1  0.26238347  0.45686489  0.98796698  1
  H  H33  1  0.23761653  0.54313511  0.48796698  1
  H  H34  1  0.76238347  0.04313511  0.01203302  1
  H  H35  1  0.73761653  0.95686489  0.51203302  1
  H  H36  1  0.22694936  0.49511783  0.28185636  1
  H  H37  1  0.27305064  0.50488217  0.78185636  1
  H  H38  1  0.72694936  0.00488217  0.71814364  1
  H  H39  1  0.77305064  0.99511783  0.21814364  1
  H  H40  1  0.39230235  0.31976100  0.20260684  1
  H  H41  1  0.10769765  0.68023900  0.70260684  1
  H  H42  1  0.89230235  0.18023900  0.79739316  1
  H  H43  1  0.60769765  0.81976100  0.29739316  1
  O  O44  1  0.71298219  0.32807610  0.17437851  1
  O  O45  1  0.78701781  0.67192390  0.67437851  1
  O  O46  1  0.21298219  0.17192390  0.82562149  1
  O  O47  1  0.28701781  0.82807610  0.32562149  1
  O  O48  1  0.89706113  0.71038936  0.06891448  1
  O  O49  1  0.60293887  0.28961064  0.56891448  1
  O  O50  1  0.39706113  0.78961064  0.93108552  1
  O  O51  1  0.10293887  0.21038936  0.43108552  1
  O  O52  1  0.53247974  0.69911498  0.15572904  1
  O  O53  1  0.96752026  0.30088502  0.65572904  1
  O  O54  1  0.03247974  0.80088502  0.84427096  1
  O  O55  1  0.46752026  0.19911498  0.34427096  1
  O  O56  1  0.40163715  0.01431754  0.11242357  1
  O  O57  1  0.09836285  0.98568246  0.61242357  1
  O  O58  1  0.90163715  0.48568246  0.88757643  1
  O  O59  1  0.59836285  0.51431754  0.38757643  1
  O  O60  1  0.57640906  0.47451392  0.02982429  1
  O  O61  1  0.92359094  0.52548608  0.52982429  1
  O  O62  1  0.07640906  0.02548608  0.97017571  1
  O  O63  1  0.42359094  0.97451392  0.47017571  1
  O  O64  1  0.43007686  0.17781899  0.97765304  1
  O  O65  1  0.06992314  0.82218101  0.47765304  1
  O  O66  1  0.93007686  0.32218101  0.02234696  1
  O  O67  1  0.56992314  0.67781899  0.52234696  1
  O  O68  1  0.10179303  0.43054302  0.16048598  1
  O  O69  1  0.39820697  0.56945698  0.66048598  1
  O  O70  1  0.60179303  0.06945698  0.83951402  1
  O  O71  1  0.89820697  0.93054302  0.33951402  1
  O  O72  1  0.13200995  0.18313446  0.26520910  1
  O  O73  1  0.36799005  0.81686554  0.76520910  1
  O  O74  1  0.63200995  0.31686554  0.73479090  1
  O  O75  1  0.86799005  0.68313446  0.23479090  1
