# generated using pymatgen
data_FeP2O7
_symmetry_space_group_name_H-M   'P 1'
_cell_length_a   6.45101498
_cell_length_b   10.64708805
_cell_length_c   9.67455687
_cell_angle_alpha   64.68790775
_cell_angle_beta   107.12268435
_cell_angle_gamma   94.17523911
_symmetry_Int_Tables_number   1
_chemical_formula_structural   FeP2O7
_chemical_formula_sum   'Fe4 P8 O28'
_cell_volume   572.98684293
_cell_formula_units_Z   4
loop_
 _symmetry_equiv_pos_site_id
 _symmetry_equiv_pos_as_xyz
  1  'x, y, z'
loop_
 _atom_site_type_symbol
 _atom_site_label
 _atom_site_symmetry_multiplicity
 _atom_site_fract_x
 _atom_site_fract_y
 _atom_site_fract_z
 _atom_site_occupancy
  Fe  Fe0  1  0.37461802  0.25201823  0.49700950  1
  Fe  Fe1  1  0.62249097  0.75412763  0.49343069  1
  Fe  Fe2  1  0.72727893  0.77913500  0.09245737  1
  Fe  Fe3  1  0.27438886  0.22395662  0.89782298  1
  P  P4  1  0.41543722  0.46282313  0.68192971  1
  P  P5  1  0.07301628  0.20592072  0.18367398  1
  P  P6  1  0.88994031  0.30188393  0.54917127  1
  P  P7  1  0.58243184  0.54241701  0.31100594  1
  P  P8  1  0.31134072  0.96498197  0.80080244  1
  P  P9  1  0.92844826  0.79779988  0.80662428  1
  P  P10  1  0.10763765  0.70306336  0.44188148  1
  P  P11  1  0.69035760  0.03893145  0.18929588  1
  O  O12  1  0.43901191  0.32251216  0.67314179  1
  O  O13  1  0.55070069  0.17230338  0.07186480  1
  O  O14  1  0.79759217  0.46239472  0.45327491  1
  O  O15  1  0.30472094  0.79019107  0.45661499  1
  O  O16  1  0.45387848  0.83227503  0.91596606  1
  O  O17  1  0.00241349  0.71844143  0.27155441  1
  O  O18  1  0.39075293  0.05626067  0.65804862  1
  O  O19  1  0.60199065  0.55739815  0.65717102  1
  O  O20  1  0.10757420  0.17586739  0.05111792  1
  O  O21  1  0.55838471  0.68266705  0.31919862  1
  O  O22  1  0.27097349  0.04417793  0.89127392  1
  O  O23  1  0.60774389  0.94981233  0.33094860  1
  O  O24  1  0.73181725  0.95815218  0.10090153  1
  O  O25  1  0.69233593  0.21528636  0.53317536  1
  O  O26  1  0.99650260  0.28344903  0.72076757  1
  O  O27  1  0.92132884  0.08863171  0.26615379  1
  O  O28  1  0.39478083  0.44842271  0.33552003  1
  O  O29  1  0.08067344  0.91467783  0.72478150  1
  O  O30  1  0.19948874  0.54254565  0.54050010  1
  O  O31  1  0.72214109  0.81101340  0.67380199  1
  O  O32  1  0.89820047  0.82527580  0.94199510  1
  O  O33  1  0.36137298  0.41941963  0.84020808  1
  O  O34  1  0.94462219  0.72792641  0.51587340  1
  O  O35  1  0.05259717  0.27864308  0.47373085  1
  O  O36  1  0.63610279  0.58454670  0.15286026  1
  O  O37  1  0.04237350  0.65157894  0.88391223  1
  O  O38  1  0.27740548  0.19543872  0.31622116  1
  O  O39  1  0.95643049  0.35157661  0.10409489  1
