# generated using pymatgen
data_AgH12C4S5N
_symmetry_space_group_name_H-M   'P 1'
_cell_length_a   10.83171521
_cell_length_b   10.83171521
_cell_length_c   9.34222698
_cell_angle_alpha   67.15634511
_cell_angle_beta   112.84365489
_cell_angle_gamma   61.30548144
_symmetry_Int_Tables_number   1
_chemical_formula_structural   AgH12C4S5N
_chemical_formula_sum   'Ag2 H24 C8 S10 N2'
_cell_volume   623.24175211
_cell_formula_units_Z   2
loop_
 _symmetry_equiv_pos_site_id
 _symmetry_equiv_pos_as_xyz
  1  'x, y, z'
loop_
 _atom_site_type_symbol
 _atom_site_label
 _atom_site_symmetry_multiplicity
 _atom_site_fract_x
 _atom_site_fract_y
 _atom_site_fract_z
 _atom_site_occupancy
  Ag  Ag0  1  0.44429660  0.09961612  0.72512803  1
  Ag  Ag1  1  0.90038388  0.55570340  0.22512803  1
  H  H2  1  0.43504988  0.38223912  0.03113907  1
  H  H3  1  0.61776088  0.56495012  0.53113907  1
  H  H4  1  0.64558346  0.33310511  0.17964519  1
  H  H5  1  0.66689489  0.35441654  0.67964519  1
  H  H6  1  0.57473900  0.26292472  0.31176006  1
  H  H7  1  0.73707528  0.42526100  0.81176006  1
  H  H8  1  0.98393301  0.99015750  0.48321654  1
  H  H9  1  0.00984250  0.01606699  0.98321654  1
  H  H10  1  0.91062158  0.92237619  0.61345754  1
  H  H11  1  0.07762381  0.08937842  0.11345754  1
  H  H12  1  0.02067031  0.78710351  0.55729949  1
  H  H13  1  0.21289649  0.97932969  0.05729949  1
  H  H14  1  0.62754947  0.98855933  0.41443249  1
  H  H15  1  0.01144067  0.37245053  0.91443249  1
  H  H16  1  0.73716795  0.85311173  0.35750179  1
  H  H17  1  0.14688827  0.26283205  0.85750179  1
  H  H18  1  0.48840023  0.10430936  0.13462483  1
  H  H19  1  0.89569064  0.51159977  0.63462483  1
  H  H20  1  0.83295635  0.94618001  0.17947356  1
  H  H21  1  0.05381999  0.16704365  0.67947356  1
  H  H22  1  0.58346980  0.19885404  0.95468784  1
  H  H23  1  0.80114596  0.41653020  0.45468784  1
  H  H24  1  0.79539800  0.14894536  0.10595223  1
  H  H25  1  0.85105464  0.20460200  0.60595223  1
  C  C26  1  0.58378306  0.27890637  0.19369172  1
  C  C27  1  0.72109363  0.41621694  0.69369172  1
  C  C28  1  0.92440963  0.93336610  0.49978182  1
  C  C29  1  0.06663390  0.07559037  0.99978182  1
  C  C30  1  0.63670967  0.00007317  0.29758279  1
  C  C31  1  -0.00007317  0.36329033  0.79758279  1
  C  C32  1  0.73345706  0.09422660  0.11704490  1
  C  C33  1  0.90577340  0.26654294  0.61704490  1
  S  S34  1  0.54746254  0.81989242  0.05550527  1
  S  S35  1  0.18010758  0.45253746  0.55550527  1
  S  S36  1  0.71722350  0.02381865  0.74461963  1
  S  S37  1  0.97618135  0.28277650  0.24461963  1
  S  S38  1  0.39582181  0.77576255  0.91058255  1
  S  S39  1  0.22423745  0.60417819  0.41058255  1
  S  S40  1  0.41666999  0.78364795  0.69763875  1
  S  S41  1  0.21635205  0.58333001  0.19763875  1
  S  S42  1  0.28181759  0.06419880  0.45647989  1
  S  S43  1  0.93580120  0.71818241  0.95647989  1
  N  N44  1  0.71928070  0.07689648  0.27655402  1
  N  N45  1  0.92310352  0.28071930  0.77655402  1
