# generated using pymatgen
data_Nb3(Bi5Cl9)2
_symmetry_space_group_name_H-M   'P 1'
_cell_length_a   13.91274623
_cell_length_b   13.91274637
_cell_length_c   11.02259060
_cell_angle_alpha   90.00000000
_cell_angle_beta   90.00000000
_cell_angle_gamma   119.99999964
_symmetry_Int_Tables_number   1
_chemical_formula_structural   Nb3(Bi5Cl9)2
_chemical_formula_sum   'Nb6 Bi20 Cl36'
_cell_volume   1847.73651829
_cell_formula_units_Z   2
loop_
 _symmetry_equiv_pos_site_id
 _symmetry_equiv_pos_as_xyz
  1  'x, y, z'
loop_
 _atom_site_type_symbol
 _atom_site_label
 _atom_site_symmetry_multiplicity
 _atom_site_fract_x
 _atom_site_fract_y
 _atom_site_fract_z
 _atom_site_occupancy
  Nb  Nb0  1  0.21866754  0.88291691  0.24690365  1
  Nb  Nb1  1  0.11708309  0.33575063  0.24690365  1
  Nb  Nb2  1  0.33617538  0.21844573  0.74614654  1
  Nb  Nb3  1  0.66424937  0.78133246  0.24690365  1
  Nb  Nb4  1  0.88227035  0.66382462  0.74614654  1
  Nb  Nb5  1  0.78155427  0.11772965  0.74614654  1
  Bi  Bi6  1  0.00000000  0.00000000  0.39744422  1
  Bi  Bi7  1  0.00000000  0.00000000  0.86617467  1
  Bi  Bi8  1  0.21581490  0.69643244  0.57850655  1
  Bi  Bi9  1  0.21628007  0.69678646  0.92256761  1
  Bi  Bi10  1  0.10943258  0.48703595  0.74992680  1
  Bi  Bi11  1  0.37760337  0.89056742  0.74992680  1
  Bi  Bi12  1  0.30321354  0.51949361  0.92256761  1
  Bi  Bi13  1  0.30356756  0.51938246  0.57850655  1
  Bi  Bi14  1  0.48061754  0.78418510  0.57850655  1
  Bi  Bi15  1  0.48050639  0.78371993  0.92256761  1
  Bi  Bi16  1  0.51296405  0.62239663  0.74992680  1
  Bi  Bi17  1  0.48706892  0.37822007  0.25025595  1
  Bi  Bi18  1  0.51901406  0.21585435  0.07996756  1
  Bi  Bi19  1  0.51935264  0.21611967  0.42236341  1
  Bi  Bi20  1  0.69676703  0.48064736  0.42236341  1
  Bi  Bi21  1  0.69684029  0.48098594  0.07996756  1
  Bi  Bi22  1  0.62177993  0.10884885  0.25025595  1
  Bi  Bi23  1  0.89115115  0.51293108  0.25025595  1
  Bi  Bi24  1  0.78414565  0.30315971  0.07996756  1
  Bi  Bi25  1  0.78388033  0.30323297  0.42236341  1
  Cl  Cl26  1  0.06990268  0.81991595  0.75359576  1
  Cl  Cl27  1  0.08130308  0.82366186  0.09398551  1
  Cl  Cl28  1  0.07652876  0.84324247  0.40426156  1
  Cl  Cl29  1  0.06740883  0.43262078  0.09066047  1
  Cl  Cl30  1  0.06799632  0.43018786  0.40885041  1
  Cl  Cl31  1  0.19204880  0.69657919  0.25758297  1
  Cl  Cl32  1  0.36521195  0.93259117  0.09066047  1
  Cl  Cl33  1  0.36219153  0.93200368  0.40885041  1
  Cl  Cl34  1  0.15675753  0.23328629  0.40426156  1
  Cl  Cl35  1  0.17633814  0.25764122  0.09398551  1
  Cl  Cl36  1  0.30342081  0.49546961  0.25758297  1
  Cl  Cl37  1  0.18008405  0.24998673  0.75359576  1
  Cl  Cl38  1  0.50453039  0.80795120  0.25758297  1
  Cl  Cl39  1  0.25659138  0.08196880  0.59111021  1
  Cl  Cl40  1  0.23205395  0.07397018  0.90024574  1
  Cl  Cl41  1  0.25723935  0.07218682  0.25251142  1
  Cl  Cl42  1  0.43178216  0.36587748  0.59046493  1
  Cl  Cl43  1  0.42901335  0.36126399  0.90810032  1
  Cl  Cl44  1  0.56737922  0.63478805  0.09066047  1
  Cl  Cl45  1  0.56981214  0.63780847  0.40885041  1
  Cl  Cl46  1  0.75001327  0.93009732  0.75359576  1
  Cl  Cl47  1  0.74235878  0.91869692  0.09398551  1
  Cl  Cl48  1  0.76671371  0.92347124  0.40426156  1
  Cl  Cl49  1  0.49521629  0.19092945  0.75441965  1
  Cl  Cl50  1  0.81494747  0.74276065  0.25251142  1
  Cl  Cl51  1  0.69571316  0.50478371  0.75441965  1
  Cl  Cl52  1  0.84191623  0.76794605  0.90024574  1
  Cl  Cl53  1  0.82537743  0.74340862  0.59111021  1
  Cl  Cl54  1  0.63412252  0.06590469  0.59046493  1
  Cl  Cl55  1  0.63873601  0.06774936  0.90810032  1
  Cl  Cl56  1  0.80907055  0.30428684  0.75441965  1
  Cl  Cl57  1  0.93409531  0.56821784  0.59046493  1
  Cl  Cl58  1  0.93225064  0.57098665  0.90810032  1
  Cl  Cl59  1  0.91803120  0.17462257  0.59111021  1
  Cl  Cl60  1  0.92602982  0.15808377  0.90024574  1
  Cl  Cl61  1  0.92781318  0.18505253  0.25251142  1
