# generated using pymatgen
data_CaH4(N3O)2
_symmetry_space_group_name_H-M   'P 1'
_cell_length_a   11.71548259
_cell_length_b   6.18134472
_cell_length_c   7.93971450
_cell_angle_alpha   90.00000000
_cell_angle_beta   106.32864791
_cell_angle_gamma   90.00000000
_symmetry_Int_Tables_number   1
_chemical_formula_structural   CaH4(N3O)2
_chemical_formula_sum   'Ca4 H16 N24 O8'
_cell_volume   551.78211026
_cell_formula_units_Z   4
loop_
 _symmetry_equiv_pos_site_id
 _symmetry_equiv_pos_as_xyz
  1  'x, y, z'
loop_
 _atom_site_type_symbol
 _atom_site_label
 _atom_site_symmetry_multiplicity
 _atom_site_fract_x
 _atom_site_fract_y
 _atom_site_fract_z
 _atom_site_occupancy
  Ca  Ca0  1  0.51238431  0.74948466  0.19007751  1
  Ca  Ca1  1  0.01238431  0.75051534  0.69007751  1
  Ca  Ca2  1  0.48761569  0.25051534  0.80992249  1
  Ca  Ca3  1  0.98761569  0.24948466  0.30992249  1
  H  H4  1  0.37913695  0.69871915  0.80249282  1
  H  H5  1  0.87913695  0.80128085  0.30249282  1
  H  H6  1  0.62086305  0.30128085  0.19750718  1
  H  H7  1  0.12086305  0.19871915  0.69750718  1
  H  H8  1  0.30359930  0.54805698  0.89195403  1
  H  H9  1  0.80359930  0.95194302  0.39195403  1
  H  H10  1  0.69640070  0.45194302  0.10804597  1
  H  H11  1  0.19640070  0.04805698  0.60804597  1
  H  H12  1  0.31034327  0.02844343  0.99617545  1
  H  H13  1  0.81034327  0.47155657  0.49617545  1
  H  H14  1  0.68965673  0.97155657  0.00382455  1
  H  H15  1  0.18965673  0.52844343  0.50382455  1
  H  H16  1  0.39360016  0.20053246  0.11615602  1
  H  H17  1  0.89360016  0.29946754  0.61615602  1
  H  H18  1  0.60639984  0.79946754  0.88384398  1
  H  H19  1  0.10639984  0.70053246  0.38384398  1
  N  N20  1  0.64576413  0.06955049  0.34584283  1
  N  N21  1  0.14576413  0.43044951  0.84584283  1
  N  N22  1  0.35423587  0.93044951  0.65415717  1
  N  N23  1  0.85423587  0.56955049  0.15415717  1
  N  N24  1  0.40116921  0.41828321  0.26102740  1
  N  N25  1  0.90116921  0.08171679  0.76102740  1
  N  N26  1  0.59883079  0.58171679  0.73897260  1
  N  N27  1  0.09883079  0.91828321  0.23897260  1
  N  N28  1  0.62626646  0.10026028  0.48465818  1
  N  N29  1  0.12626646  0.39973972  0.98465818  1
  N  N30  1  0.37373354  0.89973972  0.51534182  1
  N  N31  1  0.87373354  0.60026028  0.01534182  1
  N  N32  1  0.37020372  0.40364848  0.39036233  1
  N  N33  1  0.87020372  0.09635152  0.89036233  1
  N  N34  1  0.62979628  0.59635152  0.60963767  1
  N  N35  1  0.12979628  0.90364848  0.10963767  1
  N  N36  1  0.60885455  0.12509012  0.62111450  1
  N  N37  1  0.10885455  0.37490988  0.12111450  1
  N  N38  1  0.39114545  0.87490988  0.37888550  1
  N  N39  1  0.89114545  0.62509012  0.87888550  1
  N  N40  1  0.33946049  0.39190708  0.52005776  1
  N  N41  1  0.83946049  0.10809292  0.02005776  1
  N  N42  1  0.66053951  0.60809292  0.47994224  1
  N  N43  1  0.16053951  0.89190708  0.97994224  1
  O  O44  1  0.38685622  0.58775653  0.89760301  1
  O  O45  1  0.88685622  0.91224347  0.39760301  1
  O  O46  1  0.61314378  0.41224347  0.10239699  1
  O  O47  1  0.11314378  0.08775653  0.60239699  1
  O  O48  1  0.39223904  0.08762070  0.02423322  1
  O  O49  1  0.89223904  0.41237930  0.52423322  1
  O  O50  1  0.60776096  0.91237930  0.97576678  1
  O  O51  1  0.10776096  0.58762070  0.47576678  1
