# generated using pymatgen
data_Cs2Zr2ZnH12(OF2)6
_symmetry_space_group_name_H-M   'P 1'
_cell_length_a   6.95008348
_cell_length_b   10.77284898
_cell_length_c   13.56863732
_cell_angle_alpha   90.00000000
_cell_angle_beta   92.93289760
_cell_angle_gamma   90.00000000
_symmetry_Int_Tables_number   1
_chemical_formula_structural   Cs2Zr2ZnH12(OF2)6
_chemical_formula_sum   'Cs4 Zr4 Zn2 H24 O12 F24'
_cell_volume   1014.58302306
_cell_formula_units_Z   2
loop_
 _symmetry_equiv_pos_site_id
 _symmetry_equiv_pos_as_xyz
  1  'x, y, z'
loop_
 _atom_site_type_symbol
 _atom_site_label
 _atom_site_symmetry_multiplicity
 _atom_site_fract_x
 _atom_site_fract_y
 _atom_site_fract_z
 _atom_site_occupancy
  Cs  Cs0  1  0.94104166  0.20987448  0.41588707  1
  Cs  Cs1  1  0.44104166  0.29012552  0.91588707  1
  Cs  Cs2  1  0.05895834  0.79012552  0.58411293  1
  Cs  Cs3  1  0.55895834  0.70987448  0.08411293  1
  Zr  Zr4  1  0.01424905  0.46415925  0.13352446  1
  Zr  Zr5  1  0.51424905  0.03584075  0.63352446  1
  Zr  Zr6  1  0.98575095  0.53584075  0.86647554  1
  Zr  Zr7  1  0.48575095  0.96415925  0.36647554  1
  Zn  Zn8  1  0.50000000  0.50000000  0.50000000  1
  Zn  Zn9  1  0.00000000  0.00000000  -0.00000000  1
  H  H10  1  0.76662415  0.11363996  0.79810618  1
  H  H11  1  0.26662415  0.38636004  0.29810618  1
  H  H12  1  0.23337585  0.88636004  0.20189382  1
  H  H13  1  0.73337585  0.61363996  0.70189382  1
  H  H14  1  0.55222504  0.73183073  0.70467895  1
  H  H15  1  0.05222504  0.76816927  0.20467895  1
  H  H16  1  0.44777496  0.26816927  0.29532105  1
  H  H17  1  0.94777496  0.23183073  0.79532105  1
  H  H18  1  0.63146405  0.32852208  0.57807737  1
  H  H19  1  0.13146405  0.17147792  0.07807737  1
  H  H20  1  0.36853595  0.67147792  0.42192263  1
  H  H21  1  0.86853595  0.82852208  0.92192263  1
  H  H22  1  0.10078455  0.38082423  0.64708099  1
  H  H23  1  0.60078455  0.11917577  0.14707999  1
  H  H24  1  0.89921545  0.61917577  0.35291901  1
  H  H25  1  0.39921545  0.88082423  0.85291901  1
  H  H26  1  0.94495810  0.41256699  0.56633094  1
  H  H27  1  0.44495810  0.08743301  0.06633094  1
  H  H28  1  0.05504190  0.58743301  0.43366906  1
  H  H29  1  0.55504190  0.91256699  0.93366906  1
  H  H30  1  0.55282673  0.59986515  0.77007650  1
  H  H31  1  0.05282673  0.90013485  0.27007650  1
  H  H32  1  0.44717327  0.40013485  0.22992350  1
  H  H33  1  0.94717327  0.09986515  0.72992350  1
  O  O34  1  0.91764075  0.61279596  0.42436511  1
  O  O35  1  0.41764075  0.88720404  0.92436511  1
  O  O36  1  0.08235925  0.38720404  0.57563489  1
  O  O37  1  0.58235925  0.11279596  0.07563489  1
  O  O38  1  0.68647647  0.39117335  0.53393460  1
  O  O39  1  0.18647647  0.10882665  0.03393460  1
  O  O40  1  0.31352353  0.60882665  0.46606540  1
  O  O41  1  0.81352353  0.89117335  0.96606540  1
  O  O42  1  0.58334621  0.63639842  0.70535062  1
  O  O43  1  0.08334621  0.86360158  0.20535062  1
  O  O44  1  0.41665379  0.36360158  0.29464938  1
  O  O45  1  0.91665379  0.13639842  0.79464938  1
  F  F46  1  0.97991768  0.60666740  0.01708022  1
  F  F47  1  0.47991768  0.89333260  0.51708022  1
  F  F48  1  0.02008232  0.39333260  0.98291978  1
  F  F49  1  0.52008232  0.10666740  0.48291978  1
  F  F50  1  0.02956726  0.27746022  0.14999718  1
  F  F51  1  0.52956726  0.22253978  0.64999718  1
  F  F52  1  0.97043274  0.72253978  0.85000282  1
  F  F53  1  0.47043274  0.77746022  0.35000282  1
  F  F54  1  0.72636749  0.45613437  0.13749702  1
  F  F55  1  0.22636749  0.04386563  0.63749702  1
  F  F56  1  0.27363251  0.54386563  0.86250298  1
  F  F57  1  0.77363251  0.95613437  0.36250298  1
  F  F58  1  0.08387786  0.43009394  0.28722076  1
  F  F59  1  0.58387786  0.06990606  0.78722076  1
  F  F60  1  0.91612214  0.56990606  0.71277924  1
  F  F61  1  0.41612214  0.93009394  0.21277924  1
  F  F62  1  0.99323698  0.64223162  0.20402351  1
  F  F63  1  0.49323698  0.85776838  0.70402351  1
  F  F64  1  0.00676302  0.35776838  0.79597649  1
  F  F65  1  0.50676302  0.14223162  0.29597649  1
  F  F66  1  0.30723518  0.48394883  0.12905689  1
  F  F67  1  0.80723518  0.01605117  0.62905689  1
  F  F68  1  0.69276482  0.51605117  0.87094311  1
  F  F69  1  0.19276482  0.98394883  0.37094311  1
