# generated using pymatgen
data_ZnAs4(HO2)8
_symmetry_space_group_name_H-M   'P 1'
_cell_length_a   5.63059198
_cell_length_b   7.45949954
_cell_length_c   8.17820345
_cell_angle_alpha   96.42590924
_cell_angle_beta   96.16135703
_cell_angle_gamma   92.72469749
_symmetry_Int_Tables_number   1
_chemical_formula_structural   ZnAs4(HO2)8
_chemical_formula_sum   'Zn1 As4 H8 O16'
_cell_volume   338.74921790
_cell_formula_units_Z   1
loop_
 _symmetry_equiv_pos_site_id
 _symmetry_equiv_pos_as_xyz
  1  'x, y, z'
loop_
 _atom_site_type_symbol
 _atom_site_label
 _atom_site_symmetry_multiplicity
 _atom_site_fract_x
 _atom_site_fract_y
 _atom_site_fract_z
 _atom_site_occupancy
  Zn  Zn0  1  0.00000000  0.00000000  0.00000000  1
  As  As1  1  0.07901769  0.31094616  0.74433721  1
  As  As2  1  0.44464494  0.82795990  0.79592961  1
  As  As3  1  0.55535506  0.17204010  0.20407039  1
  As  As4  1  0.92098231  0.68905384  0.25566279  1
  H  H5  1  0.01798749  0.61916052  0.77471016  1
  H  H6  1  0.27715383  0.27837373  0.51005721  1
  H  H7  1  0.37319746  0.42591854  0.31014560  1
  H  H8  1  0.35294240  0.92251379  0.27260447  1
  H  H9  1  0.64705760  0.07748621  0.72739553  1
  H  H10  1  0.62680254  0.57408146  0.68985440  1
  H  H11  1  0.72284617  0.72162627  0.48994279  1
  H  H12  1  0.98201151  0.38083948  0.22528984  1
  O  O13  1  0.16009606  0.80199284  0.83924934  1
  O  O14  1  0.11767789  0.23982953  0.53792595  1
  O  O15  1  0.09539750  0.85441149  0.19589092  1
  O  O16  1  0.08988046  0.49712029  0.26337116  1
  O  O17  1  0.34178699  0.37884585  0.87138574  1
  O  O18  1  0.49318045  0.64564440  0.64556378  1
  O  O19  1  0.47896520  0.01710706  0.69277640  1
  O  O20  1  0.32925633  0.15622008  0.04077603  1
  O  O21  1  0.67074367  0.84377992  0.95922397  1
  O  O22  1  0.52103480  0.98289294  0.30722360  1
  O  O23  1  0.50681955  0.35435560  0.35443622  1
  O  O24  1  0.65821301  0.62115415  0.12861426  1
  O  O25  1  0.91011954  0.50287971  0.73662884  1
  O  O26  1  0.90460250  0.14558851  0.80410908  1
  O  O27  1  0.88232211  0.76017047  0.46207405  1
  O  O28  1  0.83990394  0.19800716  0.16075066  1
