# generated using pymatgen
data_W9C4
_symmetry_space_group_name_H-M   'P 1'
_cell_length_a   15.65418078
_cell_length_b   9.03800719
_cell_length_c   7.07690374
_cell_angle_alpha   50.31630454
_cell_angle_beta   42.49541538
_cell_angle_gamma   30.00013702
_symmetry_Int_Tables_number   1
_chemical_formula_structural   W9C4
_chemical_formula_sum   'W18 C8'
_cell_volume   338.19216204
_cell_formula_units_Z   2
loop_
 _symmetry_equiv_pos_site_id
 _symmetry_equiv_pos_as_xyz
  1  'x, y, z'
loop_
 _atom_site_type_symbol
 _atom_site_label
 _atom_site_symmetry_multiplicity
 _atom_site_fract_x
 _atom_site_fract_y
 _atom_site_fract_z
 _atom_site_occupancy
  W  W0  1  0.02991245  0.00016163  0.24471699  1
  W  W1  1  0.02294400  0.34648462  0.25039412  1
  W  W2  1  0.02388761  0.66571858  0.25040341  1
  W  W3  1  0.36070617  0.99768729  0.25417601  1
  W  W4  1  0.36197400  0.33461848  0.24469117  1
  W  W5  1  0.30341553  0.33460856  0.75528804  1
  W  W6  1  0.36340075  0.66523340  0.24470358  1
  W  W7  1  0.70276170  0.98779457  0.25040576  1
  W  W8  1  0.31037798  0.66573439  0.74960403  1
  W  W9  1  0.69338671  0.33399369  0.25417397  1
  W  W10  1  0.30944930  0.98778149  0.74959964  1
  W  W11  1  0.63057134  0.34648093  0.74959863  1
  W  W12  1  0.69172441  0.66833479  0.25418045  1
  W  W13  1  0.63995181  0.66833641  0.74580074  1
  W  W14  1  0.64161070  0.99767887  0.74582471  1
  W  W15  1  0.97262726  0.33398227  0.74581241  1
  W  W16  1  0.97136113  0.66524495  0.75531003  1
  W  W17  1  0.96993302  0.00013282  0.75529015  1
  C  C18  1  0.00096239  0.99805457  0.00001029  1
  C  C19  1  0.33236357  0.00095238  -0.00000945  1
  C  C20  1  0.16665421  0.33440231  0.50002969  1
  C  C21  1  0.66666163  0.00100157  0.00001960  1
  C  C22  1  0.16668898  0.66664032  0.49995721  1
  C  C23  1  0.49894962  0.33438141  0.50002563  1
  C  C24  1  0.66668529  0.66665059  0.99995922  1
  C  C25  1  0.83437246  0.33124211  0.50003395  1
