# generated using pymatgen
data_La5Sm3Cr8O24
_symmetry_space_group_name_H-M   'P 1'
_cell_length_a   7.84139526
_cell_length_b   7.84144084
_cell_length_c   7.84144084
_cell_angle_alpha   89.99766738
_cell_angle_beta   90.00000000
_cell_angle_gamma   90.00000000
_symmetry_Int_Tables_number   1
_chemical_formula_structural   La5Sm3Cr8O24
_chemical_formula_sum   'La5 Sm3 Cr8 O24'
_cell_volume   482.15323628
_cell_formula_units_Z   1
loop_
 _symmetry_equiv_pos_site_id
 _symmetry_equiv_pos_as_xyz
  1  'x, y, z'
loop_
 _atom_site_type_symbol
 _atom_site_label
 _atom_site_symmetry_multiplicity
 _atom_site_fract_x
 _atom_site_fract_y
 _atom_site_fract_z
 _atom_site_occupancy
  La  La0  1  0.25000000  0.24999832  0.24999369  1
  La  La1  1  0.25000000  0.25000560  0.74999440  1
  La  La2  1  0.25000000  0.75000492  0.24999508  1
  La  La3  1  0.25000000  0.75000631  0.75000168  1
  La  La4  1  0.75000000  0.75000367  0.24999633  1
  Sm  Sm5  1  0.75000000  0.25000162  0.25000222  1
  Sm  Sm6  1  0.75000000  0.25000100  0.74999900  1
  Sm  Sm7  1  0.75000000  0.74999778  0.74999838  1
  Cr  Cr8  1  0.99935216  0.00020731  0.99979269  1
  Cr  Cr9  1  0.99934865  0.00021352  0.50021428  1
  Cr  Cr10  1  0.99934865  0.49978572  0.99978648  1
  Cr  Cr11  1  0.99934510  0.49978197  0.50021803  1
  Cr  Cr12  1  0.50064784  0.00020731  0.99979269  1
  Cr  Cr13  1  0.50065135  0.00021352  0.50021428  1
  Cr  Cr14  1  0.50065135  0.49978572  0.99978648  1
  Cr  Cr15  1  0.50065490  0.49978197  0.50021803  1
  O  O16  1  0.25000000  0.00001463  -0.00001463  1
  O  O17  1  0.25000000  0.00001546  0.50002038  1
  O  O18  1  0.25000000  0.49997962  -0.00001546  1
  O  O19  1  0.25000000  0.49998633  0.50001367  1
  O  O20  1  0.75000000  0.00108886  0.99891114  1
  O  O21  1  0.75000000  0.00108741  0.50108604  1
  O  O22  1  0.75000000  0.49891396  0.99891259  1
  O  O23  1  0.75000000  0.49891321  0.50108679  1
  O  O24  1  0.99779588  0.25000188  -0.00002024  1
  O  O25  1  0.99779249  0.24999206  0.50001862  1
  O  O26  1  0.99887034  0.74999756  0.99889682  1
  O  O27  1  0.99886748  0.75000362  0.50109778  1
  O  O28  1  0.50220412  0.25000188  -0.00002024  1
  O  O29  1  0.50220751  0.24999206  0.50001862  1
  O  O30  1  0.50112966  0.74999756  0.99889682  1
  O  O31  1  0.50113252  0.75000362  0.50109778  1
  O  O32  1  0.99887034  0.00110318  0.25000244  1
  O  O33  1  0.99779588  0.00002024  0.74999812  1
  O  O34  1  0.99886748  0.49890222  0.24999638  1
  O  O35  1  0.99779249  0.49998138  0.75000794  1
  O  O36  1  0.50112966  0.00110318  0.25000244  1
  O  O37  1  0.50220412  0.00002024  0.74999812  1
  O  O38  1  0.50113252  0.49890222  0.24999638  1
  O  O39  1  0.50220751  0.49998138  0.75000794  1
