# generated using pymatgen
data_LiNi4P7O24
_symmetry_space_group_name_H-M   'P 1'
_cell_length_a   10.38173151
_cell_length_b   10.30450730
_cell_length_c   11.15482875
_cell_angle_alpha   113.06311380
_cell_angle_beta   110.05752653
_cell_angle_gamma   105.03995068
_symmetry_Int_Tables_number   1
_chemical_formula_structural   LiNi4P7O24
_chemical_formula_sum   'Li2 Ni8 P14 O48'
_cell_volume   918.04713538
_cell_formula_units_Z   2
loop_
 _symmetry_equiv_pos_site_id
 _symmetry_equiv_pos_as_xyz
  1  'x, y, z'
loop_
 _atom_site_type_symbol
 _atom_site_label
 _atom_site_symmetry_multiplicity
 _atom_site_fract_x
 _atom_site_fract_y
 _atom_site_fract_z
 _atom_site_occupancy
  Li  Li0  1  0.96672546  0.57334332  0.42237123  1
  Li  Li1  1  0.03327454  0.42665668  0.57762877  1
  Ni  Ni2  1  0.75899929  0.15473084  0.25611533  1
  Ni  Ni3  1  0.92380220  0.30406183  0.92318040  1
  Ni  Ni4  1  0.24100071  0.84526916  0.74388467  1
  Ni  Ni5  1  0.37296537  0.21835272  0.88017442  1
  Ni  Ni6  1  0.43806380  0.58959048  0.41914180  1
  Ni  Ni7  1  0.62703463  0.78164728  0.11982558  1
  Ni  Ni8  1  0.07619780  0.69593817  0.07681960  1
  Ni  Ni9  1  0.56193620  0.41040952  0.58085820  1
  P  P10  1  0.06148925  0.32252147  0.26459096  1
  P  P11  1  0.38986780  0.94144009  0.12274507  1
  P  P12  1  0.51458944  0.28955206  0.24838612  1
  P  P13  1  0.23708541  0.80677510  0.43305733  1
  P  P14  1  0.26506120  0.13262419  0.52029801  1
  P  P15  1  0.76291459  0.19322490  0.56694267  1
  P  P16  1  0.61013220  0.05855991  0.87725493  1
  P  P17  1  0.48541056  0.71044794  0.75161388  1
  P  P18  1  0.70357772  0.48854483  0.94757340  1
  P  P19  1  0.01153384  0.99691730  0.77432338  1
  P  P20  1  0.29642328  0.51145517  0.05242660  1
  P  P21  1  0.98846616  0.00308270  0.22567662  1
  P  P22  1  0.73493880  0.86737581  0.47970199  1
  P  P23  1  0.93851075  0.67747853  0.73540904  1
  O  O24  1  0.91574185  0.94099137  0.60038287  1
  O  O25  1  0.58933253  0.88086660  0.78715491  1
  O  O26  1  0.22729999  0.44540044  0.35858004  1
  O  O27  1  0.29904066  0.85042642  0.16854016  1
  O  O28  1  0.15901656  0.78729441  0.52361517  1
  O  O29  1  0.35069202  0.24933475  0.49369860  1
  O  O30  1  0.27214189  0.36033811  0.92218376  1
  O  O31  1  0.93981409  0.84876624  0.78798123  1
  O  O32  1  0.30464331  0.87663108  0.95403912  1
  O  O33  1  0.68322821  0.31995254  0.30306399  1
  O  O34  1  0.88722899  0.30062202  0.73347786  1
  O  O35  1  0.45317174  0.28800546  0.10325599  1
  O  O36  1  0.84098344  0.21270559  0.47638483  1
  O  O37  1  0.55644991  0.96101572  0.17551340  1
  O  O38  1  0.86243183  0.49192304  0.98023008  1
  O  O39  1  0.70095934  0.14957358  0.83145984  1
  O  O40  1  0.49969026  0.59557611  0.62554366  1
  O  O41  1  0.54682826  0.71199454  0.89674401  1
  O  O42  1  0.17250714  0.02060911  0.80249288  1
  O  O43  1  0.72229712  0.81369691  0.32905127  1
  O  O44  1  0.69454591  0.01347744  0.52759251  1
  O  O45  1  0.08425815  0.05900863  0.39961713  1
  O  O46  1  0.77270001  0.55459956  0.64141996  1
  O  O47  1  0.00283704  0.86777527  0.12508214  1
  O  O48  1  0.30545409  0.98652256  0.47240749  1
  O  O49  1  0.69535669  0.12336892  0.04596088  1
  O  O50  1  0.82749286  0.97939089  0.19750712  1
  O  O51  1  0.37581275  0.53574305  0.20737887  1
  O  O52  1  0.62471812  0.22709745  0.53624650  1
  O  O53  1  0.27770288  0.18630309  0.67094873  1
  O  O54  1  0.62418725  0.46425695  0.79262113  1
  O  O55  1  0.31677179  0.68004746  0.69693601  1
  O  O56  1  0.39994033  0.63791266  0.03989152  1
  O  O57  1  0.97706294  0.34632590  0.35635047  1
  O  O58  1  0.02293706  0.65367410  0.64364953  1
  O  O59  1  0.97787259  0.32575745  0.12439912  1
  O  O60  1  0.50030974  0.40442389  0.37445634  1
  O  O61  1  0.44355009  0.03898428  0.82448660  1
  O  O62  1  0.06018591  0.15123376  0.21201877  1
  O  O63  1  0.99716296  0.13222473  0.87491686  1
  O  O64  1  0.60005967  0.36208734  0.96010848  1
  O  O65  1  0.72785811  0.63966189  0.07781624  1
  O  O66  1  0.13756817  0.50807696  0.01976992  1
  O  O67  1  0.02212741  0.67424255  0.87560088  1
  O  O68  1  0.64930798  0.75066525  0.50630140  1
  O  O69  1  0.41066747  0.11913340  0.21284509  1
  O  O70  1  0.37528188  0.77290255  0.46375350  1
  O  O71  1  0.11277101  0.69937798  0.26652214  1
