# generated using pymatgen
data_MnH19C6I3N2
_symmetry_space_group_name_H-M   'P 1'
_cell_length_a   13.37048723
_cell_length_b   10.97985215
_cell_length_c   12.03761927
_cell_angle_alpha   90.00000000
_cell_angle_beta   95.92067489
_cell_angle_gamma   90.00000000
_symmetry_Int_Tables_number   1
_chemical_formula_structural   MnH19C6I3N2
_chemical_formula_sum   'Mn4 H76 C24 I12 N8'
_cell_volume   1757.76759401
_cell_formula_units_Z   4
loop_
 _symmetry_equiv_pos_site_id
 _symmetry_equiv_pos_as_xyz
  1  'x, y, z'
loop_
 _atom_site_type_symbol
 _atom_site_label
 _atom_site_symmetry_multiplicity
 _atom_site_fract_x
 _atom_site_fract_y
 _atom_site_fract_z
 _atom_site_occupancy
  Mn  Mn0  1  0.76415484  0.05136795  0.18478433  1
  Mn  Mn1  1  0.23584516  0.55136795  0.31521567  1
  Mn  Mn2  1  0.23584516  0.94863205  0.81521567  1
  Mn  Mn3  1  0.76415484  0.44863205  0.68478433  1
  H  H4  1  0.34503386  0.19356565  0.20428617  1
  H  H5  1  0.65496614  0.69356565  0.29571383  1
  H  H6  1  0.65496614  0.80643435  0.79571383  1
  H  H7  1  0.34503386  0.30643435  0.70428617  1
  H  H8  1  0.01386753  0.27185661  0.23129532  1
  H  H9  1  0.98613247  0.77185661  0.26870468  1
  H  H10  1  0.98613247  0.72814339  0.76870468  1
  H  H11  1  0.01386753  0.22814339  0.73129532  1
  H  H12  1  0.89913087  0.28649695  0.14124225  1
  H  H13  1  0.10086913  0.78649695  0.35875775  1
  H  H14  1  0.10086913  0.71350305  0.85875775  1
  H  H15  1  0.89913087  0.21350305  0.64124225  1
  H  H16  1  0.97834242  0.15713917  0.12764108  1
  H  H17  1  0.02165758  0.65713917  0.37235892  1
  H  H18  1  0.02165758  0.84286083  0.87235892  1
  H  H19  1  0.97834242  0.34286083  0.62764108  1
  H  H20  1  0.99429883  0.00643158  0.28871208  1
  H  H21  1  0.00570117  0.50643158  0.21128792  1
  H  H22  1  0.00570117  0.99356842  0.71128792  1
  H  H23  1  0.99429883  0.49356842  0.78871208  1
  H  H24  1  0.92303575  0.03518467  0.40368322  1
  H  H25  1  0.07696425  0.53518467  0.09631678  1
  H  H26  1  0.07696425  0.96481533  0.59631678  1
  H  H27  1  0.92303575  0.46481533  0.90368322  1
  H  H28  1  0.02632039  0.13338590  0.38094920  1
  H  H29  1  0.97367961  0.63338590  0.11905080  1
  H  H30  1  0.97367961  0.86661410  0.61905080  1
  H  H31  1  0.02632039  0.36661410  0.88094920  1
  H  H32  1  0.81285292  0.20368943  0.40515808  1
  H  H33  1  0.18714708  0.70368943  0.09484192  1
  H  H34  1  0.18714708  0.79631057  0.59484192  1
  H  H35  1  0.81285292  0.29631057  0.90515808  1
  H  H36  1  0.79796342  0.30539089  0.28928727  1
  H  H37  1  0.20203658  0.80539089  0.21071273  1
  H  H38  1  0.20203658  0.69460911  0.71071273  1
  H  H39  1  0.79796342  0.19460911  0.78928727  1
  H  H40  1  0.91339306  0.30667654  0.38114808  1
  H  H41  1  0.08660694  0.80667654  0.11885192  1
  H  H42  1  0.08660694  0.69332346  0.61885192  1
  H  H43  1  0.91339306  0.19332346  0.88114808  1
  H  H44  1  0.27264424  0.00809586  0.35472926  1
  H  H45  1  0.72735576  0.50809586  0.14527074  1
  H  H46  1  0.72735576  0.99190414  0.64527074  1
  H  H47  1  0.27264424  0.49190414  0.85472926  1
  H  H48  1  0.20719295  0.06433644  0.22585530  1
  H  H49  1  0.79280705  0.56433644  0.27414470  1
  H  H50  1  0.79280705  0.93566356  0.77414470  1
  H  H51  1  0.20719295  0.43566356  0.72585530  1
  H  H52  1  0.23408176  0.16523798  0.34338236  1
  H  H53  1  0.76591824  0.66523798  0.15661764  1
  H  H54  1  0.76591824  0.83476202  0.65661764  1
  H  H55  1  0.23408176  0.33476202  0.84338236  1
  H  H56  1  0.44897846  0.08465932  0.40884389  1
  H  H57  1  0.55102154  0.58465932  0.09115611  1
  H  H58  1  0.55102154  0.91534068  0.59115611  1
  H  H59  1  0.44897846  0.41534068  0.90884389  1
  H  H60  1  0.40209732  0.23747830  0.39023697  1
  H  H61  1  0.59790268  0.73747830  0.10976303  1
  H  H62  1  0.59790268  0.76252170  0.60976303  1
  H  H63  1  0.40209732  0.26252170  0.89023697  1
  H  H64  1  0.50319001  0.18584670  0.31394515  1
  H  H65  1  0.49680999  0.68584670  0.18605485  1
  H  H66  1  0.49680999  0.81415330  0.68605485  1
  H  H67  1  0.50319001  0.31415330  0.81394515  1
  H  H68  1  0.46629198  0.04527668  0.15737282  1
  H  H69  1  0.53370802  0.54527668  0.34262718  1
  H  H70  1  0.53370802  0.95472332  0.84262718  1
  H  H71  1  0.46629198  0.45472332  0.65737282  1
  H  H72  1  0.33862433  0.99624319  0.12096995  1
  H  H73  1  0.66137567  0.49624319  0.37903005  1
  H  H74  1  0.66137567  0.00375681  0.87903005  1
  H  H75  1  0.33862433  0.50375681  0.62096995  1
  H  H76  1  0.40974059  0.93656232  0.24463374  1
  H  H77  1  0.59025941  0.43656232  0.25536626  1
  H  H78  1  0.59025941  0.06343768  0.75536626  1
  H  H79  1  0.40974059  0.56343768  0.74463374  1
  C  C80  1  0.95029849  0.22147729  0.18692477  1
  C  C81  1  0.04970151  0.72147729  0.31307523  1
  C  C82  1  0.04970151  0.77852271  0.81307523  1
  C  C83  1  0.95029849  0.27852271  0.68692477  1
  C  C84  1  0.96414697  0.07795077  0.33972004  1
  C  C85  1  0.03585303  0.57795077  0.16027996  1
  C  C86  1  0.03585303  0.92204923  0.66027996  1
  C  C87  1  0.96414697  0.42204923  0.83972004  1
  C  C88  1  0.85229259  0.24897244  0.34107850  1
  C  C89  1  0.14770741  0.74897244  0.15892150  1
  C  C90  1  0.14770741  0.75102756  0.65892150  1
  C  C91  1  0.85229259  0.25102756  0.84107850  1
  C  C92  1  0.26048014  0.08656650  0.29841516  1
  C  C93  1  0.73951986  0.58656650  0.20158484  1
  C  C94  1  0.73951986  0.91343350  0.70158484  1
  C  C95  1  0.26048014  0.41343350  0.79841516  1
  C  C96  1  0.43399832  0.15966654  0.34935586  1
  C  C97  1  0.56600168  0.65966654  0.15064414  1
  C  C98  1  0.56600168  0.84033346  0.65064414  1
  C  C99  1  0.43399832  0.34033346  0.84935586  1
  C  C100  1  0.39637469  0.01633215  0.18989572  1
  C  C101  1  0.60362531  0.51633215  0.31010428  1
  C  C102  1  0.60362531  0.98366785  0.81010428  1
  C  C103  1  0.39637469  0.48366785  0.68989572  1
  I  I104  1  0.68923126  0.92729844  0.35085610  1
  I  I105  1  0.31076874  0.42729844  0.14914390  1
  I  I106  1  0.31076874  0.07270156  0.64914390  1
  I  I107  1  0.68923126  0.57270156  0.85085610  1
  I  I108  1  0.84286127  0.90319232  0.04164472  1
  I  I109  1  0.15713873  0.40319232  0.45835528  1
  I  I110  1  0.15713873  0.09680768  0.95835528  1
  I  I111  1  0.84286127  0.59680768  0.54164472  1
  I  I112  1  0.63844593  0.21780251  0.08577423  1
  I  I113  1  0.36155407  0.71780251  0.41422577  1
  I  I114  1  0.36155407  0.78219749  0.91422577  1
  I  I115  1  0.63844593  0.28219749  0.58577423  1
  N  N116  1  0.89409822  0.15673085  0.26902964  1
  N  N117  1  0.10590178  0.65673085  0.23097036  1
  N  N118  1  0.10590178  0.84326915  0.73097036  1
  N  N119  1  0.89409822  0.34326915  0.76902964  1
  N  N120  1  0.35870505  0.11807048  0.25677716  1
  N  N121  1  0.64129495  0.61807048  0.24322284  1
  N  N122  1  0.64129495  0.88192952  0.74322284  1
  N  N123  1  0.35870505  0.38192952  0.75677716  1
