# generated using pymatgen
data_Na4H20RuS4(NO9)2
_symmetry_space_group_name_H-M   'P 1'
_cell_length_a   9.77226458
_cell_length_b   6.58852609
_cell_length_c   16.41672726
_cell_angle_alpha   90.00000000
_cell_angle_beta   102.91077773
_cell_angle_gamma   90.00000000
_symmetry_Int_Tables_number   1
_chemical_formula_structural   Na4H20RuS4(NO9)2
_chemical_formula_sum   'Na8 H40 Ru2 S8 N4 O36'
_cell_volume   1030.26650949
_cell_formula_units_Z   2
loop_
 _symmetry_equiv_pos_site_id
 _symmetry_equiv_pos_as_xyz
  1  'x, y, z'
loop_
 _atom_site_type_symbol
 _atom_site_label
 _atom_site_symmetry_multiplicity
 _atom_site_fract_x
 _atom_site_fract_y
 _atom_site_fract_z
 _atom_site_occupancy
  Na  Na0  1  0.03363082  0.90124728  0.73081973  1
  Na  Na1  1  0.96636918  0.40124728  0.76918027  1
  Na  Na2  1  0.96636918  0.09875272  0.26918027  1
  Na  Na3  1  0.03363082  0.59875272  0.23081973  1
  Na  Na4  1  0.60450013  0.19009439  0.80182762  1
  Na  Na5  1  0.39549987  0.69009439  0.69817238  1
  Na  Na6  1  0.39549987  0.80990561  0.19817238  1
  Na  Na7  1  0.60450013  0.30990561  0.30182762  1
  H  H8  1  0.91795614  0.14009243  0.54562371  1
  H  H9  1  0.08204386  0.64009243  0.95437629  1
  H  H10  1  0.08204386  0.85990757  0.45437629  1
  H  H11  1  0.91795614  0.35990757  0.04562371  1
  H  H12  1  0.79006510  0.21659249  0.46813033  1
  H  H13  1  0.20993490  0.71659249  0.03186967  1
  H  H14  1  0.20993490  0.78340751  0.53186967  1
  H  H15  1  0.79006510  0.28340751  0.96813033  1
  H  H16  1  0.94124325  0.12845150  0.44846241  1
  H  H17  1  0.05875675  0.62845150  0.05153759  1
  H  H18  1  0.05875675  0.87154850  0.55153759  1
  H  H19  1  0.94124325  0.37154850  0.94846241  1
  H  H20  1  0.30502749  0.32744560  0.54740032  1
  H  H21  1  0.69497251  0.82744560  0.95259968  1
  H  H22  1  0.69497251  0.67255440  0.45259968  1
  H  H23  1  0.30502749  0.17255440  0.04740032  1
  H  H24  1  0.33728011  0.13762212  0.70541789  1
  H  H25  1  0.66271989  0.63762212  0.79458211  1
  H  H26  1  0.66271989  0.86237788  0.29458211  1
  H  H27  1  0.33728011  0.36237788  0.20541789  1
  H  H28  1  0.32369858  0.04475395  0.79208907  1
  H  H29  1  0.67630142  0.54475395  0.70791093  1
  H  H30  1  0.67630142  0.95524605  0.20791093  1
  H  H31  1  0.32369858  0.45524605  0.29208907  1
  H  H32  1  0.71032847  0.99182114  0.59023395  1
  H  H33  1  0.28967153  0.49182114  0.90976605  1
  H  H34  1  0.28967153  0.00817886  0.40976605  1
  H  H35  1  0.71032847  0.50817886  0.09023395  1
  H  H36  1  0.64989624  0.06795334  0.66135911  1
  H  H37  1  0.35010376  0.56795334  0.83864089  1
  H  H38  1  0.35010376  0.93204666  0.33864089  1
  H  H39  1  0.64989624  0.43204666  0.16135911  1
  H  H40  1  0.60130765  0.10820841  0.97697760  1
  H  H41  1  0.39869235  0.60820841  0.52302240  1
  H  H42  1  0.39869235  0.89179159  0.02302240  1
  H  H43  1  0.60130765  0.39179159  0.47697760  1
  H  H44  1  0.52129628  0.31397528  0.94951232  1
  H  H45  1  0.47870372  0.81397528  0.55048768  1
  H  H46  1  0.47870372  0.68602472  0.05048768  1
  H  H47  1  0.52129628  0.18602472  0.44951232  1
  Ru  Ru48  1  0.00000000  0.50000000  0.50000000  1
  Ru  Ru49  1  0.00000000  0.00000000  0.00000000  1
  S  S50  1  0.13522764  0.40274099  0.63362859  1
  S  S51  1  0.86477236  0.90274099  0.86637141  1
  S  S52  1  0.86477236  0.59725901  0.36637141  1
  S  S53  1  0.13522764  0.09725901  0.13362859  1
  S  S54  1  0.15903072  0.36959480  0.42589213  1
  S  S55  1  0.84096928  0.86959480  0.07410787  1
  S  S56  1  0.84096928  0.63040520  0.57410787  1
  S  S57  1  0.15903072  0.13040520  0.92589213  1
  N  N58  1  0.89790950  0.21224263  0.48889816  1
  N  N59  1  0.10209050  0.71224263  0.01110184  1
  N  N60  1  0.10209050  0.78775737  0.51110184  1
  N  N61  1  0.89790950  0.28775737  0.98889816  1
  O  O62  1  0.06916062  0.22724575  0.66905387  1
  O  O63  1  0.93083938  0.72724575  0.83094613  1
  O  O64  1  0.93083938  0.77275425  0.33094613  1
  O  O65  1  0.06916062  0.27275425  0.16905387  1
  O  O66  1  0.15591076  0.57664010  0.69656804  1
  O  O67  1  0.84408924  0.07664010  0.80343196  1
  O  O68  1  0.84408924  0.42335990  0.30343196  1
  O  O69  1  0.15591076  0.92335990  0.19656804  1
  O  O70  1  0.28709060  0.33436305  0.63290542  1
  O  O71  1  0.71290940  0.83436305  0.86709458  1
  O  O72  1  0.71290940  0.66563695  0.36709458  1
  O  O73  1  0.28709060  0.16563695  0.13290542  1
  O  O74  1  0.31457345  0.35078751  0.48523967  1
  O  O75  1  0.68542655  0.85078751  0.01476033  1
  O  O76  1  0.68542655  0.64921249  0.51476033  1
  O  O77  1  0.31457345  0.14921249  0.98523967  1
  O  O78  1  0.18811113  0.48975889  0.35489242  1
  O  O79  1  0.81188887  0.98975889  0.14510758  1
  O  O80  1  0.81188887  0.51024111  0.64510758  1
  O  O81  1  0.18811113  0.01024111  0.85489242  1
  O  O82  1  0.12185673  0.15462557  0.39824960  1
  O  O83  1  0.87814327  0.65462557  0.10175040  1
  O  O84  1  0.87814327  0.84537443  0.60175040  1
  O  O85  1  0.12185673  0.34537443  0.89824960  1
  O  O86  1  0.38003692  0.03586953  0.74889533  1
  O  O87  1  0.61996308  0.53586953  0.75110467  1
  O  O88  1  0.61996308  0.96413047  0.25110467  1
  O  O89  1  0.38003692  0.46413047  0.24889533  1
  O  O90  1  0.62400753  0.05374622  0.60077568  1
  O  O91  1  0.37599247  0.55374622  0.89922432  1
  O  O92  1  0.37599247  0.94625378  0.39922432  1
  O  O93  1  0.62400753  0.44625378  0.10077568  1
  O  O94  1  0.59362057  0.22259100  0.93774663  1
  O  O95  1  0.40637943  0.72259100  0.56225337  1
  O  O96  1  0.40637943  0.77740900  0.06225337  1
  O  O97  1  0.59362057  0.27740900  0.43774663  1
