# generated using pymatgen
data_Li3Fe4P9O32
_symmetry_space_group_name_H-M   'P 1'
_cell_length_a   13.94536687
_cell_length_b   13.94536687
_cell_length_c   6.36582113
_cell_angle_alpha   90.00000000
_cell_angle_beta   90.00000000
_cell_angle_gamma   90.00000000
_symmetry_Int_Tables_number   1
_chemical_formula_structural   Li3Fe4P9O32
_chemical_formula_sum   'Li6 Fe8 P18 O64'
_cell_volume   1237.98196951
_cell_formula_units_Z   2
loop_
 _symmetry_equiv_pos_site_id
 _symmetry_equiv_pos_as_xyz
  1  'x, y, z'
loop_
 _atom_site_type_symbol
 _atom_site_label
 _atom_site_symmetry_multiplicity
 _atom_site_fract_x
 _atom_site_fract_y
 _atom_site_fract_z
 _atom_site_occupancy
  Li  Li0  1  0.50000000  0.00000000  0.35569701  1
  Li  Li1  1  0.00000000  0.50000000  0.64430299  1
  Li  Li2  1  0.00000000  0.50000000  0.14430299  1
  Li  Li3  1  0.50000000  0.50000000  0.50000000  1
  Li  Li4  1  0.50000000  0.00000000  0.85569701  1
  Li  Li5  1  0.00000000  0.00000000  0.00000000  1
  Fe  Fe6  1  0.80278960  0.12050461  0.37618611  1
  Fe  Fe7  1  0.69721040  0.62050461  0.12381389  1
  Fe  Fe8  1  0.19721040  0.87949539  0.37618611  1
  Fe  Fe9  1  0.12050461  0.19721040  0.62381389  1
  Fe  Fe10  1  0.30278960  0.37949539  0.12381389  1
  Fe  Fe11  1  0.62050461  0.30278960  0.87618611  1
  Fe  Fe12  1  0.37949539  0.69721040  0.87618611  1
  Fe  Fe13  1  0.87949539  0.80278960  0.62381389  1
  P  P14  1  0.74568668  0.60658532  0.63449670  1
  P  P15  1  0.60658532  0.25431332  0.36550330  1
  P  P16  1  0.10658532  0.24568668  0.13449670  1
  P  P17  1  0.94088500  0.30410805  0.38567775  1
  P  P18  1  0.80410805  0.44088500  0.88567775  1
  P  P19  1  0.25431332  0.39341468  0.63449670  1
  P  P20  1  0.30410805  0.05911500  0.61432225  1
  P  P21  1  0.24568668  0.89341468  0.86550330  1
  P  P22  1  0.69589195  0.94088500  0.61432225  1
  P  P23  1  0.00000000  0.00000000  0.50000000  1
  P  P24  1  0.75431332  0.10658532  0.86550330  1
  P  P25  1  0.44088500  0.19589195  0.11432225  1
  P  P26  1  0.55911500  0.80410805  0.11432225  1
  P  P27  1  0.50000000  0.50000000  0.00000000  1
  P  P28  1  0.05911500  0.69589195  0.38567775  1
  P  P29  1  0.19589195  0.55911500  0.88567775  1
  P  P30  1  0.89341468  0.75431332  0.13449670  1
  P  P31  1  0.39341468  0.74568668  0.36550330  1
  O  O32  1  0.68768455  0.60725129  0.43254468  1
  O  O33  1  0.33700535  0.83969250  0.37487502  1
  O  O34  1  0.76135257  0.34042601  0.85975969  1
  O  O35  1  0.99097617  0.25449288  0.57150349  1
  O  O36  1  0.44476221  0.08712866  0.10006536  1
  O  O37  1  0.93936179  0.93665595  0.65070971  1
  O  O38  1  0.34042601  0.23864743  0.14024031  1
  O  O39  1  0.50381969  0.77565631  0.33028054  1
  O  O40  1  0.31231545  0.39274871  0.43254468  1
  O  O41  1  0.58712866  0.94476221  0.60006536  1
  O  O42  1  0.49618031  0.22434369  0.33028054  1
  O  O43  1  0.60725129  0.31231545  0.56745532  1
  O  O44  1  0.56063821  0.43665595  0.84929029  1
  O  O45  1  0.18010511  0.86498771  0.68232298  1
  O  O46  1  0.86498771  0.81989489  0.31767702  1
  O  O47  1  0.73864743  0.84042601  0.64024031  1
  O  O48  1  0.56334405  0.56063821  0.15070971  1
  O  O49  1  0.15957399  0.73864743  0.35975969  1
  O  O50  1  0.81231545  0.10725129  0.06745532  1
  O  O51  1  0.06063821  0.06334405  0.65070971  1
  O  O52  1  0.27565631  0.00381969  0.83028054  1
  O  O53  1  0.84042601  0.26135257  0.35975969  1
  O  O54  1  0.65957399  0.76135257  0.14024031  1
  O  O55  1  0.43936179  0.56334405  0.84929029  1
  O  O56  1  0.10725129  0.18768455  0.93254468  1
  O  O57  1  0.77565631  0.49618031  0.66971946  1
  O  O58  1  0.91287134  0.44476221  0.89993464  1
  O  O59  1  0.05523779  0.58712866  0.39993464  1
  O  O60  1  0.06334405  0.93936179  0.34929029  1
  O  O61  1  0.99618031  0.27565631  0.16971946  1
  O  O62  1  0.55523779  0.91287134  0.10006536  1
  O  O63  1  0.00902383  0.74550712  0.57150349  1
  O  O64  1  0.31989489  0.36498771  0.81767702  1
  O  O65  1  0.50902383  0.75449288  0.92849651  1
  O  O66  1  0.25449288  0.00902383  0.42849651  1
  O  O67  1  0.93665595  0.06063821  0.34929029  1
  O  O68  1  0.66030750  0.16299465  0.87487502  1
  O  O69  1  0.83700535  0.66030750  0.12512498  1
  O  O70  1  0.36498771  0.68010511  0.18232298  1
  O  O71  1  0.41287134  0.05523779  0.60006536  1
  O  O72  1  0.81989489  0.13501229  0.68232298  1
  O  O73  1  0.08712866  0.55523779  0.89993464  1
  O  O74  1  0.74550712  0.99097617  0.42849651  1
  O  O75  1  0.13501229  0.18010511  0.31767702  1
  O  O76  1  0.26135257  0.15957399  0.64024031  1
  O  O77  1  0.00381969  0.72434369  0.16971946  1
  O  O78  1  0.18768455  0.89274871  0.06745532  1
  O  O79  1  0.39274871  0.68768455  0.56745532  1
  O  O80  1  0.33969250  0.83700535  0.87487502  1
  O  O81  1  0.94476221  0.41287134  0.39993464  1
  O  O82  1  0.22434369  0.50381969  0.66971946  1
  O  O83  1  0.75449288  0.49097617  0.07150349  1
  O  O84  1  0.49097617  0.24550712  0.92849651  1
  O  O85  1  0.16030750  0.33700535  0.62512498  1
  O  O86  1  0.89274871  0.81231545  0.93254468  1
  O  O87  1  0.66299465  0.16030750  0.37487502  1
  O  O88  1  0.68010511  0.63501229  0.81767702  1
  O  O89  1  0.23864743  0.65957399  0.85975969  1
  O  O90  1  0.16299465  0.33969250  0.12512498  1
  O  O91  1  0.24550712  0.50902383  0.07150349  1
  O  O92  1  0.43665595  0.43936179  0.15070971  1
  O  O93  1  0.72434369  0.99618031  0.83028054  1
  O  O94  1  0.83969250  0.66299465  0.62512498  1
  O  O95  1  0.63501229  0.31989489  0.18232298  1
