# generated using pymatgen
data_H18RuN5(ClO)2
_symmetry_space_group_name_H-M   'P 1'
_cell_length_a   10.05615037
_cell_length_b   10.22091877
_cell_length_c   10.62000711
_cell_angle_alpha   90.00000000
_cell_angle_beta   100.10142885
_cell_angle_gamma   90.00000000
_symmetry_Int_Tables_number   1
_chemical_formula_structural   H18RuN5(ClO)2
_chemical_formula_sum   'H72 Ru4 N20 Cl8 O8'
_cell_volume   1074.63677161
_cell_formula_units_Z   4
loop_
 _symmetry_equiv_pos_site_id
 _symmetry_equiv_pos_as_xyz
  1  'x, y, z'
loop_
 _atom_site_type_symbol
 _atom_site_label
 _atom_site_symmetry_multiplicity
 _atom_site_fract_x
 _atom_site_fract_y
 _atom_site_fract_z
 _atom_site_occupancy
  H  H0  1  0.97687607  0.19154141  0.88386505  1
  H  H1  1  0.47687607  0.30845859  0.38386505  1
  H  H2  1  0.02312393  0.80845859  0.11613495  1
  H  H3  1  0.52312393  0.69154141  0.61613495  1
  H  H4  1  0.82926722  0.11234405  0.87359150  1
  H  H5  1  0.32926722  0.38765595  0.37359150  1
  H  H6  1  0.17073278  0.88765595  0.12640850  1
  H  H7  1  0.67073278  0.61234405  0.62640850  1
  H  H8  1  0.06023566  0.91094840  0.64571352  1
  H  H9  1  0.56023566  0.58905160  0.14571352  1
  H  H10  1  0.93976434  0.08905160  0.35428648  1
  H  H11  1  0.43976434  0.41094840  0.85428648  1
  H  H12  1  0.90178994  0.92252441  0.65737371  1
  H  H13  1  0.40178994  0.57747559  0.15737371  1
  H  H14  1  0.09821006  0.07747559  0.34262629  1
  H  H15  1  0.59821006  0.42252441  0.84262629  1
  H  H16  1  0.98815472  0.05943958  0.65345391  1
  H  H17  1  0.48815472  0.44056042  0.15345391  1
  H  H18  1  0.01184528  0.94056042  0.34654609  1
  H  H19  1  0.51184528  0.55943958  0.84654609  1
  H  H20  1  0.29307812  0.00397341  0.97803653  1
  H  H21  1  0.79307812  0.49602659  0.47803653  1
  H  H22  1  0.70692188  0.99602659  0.02196347  1
  H  H23  1  0.20692188  0.50397341  0.52196347  1
  H  H24  1  0.25479432  0.00012208  0.82104713  1
  H  H25  1  0.75479432  0.49987792  0.32104713  1
  H  H26  1  0.74520568  -0.00012208  0.17895287  1
  H  H27  1  0.24520568  0.50012208  0.67895287  1
  H  H28  1  0.22013310  0.13003472  0.89761478  1
  H  H29  1  0.72013310  0.36996528  0.39761578  1
  H  H30  1  0.77986690  0.86996528  0.10238422  1
  H  H31  1  0.27986690  0.63003472  0.60238522  1
  H  H32  1  0.83871944  0.76792238  0.79450861  1
  H  H33  1  0.33871944  0.73207762  0.29450861  1
  H  H34  1  0.16128056  0.23207762  0.20549139  1
  H  H35  1  0.66128056  0.26792238  0.70549139  1
  H  H36  1  0.81613021  0.77156663  0.94169791  1
  H  H37  1  0.31613021  0.72843337  0.44169791  1
  H  H38  1  0.18386979  0.22843337  0.05830209  1
  H  H39  1  0.68386979  0.27156663  0.55830209  1
  H  H40  1  0.75618712  0.88912575  0.84658045  1
  H  H41  1  0.25618712  0.61087425  0.34658045  1
  H  H42  1  0.24381288  0.11087425  0.15341955  1
  H  H43  1  0.74381288  0.38912575  0.65341955  1
  H  H44  1  0.14170789  0.70002306  0.94714308  1
  H  H45  1  0.64170789  0.79997694  0.44714308  1
  H  H46  1  0.85829211  0.29997694  0.05285692  1
  H  H47  1  0.35829211  0.20002306  0.55285692  1
  H  H48  1  0.06282345  0.69739612  0.79674205  1
  H  H49  1  0.56282345  0.80260388  0.29674205  1
  H  H50  1  0.93717655  0.30260388  0.20325795  1
  H  H51  1  0.43717655  0.19739612  0.70325795  1
  H  H52  1  0.21360676  0.76612349  0.83341437  1
  H  H53  1  0.71360676  0.73387651  0.33341437  1
  H  H54  1  0.78639324  0.23387651  0.16658563  1
  H  H55  1  0.28639324  0.26612349  0.66658563  1
  H  H56  1  0.64381684  0.96823905  0.66205308  1
  H  H57  1  0.14381684  0.53176095  0.16205308  1
  H  H58  1  0.35618316  0.03176095  0.33794692  1
  H  H59  1  0.85618316  0.46823905  0.83794692  1
  H  H60  1  0.71005954  -0.00014630  0.54426846  1
  H  H61  1  0.21005954  0.50014630  0.04426846  1
  H  H62  1  0.28994046  0.00014630  0.45573154  1
  H  H63  1  0.78994046  0.49985370  0.95573154  1
  H  H64  1  0.05384170  0.38102094  0.74463443  1
  H  H65  1  0.55384170  0.11897906  0.24463443  1
  H  H66  1  0.94615830  0.61897906  0.25536557  1
  H  H67  1  0.44615830  0.88102094  0.75536557  1
  H  H68  1  0.99026127  0.24435117  0.52784912  1
  H  H69  1  0.49026127  0.25564883  0.02784912  1
  H  H70  1  0.00973873  0.75564883  0.47215088  1
  H  H71  1  0.50973873  0.74435117  0.97215088  1
  Ru  Ru72  1  0.02673284  0.93741569  0.89839630  1
  Ru  Ru73  1  0.52673284  0.56258431  0.39839630  1
  Ru  Ru74  1  0.97326716  0.06258431  0.10160370  1
  Ru  Ru75  1  0.47326716  0.43741569  0.60160370  1
  N  N76  1  0.93067477  0.10976316  0.91183981  1
  N  N77  1  0.43067477  0.39023684  0.41183981  1
  N  N78  1  0.06932523  0.89023684  0.08816019  1
  N  N79  1  0.56932523  0.60976316  0.58816019  1
  N  N80  1  0.99535070  0.96100766  0.69368656  1
  N  N81  1  0.49535070  0.53899234  0.19368656  1
  N  N82  1  0.00464930  0.03899234  0.30631344  1
  N  N83  1  0.50464930  0.46100766  0.80631344  1
  N  N84  1  0.21981071  0.02990682  0.90119733  1
  N  N85  1  0.71981071  0.47009318  0.40119733  1
  N  N86  1  0.78018929  0.97009318  0.09880267  1
  N  N87  1  0.28018929  0.52990682  0.59880267  1
  N  N88  1  0.83991265  0.83033811  0.87049684  1
  N  N89  1  0.33991265  0.66966189  0.37049684  1
  N  N90  1  0.16008735  0.16966189  0.12950316  1
  N  N91  1  0.66008735  0.33033811  0.62950316  1
  N  N92  1  0.12352800  0.75436122  0.86407966  1
  N  N93  1  0.62352800  0.74563878  0.36407966  1
  N  N94  1  0.87647200  0.24563878  0.13592034  1
  N  N95  1  0.37647200  0.25436122  0.63592034  1
  Cl  Cl96  1  0.91105123  0.56472603  0.67486540  1
  Cl  Cl97  1  0.41105123  0.93527397  0.17486540  1
  Cl  Cl98  1  0.08894877  0.43527397  0.32513460  1
  Cl  Cl99  1  0.58894877  0.06472603  0.82513460  1
  Cl  Cl100  1  0.33792274  0.86174983  0.66645240  1
  Cl  Cl101  1  0.83792274  0.63825017  0.16645240  1
  Cl  Cl102  1  0.66207726  0.13825017  0.33354760  1
  Cl  Cl103  1  0.16207726  0.36174983  0.83354760  1
  O  O104  1  0.68357781  0.92585304  0.59277615  1
  O  O105  1  0.18357781  0.57414696  0.09277615  1
  O  O106  1  0.31642219  0.07414696  0.40722385  1
  O  O107  1  0.81642219  0.42585304  0.90722385  1
  O  O108  1  0.93062492  0.18890811  0.56786572  1
  O  O109  1  0.43062492  0.31109189  0.06786572  1
  O  O110  1  0.06937508  0.81109189  0.43213428  1
  O  O111  1  0.56937508  0.68890811  0.93213428  1
