# generated using pymatgen
data_K3Na5V2(Mo3O10)2
_symmetry_space_group_name_H-M   'P 1'
_cell_length_a   11.41926366
_cell_length_b   11.71064031
_cell_length_c   17.13053789
_cell_angle_alpha   110.17214915
_cell_angle_beta   109.04831971
_cell_angle_gamma   89.93306931
_symmetry_Int_Tables_number   1
_chemical_formula_structural   K3Na5V2(Mo3O10)2
_chemical_formula_sum   'K12 Na20 V8 Mo24 O80'
_cell_volume   2016.47708885
_cell_formula_units_Z   4
loop_
 _symmetry_equiv_pos_site_id
 _symmetry_equiv_pos_as_xyz
  1  'x, y, z'
loop_
 _atom_site_type_symbol
 _atom_site_label
 _atom_site_symmetry_multiplicity
 _atom_site_fract_x
 _atom_site_fract_y
 _atom_site_fract_z
 _atom_site_occupancy
  K  K0  1  0.30364302  0.06540225  0.10881796  1
  K  K1  1  0.30362539  0.56165453  0.10908588  1
  K  K2  1  0.80217818  0.06474557  0.10958952  1
  K  K3  1  0.80183021  0.56388596  0.10873173  1
  K  K4  1  0.19966391  0.93568425  0.39666851  1
  K  K5  1  0.18666673  0.92166018  0.87454329  1
  K  K6  1  0.68716021  0.42219211  0.87407544  1
  K  K7  1  0.05407441  0.29612957  0.10880952  1
  K  K8  1  0.05160156  0.79296041  0.10735393  1
  K  K9  1  0.55296223  0.29511842  0.10923272  1
  K  K10  1  0.55423280  0.79473479  0.10858625  1
  K  K11  1  0.93649887  0.70045638  0.87431256  1
  Na  Na12  1  0.30985732  0.07307640  0.61188478  1
  Na  Na13  1  0.31013127  0.57146878  0.61083435  1
  Na  Na14  1  0.80911110  0.07030806  0.61001271  1
  Na  Na15  1  0.80848117  0.57062171  0.60814959  1
  Na  Na16  1  0.19988956  0.43718869  0.40582134  1
  Na  Na17  1  0.19830453  0.42738043  0.88620245  1
  Na  Na18  1  0.69896753  0.43697726  0.40511534  1
  Na  Na19  1  0.69925878  0.93672249  0.40516201  1
  Na  Na20  1  0.69859976  0.92889782  0.88670379  1
  Na  Na21  1  0.05877432  0.28843460  0.60934380  1
  Na  Na22  1  0.05942570  0.78815682  0.60841223  1
  Na  Na23  1  0.55932222  0.28805547  0.60851175  1
  Na  Na24  1  0.55951485  0.78894744  0.60973278  1
  Na  Na25  1  0.44917697  0.21848358  0.40579373  1
  Na  Na26  1  0.44792672  0.20826705  0.88690291  1
  Na  Na27  1  0.44837325  0.71862860  0.40513003  1
  Na  Na28  1  0.44943086  0.70889631  0.88696237  1
  Na  Na29  1  0.94964191  0.21872361  0.40579009  1
  Na  Na30  1  0.94824246  0.20850570  0.88714663  1
  Na  Na31  1  0.94884365  0.71744762  0.40526800  1
  V  V32  1  0.10013394  0.08628079  0.74391838  1
  V  V33  1  0.10494135  0.57685489  0.74200781  1
  V  V34  1  0.60126896  0.08033413  0.74552138  1
  V  V35  1  0.59941061  0.58590370  0.74364297  1
  V  V36  1  0.35217212  0.41212213  0.74738125  1
  V  V37  1  0.35362602  0.91275296  0.74388979  1
  V  V38  1  0.85310741  0.40687755  0.74024237  1
  V  V39  1  0.84967918  0.91581334  0.74531555  1
  Mo  Mo40  1  0.00054482  0.99717090  0.99236745  1
  Mo  Mo41  1  0.01143138  0.00235852  0.50607019  1
  Mo  Mo42  1  0.99934442  0.49438412  0.99002563  1
  Mo  Mo43  1  0.01292612  0.50160973  0.50452877  1
  Mo  Mo44  1  0.49920111  0.99442011  0.98910787  1
  Mo  Mo45  1  0.51301167  0.00228839  0.50561078  1
  Mo  Mo46  1  0.49955968  0.49467221  0.99061338  1
  Mo  Mo47  1  0.51242898  0.50198053  0.50464048  1
  Mo  Mo48  1  0.24997903  0.24535183  0.98980170  1
  Mo  Mo49  1  0.26340879  0.25538731  0.50718744  1
  Mo  Mo50  1  0.25038525  0.74326886  0.99022123  1
  Mo  Mo51  1  0.26320326  0.75190984  0.50547097  1
  Mo  Mo52  1  0.75050114  0.24405257  0.99092804  1
  Mo  Mo53  1  0.76210344  0.25174901  0.50331126  1
  Mo  Mo54  1  0.74961789  0.74644135  0.99141639  1
  Mo  Mo55  1  0.76238580  0.75327759  0.50499978  1
  Mo  Mo56  1  0.09665639  0.10422986  0.25798463  1
  Mo  Mo57  1  0.09629490  0.59170289  0.25719954  1
  Mo  Mo58  1  0.59933326  0.10141035  0.25866104  1
  Mo  Mo59  1  0.59777037  0.59900792  0.25944144  1
  Mo  Mo60  1  0.34893887  0.41004618  0.25985169  1
  Mo  Mo61  1  0.35266720  0.91007926  0.25435509  1
  Mo  Mo62  1  0.84715797  0.40961097  0.25956116  1
  Mo  Mo63  1  0.84586266  0.91166861  0.26026514  1
  O  O64  1  0.12797478  0.12715117  0.49457099  1
  O  O65  1  0.11880235  0.11804322  0.98053829  1
  O  O66  1  0.12842269  0.61985864  0.48883025  1
  O  O67  1  0.12113873  0.61152716  0.97913517  1
  O  O68  1  0.62730824  0.12003223  0.48721301  1
  O  O69  1  0.61853561  0.11126099  0.97575567  1
  O  O70  1  0.62809929  0.62083971  0.48791089  1
  O  O71  1  0.61731107  0.61694778  0.98017170  1
  O  O72  1  0.12743206  0.37329741  0.99665811  1
  O  O73  1  0.14746093  0.38873682  0.52361404  1
  O  O74  1  0.12995610  0.87482648  0.00257552  1
  O  O75  1  0.14574069  0.88546610  0.52451462  1
  O  O76  1  0.62767290  0.37218155  0.00068714  1
  O  O77  1  0.64642262  0.38655297  0.52181962  1
  O  O78  1  0.62726232  0.87393282  0.99730203  1
  O  O79  1  0.64610244  0.88688344  0.52200622  1
  O  O80  1  0.38218152  0.12333536  0.49356619  1
  O  O81  1  0.37069075  0.11585829  0.97797483  1
  O  O82  1  0.37872383  0.61724190  0.48943976  1
  O  O83  1  0.36776069  0.61173930  0.97465484  1
  O  O84  1  0.87585240  0.11584920  0.48547458  1
  O  O85  1  0.86906914  0.11433595  0.97791329  1
  O  O86  1  0.87828128  0.61810541  0.48862713  1
  O  O87  1  0.86978971  0.61583999  0.98292839  1
  O  O88  1  0.37750832  0.37515077  0.99791685  1
  O  O89  1  0.39679223  0.38743616  0.52358620  1
  O  O90  1  0.37967121  0.87313894  0.99896111  1
  O  O91  1  0.39800547  0.88606802  0.52442616  1
  O  O92  1  0.88016322  0.37333708  0.99986349  1
  O  O93  1  0.89670140  0.38514989  0.52187466  1
  O  O94  1  0.87691383  0.87858076  0.00082833  1
  O  O95  1  0.89606152  0.88699309  0.52357183  1
  O  O96  1  0.07200859  0.08988296  0.13726847  1
  O  O97  1  0.07766449  0.11183056  0.64430414  1
  O  O98  1  0.07480998  0.58453548  0.13921464  1
  O  O99  1  0.08810725  0.60746856  0.64456241  1
  O  O100  1  0.57540243  0.08538385  0.13795780  1
  O  O101  1  0.58431023  0.10627679  0.64599424  1
  O  O102  1  0.57345778  0.58523245  0.13911664  1
  O  O103  1  0.57844110  0.61134766  0.64402887  1
  O  O104  1  0.45940062  0.38877518  0.36439170  1
  O  O105  1  0.43177309  0.39424309  0.85010690  1
  O  O106  1  0.45226629  0.89214404  0.36399910  1
  O  O107  1  0.42865055  0.89674500  0.84791416  1
  O  O108  1  0.95885882  0.38869908  0.36388954  1
  O  O109  1  0.92833004  0.40040337  0.84784330  1
  O  O110  1  0.95163654  0.88931015  0.36549850  1
  O  O111  1  0.93122931  0.90709379  0.85060095  1
  O  O112  1  0.32566573  0.30557171  0.13869835  1
  O  O113  1  0.33520667  0.29000472  0.64664570  1
  O  O114  1  0.33107155  0.79751294  0.13715145  1
  O  O115  1  0.33695125  0.78749008  0.64501808  1
  O  O116  1  0.82491193  0.30311985  0.13943968  1
  O  O117  1  0.83248223  0.27993192  0.64172392  1
  O  O118  1  0.82349200  0.80546037  0.13987449  1
  O  O119  1  0.83260034  0.78968523  0.64562375  1
  O  O120  1  0.20750207  0.22404963  0.36615570  1
  O  O121  1  0.18314609  0.20148451  0.84939441  1
  O  O122  1  0.21184827  0.70900038  0.36450130  1
  O  O123  1  0.18022945  0.69036343  0.84858797  1
  O  O124  1  0.71043062  0.22606262  0.36362293  1
  O  O125  1  0.68525262  0.19297235  0.85037813  1
  O  O126  1  0.70835304  0.72482984  0.36467689  1
  O  O127  1  0.68003204  0.70129395  0.84985938  1
  O  O128  1  0.44033739  0.07121601  0.27050856  1
  O  O129  1  0.43798121  0.05232999  0.74608854  1
  O  O130  1  0.43805433  0.56773797  0.27058372  1
  O  O131  1  0.43860594  0.54917835  0.74712892  1
  O  O132  1  0.94013602  0.06686231  0.27060072  1
  O  O133  1  0.93808497  0.05219800  0.74567732  1
  O  O134  1  0.93597520  0.56659323  0.26925275  1
  O  O135  1  0.94024494  0.53515553  0.73185640  1
  O  O136  1  0.18775802  0.44696756  0.27025995  1
  O  O137  1  0.18743507  0.43884100  0.74440679  1
  O  O138  1  0.18999748  0.95681808  0.25369702  1
  O  O139  1  0.18885805  0.94911409  0.73431802  1
  O  O140  1  0.68712816  0.45223296  0.27052242  1
  O  O141  1  0.69118490  0.45085644  0.73379693  1
  O  O142  1  0.68536392  0.95312723  0.26977995  1
  O  O143  1  0.68505657  0.94203585  0.74433901  1
