# generated using pymatgen
data_Mg9V10O24
_symmetry_space_group_name_H-M   'P 1'
_cell_length_a   6.00034021
_cell_length_b   5.98947551
_cell_length_c   18.44948510
_cell_angle_alpha   60.85884715
_cell_angle_beta   61.30104504
_cell_angle_gamma   60.05987510
_symmetry_Int_Tables_number   1
_chemical_formula_structural   Mg9V10O24
_chemical_formula_sum   'Mg9 V10 O24'
_cell_volume   476.56577986
_cell_formula_units_Z   1
loop_
 _symmetry_equiv_pos_site_id
 _symmetry_equiv_pos_as_xyz
  1  'x, y, z'
loop_
 _atom_site_type_symbol
 _atom_site_label
 _atom_site_symmetry_multiplicity
 _atom_site_fract_x
 _atom_site_fract_y
 _atom_site_fract_z
 _atom_site_occupancy
  Mg  Mg0  1  0.13098051  0.13421311  0.03353142  1
  Mg  Mg1  1  0.12424789  0.12436705  0.37567267  1
  Mg  Mg2  1  0.14321151  0.15744660  0.68063143  1
  Mg  Mg3  1  0.87575211  0.87563295  0.29099433  1
  Mg  Mg4  1  0.00000000  0.00000000  0.83333300  1
  Mg  Mg5  1  0.50000000  0.50000000  0.83333300  1
  Mg  Mg6  1  0.86901949  0.86578689  0.63313558  1
  Mg  Mg7  1  0.50000000  0.00000000  0.83333300  1
  Mg  Mg8  1  0.85678849  0.84255340  0.98603457  1
  V  V9  1  0.49195092  0.49506624  0.17019549  1
  V  V10  1  0.49195092  0.00239737  0.17019549  1
  V  V11  1  0.50000000  0.50000000  0.33333300  1
  V  V12  1  0.50804908  0.50493376  0.49647151  1
  V  V13  1  -0.00008226  0.49382231  0.17081288  1
  V  V14  1  0.50804908  0.99760263  0.49647151  1
  V  V15  1  0.50163078  0.49643885  0.66849751  1
  V  V16  1  0.00008226  0.50617769  0.49585412  1
  V  V17  1  0.49836922  0.50356115  0.99816949  1
  V  V18  1  0.00000000  0.50000000  0.83333300  1
  O  O19  1  0.25897531  0.26059998  0.08676110  1
  O  O20  1  0.25897531  0.72014041  0.08676110  1
  O  O21  1  0.25799577  0.25825492  0.24183146  1
  O  O22  1  0.71771630  0.26192820  0.08614210  1
  O  O23  1  0.27525779  0.73882840  0.24902847  1
  O  O24  1  0.26387039  0.26260013  0.41699810  1
  O  O25  1  0.73612961  0.27746382  0.24966890  1
  O  O26  1  0.26387039  0.72253618  0.41699810  1
  O  O27  1  0.72390177  0.72694782  0.10740053  1
  O  O28  1  0.27609823  0.27305218  0.55926547  1
  O  O29  1  0.72474221  0.26117160  0.41763853  1
  O  O30  1  0.73612961  0.73739987  0.24966890  1
  O  O31  1  0.28228370  0.73807180  0.58052390  1
  O  O32  1  0.24258277  0.25079937  0.75210075  1
  O  O33  1  0.74102469  0.27985959  0.57990490  1
  O  O34  1  0.74200423  0.74174508  0.42483554  1
  O  O35  1  0.25415254  0.26850891  0.90294355  1
  O  O36  1  0.24258277  0.75031559  0.75210075  1
  O  O37  1  0.74378613  0.25431743  0.74919300  1
  O  O38  1  0.74102469  0.73940002  0.57990490  1
  O  O39  1  0.25621387  0.74568257  0.91747400  1
  O  O40  1  0.75741723  0.24968441  0.91456625  1
  O  O41  1  0.74584746  0.73149109  0.76372345  1
  O  O42  1  0.75741723  0.74920063  0.91456625  1
