# generated using pymatgen
data_ReH22C4S4N8Cl8O3
_symmetry_space_group_name_H-M   'P 1'
_cell_length_a   17.08616197
_cell_length_b   9.00240563
_cell_length_c   9.00240563
_cell_angle_alpha   99.69923543
_cell_angle_beta   90.00000000
_cell_angle_gamma   90.00000000
_symmetry_Int_Tables_number   1
_chemical_formula_structural   ReH22C4S4N8Cl8O3
_chemical_formula_sum   'Re2 H44 C8 S8 N16 Cl16 O6'
_cell_volume   1364.92550731
_cell_formula_units_Z   2
loop_
 _symmetry_equiv_pos_site_id
 _symmetry_equiv_pos_as_xyz
  1  'x, y, z'
loop_
 _atom_site_type_symbol
 _atom_site_label
 _atom_site_symmetry_multiplicity
 _atom_site_fract_x
 _atom_site_fract_y
 _atom_site_fract_z
 _atom_site_occupancy
  Re  Re0  1  0.25000000  0.15278696  0.84721304  1
  Re  Re1  1  0.75000000  0.84721304  0.15278696  1
  H  H2  1  0.37846303  0.91649976  0.36924639  1
  H  H3  1  0.62153697  0.36924639  0.91649976  1
  H  H4  1  0.12153697  0.91649976  0.36924639  1
  H  H5  1  0.87846303  0.36924639  0.91649976  1
  H  H6  1  0.62153697  0.08350024  0.63075361  1
  H  H7  1  0.37846303  0.63075361  0.08350024  1
  H  H8  1  0.87846303  0.08350024  0.63075361  1
  H  H9  1  0.12153697  0.63075361  0.08350024  1
  H  H10  1  0.33018917  0.09638279  0.38241964  1
  H  H11  1  0.66981083  0.38241964  0.09638279  1
  H  H12  1  0.16981083  0.09638279  0.38241964  1
  H  H13  1  0.83018917  0.38241964  0.09638279  1
  H  H14  1  0.66981083  0.90361721  0.61758036  1
  H  H15  1  0.33018917  0.61758036  0.90361721  1
  H  H16  1  0.83018917  0.90361721  0.61758036  1
  H  H17  1  0.16981083  0.61758036  0.90361721  1
  H  H18  1  0.51245747  0.89926439  0.31134557  1
  H  H19  1  0.48754253  0.31134557  0.89926439  1
  H  H20  1  0.98754253  0.89926439  0.31134557  1
  H  H21  1  0.01245747  0.31134557  0.89926439  1
  H  H22  1  0.48754253  0.10073561  0.68865443  1
  H  H23  1  0.51245747  0.68865443  0.10073561  1
  H  H24  1  0.01245747  0.10073561  0.68865443  1
  H  H25  1  0.98754253  0.68865443  0.10073561  1
  H  H26  1  0.56368693  0.06128745  0.28440439  1
  H  H27  1  0.43631307  0.28440439  0.06128745  1
  H  H28  1  0.93631307  0.06128745  0.28440439  1
  H  H29  1  0.06368693  0.28440439  0.06128745  1
  H  H30  1  0.43631307  0.93871255  0.71559561  1
  H  H31  1  0.56368693  0.71559561  0.93871255  1
  H  H32  1  0.06368693  0.93871255  0.71559561  1
  H  H33  1  0.93631307  0.71559561  0.93871255  1
  H  H34  1  0.25000000  0.30706108  0.46615242  1
  H  H35  1  0.75000000  0.46615242  0.30706108  1
  H  H36  1  0.75000000  0.69293892  0.53384758  1
  H  H37  1  0.25000000  0.53384758  0.69293892  1
  H  H38  1  0.25000000  0.28451174  0.29116876  1
  H  H39  1  0.75000000  0.29116876  0.28451174  1
  H  H40  1  0.75000000  0.71548826  0.70883124  1
  H  H41  1  0.25000000  0.70883124  0.71548826  1
  H  H42  1  0.29611841  0.59491221  0.40508779  1
  H  H43  1  0.70388159  0.40508779  0.59491221  1
  H  H44  1  0.20388159  0.59491221  0.40508779  1
  H  H45  1  0.79611841  0.40508779  0.59491221  1
  C  C46  1  0.44750436  0.09190490  0.33944327  1
  C  C47  1  0.55249564  0.33944327  0.09190490  1
  C  C48  1  0.05249564  0.09190490  0.33944327  1
  C  C49  1  0.94750436  0.33944327  0.09190490  1
  C  C50  1  0.55249564  0.90809510  0.66055673  1
  C  C51  1  0.44750436  0.66055673  0.90809510  1
  C  C52  1  0.94750436  0.90809510  0.66055673  1
  C  C53  1  0.05249564  0.66055673  0.90809510  1
  S  S54  1  0.44423108  0.29118821  0.34259229  1
  S  S55  1  0.55576892  0.34259229  0.29118821  1
  S  S56  1  0.05576892  0.29118821  0.34259229  1
  S  S57  1  0.94423108  0.34259229  0.29118821  1
  S  S58  1  0.55576892  0.70881179  0.65740771  1
  S  S59  1  0.44423108  0.65740771  0.70881179  1
  S  S60  1  0.94423108  0.70881179  0.65740771  1
  S  S61  1  0.05576892  0.65740771  0.70881179  1
  N  N62  1  0.38082721  0.03199643  0.37146562  1
  N  N63  1  0.61917279  0.37146562  0.03199643  1
  N  N64  1  0.11917279  0.03199643  0.37146562  1
  N  N65  1  0.88082721  0.37146562  0.03199643  1
  N  N66  1  0.61917279  0.96800357  0.62853438  1
  N  N67  1  0.38082721  0.62853438  0.96800357  1
  N  N68  1  0.88082721  0.96800357  0.62853438  1
  N  N69  1  0.11917279  0.62853438  0.96800357  1
  N  N70  1  0.51291523  0.01303591  0.31172614  1
  N  N71  1  0.48708477  0.31172614  0.01303591  1
  N  N72  1  0.98708477  0.01303591  0.31172614  1
  N  N73  1  0.01291523  0.31172614  0.01303591  1
  N  N74  1  0.48708477  0.98696409  0.68827386  1
  N  N75  1  0.51291523  0.68827386  0.98696409  1
  N  N76  1  0.01291523  0.98696409  0.68827386  1
  N  N77  1  0.98708477  0.68827386  0.98696409  1
  Cl  Cl78  1  0.34729101  0.27636822  0.72363178  1
  Cl  Cl79  1  0.65270899  0.72363178  0.27636822  1
  Cl  Cl80  1  0.15270899  0.27636822  0.72363178  1
  Cl  Cl81  1  0.84729101  0.72363178  0.27636822  1
  Cl  Cl82  1  0.34885039  0.03175684  0.96824316  1
  Cl  Cl83  1  0.65114961  0.96824316  0.03175684  1
  Cl  Cl84  1  0.15114961  0.03175684  0.96824316  1
  Cl  Cl85  1  0.84885039  0.96824316  0.03175684  1
  Cl  Cl86  1  0.25000000  0.94526575  0.64172786  1
  Cl  Cl87  1  0.75000000  0.64172786  0.94526575  1
  Cl  Cl88  1  0.75000000  0.05473425  0.35827214  1
  Cl  Cl89  1  0.25000000  0.35827214  0.05473425  1
  Cl  Cl90  1  0.41587561  0.67887736  0.32112264  1
  Cl  Cl91  1  0.58412439  0.32112264  0.67887736  1
  Cl  Cl92  1  0.08412439  0.67887736  0.32112264  1
  Cl  Cl93  1  0.91587561  0.32112264  0.67887736  1
  O  O94  1  0.25000000  0.22834004  0.37627638  1
  O  O95  1  0.75000000  0.37627638  0.22834004  1
  O  O96  1  0.75000000  0.77165996  0.62372362  1
  O  O97  1  0.25000000  0.62372362  0.77165996  1
  O  O98  1  0.25000000  0.55211285  0.44788715  1
  O  O99  1  0.75000000  0.44788715  0.55211285  1
