# generated using pymatgen
data_V25O32
_symmetry_space_group_name_H-M   'P 1'
_cell_length_a   8.67944036
_cell_length_b   9.61736460
_cell_length_c   9.61736480
_cell_angle_alpha   79.17064553
_cell_angle_beta   63.83038178
_cell_angle_gamma   63.83038650
_symmetry_Int_Tables_number   1
_chemical_formula_structural   V25O32
_chemical_formula_sum   'V25 O32'
_cell_volume   646.62240546
_cell_formula_units_Z   1
loop_
 _symmetry_equiv_pos_site_id
 _symmetry_equiv_pos_as_xyz
  1  'x, y, z'
loop_
 _atom_site_type_symbol
 _atom_site_label
 _atom_site_symmetry_multiplicity
 _atom_site_fract_x
 _atom_site_fract_y
 _atom_site_fract_z
 _atom_site_occupancy
  V  V0  1  0.00000000  0.12158026  0.37841974  1
  V  V1  1  0.13463633  0.36571251  0.37928454  1
  V  V2  1  0.38291333  0.11733089  0.11670357  1
  V  V3  1  0.12523407  0.74452022  0.25369220  1
  V  V4  1  1.00000000  0.86920367  0.63079633  1
  V  V5  1  0.25262312  0.36308161  0.60872412  1
  V  V6  1  0.24613012  0.11888043  0.87352095  1
  V  V7  1  0.50000000  0.36585909  0.13414091  1
  V  V8  1  0.12733459  0.87508365  0.87437341  1
  V  V9  1  0.38220818  0.37758376  0.87070108  1
  V  V10  1  0.38307744  0.61790144  0.61068925  1
  V  V11  1  0.35849762  0.89148863  0.37670373  1
  V  V12  1  0.64150237  0.12329627  0.60851137  1
  V  V13  1  0.61708667  0.38329643  0.38266911  1
  V  V14  1  0.61779182  0.62929892  0.12241624  1
  V  V15  1  0.86536367  0.12071546  0.13428749  1
  V  V16  1  0.50000000  0.89101965  0.60898035  1
  V  V17  1  0.50000000  0.62236909  0.87763091  1
  V  V18  1  0.75386988  0.62647905  0.38111957  1
  V  V19  1  0.74737688  0.89127588  0.13691839  1
  V  V20  1  1.00000000  0.37968550  0.12031450  1
  V  V21  1  0.87476593  0.24630780  0.75547978  1
  V  V22  1  0.61692256  0.88931075  0.88209856  1
  V  V23  1  0.87266541  0.62562659  0.62491635  1
  V  V24  1  0.00000000  0.61562090  0.88437910  1
  O  O25  1  0.11979836  0.13530408  0.11958004  1
  O  O26  1  0.00515383  0.37789913  0.62263817  1
  O  O27  1  0.00700034  0.12100865  0.88595357  1
  O  O28  1  0.26796384  0.35333588  0.11996822  1
  O  O29  1  0.25059159  0.12044884  0.34973762  1
  O  O30  1  0.11937203  0.61249645  0.64098566  1
  O  O31  1  0.15721726  0.36129766  0.86349096  1
  O  O32  1  0.12923424  0.87536362  0.38203431  1
  O  O33  1  0.37769900  0.37736710  0.36713466  1
  O  O34  1  0.39680525  0.12046033  0.63280486  1
  O  O35  1  0.39120863  0.61035115  0.12422114  1
  O  O36  1  0.62230100  0.13286534  0.12263290  1
  O  O37  1  0.26860445  0.61461428  0.85379815  1
  O  O38  1  0.26319390  0.86011846  0.61851073  1
  O  O39  1  0.48401241  0.37094319  0.62198603  1
  O  O40  1  0.48314301  0.13533196  0.86900618  1
  O  O41  1  0.51598759  0.87801397  0.12905681  1
  O  O42  1  0.51685699  0.63099382  0.36466804  1
  O  O43  1  0.74940841  0.15026238  0.37955116  1
  O  O44  1  0.73203616  0.38003178  0.14666412  1
  O  O45  1  0.38638702  0.87996902  0.84948793  1
  O  O46  1  0.60879137  0.37577886  0.88964885  1
  O  O47  1  0.60319475  0.86719514  0.37953967  1
  O  O48  1  0.61361298  0.65051207  0.62003098  1
  O  O49  1  0.87076576  0.11796569  0.62463638  1
  O  O50  1  0.84278274  0.63650904  0.13870234  1
  O  O51  1  0.88020164  0.38041996  0.36469592  1
  O  O52  1  0.73680610  0.88148927  0.63988154  1
  O  O53  1  0.73139555  0.64620185  0.88538572  1
  O  O54  1  0.99299966  0.61404643  0.37899135  1
  O  O55  1  0.99484617  0.87736183  0.12210087  1
  O  O56  1  0.88062797  0.85901434  0.88750355  1
