# generated using pymatgen
data_K5H3S5O14
_symmetry_space_group_name_H-M   'P 1'
_cell_length_a   10.78119022
_cell_length_b   10.78119022
_cell_length_c   15.01068876
_cell_angle_alpha   76.08862084
_cell_angle_beta   103.91137916
_cell_angle_gamma   147.77426879
_symmetry_Int_Tables_number   1
_chemical_formula_structural   K5H3S5O14
_chemical_formula_sum   'K10 H6 S10 O28'
_cell_volume   900.79606899
_cell_formula_units_Z   2
loop_
 _symmetry_equiv_pos_site_id
 _symmetry_equiv_pos_as_xyz
  1  'x, y, z'
loop_
 _atom_site_type_symbol
 _atom_site_label
 _atom_site_symmetry_multiplicity
 _atom_site_fract_x
 _atom_site_fract_y
 _atom_site_fract_z
 _atom_site_occupancy
  K  K0  1  0.50000000  0.50000000  0.50000000  1
  K  K1  1  0.50000000  0.50000000  0.00000000  1
  K  K2  1  0.27778941  0.72221059  0.88596118  1
  K  K3  1  0.72221059  0.27778941  0.11403882  1
  K  K4  1  0.07606097  0.92393903  0.69748501  1
  K  K5  1  0.92393903  0.07606097  0.30251499  1
  K  K6  1  0.91519531  0.08480469  0.78447860  1
  K  K7  1  0.08480469  0.91519531  0.21552140  1
  K  K8  1  0.70705806  0.29294194  0.62884035  1
  K  K9  1  0.29294194  0.70705806  0.37115965  1
  H  H10  1  0.38621643  0.61378357  0.64324012  1
  H  H11  1  0.61378357  0.38621643  0.35675988  1
  H  H12  1  0.90578551  0.09421449  0.07414537  1
  H  H13  1  0.09421449  0.90578551  0.92585463  1
  H  H14  1  0.83147777  0.16852223  0.53453625  1
  H  H15  1  0.16852223  0.83147777  0.46546375  1
  S  S16  1  0.65919936  0.34080064  0.84310228  1
  S  S17  1  0.34080064  0.65919936  0.15689772  1
  S  S18  1  0.54525873  0.45474127  0.78801402  1
  S  S19  1  0.45474127  0.54525873  0.21198598  1
  S  S20  1  0.32173678  0.67826322  0.65125915  1
  S  S21  1  0.67826322  0.32173678  0.34874085  1
  S  S22  1  0.87022933  0.12977067  0.98466900  1
  S  S23  1  0.12977067  0.87022933  0.01533100  1
  S  S24  1  0.89291697  0.10708303  0.51742646  1
  S  S25  1  0.10708303  0.89291697  0.48257354  1
  O  O26  1  0.88205026  0.53299437  0.79527653  1
  O  O27  1  0.46700563  0.11794974  0.79527653  1
  O  O28  1  0.11794974  0.46700563  0.20472347  1
  O  O29  1  0.53299437  0.88205026  0.20472347  1
  O  O30  1  0.72681086  0.68647769  0.82344253  1
  O  O31  1  0.31352231  0.27318914  0.82344253  1
  O  O32  1  0.27318914  0.31352231  0.17655747  1
  O  O33  1  0.68647769  0.72681086  0.17655747  1
  O  O34  1  0.53359216  0.46640784  0.68635316  1
  O  O35  1  0.46640784  0.53359216  0.31364684  1
  O  O36  1  0.11088361  0.47838067  0.70317843  1
  O  O37  1  0.52161933  0.88911639  0.70317843  1
  O  O38  1  0.88911639  0.52161933  0.29682157  1
  O  O39  1  0.47838067  0.11088361  0.29682157  1
  O  O40  1  0.27888915  0.72111085  0.55777987  1
  O  O41  1  0.72111085  0.27888915  0.44222013  1
  O  O42  1  0.09615603  0.31393317  0.94474777  1
  O  O43  1  0.68606683  0.90384397  0.94474777  1
  O  O44  1  0.90384397  0.68606683  0.05525223  1
  O  O45  1  0.31393317  0.09615603  0.05525223  1
  O  O46  1  0.79935423  0.20064577  0.98402123  1
  O  O47  1  0.20064577  0.79935423  0.01597877  1
  O  O48  1  0.09915073  0.30866764  0.46315919  1
  O  O49  1  0.69133236  0.90084927  0.46315919  1
  O  O50  1  0.90084927  0.69133236  0.53684081  1
  O  O51  1  0.30866764  0.09915073  0.53684081  1
  O  O52  1  0.94130500  0.05869500  0.60733372  1
  O  O53  1  0.05869500  0.94130500  0.39266628  1
