# generated using pymatgen
data_SiPH18C6INCl
_symmetry_space_group_name_H-M   'P 1'
_cell_length_a   13.25926044
_cell_length_b   13.25926044
_cell_length_c   13.25926044
_cell_angle_alpha   108.78407785
_cell_angle_beta   88.40147271
_cell_angle_gamma   134.90176011
_symmetry_Int_Tables_number   1
_chemical_formula_structural   SiPH18C6INCl
_chemical_formula_sum   'Si4 P4 H72 C24 I4 N4 Cl4'
_cell_volume   1492.49857207
_cell_formula_units_Z   4
loop_
 _symmetry_equiv_pos_site_id
 _symmetry_equiv_pos_as_xyz
  1  'x, y, z'
loop_
 _atom_site_type_symbol
 _atom_site_label
 _atom_site_symmetry_multiplicity
 _atom_site_fract_x
 _atom_site_fract_y
 _atom_site_fract_z
 _atom_site_occupancy
  Si  Si0  1  0.72968095  0.14857066  0.23550584  1
  Si  Si1  1  0.91306481  0.49417511  0.76449416  1
  Si  Si2  1  0.22968095  0.99417511  0.58111030  1
  Si  Si3  1  0.41306481  0.64857066  0.41888970  1
  P  P4  1  0.58754579  0.87412360  0.99787867  1
  P  P5  1  0.87624493  0.58966712  0.00212133  1
  P  P6  1  0.08754579  0.08966712  0.71342219  1
  P  P7  1  0.37624493  0.37412360  0.28657781  1
  H  H8  1  0.71031889  0.80318774  0.95242405  1
  H  H9  1  0.85076369  0.75789484  0.04757595  1
  H  H10  1  0.21031889  0.25789484  0.90713115  1
  H  H11  1  0.35076369  0.30318774  0.09286885  1
  H  H12  1  0.83963770  0.00638131  0.04935244  1
  H  H13  1  0.95702887  0.79028526  0.95064756  1
  H  H14  1  0.33963770  0.29028526  0.83325639  1
  H  H15  1  0.45702887  0.50638131  0.16674361  1
  H  H16  1  0.71783546  0.85280004  0.09663897  1
  H  H17  1  0.75616107  0.62119649  0.90336103  1
  H  H18  1  0.21783546  0.12119649  0.86503542  1
  H  H19  1  0.25616107  0.35280004  0.13496458  1
  H  H20  1  0.54801889  0.78309921  0.79909799  1
  H  H21  1  0.98400122  0.74892091  0.20090201  1
  H  H22  1  0.04801889  0.24892091  0.76491969  1
  H  H23  1  0.48400122  0.28309921  0.23508031  1
  H  H24  1  0.51537990  0.89818871  0.84981712  1
  H  H25  1  0.04837159  0.66556278  0.15018288  1
  H  H26  1  0.01537990  0.16556278  0.61719119  1
  H  H27  1  0.54837159  0.39818871  0.38280881  1
  H  H28  1  0.70267966  0.99459803  0.87230183  1
  H  H29  1  0.12229620  0.83037783  0.12769817  1
  H  H30  1  0.20267966  0.33037783  0.70808163  1
  H  H31  1  0.62229620  0.49459803  0.29191837  1
  H  H32  1  0.89953222  0.36735706  0.17848905  1
  H  H33  1  0.18886800  0.72104317  0.82151095  1
  H  H34  1  0.39953222  0.22104317  0.53217517  1
  H  H35  1  0.68886800  0.86735706  0.46782483  1
  H  H36  1  0.77968773  0.36979840  0.24164175  1
  H  H37  1  0.12815664  0.53804598  0.75835825  1
  H  H38  1  0.27968773  0.03804598  0.40988934  1
  H  H39  1  0.62815664  0.86979840  0.59011066  1
  H  H40  1  0.93635778  0.44009120  0.32624918  1
  H  H41  1  0.11384202  0.61010860  0.67375082  1
  H  H42  1  0.43635778  0.11010860  0.49626659  1
  H  H43  1  0.61384202  0.94009120  0.50373341  1
  H  H44  1  0.67316794  0.20216310  0.41326330  1
  H  H45  1  0.78889980  0.25990464  0.58673670  1
  H  H46  1  0.17316794  0.75990464  0.47100484  1
  H  H47  1  0.28889980  0.70216310  0.52899516  1
  H  H48  1  0.52391226  0.09757972  0.29669036  1
  H  H49  1  0.80088936  0.22722190  0.70330964  1
  H  H50  1  0.02391226  0.72722190  0.42633254  1
  H  H51  1  0.30088936  0.59757972  0.57366746  1
  H  H52  1  0.54652387  0.99564988  0.33339717  1
  H  H53  1  0.66225271  0.21312670  0.66660283  1
  H  H54  1  0.04652387  0.71312670  0.55087399  1
  H  H55  1  0.16225271  0.49564988  0.44912601  1
  H  H56  1  0.40041481  0.59141070  0.90627145  1
  H  H57  1  0.68513925  0.49414336  0.09372855  1
  H  H58  1  0.90041481  0.99414336  0.80900410  1
  H  H59  1  0.18513925  0.09141070  0.19099590  1
  H  H60  1  0.41005685  0.66025962  0.05009246  1
  H  H61  1  0.61016717  0.35996439  0.94990754  1
  H  H62  1  0.91005685  0.85996439  0.74979722  1
  H  H63  1  0.11016717  0.16025962  0.25020278  1
  H  H64  1  0.31825316  0.65627173  0.95098388  1
  H  H65  1  0.70528785  0.36726928  0.04901612  1
  H  H66  1  0.81825316  0.86726928  0.66198144  1
  H  H67  1  0.20528785  0.15627173  0.33801856  1
  H  H68  1  0.93658362  0.24383187  0.36550895  1
  H  H69  1  0.87832292  0.57107466  0.63449105  1
  H  H70  1  0.43658362  0.07107466  0.69275174  1
  H  H71  1  0.37832292  0.74383187  0.30724826  1
  H  H72  1  0.79648327  0.03518018  0.29398865  1
  H  H73  1  0.74119154  0.50249462  0.70601135  1
  H  H74  1  0.29648327  0.00249462  0.76130309  1
  H  H75  1  0.24119154  0.53518018  0.23869691  1
  H  H76  1  0.92268326  0.15543677  0.22686447  1
  H  H77  1  0.92857231  0.69581880  0.77313553  1
  H  H78  1  0.42268326  0.19581880  0.76724649  1
  H  H79  1  0.42857231  0.65543677  0.23275351  1
  C  C80  1  0.72852976  0.88632641  0.02812858  1
  C  C81  1  0.85819783  0.70040118  0.97187142  1
  C  C82  1  0.22852976  0.20040118  0.84220335  1
  C  C83  1  0.35819783  0.38632641  0.15779665  1
  C  C84  1  0.58825504  0.88848759  0.86640559  1
  C  C85  1  0.02208200  0.72184946  0.13359441  1
  C  C86  1  0.08825504  0.22184946  0.69976746  1
  C  C87  1  0.52208200  0.38848759  0.30023254  1
  C  C88  1  0.84752961  0.35087495  0.24612539  1
  C  C89  1  0.10474956  0.60140422  0.75387461  1
  C  C90  1  0.34752961  0.10140422  0.49665466  1
  C  C91  1  0.60474956  0.85087495  0.50334534  1
  C  C92  1  0.60667927  0.10659159  0.32848196  1
  C  C93  1  0.77810963  0.27819731  0.67151804  1
  C  C94  1  0.10667927  0.77819731  0.50008768  1
  C  C95  1  0.27810963  0.60659159  0.49991232  1
  C  C96  1  0.41191725  0.67634977  0.97354105  1
  C  C97  1  0.70280872  0.43837620  0.02645895  1
  C  C98  1  0.91191725  0.93837620  0.73556748  1
  C  C99  1  0.20280872  0.17634977  0.26443252  1
  C  C100  1  0.85696760  0.14310245  0.28393465  1
  C  C101  1  0.85916781  0.57303295  0.71606535  1
  C  C102  1  0.35696760  0.07303295  0.71386515  1
  C  C103  1  0.35916781  0.64310245  0.28613485  1
  I  I104  1  0.45014235  0.00926329  0.04780495  1
  I  I105  1  0.96145834  0.40233740  0.95219505  1
  I  I106  1  0.95014235  0.90233740  0.44087906  1
  I  I107  1  0.46145834  0.50926329  0.55912094  1
  N  N108  1  0.61392836  0.00803935  0.09637607  1
  N  N109  1  0.91166328  0.51755229  0.90362393  1
  N  N110  1  0.11392836  0.01755229  0.60588901  1
  N  N111  1  0.41166328  0.50803935  0.39411099  1
  Cl  Cl112  1  0.26691973  0.01949768  0.99567977  1
  Cl  Cl113  1  0.02381791  0.27123996  0.00432023  1
  Cl  Cl114  1  0.76691973  0.77123996  0.24742205  1
  Cl  Cl115  1  0.52381791  0.51949768  0.75257795  1
