# generated using pymatgen
data_Ho2TiO5
_symmetry_space_group_name_H-M   'P 1'
_cell_length_a   4.07607333
_cell_length_b   5.86801618
_cell_length_c   10.49464726
_cell_angle_alpha   90.00000000
_cell_angle_beta   90.00000000
_cell_angle_gamma   69.67696301
_symmetry_Int_Tables_number   1
_chemical_formula_structural   Ho2TiO5
_chemical_formula_sum   'Ho4 Ti2 O10'
_cell_volume   235.38994970
_cell_formula_units_Z   2
loop_
 _symmetry_equiv_pos_site_id
 _symmetry_equiv_pos_as_xyz
  1  'x, y, z'
loop_
 _atom_site_type_symbol
 _atom_site_label
 _atom_site_symmetry_multiplicity
 _atom_site_fract_x
 _atom_site_fract_y
 _atom_site_fract_z
 _atom_site_occupancy
  Ho  Ho0  1  0.14230554  0.71538892  0.93038519  1
  Ho  Ho1  1  0.14230554  0.71538892  0.56961481  1
  Ho  Ho2  1  0.85769446  0.28461108  0.06961481  1
  Ho  Ho3  1  0.85769446  0.28461108  0.43038519  1
  Ti  Ti4  1  0.17274680  0.65450541  0.25000000  1
  Ti  Ti5  1  0.82725320  0.34549459  0.75000000  1
  O  O6  1  0.05171919  0.89656061  0.37635078  1
  O  O7  1  0.05171919  0.89656061  0.12364922  1
  O  O8  1  0.70917916  0.58164067  0.90802340  1
  O  O9  1  0.70917916  0.58164067  0.59197660  1
  O  O10  1  0.27299872  0.45400257  0.75000000  1
  O  O11  1  0.72700128  0.54599743  0.25000000  1
  O  O12  1  0.29082084  0.41835933  0.09197660  1
  O  O13  1  0.29082084  0.41835933  0.40802340  1
  O  O14  1  0.94828081  0.10343939  0.62364922  1
  O  O15  1  0.94828081  0.10343939  0.87635078  1
