# generated using pymatgen
data_LiAgF2
_symmetry_space_group_name_H-M   'P 1'
_cell_length_a   4.71492824
_cell_length_b   5.67655071
_cell_length_c   4.71492889
_cell_angle_alpha   65.46187019
_cell_angle_beta   90.00000006
_cell_angle_gamma   114.53813402
_symmetry_Int_Tables_number   1
_chemical_formula_structural   LiAgF2
_chemical_formula_sum   'Li2 Ag2 F4'
_cell_volume   102.13468900
_cell_formula_units_Z   2
loop_
 _symmetry_equiv_pos_site_id
 _symmetry_equiv_pos_as_xyz
  1  'x, y, z'
loop_
 _atom_site_type_symbol
 _atom_site_label
 _atom_site_symmetry_multiplicity
 _atom_site_fract_x
 _atom_site_fract_y
 _atom_site_fract_z
 _atom_site_occupancy
  Li  Li0  1  0.25000000  0.50000000  0.25000000  1
  Li  Li1  1  0.50000000  0.00000000  0.50000000  1
  Ag  Ag2  1  0.00000000  0.00000000  0.00000000  1
  Ag  Ag3  1  0.75000000  0.50000000  0.75000000  1
  F  F4  1  0.03980290  0.07960579  0.46019710  1
  F  F5  1  0.28980290  0.57960579  0.71019710  1
  F  F6  1  0.46019710  0.92039421  0.03980290  1
  F  F7  1  0.71019710  0.42039421  0.28980290  1
