# generated using pymatgen
data_Sr2CuH2(SeO3)4
_symmetry_space_group_name_H-M   'P 1'
_cell_length_a   5.81450453
_cell_length_b   7.15799449
_cell_length_c   9.01084731
_cell_angle_alpha   72.85723400
_cell_angle_beta   71.32818526
_cell_angle_gamma   80.93628860
_symmetry_Int_Tables_number   1
_chemical_formula_structural   Sr2CuH2(SeO3)4
_chemical_formula_sum   'Sr2 Cu1 H2 Se4 O12'
_cell_volume   338.68230309
_cell_formula_units_Z   1
loop_
 _symmetry_equiv_pos_site_id
 _symmetry_equiv_pos_as_xyz
  1  'x, y, z'
loop_
 _atom_site_type_symbol
 _atom_site_label
 _atom_site_symmetry_multiplicity
 _atom_site_fract_x
 _atom_site_fract_y
 _atom_site_fract_z
 _atom_site_occupancy
  Sr  Sr0  1  0.10598952  0.20632530  0.57989066  1
  Sr  Sr1  1  0.89401048  0.79367470  0.42010934  1
  Cu  Cu2  1  0.00000000  0.00000000  0.00000000  1
  H  H3  1  0.30781627  0.82536933  0.14125333  1
  H  H4  1  0.69218373  0.17463067  0.85874667  1
  Se  Se5  1  0.45810557  0.12295135  0.20736437  1
  Se  Se6  1  0.20163604  0.55996275  0.77212639  1
  Se  Se7  1  0.79836396  0.44003725  0.22787361  1
  Se  Se8  1  0.54189443  0.87704865  0.79263563  1
  O  O9  1  0.15155413  0.79695299  0.14018080  1
  O  O10  1  0.15435310  0.55458987  0.59633294  1
  O  O11  1  0.97767402  0.70251981  0.85946320  1
  O  O12  1  0.54486011  0.24764471  0.33161446  1
  O  O13  1  0.31314781  0.06279186  0.81493177  1
  O  O14  1  0.24616607  0.00103677  0.36987828  1
  O  O15  1  0.75383393  0.99896323  0.63012172  1
  O  O16  1  0.68685219  0.93720814  0.18506823  1
  O  O17  1  0.45513989  0.75235529  0.66838554  1
  O  O18  1  0.02232598  0.29748019  0.14053680  1
  O  O19  1  0.84564690  0.44541013  0.40366706  1
  O  O20  1  0.84844587  0.20304701  0.85981920  1
