# generated using pymatgen
data_La5Sm3Ni7AgO20
_symmetry_space_group_name_H-M   'P 1'
_cell_length_a   11.04160734
_cell_length_b   11.50806925
_cell_length_c   17.58970314
_cell_angle_alpha   109.61220251
_cell_angle_beta   108.42548730
_cell_angle_gamma   89.81467101
_symmetry_Int_Tables_number   1
_chemical_formula_structural   La5Sm3Ni7AgO20
_chemical_formula_sum   'La20 Sm12 Ni28 Ag4 O80'
_cell_volume   1984.20887345
_cell_formula_units_Z   4
loop_
 _symmetry_equiv_pos_site_id
 _symmetry_equiv_pos_as_xyz
  1  'x, y, z'
loop_
 _atom_site_type_symbol
 _atom_site_label
 _atom_site_symmetry_multiplicity
 _atom_site_fract_x
 _atom_site_fract_y
 _atom_site_fract_z
 _atom_site_occupancy
  La  La0  1  0.30588027  0.06113747  0.60806598  1
  La  La1  1  0.30922131  0.56494248  0.60963508  1
  La  La2  1  0.80417472  0.06350134  0.60916977  1
  La  La3  1  0.80458128  0.56355248  0.61080383  1
  La  La4  1  0.19667443  0.43586122  0.39025262  1
  La  La5  1  0.18966797  0.43712272  0.88672389  1
  La  La6  1  0.19359709  0.93682140  0.38740241  1
  La  La7  1  0.69538987  0.43539777  0.38923358  1
  La  La8  1  0.69763688  0.93704634  0.38918291  1
  La  La9  1  0.05465285  0.30334343  0.11518121  1
  La  La10  1  0.05521424  0.29653599  0.60912669  1
  La  La11  1  0.05347602  0.79859329  0.61045711  1
  La  La12  1  0.55653348  0.29756715  0.61009971  1
  La  La13  1  0.44695187  0.20251013  0.38944138  1
  La  La14  1  0.44156112  0.20496914  0.88972565  1
  La  La15  1  0.44441834  0.70255765  0.38905953  1
  La  La16  1  0.43381153  0.69425940  0.88668149  1
  La  La17  1  0.94616294  0.20226353  0.38917442  1
  La  La18  1  0.94014350  0.19744933  0.88462609  1
  La  La19  1  0.94833681  0.70402982  0.38964192  1
  Sm  Sm20  1  0.29991588  0.06640656  0.11473407  1
  Sm  Sm21  1  0.30957990  0.56441507  0.11333213  1
  Sm  Sm22  1  0.79384758  0.07053000  0.11339497  1
  Sm  Sm23  1  0.79436660  0.55950779  0.11523704  1
  Sm  Sm24  1  0.18650528  0.93540398  0.88615231  1
  Sm  Sm25  1  0.68304637  0.43331367  0.88794262  1
  Sm  Sm26  1  0.68283822  0.93441126  0.87901787  1
  Sm  Sm27  1  0.05791433  0.79257310  0.11497534  1
  Sm  Sm28  1  0.55410298  0.30100059  0.11309062  1
  Sm  Sm29  1  0.54094974  0.79490156  0.11428497  1
  Sm  Sm30  1  0.55422983  0.79282362  0.60645268  1
  Sm  Sm31  1  0.94305675  0.70719824  0.88522006  1
  Ni  Ni32  1  0.00418682  0.00051066  0.50022183  1
  Ni  Ni33  1  0.00446887  0.50061338  0.50010401  1
  Ni  Ni34  1  0.50449642  0.99867060  0.49950389  1
  Ni  Ni35  1  0.50116493  0.49734296  0.00183262  1
  Ni  Ni36  1  0.50415433  0.49989034  0.49930078  1
  Ni  Ni37  1  0.25551685  0.25205514  0.00081035  1
  Ni  Ni38  1  0.25441065  0.24960709  0.50003439  1
  Ni  Ni39  1  0.25275733  0.75076828  0.00332898  1
  Ni  Ni40  1  0.25469956  0.75058921  0.50045624  1
  Ni  Ni41  1  0.74948844  0.25100678  0.99965319  1
  Ni  Ni42  1  0.75344759  0.25014506  0.49976400  1
  Ni  Ni43  1  0.75329510  0.74941453  0.49911078  1
  Ni  Ni44  1  0.10750467  0.09708390  0.25025591  1
  Ni  Ni45  1  0.10974817  0.09680700  0.75135867  1
  Ni  Ni46  1  0.10917577  0.60134413  0.24995481  1
  Ni  Ni47  1  0.10800740  0.60067655  0.75068514  1
  Ni  Ni48  1  0.60932487  0.09621591  0.25018849  1
  Ni  Ni49  1  0.60523635  0.09762833  0.74878820  1
  Ni  Ni50  1  0.60911156  0.59825437  0.24983823  1
  Ni  Ni51  1  0.61196945  0.60102903  0.75043172  1
  Ni  Ni52  1  0.35996473  0.39998964  0.24701773  1
  Ni  Ni53  1  0.35970413  0.40182812  0.74856299  1
  Ni  Ni54  1  0.35721402  0.90208694  0.24905406  1
  Ni  Ni55  1  0.36185983  0.90136972  0.74827262  1
  Ni  Ni56  1  0.85552538  0.39976572  0.24852355  1
  Ni  Ni57  1  0.85524576  0.40362242  0.74938907  1
  Ni  Ni58  1  0.85755245  0.89939840  0.24674722  1
  Ni  Ni59  1  0.85490840  0.89768414  0.74681813  1
  Ag  Ag60  1  0.99922035  0.00409076  0.00347966  1
  Ag  Ag61  1  0.00056323  0.50065231  0.00007918  1
  Ag  Ag62  1  0.49595103  0.00004854  0.00192915  1
  Ag  Ag63  1  0.74737646  0.74879446  0.00329940  1
  O  O64  1  0.11807116  0.11900605  0.48320443  1
  O  O65  1  0.11547321  0.12211223  0.97399700  1
  O  O66  1  0.11856167  0.61860794  0.48292293  1
  O  O67  1  0.10899321  0.62596535  0.97310290  1
  O  O68  1  0.61696879  0.11672044  0.48063477  1
  O  O69  1  0.61476816  0.12054634  0.97849139  1
  O  O70  1  0.61603298  0.61906674  0.48114630  1
  O  O71  1  0.60601979  0.60328067  0.97164624  1
  O  O72  1  0.14862307  0.38593024  0.03413516  1
  O  O73  1  0.13652908  0.38268664  0.51931128  1
  O  O74  1  0.14026358  0.88215337  0.03069720  1
  O  O75  1  0.13583025  0.88209375  0.51925184  1
  O  O76  1  0.63239781  0.38050325  0.02394464  1
  O  O77  1  0.63539775  0.38213032  0.51752548  1
  O  O78  1  0.63773192  0.88880123  0.04398043  1
  O  O79  1  0.63460495  0.87976645  0.51965145  1
  O  O80  1  0.36753075  0.11139203  0.48143378  1
  O  O81  1  0.34900034  0.10758507  0.96684121  1
  O  O82  1  0.36874392  0.61371233  0.48109025  1
  O  O83  1  0.36597325  0.61250910  0.98643203  1
  O  O84  1  0.86899857  0.11445311  0.48263248  1
  O  O85  1  0.84723210  0.10746272  0.96805479  1
  O  O86  1  0.86760274  0.61299809  0.47992860  1
  O  O87  1  0.85117829  0.60113927  0.95826122  1
  O  O88  1  0.38898534  0.38955689  0.02546799  1
  O  O89  1  0.38576347  0.38576897  0.51644492  1
  O  O90  1  0.38147044  0.88907010  0.03163478  1
  O  O91  1  0.39064665  0.88402678  0.51953522  1
  O  O92  1  0.87404790  0.39455932  0.02584444  1
  O  O93  1  0.88589427  0.38722338  0.51744853  1
  O  O94  1  0.88564177  0.89578816  0.03505631  1
  O  O95  1  0.88551339  0.88641250  0.51736547  1
  O  O96  1  0.13239585  0.14036197  0.15968295  1
  O  O97  1  0.08367710  0.10834011  0.63906409  1
  O  O98  1  0.13914138  0.63430403  0.15829862  1
  O  O99  1  0.08288581  0.61187977  0.63903782  1
  O  O100  1  0.62583461  0.14152934  0.15874359  1
  O  O101  1  0.58674449  0.11011716  0.63809145  1
  O  O102  1  0.59689372  0.61248891  0.13890582  1
  O  O103  1  0.58038104  0.60913077  0.63559314  1
  O  O104  1  0.44611499  0.39044101  0.36053921  1
  O  O105  1  0.45072488  0.39188840  0.86123565  1
  O  O106  1  0.44333257  0.89113737  0.36145807  1
  O  O107  1  0.47208621  0.86221150  0.84486951  1
  O  O108  1  0.94442985  0.39048994  0.36100133  1
  O  O109  1  0.96479761  0.36345329  0.84351239  1
  O  O110  1  0.94269247  0.89443947  0.36268861  1
  O  O111  1  0.97477848  0.87133604  0.84321507  1
  O  O112  1  0.35690970  0.27300775  0.13813313  1
  O  O113  1  0.33615244  0.27911717  0.63685911  1
  O  O114  1  0.34930050  0.77620937  0.14047750  1
  O  O115  1  0.34039266  0.78047587  0.63505581  1
  O  O116  1  0.84415936  0.27724551  0.13655974  1
  O  O117  1  0.82715095  0.28143538  0.63479476  1
  O  O118  1  0.88295324  0.76007146  0.15655690  1
  O  O119  1  0.82724450  0.77651850  0.63317134  1
  O  O120  1  0.19186249  0.21896327  0.36499154  1
  O  O121  1  0.20268447  0.22499109  0.86164510  1
  O  O122  1  0.18967948  0.72357086  0.36556223  1
  O  O123  1  0.20997041  0.72406684  0.86397664  1
  O  O124  1  0.69347360  0.21892109  0.36484244  1
  O  O125  1  0.69379723  0.22475435  0.86158281  1
  O  O126  1  0.69525793  0.72084730  0.36203442  1
  O  O127  1  0.72826226  0.73567184  0.84334065  1
  O  O128  1  0.42503912  0.06401630  0.24670558  1
  O  O129  1  0.42400111  0.06705126  0.74931494  1
  O  O130  1  0.42781134  0.56372127  0.24680766  1
  O  O131  1  0.42885889  0.56340403  0.74902699  1
  O  O132  1  0.92170890  0.06480630  0.24588015  1
  O  O133  1  0.92545761  0.06002984  0.74755167  1
  O  O134  1  0.92326119  0.56096134  0.24671405  1
  O  O135  1  0.92802246  0.56731207  0.75277753  1
  O  O136  1  0.18031381  0.43930836  0.25244898  1
  O  O137  1  0.17966865  0.43828106  0.74966969  1
  O  O138  1  0.17450382  0.93329539  0.24693456  1
  O  O139  1  0.18169695  0.93412942  0.75365699  1
  O  O140  1  0.67373836  0.43448313  0.24690812  1
  O  O141  1  0.67328539  0.43485221  0.75411714  1
  O  O142  1  0.67169244  0.92868669  0.24712401  1
  O  O143  1  0.67059625  0.93228379  0.74541007  1
