# generated using pymatgen
data_Na6SbO5
_symmetry_space_group_name_H-M   'P 1'
_cell_length_a   5.73386239
_cell_length_b   6.10872591
_cell_length_c   10.96503619
_cell_angle_alpha   90.00000000
_cell_angle_beta   90.00000000
_cell_angle_gamma   62.00999978
_symmetry_Int_Tables_number   1
_chemical_formula_structural   Na6SbO5
_chemical_formula_sum   'Na12 Sb2 O10'
_cell_volume   339.14326339
_cell_formula_units_Z   2
loop_
 _symmetry_equiv_pos_site_id
 _symmetry_equiv_pos_as_xyz
  1  'x, y, z'
loop_
 _atom_site_type_symbol
 _atom_site_label
 _atom_site_symmetry_multiplicity
 _atom_site_fract_x
 _atom_site_fract_y
 _atom_site_fract_z
 _atom_site_occupancy
  Na  Na0  1  0.57002235  0.59447136  0.75000000  1
  Na  Na1  1  0.83550530  0.59447136  0.25000000  1
  Na  Na2  1  0.22085403  0.55829295  0.50000000  1
  Na  Na3  1  0.22085403  0.55829295  0.00000000  1
  Na  Na4  1  0.77914597  0.44170705  0.00000000  1
  Na  Na5  1  0.77914597  0.44170705  0.50000000  1
  Na  Na6  1  0.42997765  0.40552864  0.25000000  1
  Na  Na7  1  0.16449470  0.40552864  0.75000000  1
  Na  Na8  1  0.68523926  0.00000000  0.43894906  1
  Na  Na9  1  0.68523926  0.00000000  0.06105094  1
  Na  Na10  1  0.31476074  0.00000000  0.56105094  1
  Na  Na11  1  0.31476074  0.00000000  0.93894906  1
  Sb  Sb12  1  0.21938389  0.00000000  0.25000000  1
  Sb  Sb13  1  0.78061611  0.00000000  0.75000000  1
  O  O14  1  0.43319648  0.72914391  0.11723061  1
  O  O15  1  0.83765962  0.72914391  0.61723061  1
  O  O16  1  0.83765962  0.72914391  0.88276939  1
  O  O17  1  0.43319648  0.72914391  0.38276939  1
  O  O18  1  0.16234038  0.27085609  0.11723061  1
  O  O19  1  0.56680352  0.27085609  0.61723061  1
  O  O20  1  0.16234038  0.27085609  0.38276939  1
  O  O21  1  0.56680352  0.27085609  0.88276939  1
  O  O22  1  0.86736496  0.00000000  0.25000000  1
  O  O23  1  0.13263504  0.00000000  0.75000000  1
