# generated using pymatgen
data_Cs2Ba2O3
_symmetry_space_group_name_H-M   'P 1'
_cell_length_a   8.63430615
_cell_length_b   6.92226276
_cell_length_c   7.35450762
_cell_angle_alpha   90.00000000
_cell_angle_beta   111.51804072
_cell_angle_gamma   90.00000000
_symmetry_Int_Tables_number   1
_chemical_formula_structural   Cs2Ba2O3
_chemical_formula_sum   'Cs4 Ba4 O6'
_cell_volume   408.93392170
_cell_formula_units_Z   2
loop_
 _symmetry_equiv_pos_site_id
 _symmetry_equiv_pos_as_xyz
  1  'x, y, z'
loop_
 _atom_site_type_symbol
 _atom_site_label
 _atom_site_symmetry_multiplicity
 _atom_site_fract_x
 _atom_site_fract_y
 _atom_site_fract_z
 _atom_site_occupancy
  Cs  Cs0  1  0.37249029  0.30379334  0.60151938  1
  Cs  Cs1  1  0.62750971  0.80379334  0.89848062  1
  Cs  Cs2  1  0.37249029  0.19620666  0.10151938  1
  Cs  Cs3  1  0.62750971  0.69620666  0.39848062  1
  Ba  Ba4  1  0.12519969  0.74463764  0.80566533  1
  Ba  Ba5  1  0.12519969  0.75536236  0.30566533  1
  Ba  Ba6  1  0.87480031  0.24463764  0.69433467  1
  Ba  Ba7  1  0.87480031  0.25536236  0.19433467  1
  O  O8  1  0.00000000  0.50000000  0.50000000  1
  O  O9  1  0.00000000  0.00000000  0.00000000  1
  O  O10  1  0.29379320  0.90785882  0.63128613  1
  O  O11  1  0.70620680  0.40785882  0.86871387  1
  O  O12  1  0.29379320  0.59214118  0.13128613  1
  O  O13  1  0.70620680  0.09214118  0.36871387  1
