# generated using pymatgen
data_K4TiO4
_symmetry_space_group_name_H-M   'P 1'
_cell_length_a   6.89933885
_cell_length_b   6.89933885
_cell_length_c   7.46070513
_cell_angle_alpha   90.00000000
_cell_angle_beta   90.00000000
_cell_angle_gamma   88.07627306
_symmetry_Int_Tables_number   1
_chemical_formula_structural   K4TiO4
_chemical_formula_sum   'K8 Ti2 O8'
_cell_volume   354.93594894
_cell_formula_units_Z   2
loop_
 _symmetry_equiv_pos_site_id
 _symmetry_equiv_pos_as_xyz
  1  'x, y, z'
loop_
 _atom_site_type_symbol
 _atom_site_label
 _atom_site_symmetry_multiplicity
 _atom_site_fract_x
 _atom_site_fract_y
 _atom_site_fract_z
 _atom_site_occupancy
  K  K0  1  0.16774307  0.83225693  0.50000000  1
  K  K1  1  0.16774307  0.83225693  0.00000000  1
  K  K2  1  0.54545359  0.86376472  0.25000000  1
  K  K3  1  0.13623528  0.45454641  0.75000000  1
  K  K4  1  0.45454641  0.13623528  0.75000000  1
  K  K5  1  0.86376472  0.54545359  0.25000000  1
  K  K6  1  0.83225693  0.16774307  0.00000000  1
  K  K7  1  0.83225693  0.16774307  0.50000000  1
  Ti  Ti8  1  0.32625358  0.32625358  0.25000000  1
  Ti  Ti9  1  0.67374642  0.67374642  0.75000000  1
  O  O10  1  0.26601508  0.59061272  0.25000000  1
  O  O11  1  0.40938728  0.73398492  0.75000000  1
  O  O12  1  0.21583098  0.21583098  0.04649185  1
  O  O13  1  0.21583098  0.21583098  0.45350815  1
  O  O14  1  0.78416902  0.78416902  0.95350815  1
  O  O15  1  0.78416902  0.78416902  0.54649185  1
  O  O16  1  0.73398492  0.40938728  0.75000000  1
  O  O17  1  0.59061272  0.26601508  0.25000000  1
