# generated using pymatgen
data_TbSmO3
_symmetry_space_group_name_H-M   'P 1'
_cell_length_a   6.07813019
_cell_length_b   8.50776506
_cell_length_c   5.82907934
_cell_angle_alpha   90.00000000
_cell_angle_beta   90.00000000
_cell_angle_gamma   90.00000000
_symmetry_Int_Tables_number   1
_chemical_formula_structural   TbSmO3
_chemical_formula_sum   'Tb4 Sm4 O12'
_cell_volume   301.42929181
_cell_formula_units_Z   4
loop_
 _symmetry_equiv_pos_site_id
 _symmetry_equiv_pos_as_xyz
  1  'x, y, z'
loop_
 _atom_site_type_symbol
 _atom_site_label
 _atom_site_symmetry_multiplicity
 _atom_site_fract_x
 _atom_site_fract_y
 _atom_site_fract_z
 _atom_site_occupancy
  Tb  Tb0  1  0.00000000  0.00000000  0.50000000  1
  Tb  Tb1  1  0.00000000  0.50000000  0.50000000  1
  Tb  Tb2  1  0.50000000  0.00000000  0.00000000  1
  Tb  Tb3  1  0.50000000  0.50000000  0.00000000  1
  Sm  Sm4  1  0.04945261  0.25000000  0.98772192  1
  Sm  Sm5  1  0.45054739  0.75000000  0.48772192  1
  Sm  Sm6  1  0.54945261  0.25000000  0.51227808  1
  Sm  Sm7  1  0.95054739  0.75000000  0.01227808  1
  O  O8  1  0.07911288  0.75000000  0.64388878  1
  O  O9  1  0.18397603  0.57360510  0.18065787  1
  O  O10  1  0.18397603  0.92639490  0.18065787  1
  O  O11  1  0.31602397  0.42639490  0.68065787  1
  O  O12  1  0.31602397  0.07360510  0.68065787  1
  O  O13  1  0.42088712  0.25000000  0.14388878  1
  O  O14  1  0.57911288  0.75000000  0.85611122  1
  O  O15  1  0.68397603  0.92639490  0.31934213  1
  O  O16  1  0.68397603  0.57360510  0.31934213  1
  O  O17  1  0.81602397  0.07360510  0.81934213  1
  O  O18  1  0.81602397  0.42639490  0.81934213  1
  O  O19  1  0.92088712  0.25000000  0.35611122  1
