# generated using pymatgen
data_LuAlO3
_symmetry_space_group_name_H-M   'P 1'
_cell_length_a   5.18237138
_cell_length_b   5.18237138
_cell_length_c   5.18237140
_cell_angle_alpha   60.93765431
_cell_angle_beta   60.93765431
_cell_angle_gamma   60.93765365
_symmetry_Int_Tables_number   1
_chemical_formula_structural   LuAlO3
_chemical_formula_sum   'Lu2 Al2 O6'
_cell_volume   100.49660624
_cell_formula_units_Z   2
loop_
 _symmetry_equiv_pos_site_id
 _symmetry_equiv_pos_as_xyz
  1  'x, y, z'
loop_
 _atom_site_type_symbol
 _atom_site_label
 _atom_site_symmetry_multiplicity
 _atom_site_fract_x
 _atom_site_fract_y
 _atom_site_fract_z
 _atom_site_occupancy
  Lu  Lu0  1  0.25000000  0.25000000  0.25000000  1
  Lu  Lu1  1  0.75000000  0.75000000  0.75000000  1
  Al  Al2  1  0.00000000  0.00000000  0.00000000  1
  Al  Al3  1  0.50000000  0.50000000  0.50000000  1
  O  O4  1  0.25000000  0.83682869  0.66317131  1
  O  O5  1  0.33682869  0.75000000  0.16317131  1
  O  O6  1  0.16317131  0.33682869  0.75000000  1
  O  O7  1  0.83682869  0.66317131  0.25000000  1
  O  O8  1  0.66317131  0.25000000  0.83682869  1
  O  O9  1  0.75000000  0.16317131  0.33682869  1
