# generated using pymatgen
data_Na4Ti3O8
_symmetry_space_group_name_H-M   'P 1'
_cell_length_a   6.50018033
_cell_length_b   6.11380301
_cell_length_c   6.15991527
_cell_angle_alpha   59.75018335
_cell_angle_beta   118.28297651
_cell_angle_gamma   90.78838855
_symmetry_Int_Tables_number   1
_chemical_formula_structural   Na4Ti3O8
_chemical_formula_sum   'Na4 Ti3 O8'
_cell_volume   177.89446666
_cell_formula_units_Z   1
loop_
 _symmetry_equiv_pos_site_id
 _symmetry_equiv_pos_as_xyz
  1  'x, y, z'
loop_
 _atom_site_type_symbol
 _atom_site_label
 _atom_site_symmetry_multiplicity
 _atom_site_fract_x
 _atom_site_fract_y
 _atom_site_fract_z
 _atom_site_occupancy
  Na  Na0  1  0.12500000  0.62500000  0.75000000  1
  Na  Na1  1  0.12500000  0.12500000  0.25000000  1
  Na  Na2  1  0.12500000  0.12500000  0.75000000  1
  Na  Na3  1  0.62500000  0.12500000  0.75000000  1
  Ti  Ti4  1  0.62500000  0.62500000  0.75000000  1
  Ti  Ti5  1  0.62500000  0.62500000  0.25000000  1
  Ti  Ti6  1  0.62500000  0.12500000  0.25000000  1
  O  O7  1  0.42475422  0.85787980  0.28343671  1
  O  O8  1  0.43146486  0.82207695  0.80469396  1
  O  O9  1  0.81243901  0.88092872  0.24451086  1
  O  O10  1  0.81243901  0.88092872  0.68699942  1
  O  O11  1  0.43756099  0.36907028  0.25548914  1
  O  O12  1  0.43756099  0.36907028  0.81300058  1
  O  O13  1  0.81853514  0.42792305  0.69530604  1
  O  O14  1  0.82524578  0.39212020  0.21656329  1
