# generated using pymatgen
data_Ba2YCl7
_symmetry_space_group_name_H-M   'P 1'
_cell_length_a   9.27614609
_cell_length_b   9.27614609
_cell_length_c   10.39104967
_cell_angle_alpha   56.34417172
_cell_angle_beta   123.65582828
_cell_angle_gamma   127.63751475
_symmetry_Int_Tables_number   1
_chemical_formula_structural   Ba2YCl7
_chemical_formula_sum   'Ba4 Y2 Cl14'
_cell_volume   556.89067425
_cell_formula_units_Z   2
loop_
 _symmetry_equiv_pos_site_id
 _symmetry_equiv_pos_as_xyz
  1  'x, y, z'
loop_
 _atom_site_type_symbol
 _atom_site_label
 _atom_site_symmetry_multiplicity
 _atom_site_fract_x
 _atom_site_fract_y
 _atom_site_fract_z
 _atom_site_occupancy
  Ba  Ba0  1  0.30295675  0.68022543  0.71853250  1
  Ba  Ba1  1  0.31977457  0.69704325  0.21853250  1
  Ba  Ba2  1  0.68022543  0.30295675  0.78146750  1
  Ba  Ba3  1  0.69704325  0.31977457  0.28146750  1
  Y  Y4  1  0.96616234  0.96616234  0.75000000  1
  Y  Y5  1  0.03383766  0.03383766  0.25000000  1
  Cl  Cl6  1  0.06851866  0.68940126  0.84867199  1
  Cl  Cl7  1  0.31059874  0.93148134  0.34867199  1
  Cl  Cl8  1  0.06549287  0.24085068  0.93698205  1
  Cl  Cl9  1  0.10835990  0.35721474  0.55246277  1
  Cl  Cl10  1  0.61158171  0.61158171  0.75000000  1
  Cl  Cl11  1  0.75914932  0.93450713  0.43698205  1
  Cl  Cl12  1  0.35721474  0.10835990  0.94753723  1
  Cl  Cl13  1  0.64278526  0.89164010  0.05246277  1
  Cl  Cl14  1  0.24085068  0.06549287  0.56301795  1
  Cl  Cl15  1  0.38841829  0.38841829  0.25000000  1
  Cl  Cl16  1  0.89164010  0.64278526  0.44753723  1
  Cl  Cl17  1  0.93450713  0.75914932  0.06301795  1
  Cl  Cl18  1  0.68940126  0.06851866  0.65132801  1
  Cl  Cl19  1  0.93148134  0.31059874  0.15132801  1
