# generated using pymatgen
data_KPrPCO7
_symmetry_space_group_name_H-M   'P 1'
_cell_length_a   10.49537400
_cell_length_b   7.23414643
_cell_length_c   5.77213447
_cell_angle_alpha   90.00000000
_cell_angle_beta   90.60592745
_cell_angle_gamma   90.00000000
_symmetry_Int_Tables_number   1
_chemical_formula_structural   KPrPCO7
_chemical_formula_sum   'K2 Pr2 P2 C2 O14'
_cell_volume   438.22522080
_cell_formula_units_Z   2
loop_
 _symmetry_equiv_pos_site_id
 _symmetry_equiv_pos_as_xyz
  1  'x, y, z'
loop_
 _atom_site_type_symbol
 _atom_site_label
 _atom_site_symmetry_multiplicity
 _atom_site_fract_x
 _atom_site_fract_y
 _atom_site_fract_z
 _atom_site_occupancy
  K  K0  1  0.23253691  0.44780048  0.24145629  1
  K  K1  1  0.76746309  0.94780048  0.75854371  1
  Pr  Pr2  1  0.36958479  0.78096612  0.78065837  1
  Pr  Pr3  1  0.63041521  0.28096612  0.21934163  1
  P  P4  1  0.42896198  0.27192429  0.71542714  1
  P  P5  1  0.57103802  0.77192429  0.28457286  1
  C  C6  1  0.08580518  0.72671966  0.72588261  1
  C  C7  1  0.91419482  0.22671966  0.27411739  1
  O  O8  1  0.03442770  0.22841815  0.30549499  1
  O  O9  1  0.13335149  0.72576377  0.93213117  1
  O  O10  1  0.16258638  0.72794533  0.55288874  1
  O  O11  1  0.34886134  0.09939813  0.77262491  1
  O  O12  1  0.35847973  0.44927745  0.79178902  1
  O  O13  1  0.43762554  0.75742623  0.16101959  1
  O  O14  1  0.45321547  0.28221139  0.44931469  1
  O  O15  1  0.54678453  0.78221139  0.55068531  1
  O  O16  1  0.56237446  0.25742623  0.83898041  1
  O  O17  1  0.64152027  0.94927745  0.20821098  1
  O  O18  1  0.65113866  0.59939813  0.22737509  1
  O  O19  1  0.83741362  0.22794533  0.44711126  1
  O  O20  1  0.86664851  0.22576377  0.06786883  1
  O  O21  1  0.96557230  0.72841815  0.69450501  1
