# generated using pymatgen
data_CdH14C8(NO3)2
_symmetry_space_group_name_H-M   'P 1'
_cell_length_a   8.14120105
_cell_length_b   10.62876218
_cell_length_c   16.21396668
_cell_angle_alpha   90.00000000
_cell_angle_beta   90.00000000
_cell_angle_gamma   90.00000000
_symmetry_Int_Tables_number   1
_chemical_formula_structural   CdH14C8(NO3)2
_chemical_formula_sum   'Cd4 H56 C32 N8 O24'
_cell_volume   1403.00896433
_cell_formula_units_Z   4
loop_
 _symmetry_equiv_pos_site_id
 _symmetry_equiv_pos_as_xyz
  1  'x, y, z'
loop_
 _atom_site_type_symbol
 _atom_site_label
 _atom_site_symmetry_multiplicity
 _atom_site_fract_x
 _atom_site_fract_y
 _atom_site_fract_z
 _atom_site_occupancy
  Cd  Cd0  1  0.83329571  0.75000000  0.50000000  1
  Cd  Cd1  1  0.66670429  0.25000000  -0.00000000  1
  Cd  Cd2  1  0.16670429  0.25000000  0.50000000  1
  Cd  Cd3  1  0.33329571  0.75000000  -0.00000000  1
  H  H4  1  0.51667276  0.62201789  0.41802931  1
  H  H5  1  0.98332724  0.12201789  0.08197069  1
  H  H6  1  0.98332724  0.37798211  0.91802931  1
  H  H7  1  0.51667276  0.87798211  0.58197069  1
  H  H8  1  0.48332724  0.37798211  0.58197069  1
  H  H9  1  0.01667276  0.87798211  0.91802931  1
  H  H10  1  0.01667276  0.62201789  0.08197069  1
  H  H11  1  0.48332724  0.12201789  0.41802931  1
  H  H12  1  0.30667435  0.54848759  0.35802207  1
  H  H13  1  0.19332565  0.04848759  0.14197793  1
  H  H14  1  0.19332565  0.45151241  0.85802207  1
  H  H15  1  0.30667435  0.95151241  0.64197793  1
  H  H16  1  0.69332565  0.45151241  0.64197793  1
  H  H17  1  0.80667435  0.95151241  0.85802207  1
  H  H18  1  0.80667435  0.54848759  0.14197793  1
  H  H19  1  0.69332565  0.04848759  0.35802207  1
  H  H20  1  0.15381408  0.66528605  0.33533317  1
  H  H21  1  0.34618592  0.16528605  0.16466683  1
  H  H22  1  0.34618592  0.33471395  0.83533317  1
  H  H23  1  0.15381408  0.83471395  0.66466683  1
  H  H24  1  0.84618592  0.33471395  0.66466683  1
  H  H25  1  0.65381408  0.83471395  0.83533317  1
  H  H26  1  0.65381408  0.66528605  0.16466683  1
  H  H27  1  0.84618592  0.16528605  0.33533317  1
  H  H28  1  0.27970688  0.60283442  0.25443306  1
  H  H29  1  0.22029312  0.10283442  0.24556694  1
  H  H30  1  0.22029312  0.39716558  0.75443306  1
  H  H31  1  0.27970688  0.89716558  0.74556694  1
  H  H32  1  0.72029312  0.39716558  0.74556694  1
  H  H33  1  0.77970688  0.89716558  0.75443306  1
  H  H34  1  0.77970688  0.60283442  0.24556694  1
  H  H35  1  0.72029312  0.10283442  0.25443306  1
  H  H36  1  0.47047555  0.91108985  0.29929264  1
  H  H37  1  0.02952445  0.41108985  0.20070736  1
  H  H38  1  0.02952445  0.08891015  0.79929264  1
  H  H39  1  0.47047555  0.58891015  0.70070736  1
  H  H40  1  0.52952445  0.08891015  0.70070736  1
  H  H41  1  0.97047555  0.58891015  0.79929264  1
  H  H42  1  0.97047555  0.91108985  0.20070736  1
  H  H43  1  0.52952445  0.41108985  0.29929264  1
  H  H44  1  0.35763462  0.82525174  0.22258688  1
  H  H45  1  0.14236538  0.32525174  0.27741312  1
  H  H46  1  0.14236538  0.17474826  0.72258688  1
  H  H47  1  0.35763462  0.67474826  0.77741312  1
  H  H48  1  0.64236538  0.17474826  0.77741312  1
  H  H49  1  0.85763462  0.67474826  0.72258688  1
  H  H50  1  0.85763462  0.82525174  0.27741312  1
  H  H51  1  0.64236538  0.32525174  0.22258688  1
  H  H52  1  0.25278162  0.88963355  0.31034796  1
  H  H53  1  0.24721838  0.38963355  0.18965204  1
  H  H54  1  0.24721838  0.11036645  0.81034796  1
  H  H55  1  0.25278162  0.61036645  0.68965204  1
  H  H56  1  0.74721838  0.11036645  0.68965204  1
  H  H57  1  0.75278162  0.61036645  0.81034796  1
  H  H58  1  0.75278162  0.88963355  0.18965204  1
  H  H59  1  0.74721838  0.38963355  0.31034796  1
  C  C60  1  0.95297906  0.48223763  0.45896044  1
  C  C61  1  0.54702094  0.98223763  0.04103956  1
  C  C62  1  0.54702094  0.51776237  0.95896044  1
  C  C63  1  0.95297906  0.01776237  0.54103956  1
  C  C64  1  0.04702094  0.51776237  0.54103956  1
  C  C65  1  0.45297906  0.01776237  0.95896044  1
  C  C66  1  0.45297906  0.48223763  0.04103956  1
  C  C67  1  0.04702094  0.98223763  0.45896044  1
  C  C68  1  0.51664785  0.71574768  0.38865665  1
  C  C69  1  0.98335215  0.21574768  0.11134335  1
  C  C70  1  0.98335215  0.28425232  0.88865665  1
  C  C71  1  0.51664785  0.78425232  0.61134335  1
  C  C72  1  0.48335215  0.28425232  0.61134335  1
  C  C73  1  0.01664785  0.78425232  0.88865665  1
  C  C74  1  0.01664785  0.71574768  0.11134335  1
  C  C75  1  0.48335215  0.21574768  0.38865665  1
  C  C76  1  0.27712424  0.63054941  0.31976112  1
  C  C77  1  0.22287576  0.13054941  0.18023888  1
  C  C78  1  0.22287576  0.36945059  0.81976112  1
  C  C79  1  0.27712424  0.86945059  0.68023888  1
  C  C80  1  0.72287576  0.36945059  0.68023888  1
  C  C81  1  0.77712424  0.86945059  0.81976112  1
  C  C82  1  0.77712424  0.63054941  0.18023888  1
  C  C83  1  0.72287576  0.13054941  0.31976112  1
  C  C84  1  0.36793164  0.84660441  0.28867691  1
  C  C85  1  0.13206836  0.34660441  0.21132309  1
  C  C86  1  0.13206836  0.15339559  0.78867691  1
  C  C87  1  0.36793164  0.65339559  0.71132309  1
  C  C88  1  0.63206836  0.15339559  0.71132309  1
  C  C89  1  0.86793164  0.65339559  0.78867691  1
  C  C90  1  0.86793164  0.84660441  0.21132309  1
  C  C91  1  0.63206836  0.34660441  0.28867691  1
  N  N92  1  0.39608287  0.73027647  0.33388392  1
  N  N93  1  0.10391713  0.23027647  0.16611608  1
  N  N94  1  0.10391713  0.26972353  0.83388392  1
  N  N95  1  0.39608287  0.76972353  0.66611608  1
  N  N96  1  0.60391713  0.26972353  0.66611608  1
  N  N97  1  0.89608287  0.76972353  0.83388392  1
  N  N98  1  0.89608287  0.73027647  0.16611608  1
  N  N99  1  0.60391713  0.23027647  0.33388392  1
  O  O100  1  0.85498386  0.56301014  0.42893045  1
  O  O101  1  0.64501614  0.06301014  0.07106955  1
  O  O102  1  0.64501614  0.43698986  0.92893045  1
  O  O103  1  0.85498386  0.93698986  0.57106955  1
  O  O104  1  0.14501614  0.43698986  0.57106955  1
  O  O105  1  0.35498386  0.93698986  0.92893045  1
  O  O106  1  0.35498386  0.56301014  0.07106955  1
  O  O107  1  0.14501614  0.06301014  0.42893045  1
  O  O108  1  0.01915368  0.62484721  0.57261709  1
  O  O109  1  0.48084632  0.12484721  0.92738291  1
  O  O110  1  0.48084632  0.37515279  0.07261709  1
  O  O111  1  0.01915368  0.87515279  0.42738291  1
  O  O112  1  0.98084632  0.37515279  0.42738291  1
  O  O113  1  0.51915368  0.87515279  0.07261709  1
  O  O114  1  0.51915368  0.62484721  0.92738291  1
  O  O115  1  0.98084632  0.12484721  0.57261709  1
  O  O116  1  0.62193962  0.79872371  0.40610510  1
  O  O117  1  0.87806038  0.29872371  0.09389490  1
  O  O118  1  0.87806038  0.20127629  0.90610510  1
  O  O119  1  0.62193962  0.70127629  0.59389490  1
  O  O120  1  0.37806038  0.20127629  0.59389490  1
  O  O121  1  0.12193962  0.70127629  0.90610510  1
  O  O122  1  0.12193962  0.79872371  0.09389490  1
  O  O123  1  0.37806038  0.29872371  0.40610510  1
