# generated using pymatgen
data_Ba4In2O7
_symmetry_space_group_name_H-M   'P 1'
_cell_length_a   6.02921942
_cell_length_b   14.86090737
_cell_length_c   6.04465507
_cell_angle_alpha   89.95623892
_cell_angle_beta   90.00303057
_cell_angle_gamma   101.76825917
_symmetry_Int_Tables_number   1
_chemical_formula_structural   Ba4In2O7
_chemical_formula_sum   'Ba8 In4 O14'
_cell_volume   530.21482073
_cell_formula_units_Z   2
loop_
 _symmetry_equiv_pos_site_id
 _symmetry_equiv_pos_as_xyz
  1  'x, y, z'
loop_
 _atom_site_type_symbol
 _atom_site_label
 _atom_site_symmetry_multiplicity
 _atom_site_fract_x
 _atom_site_fract_y
 _atom_site_fract_z
 _atom_site_occupancy
  Ba  Ba0  1  0.93191516  0.86094362  0.99931546  1
  Ba  Ba1  1  0.80157643  0.60277064  0.99986380  1
  Ba  Ba2  1  0.56808484  0.13905638  0.50068454  1
  Ba  Ba3  1  0.69842357  0.39722936  0.50013620  1
  Ba  Ba4  1  0.06864543  0.14037922  0.00094943  1
  Ba  Ba5  1  0.20288643  0.40659636  0.00053579  1
  Ba  Ba6  1  0.29711357  0.59340364  0.49946421  1
  Ba  Ba7  1  0.43135457  0.85962078  0.49905057  1
  In  In8  1  0.64205698  0.28584963  0.00009069  1
  In  In9  1  0.37171512  0.74197033  0.99958200  1
  In  In10  1  0.85794302  0.71415037  0.49990931  1
  In  In11  1  0.12828488  0.25802967  0.50041800  1
  O  O12  1  0.86586927  0.25020438  0.24200411  1
  O  O13  1  0.71494293  0.42957223  0.99964686  1
  O  O14  1  0.86582699  0.25009295  0.75856147  1
  O  O15  1  0.78505707  0.57042777  0.50035314  1
  O  O16  1  0.38286989  0.25028503  0.24210949  1
  O  O17  1  0.29441095  0.58827378  0.00017588  1
  O  O18  1  0.63413073  0.74979562  0.25799589  1
  O  O19  1  0.44857044  0.89617097  0.99966992  1
  O  O20  1  0.38272471  0.25016431  0.75840260  1
  O  O21  1  0.63417301  0.74990705  0.74143853  1
  O  O22  1  0.11713011  0.74971497  0.25789051  1
  O  O23  1  0.20558905  0.41172622  0.49982412  1
  O  O24  1  0.05142956  0.10382903  0.50033008  1
  O  O25  1  0.11727529  0.74983569  0.74159740  1
