# generated using pymatgen
data_LiCu3(CO3)3
_symmetry_space_group_name_H-M   'P 1'
_cell_length_a   8.16819043
_cell_length_b   8.13307945
_cell_length_c   6.51842614
_cell_angle_alpha   90.00000000
_cell_angle_beta   90.00000000
_cell_angle_gamma   120.20355461
_symmetry_Int_Tables_number   1
_chemical_formula_structural   LiCu3(CO3)3
_chemical_formula_sum   'Li2 Cu6 C6 O18'
_cell_volume   374.24825759
_cell_formula_units_Z   2
loop_
 _symmetry_equiv_pos_site_id
 _symmetry_equiv_pos_as_xyz
  1  'x, y, z'
loop_
 _atom_site_type_symbol
 _atom_site_label
 _atom_site_symmetry_multiplicity
 _atom_site_fract_x
 _atom_site_fract_y
 _atom_site_fract_z
 _atom_site_occupancy
  Li  Li0  1  0.97469898  0.67734336  0.25000000  1
  Li  Li1  1  0.70435409  0.02490785  0.75000000  1
  Cu  Cu2  1  0.02160522  0.36623637  0.99548707  1
  Cu  Cu3  1  0.02160522  0.36623637  0.50451293  1
  Cu  Cu4  1  0.34672653  0.98939905  0.49426953  1
  Cu  Cu5  1  0.34672653  0.98939905  0.00573047  1
  Cu  Cu6  1  0.62558672  0.63489471  0.99686353  1
  Cu  Cu7  1  0.62558672  0.63489471  0.50313647  1
  C  C8  1  0.32950108  0.66922621  0.25000000  1
  C  C9  1  0.34217575  0.67554550  0.75000000  1
  C  C10  1  0.99315222  0.99425661  0.99968197  1
  C  C11  1  0.99315222  0.99425661  0.50031803  1
  C  C12  1  0.67109084  0.33421408  0.99966405  1
  C  C13  1  0.67109084  0.33421408  0.50033595  1
  O  O14  1  0.07499342  0.89503209  0.47063920  1
  O  O15  1  0.07499342  0.89503209  0.02936080  1
  O  O16  1  0.14285964  0.55638012  0.25000000  1
  O  O17  1  0.16105311  0.56400132  0.75000000  1
  O  O18  1  0.39653670  0.85207269  0.25000000  1
  O  O19  1  0.41670546  0.86143085  0.75000000  1
  O  O20  1  0.09334353  0.17620108  0.50735414  1
  O  O21  1  0.09334353  0.17620108  0.99264586  1
  O  O22  1  0.43888849  0.59843174  0.25000000  1
  O  O23  1  0.45568333  0.60651448  0.75000000  1
  O  O24  1  0.81055929  0.90936738  0.97640583  1
  O  O25  1  0.81055929  0.90936738  0.52359417  1
  O  O26  1  0.49202023  0.26704389  0.99371969  1
  O  O27  1  0.49202023  0.26704389  0.50628031  1
  O  O28  1  0.78265495  0.51583813  0.02588295  1
  O  O29  1  0.78265495  0.51583813  0.47411705  1
  O  O30  1  0.74330772  0.22494704  0.97879625  1
  O  O31  1  0.74330772  0.22494704  0.52120375  1
