# generated using pymatgen
data_Li4Si4Bi2O13
_symmetry_space_group_name_H-M   'P 1'
_cell_length_a   14.65977114
_cell_length_b   5.24521541
_cell_length_c   15.13730150
_cell_angle_alpha   90.00000000
_cell_angle_beta   90.00000000
_cell_angle_gamma   90.00000000
_symmetry_Int_Tables_number   1
_chemical_formula_structural   Li4Si4Bi2O13
_chemical_formula_sum   'Li16 Si16 Bi8 O52'
_cell_volume   1163.96247687
_cell_formula_units_Z   4
loop_
 _symmetry_equiv_pos_site_id
 _symmetry_equiv_pos_as_xyz
  1  'x, y, z'
loop_
 _atom_site_type_symbol
 _atom_site_label
 _atom_site_symmetry_multiplicity
 _atom_site_fract_x
 _atom_site_fract_y
 _atom_site_fract_z
 _atom_site_occupancy
  Li  Li0  1  0.02487537  0.14922738  0.22137590  1
  Li  Li1  1  0.09672951  0.65608874  0.90537525  1
  Li  Li2  1  0.14411782  0.64894917  0.11639062  1
  Li  Li3  1  0.22474095  0.19873187  0.83910743  1
  Li  Li4  1  0.27525905  0.69873187  0.33910743  1
  Li  Li5  1  0.35588218  0.14894917  0.61639062  1
  Li  Li6  1  0.40327049  0.15608874  0.40537525  1
  Li  Li7  1  0.47512463  0.64922738  0.72137590  1
  Li  Li8  1  0.52487537  0.35077262  0.22137590  1
  Li  Li9  1  0.59672951  0.84391126  0.90537525  1
  Li  Li10  1  0.64411782  0.85105083  0.11639062  1
  Li  Li11  1  0.72474095  0.30126813  0.83910743  1
  Li  Li12  1  0.77525905  0.80126813  0.33910743  1
  Li  Li13  1  0.85588218  0.35105083  0.61639062  1
  Li  Li14  1  0.90327049  0.34391126  0.40537525  1
  Li  Li15  1  0.97512463  0.85077262  0.72137590  1
  Si  Si16  1  0.03091060  0.16788888  0.99828059  1
  Si  Si17  1  0.05404815  0.65933902  0.32256666  1
  Si  Si18  1  0.19636252  0.85394209  0.72336472  1
  Si  Si19  1  0.22331580  0.17917151  0.05036708  1
  Si  Si20  1  0.27668420  0.67917151  0.55036708  1
  Si  Si21  1  0.30363748  0.35394209  0.22336472  1
  Si  Si22  1  0.44595185  0.15933902  0.82256666  1
  Si  Si23  1  0.46908940  0.66788888  0.49828059  1
  Si  Si24  1  0.53091060  0.33211112  0.99828059  1
  Si  Si25  1  0.55404815  0.84066098  0.32256666  1
  Si  Si26  1  0.69636252  0.64605791  0.72336472  1
  Si  Si27  1  0.72331580  0.32082849  0.05036708  1
  Si  Si28  1  0.77668420  0.82082849  0.55036708  1
  Si  Si29  1  0.80363748  0.14605791  0.22336472  1
  Si  Si30  1  0.94595185  0.34066098  0.82256666  1
  Si  Si31  1  0.96908940  0.83211112  0.49828059  1
  Bi  Bi32  1  0.08269250  0.35600880  0.63178832  1
  Bi  Bi33  1  0.16732620  0.16502617  0.41708588  1
  Bi  Bi34  1  0.33267380  0.66502617  0.91708588  1
  Bi  Bi35  1  0.41730750  0.85600880  0.13178832  1
  Bi  Bi36  1  0.58269250  0.14399120  0.63178832  1
  Bi  Bi37  1  0.66732620  0.33497383  0.41708588  1
  Bi  Bi38  1  0.83267380  0.83497383  0.91708588  1
  Bi  Bi39  1  0.91730750  0.64399120  0.13178832  1
  O  O40  1  0.03278757  0.42457866  0.05899445  1
  O  O41  1  0.04168840  0.77656223  0.22267472  1
  O  O42  1  0.03407955  0.24976953  0.89044608  1
  O  O43  1  0.04785591  0.04494972  0.51189562  1
  O  O44  1  0.04797807  0.34794270  0.32487994  1
  O  O45  1  0.09785780  0.75207107  0.68749993  1
  O  O46  1  0.12905858  0.01220955  0.02236946  1
  O  O47  1  0.15015635  0.76436614  0.36271206  1
  O  O48  1  0.20555169  0.16385330  0.71529915  1
  O  O49  1  0.19186914  0.48949491  0.53042596  1
  O  O50  1  0.21868414  0.23669011  0.15916829  1
  O  O51  1  0.20476985  0.77638913  0.82866254  1
  O  O52  1  0.21872811  0.44783046  0.99612836  1
  O  O53  1  0.28127189  0.94783046  0.49612836  1
  O  O54  1  0.29523015  0.27638913  0.32866254  1
  O  O55  1  0.28131586  0.73669011  0.65916829  1
  O  O56  1  0.30813086  0.98949491  0.03042596  1
  O  O57  1  0.29444831  0.66385330  0.21529915  1
  O  O58  1  0.34984365  0.26436614  0.86271206  1
  O  O59  1  0.37094142  0.51220955  0.52236946  1
  O  O60  1  0.40214220  0.25207107  0.18749993  1
  O  O61  1  0.45202193  0.84794270  0.82487994  1
  O  O62  1  0.45214409  0.54494972  0.01189562  1
  O  O63  1  0.46592045  0.74976953  0.39044608  1
  O  O64  1  0.45831160  0.27656223  0.72267472  1
  O  O65  1  0.46721243  0.92457866  0.55899445  1
  O  O66  1  0.53278757  0.07542134  0.05899445  1
  O  O67  1  0.54168840  0.72343777  0.22267472  1
  O  O68  1  0.53407955  0.25023047  0.89044608  1
  O  O69  1  0.54785591  0.45505028  0.51189562  1
  O  O70  1  0.54797807  0.15205730  0.32487994  1
  O  O71  1  0.59785780  0.74792893  0.68749993  1
  O  O72  1  0.62905858  0.48779045  0.02236946  1
  O  O73  1  0.65015635  0.73563386  0.36271206  1
  O  O74  1  0.70555169  0.33614670  0.71529915  1
  O  O75  1  0.69186914  0.01050509  0.53042596  1
  O  O76  1  0.71868414  0.26330989  0.15916829  1
  O  O77  1  0.70476985  0.72361087  0.82866254  1
  O  O78  1  0.71872811  0.05216954  0.99612836  1
  O  O79  1  0.78127189  0.55216954  0.49612836  1
  O  O80  1  0.79523015  0.22361087  0.32866254  1
  O  O81  1  0.78131586  0.76330989  0.65916829  1
  O  O82  1  0.80813086  0.51050509  0.03042596  1
  O  O83  1  0.79444831  0.83614670  0.21529915  1
  O  O84  1  0.84984365  0.23563386  0.86271206  1
  O  O85  1  0.87094142  0.98779045  0.52236946  1
  O  O86  1  0.90214220  0.24792893  0.18749993  1
  O  O87  1  0.95202193  0.65205730  0.82487994  1
  O  O88  1  0.95214409  0.95505028  0.01189562  1
  O  O89  1  0.96592045  0.75023047  0.39044608  1
  O  O90  1  0.95831160  0.22343777  0.72267472  1
  O  O91  1  0.96721243  0.57542134  0.55899445  1
