# generated using pymatgen
data_Li2Sn(PO3)6
_symmetry_space_group_name_H-M   'P 1'
_cell_length_a   7.68790206
_cell_length_b   7.59079380
_cell_length_c   7.65430314
_cell_angle_alpha   65.11193856
_cell_angle_beta   106.45456241
_cell_angle_gamma   78.75165706
_symmetry_Int_Tables_number   1
_chemical_formula_structural   Li2Sn(PO3)6
_chemical_formula_sum   'Li2 Sn1 P6 O18'
_cell_volume   362.36533254
_cell_formula_units_Z   1
loop_
 _symmetry_equiv_pos_site_id
 _symmetry_equiv_pos_as_xyz
  1  'x, y, z'
loop_
 _atom_site_type_symbol
 _atom_site_label
 _atom_site_symmetry_multiplicity
 _atom_site_fract_x
 _atom_site_fract_y
 _atom_site_fract_z
 _atom_site_occupancy
  Li  Li0  1  0.57667061  0.51622109  0.03747801  1
  Li  Li1  1  0.83543032  0.72067214  0.13334141  1
  Sn  Sn2  1  0.16899622  0.24208811  0.90482197  1
  P  P3  1  0.26752433  0.96498478  0.70379114  1
  P  P4  1  0.20994470  0.31685540  0.32011518  1
  P  P5  1  0.49478760  0.22588069  0.71859915  1
  P  P6  1  0.48523336  0.81534163  0.25930135  1
  P  P7  1  0.77632955  0.00657869  0.31226209  1
  P  P8  1  0.76822452  0.67003477  0.68190805  1
  O  O9  1  0.10791126  0.10365726  0.72577097  1
  O  O10  1  0.03909137  0.47168735  0.28942226  1
  O  O11  1  0.22271372  0.07998820  0.45533435  1
  O  O12  1  0.30318467  0.74160139  0.79257247  1
  O  O13  1  0.34951891  0.34931864  0.77056773  1
  O  O14  1  0.46770318  0.00189007  0.79776316  1
  O  O15  1  0.23921829  0.33378499  0.12412545  1
  O  O16  1  0.26185552  0.93377961  0.15395891  1
  O  O17  1  0.40914996  0.31925479  0.46499566  1
  O  O18  1  0.69904015  0.20349965  0.80614068  1
  O  O19  1  0.56059316  0.70455169  0.51250376  1
  O  O20  1  0.74847256  0.63999095  0.87817461  1
  O  O21  1  0.55551914  0.00989251  0.20014545  1
  O  O22  1  0.56770528  0.66785126  0.19870369  1
  O  O23  1  0.75079149  0.22650923  0.24865867  1
  O  O24  1  0.80129208  0.88182147  0.56228640  1
  O  O25  1  0.92494825  0.49233961  0.70000847  1
  O  O26  1  0.91258680  0.86685703  0.28148195  1
