# generated using pymatgen
data_Li4Cu3SbO8
_symmetry_space_group_name_H-M   'P 1'
_cell_length_a   10.33378711
_cell_length_b   10.33242682
_cell_length_c   14.58339024
_cell_angle_alpha   19.69921956
_cell_angle_beta   19.70441527
_cell_angle_gamma   33.98391649
_symmetry_Int_Tables_number   1
_chemical_formula_structural   Li4Cu3SbO8
_chemical_formula_sum   'Li4 Cu3 Sb1 O8'
_cell_volume   152.96783212
_cell_formula_units_Z   1
loop_
 _symmetry_equiv_pos_site_id
 _symmetry_equiv_pos_as_xyz
  1  'x, y, z'
loop_
 _atom_site_type_symbol
 _atom_site_label
 _atom_site_symmetry_multiplicity
 _atom_site_fract_x
 _atom_site_fract_y
 _atom_site_fract_z
 _atom_site_occupancy
  Li  Li0  1  0.00000000  0.00000000  0.50000000  1
  Li  Li1  1  0.00000000  0.49999700  0.50000200  1
  Li  Li2  1  0.49999700  0.00000000  0.50000200  1
  Li  Li3  1  0.50000300  0.50000300  0.49999600  1
  Cu  Cu4  1  0.00000000  0.49999700  0.00000200  1
  Cu  Cu5  1  0.49999700  0.00000000  0.00000200  1
  Cu  Cu6  1  0.50000200  0.50000300  0.99999700  1
  Sb  Sb7  1  0.00000100  0.00000200  0.99999800  1
  O  O8  1  0.00015305  0.00030243  0.26668862  1
  O  O9  1  0.99818488  0.53087194  0.23323770  1
  O  O10  1  0.53118925  0.99834407  0.23295895  1
  O  O11  1  0.99984795  0.99969957  0.73330938  1
  O  O12  1  0.46857873  0.46879102  0.29381252  1
  O  O13  1  0.00181812  0.46912606  0.76676230  1
  O  O14  1  0.46880975  0.00165493  0.76704205  1
  O  O15  1  0.53142027  0.53120898  0.70618948  1
