# generated using pymatgen
data_Li5BiS4
_symmetry_space_group_name_H-M   'P 1'
_cell_length_a   7.36741226
_cell_length_b   7.36741226
_cell_length_c   7.79317388
_cell_angle_alpha   90.00000000
_cell_angle_beta   90.00000000
_cell_angle_gamma   62.58617664
_symmetry_Int_Tables_number   1
_chemical_formula_structural   Li5BiS4
_chemical_formula_sum   'Li10 Bi2 S8'
_cell_volume   375.50234103
_cell_formula_units_Z   2
loop_
 _symmetry_equiv_pos_site_id
 _symmetry_equiv_pos_as_xyz
  1  'x, y, z'
loop_
 _atom_site_type_symbol
 _atom_site_label
 _atom_site_symmetry_multiplicity
 _atom_site_fract_x
 _atom_site_fract_y
 _atom_site_fract_z
 _atom_site_occupancy
  Li  Li0  1  0.23915514  0.88065441  0.30459919  1
  Li  Li1  1  0.11934559  0.76084486  0.80459919  1
  Li  Li2  1  0.42047441  0.83759708  0.01684493  1
  Li  Li3  1  0.16240292  0.57952559  0.51684493  1
  Li  Li4  1  0.14199512  0.14199512  0.69952756  1
  Li  Li5  1  0.85800488  0.85800488  0.19952756  1
  Li  Li6  1  0.57952559  0.16240292  0.51684493  1
  Li  Li7  1  0.83759708  0.42047441  0.01684493  1
  Li  Li8  1  0.76084486  0.11934559  0.80459919  1
  Li  Li9  1  0.88065441  0.23915514  0.30459919  1
  Bi  Bi10  1  0.33194020  0.33194020  0.08509795  1
  Bi  Bi11  1  0.66805980  0.66805980  0.58509795  1
  S  S12  1  0.50098872  0.99376809  0.77178424  1
  S  S13  1  0.00623191  0.49901128  0.27178424  1
  S  S14  1  0.02243609  0.02243609  0.03084312  1
  S  S15  1  0.97756391  0.97756391  0.53084312  1
  S  S16  1  0.47819017  0.47819017  0.71377367  1
  S  S17  1  0.52180983  0.52180983  0.21377367  1
  S  S18  1  0.49901128  0.00623191  0.27178424  1
  S  S19  1  0.99376809  0.50098872  0.77178424  1
