# generated using pymatgen
data_LiSn4(PO4)3
_symmetry_space_group_name_H-M   'P 1'
_cell_length_a   7.31619860
_cell_length_b   15.90011550
_cell_length_c   10.69417147
_cell_angle_alpha   90.00000000
_cell_angle_beta   90.00000000
_cell_angle_gamma   90.00000000
_symmetry_Int_Tables_number   1
_chemical_formula_structural   LiSn4(PO4)3
_chemical_formula_sum   'Li4 Sn16 P12 O48'
_cell_volume   1244.03588596
_cell_formula_units_Z   4
loop_
 _symmetry_equiv_pos_site_id
 _symmetry_equiv_pos_as_xyz
  1  'x, y, z'
loop_
 _atom_site_type_symbol
 _atom_site_label
 _atom_site_symmetry_multiplicity
 _atom_site_fract_x
 _atom_site_fract_y
 _atom_site_fract_z
 _atom_site_occupancy
  Li  Li0  1  0.01632753  0.25000000  0.73547219  1
  Li  Li1  1  0.48367247  0.75000000  0.23547219  1
  Li  Li2  1  0.51632753  0.25000000  0.76452781  1
  Li  Li3  1  0.98367247  0.75000000  0.26452781  1
  Sn  Sn4  1  0.13800077  0.59954780  0.43189342  1
  Sn  Sn5  1  0.13800077  0.90045220  0.43189342  1
  Sn  Sn6  1  0.16113847  0.60545957  0.84557941  1
  Sn  Sn7  1  0.16113847  0.89454043  0.84557941  1
  Sn  Sn8  1  0.33886153  0.10545957  0.34557941  1
  Sn  Sn9  1  0.33886153  0.39454043  0.34557941  1
  Sn  Sn10  1  0.36199923  0.09954780  0.93189342  1
  Sn  Sn11  1  0.36199923  0.40045220  0.93189342  1
  Sn  Sn12  1  0.63800077  0.59954780  0.06810658  1
  Sn  Sn13  1  0.63800077  0.90045220  0.06810658  1
  Sn  Sn14  1  0.66113847  0.60545957  0.65442059  1
  Sn  Sn15  1  0.66113847  0.89454043  0.65442059  1
  Sn  Sn16  1  0.83886153  0.10545957  0.15442059  1
  Sn  Sn17  1  0.83886153  0.39454043  0.15442059  1
  Sn  Sn18  1  0.86199923  0.40045220  0.56810658  1
  Sn  Sn19  1  0.86199923  0.09954780  0.56810658  1
  P  P20  1  0.02647539  0.25000000  0.40258078  1
  P  P21  1  0.14517742  0.58870411  0.13720876  1
  P  P22  1  0.14517742  0.91129589  0.13720876  1
  P  P23  1  0.35482258  0.08870411  0.63720876  1
  P  P24  1  0.35482258  0.41129589  0.63720876  1
  P  P25  1  0.47352461  0.75000000  0.90258078  1
  P  P26  1  0.52647539  0.25000000  0.09741922  1
  P  P27  1  0.64517742  0.58870411  0.36279124  1
  P  P28  1  0.64517742  0.91129589  0.36279124  1
  P  P29  1  0.85482258  0.41129589  0.86279124  1
  P  P30  1  0.85482258  0.08870411  0.86279124  1
  P  P31  1  0.97352461  0.75000000  0.59741922  1
  O  O32  1  0.99482617  0.11752031  0.96408593  1
  O  O33  1  0.99482617  0.38247969  0.96408593  1
  O  O34  1  0.04065110  0.75000000  0.45650793  1
  O  O35  1  0.04781652  0.66756461  0.65688674  1
  O  O36  1  0.04781652  0.83243539  0.65688674  1
  O  O37  1  0.08763337  0.99296943  0.20543151  1
  O  O38  1  0.08763337  0.50703057  0.20543151  1
  O  O39  1  0.16826552  0.07837076  0.56766495  1
  O  O40  1  0.16826552  0.42162924  0.56766495  1
  O  O41  1  0.16186176  0.65927984  0.24032776  1
  O  O42  1  0.16186176  0.84072016  0.24032776  1
  O  O43  1  0.23911346  0.25000000  0.39227169  1
  O  O44  1  0.26088654  0.75000000  0.89227169  1
  O  O45  1  0.33813724  0.34072016  0.74032776  1
  O  O46  1  0.33813724  0.15927984  0.74032776  1
  O  O47  1  0.33173448  0.57837076  0.06766495  1
  O  O48  1  0.33173448  0.92162924  0.06766495  1
  O  O49  1  0.41236663  0.49296943  0.70543151  1
  O  O50  1  0.41236663  0.00703057  0.70543151  1
  O  O51  1  0.45218348  0.16756461  0.15688674  1
  O  O52  1  0.45218348  0.33243539  0.15688674  1
  O  O53  1  0.45934890  0.25000000  0.95650793  1
  O  O54  1  0.50517383  0.61752031  0.46408593  1
  O  O55  1  0.50517383  0.88247969  0.46408593  1
  O  O56  1  0.49482617  0.11752031  0.53591407  1
  O  O57  1  0.49482617  0.38247969  0.53591407  1
  O  O58  1  0.54065110  0.75000000  0.04349207  1
  O  O59  1  0.54781652  0.66756461  0.84311326  1
  O  O60  1  0.54781652  0.83243539  0.84311326  1
  O  O61  1  0.58763337  0.99296943  0.29456849  1
  O  O62  1  0.58763337  0.50703057  0.29456849  1
  O  O63  1  0.66826552  0.07837076  0.93233505  1
  O  O64  1  0.66826552  0.42162924  0.93233505  1
  O  O65  1  0.66186276  0.65927984  0.25967224  1
  O  O66  1  0.66186276  0.84072016  0.25967224  1
  O  O67  1  0.73911346  0.25000000  0.10772831  1
  O  O68  1  0.76088654  0.75000000  0.60772831  1
  O  O69  1  0.83813724  0.15927984  0.75967224  1
  O  O70  1  0.83813724  0.34072016  0.75967224  1
  O  O71  1  0.83173448  0.57837076  0.43233505  1
  O  O72  1  0.83173448  0.92162924  0.43233505  1
  O  O73  1  0.91236663  0.49296943  0.79456849  1
  O  O74  1  0.91236663  0.00703057  0.79456849  1
  O  O75  1  0.95218348  0.16756461  0.34311326  1
  O  O76  1  0.95218348  0.33243539  0.34311326  1
  O  O77  1  0.95934890  0.25000000  0.54349207  1
  O  O78  1  0.00517383  0.61752031  0.03591407  1
  O  O79  1  0.00517383  0.88247969  0.03591407  1
