# generated using pymatgen
data_K2Cu(Cl2O)2
_symmetry_space_group_name_H-M   'P 1'
_cell_length_a   6.68754929
_cell_length_b   6.68754929
_cell_length_c   6.68754929
_cell_angle_alpha   107.39942282
_cell_angle_beta   110.51694666
_cell_angle_gamma   110.51694666
_symmetry_Int_Tables_number   1
_chemical_formula_structural   K2Cu(Cl2O)2
_chemical_formula_sum   'K2 Cu1 Cl4 O2'
_cell_volume   230.01434161
_cell_formula_units_Z   1
loop_
 _symmetry_equiv_pos_site_id
 _symmetry_equiv_pos_as_xyz
  1  'x, y, z'
loop_
 _atom_site_type_symbol
 _atom_site_label
 _atom_site_symmetry_multiplicity
 _atom_site_fract_x
 _atom_site_fract_y
 _atom_site_fract_z
 _atom_site_occupancy
  K  K0  1  0.50000000  0.75000000  0.25000000  1
  K  K1  1  0.50000000  0.25000000  0.75000000  1
  Cu  Cu2  1  0.00000000  -0.00000000  -0.00000000  1
  Cl  Cl3  1  0.00000000  0.21142825  0.78857175  1
  Cl  Cl4  1  -0.00000000  0.78857175  0.21142825  1
  Cl  Cl5  1  0.57714351  0.78857175  0.78857175  1
  Cl  Cl6  1  0.42285649  0.21142825  0.21142825  1
  O  O7  1  0.00000000  0.42238282  0.42238282  1
  O  O8  1  -0.00000000  0.57761718  0.57761718  1
