# generated using pymatgen
data_LiBiP2O7
_symmetry_space_group_name_H-M   'P 1'
_cell_length_a   8.07028233
_cell_length_b   10.36410086
_cell_length_c   7.57068827
_cell_angle_alpha   90.00000000
_cell_angle_beta   89.33143685
_cell_angle_gamma   90.00000000
_symmetry_Int_Tables_number   1
_chemical_formula_structural   LiBiP2O7
_chemical_formula_sum   'Li4 Bi4 P8 O28'
_cell_volume   633.17849473
_cell_formula_units_Z   4
loop_
 _symmetry_equiv_pos_site_id
 _symmetry_equiv_pos_as_xyz
  1  'x, y, z'
loop_
 _atom_site_type_symbol
 _atom_site_label
 _atom_site_symmetry_multiplicity
 _atom_site_fract_x
 _atom_site_fract_y
 _atom_site_fract_z
 _atom_site_occupancy
  Li  Li0  1  0.03304861  0.60325901  0.69199905  1
  Li  Li1  1  0.03304861  0.89674099  0.19199905  1
  Li  Li2  1  0.96695139  0.10325901  0.80800095  1
  Li  Li3  1  0.96695139  0.39674099  0.30800095  1
  Bi  Bi4  1  0.36625110  0.35429273  0.61212457  1
  Bi  Bi5  1  0.36625110  0.14570727  0.11212457  1
  Bi  Bi6  1  0.63374890  0.85429273  0.88787543  1
  Bi  Bi7  1  0.63374890  0.64570727  0.38787543  1
  P  P8  1  0.20184100  0.40607812  0.98196981  1
  P  P9  1  0.20184100  0.09392188  0.48196981  1
  P  P10  1  0.29806661  0.96063374  0.80391107  1
  P  P11  1  0.29806661  0.53936626  0.30391107  1
  P  P12  1  0.70193339  0.46063374  0.69608893  1
  P  P13  1  0.70193339  0.03936626  0.19608893  1
  P  P14  1  0.79815900  0.90607812  0.51803019  1
  P  P15  1  0.79815900  0.59392188  0.01803019  1
  O  O16  1  0.09615432  0.18583725  0.59337886  1
  O  O17  1  0.09615432  0.31416275  0.09337886  1
  O  O18  1  0.13959390  0.45935471  0.80795766  1
  O  O19  1  0.13959390  0.04064529  0.30795766  1
  O  O20  1  0.16331551  0.02289963  0.92209198  1
  O  O21  1  0.16331551  0.47710037  0.42209198  1
  O  O22  1  0.24253086  0.96736846  0.60088474  1
  O  O23  1  0.24253086  0.53263154  0.10088474  1
  O  O24  1  0.34239492  0.82100735  0.84330350  1
  O  O25  1  0.34239492  0.67899265  0.34330350  1
  O  O26  1  0.37110872  0.33611674  0.93776153  1
  O  O27  1  0.37110872  0.16388326  0.43776153  1
  O  O28  1  0.45880724  0.04554641  0.82763924  1
  O  O29  1  0.45880724  0.45445359  0.32763924  1
  O  O30  1  0.54119276  0.54554641  0.67236076  1
  O  O31  1  0.54119276  0.95445359  0.17236076  1
  O  O32  1  0.62889128  0.83611674  0.56223847  1
  O  O33  1  0.62889128  0.66388326  0.06223847  1
  O  O34  1  0.65760508  0.32100735  0.65669650  1
  O  O35  1  0.65760508  0.17899265  0.15669650  1
  O  O36  1  0.75746914  0.46736846  0.89911526  1
  O  O37  1  0.75746914  0.03263154  0.39911526  1
  O  O38  1  0.83668449  0.52289963  0.57790802  1
  O  O39  1  0.83668449  0.97710037  0.07790802  1
  O  O40  1  0.86040610  0.95935471  0.69204234  1
  O  O41  1  0.86040610  0.54064529  0.19204234  1
  O  O42  1  0.90384568  0.68583725  0.90662114  1
  O  O43  1  0.90384568  0.81416275  0.40662114  1
