# generated using pymatgen
data_UInPd
_symmetry_space_group_name_H-M   'P 1'
_cell_length_a   4.12029233
_cell_length_b   7.47716697
_cell_length_c   7.48866927
_cell_angle_alpha   119.94919611
_cell_angle_beta   90.00000000
_cell_angle_gamma   90.00000000
_symmetry_Int_Tables_number   1
_chemical_formula_structural   UInPd
_chemical_formula_sum   'U3 In3 Pd3'
_cell_volume   199.90446456
_cell_formula_units_Z   3
loop_
 _symmetry_equiv_pos_site_id
 _symmetry_equiv_pos_as_xyz
  1  'x, y, z'
loop_
 _atom_site_type_symbol
 _atom_site_label
 _atom_site_symmetry_multiplicity
 _atom_site_fract_x
 _atom_site_fract_y
 _atom_site_fract_z
 _atom_site_occupancy
  U  U0  1  0.00000000  0.58072694  0.00000000  1
  U  U1  1  0.00000000  0.42038337  0.42038460  1
  U  U2  1  0.00000000  -0.00000122  0.57961540  1
  In  In3  1  0.50000000  0.24916952  1.00000000  1
  In  In4  1  0.50000000  0.75093433  0.75081973  1
  In  In5  1  0.50000000  0.00011461  0.24918027  1
  Pd  Pd6  1  0.50000000  0.33266661  0.66639248  1
  Pd  Pd7  1  0.50000000  0.66627413  0.33360752  1
  Pd  Pd8  1  0.00000000  0.99963172  0.00000000  1
