# generated using pymatgen
data_La2H22S6N6O23
_symmetry_space_group_name_H-M   'P 1'
_cell_length_a   9.41903067
_cell_length_b   11.37983778
_cell_length_c   14.33836716
_cell_angle_alpha   113.72889350
_cell_angle_beta   70.82494354
_cell_angle_gamma   114.44674747
_symmetry_Int_Tables_number   1
_chemical_formula_structural   La2H22S6N6O23
_chemical_formula_sum   'La4 H44 S12 N12 O46'
_cell_volume   1256.41194998
_cell_formula_units_Z   2
loop_
 _symmetry_equiv_pos_site_id
 _symmetry_equiv_pos_as_xyz
  1  'x, y, z'
loop_
 _atom_site_type_symbol
 _atom_site_label
 _atom_site_symmetry_multiplicity
 _atom_site_fract_x
 _atom_site_fract_y
 _atom_site_fract_z
 _atom_site_occupancy
  La  La0  1  0.19508981  0.56379586  0.10899297  1
  La  La1  1  0.25971408  0.06379586  0.60899297  1
  La  La2  1  0.74028592  0.93620414  0.39100703  1
  La  La3  1  0.80491019  0.43620414  0.89100703  1
  H  H4  1  0.47599867  0.21802675  0.09583556  1
  H  H5  1  0.89656399  0.10438368  0.23610516  1
  H  H6  1  0.52177661  0.09009891  0.26278963  1
  H  H7  1  0.44745888  0.36908352  0.15613723  1
  H  H8  1  0.16275190  0.24979090  0.19336579  1
  H  H9  1  0.10632579  0.25020910  0.30663421  1
  H  H10  1  0.23451259  0.13091648  0.34386277  1
  H  H11  1  0.97473647  0.84200922  0.02484030  1
  H  H12  1  0.69446732  0.40990109  0.23721037  1
  H  H13  1  0.02828647  0.39561632  0.26389484  1
  H  H14  1  0.15234652  0.96673670  0.02162172  1
  H  H15  1  0.47095524  0.62229203  0.21498118  1
  H  H16  1  0.35380749  0.28197325  0.40416444  1
  H  H17  1  0.32094725  0.57127886  0.29510042  1
  H  H18  1  0.96312498  0.52381261  0.32309030  1
  H  H19  1  0.67134515  0.54730084  0.33884321  1
  H  H20  1  0.46288652  0.95269916  0.16115679  1
  H  H21  1  0.76240167  0.97618739  0.17690970  1
  H  H22  1  0.04476881  0.92872114  0.20489958  1
  H  H23  1  0.84243345  0.34200922  0.52484030  1
  H  H24  1  0.06364439  0.87770797  0.28501882  1
  H  H25  1  0.20723254  0.53326330  0.47837828  1
  H  H26  1  0.79276746  0.46673670  0.52162172  1
  H  H27  1  0.93635561  0.12229203  0.71498118  1
  H  H28  1  0.15756655  0.65799078  0.47515970  1
  H  H29  1  0.95523119  0.07127886  0.79510042  1
  H  H30  1  0.23759833  0.02381261  0.82309030  1
  H  H31  1  0.53711348  0.04730084  0.83884321  1
  H  H32  1  0.32865485  0.45269916  0.66115679  1
  H  H33  1  0.03687502  0.47618739  0.67690970  1
  H  H34  1  0.67905275  0.42872114  0.70489958  1
  H  H35  1  0.64619251  0.71802675  0.59583556  1
  H  H36  1  0.52904476  0.37770797  0.78501882  1
  H  H37  1  0.84765348  0.03326330  0.97837828  1
  H  H38  1  0.97171353  0.60438368  0.73610516  1
  H  H39  1  0.30553268  0.59009891  0.76278963  1
  H  H40  1  0.02526353  0.15799078  0.97515970  1
  H  H41  1  0.76548741  0.86908352  0.65613723  1
  H  H42  1  0.89367421  0.74979090  0.69336579  1
  H  H43  1  0.83724810  0.75020910  0.80663421  1
  H  H44  1  0.55254112  0.63091648  0.84386277  1
  H  H45  1  0.47822339  0.90990109  0.73721037  1
  H  H46  1  0.10343601  0.89561632  0.76389484  1
  H  H47  1  0.52400133  0.78197325  0.90416444  1
  S  S48  1  0.36046921  0.26222501  0.00609009  1
  S  S49  1  0.82557504  0.23834725  0.02274517  1
  S  S50  1  0.77381366  0.59576942  0.18936095  1
  S  S51  1  0.60997397  0.26165275  0.47725483  1
  S  S52  1  0.10433429  0.23777499  0.49390991  1
  S  S53  1  0.36740519  0.90423058  0.31063905  1
  S  S54  1  0.63259481  0.09576942  0.68936095  1
  S  S55  1  0.89566571  0.76222501  0.50609009  1
  S  S56  1  0.39002603  0.73834725  0.52274517  1
  S  S57  1  0.22618634  0.40423058  0.81063905  1
  S  S58  1  0.17442496  0.76165275  0.97725483  1
  S  S59  1  0.63953079  0.73777499  0.99390991  1
  N  N60  1  0.43032031  0.00378376  0.23766829  1
  N  N61  1  0.39828155  0.26956576  0.11391121  1
  N  N62  1  0.08505794  0.88060873  0.04346238  1
  N  N63  1  0.24262600  0.23043424  0.38608879  1
  N  N64  1  0.66420484  0.49621624  0.26233171  1
  N  N65  1  0.75208841  0.38060873  0.54346238  1
  N  N66  1  0.24791159  0.61939127  0.45653762  1
  N  N67  1  0.33579516  0.50378376  0.73766829  1
  N  N68  1  0.75737400  0.76956576  0.61391121  1
  N  N69  1  0.91494206  0.11939127  0.95653762  1
  N  N70  1  0.60171845  0.73043424  0.88608879  1
  N  N71  1  0.56967969  0.99621624  0.76233171  1
  O  O72  1  0.23690720  0.32749769  0.04451357  1
  O  O73  1  0.95838777  0.36728530  0.04034869  1
  O  O74  1  0.71973160  0.20938327  0.11663612  1
  O  O75  1  0.80824843  0.01896736  0.23992003  1
  O  O76  1  0.73092936  0.51364551  0.08738626  1
  O  O77  1  0.06848736  0.25000000  0.25000000  1
  O  O78  1  0.49700889  0.66652307  0.05687862  1
  O  O79  1  0.26244578  0.76951139  0.04948684  1
  O  O80  1  0.69985683  0.88399697  0.04757602  1
  O  O81  1  0.94504123  0.63637533  0.18642200  1
  O  O82  1  0.36392227  0.55545255  0.21975602  1
  O  O83  1  0.02920111  0.48103264  0.26007997  1
  O  O84  1  0.62698445  0.29061673  0.38336388  1
  O  O85  1  0.63145116  0.13271470  0.45965131  1
  O  O86  1  0.95392208  0.17250231  0.45548643  1
  O  O87  1  0.71849879  0.71447466  0.23736562  1
  O  O88  1  0.69533089  0.01364551  0.58738626  1
  O  O89  1  0.24138975  0.78552534  0.26263438  1
  O  O90  1  0.11263556  0.16652307  0.55687862  1
  O  O91  1  0.45757777  0.26951139  0.54948684  1
  O  O92  1  0.02822574  0.94454745  0.28024398  1
  O  O93  1  0.49508790  0.86362467  0.31357800  1
  O  O94  1  0.13656412  0.38399697  0.54757602  1
  O  O95  1  0.86343588  0.61600303  0.45242398  1
  O  O96  1  0.50491210  0.13637533  0.68642200  1
  O  O97  1  0.97177426  0.05545255  0.71975602  1
  O  O98  1  0.54242223  0.73048861  0.45051316  1
  O  O99  1  0.88736444  0.83347693  0.44312138  1
  O  O100  1  0.75861025  0.21447466  0.73736562  1
  O  O101  1  0.30466911  0.98635449  0.41261374  1
  O  O102  1  0.28150121  0.28552534  0.76263438  1
  O  O103  1  0.04607792  0.82749769  0.54451357  1
  O  O104  1  0.36854884  0.86728530  0.54034869  1
  O  O105  1  0.37301555  0.70938327  0.61663612  1
  O  O106  1  0.97079889  0.51896736  0.73992003  1
  O  O107  1  0.63607773  0.44454745  0.78024398  1
  O  O108  1  0.05495877  0.36362467  0.81357800  1
  O  O109  1  0.30014317  0.11600303  0.95242398  1
  O  O110  1  0.73755422  0.23048861  0.95051316  1
  O  O111  1  0.50299111  0.33347693  0.94312138  1
  O  O112  1  0.93151264  0.75000000  0.75000000  1
  O  O113  1  0.26907064  0.48635449  0.91261374  1
  O  O114  1  0.19175157  0.98103264  0.76007997  1
  O  O115  1  0.28026840  0.79061673  0.88336388  1
  O  O116  1  0.04161223  0.63271470  0.95965131  1
  O  O117  1  0.76309280  0.67250231  0.95548643  1
