# generated using pymatgen
data_Li2Cu5(PO4)4
_symmetry_space_group_name_H-M   'P 1'
_cell_length_a   7.85428127
_cell_length_b   8.21582708
_cell_length_c   5.16421065
_cell_angle_alpha   88.52853666
_cell_angle_beta   100.81349868
_cell_angle_gamma   112.18638390
_symmetry_Int_Tables_number   1
_chemical_formula_structural   Li2Cu5(PO4)4
_chemical_formula_sum   'Li2 Cu5 P4 O16'
_cell_volume   302.71703914
_cell_formula_units_Z   1
loop_
 _symmetry_equiv_pos_site_id
 _symmetry_equiv_pos_as_xyz
  1  'x, y, z'
loop_
 _atom_site_type_symbol
 _atom_site_label
 _atom_site_symmetry_multiplicity
 _atom_site_fract_x
 _atom_site_fract_y
 _atom_site_fract_z
 _atom_site_occupancy
  Li  Li0  1  0.05520065  0.29559116  0.59722272  1
  Li  Li1  1  0.94479935  0.70440884  0.40277728  1
  Cu  Cu2  1  0.25140185  0.78194486  0.10707541  1
  Cu  Cu3  1  0.00000000  0.00000000  0.00000000  1
  Cu  Cu4  1  0.40757142  0.67069587  0.64196178  1
  Cu  Cu5  1  0.59242858  0.32930413  0.35803822  1
  Cu  Cu6  1  0.74859815  0.21805514  0.89292459  1
  P  P7  1  0.20942440  0.42354363  0.12141481  1
  P  P8  1  0.30008080  0.03057285  0.63123138  1
  P  P9  1  0.69991920  0.96942715  0.36876862  1
  P  P10  1  0.79057560  0.57645637  0.87858519  1
  O  O11  1  0.21095197  0.96534032  0.34203165  1
  O  O12  1  0.33158957  0.87355503  0.78095284  1
  O  O13  1  0.02002257  0.25522307  0.07942512  1
  O  O14  1  0.23794487  0.49632598  0.84673571  1
  O  O15  1  0.17171103  0.55594601  0.29814965  1
  O  O16  1  0.17543461  0.10069952  0.75445887  1
  O  O17  1  0.50152190  0.81820079  0.34810090  1
  O  O18  1  0.36404668  0.37447872  0.27642291  1
  O  O19  1  0.63595332  0.62552128  0.72357709  1
  O  O20  1  0.49847810  0.18179921  0.65189910  1
  O  O21  1  0.82456539  0.89930048  0.24554113  1
  O  O22  1  0.82828897  0.44405399  0.70185035  1
  O  O23  1  0.76205513  0.50367402  0.15326429  1
  O  O24  1  0.97997743  0.74477693  0.92057488  1
  O  O25  1  0.66841043  0.12644497  0.21904716  1
  O  O26  1  0.78904803  0.03465968  0.65796835  1
