# generated using pymatgen
data_LiCu(PO3)2
_symmetry_space_group_name_H-M   'P 1'
_cell_length_a   7.44104798
_cell_length_b   12.39468349
_cell_length_c   5.55621599
_cell_angle_alpha   90.00000000
_cell_angle_beta   95.37880175
_cell_angle_gamma   90.00000000
_symmetry_Int_Tables_number   1
_chemical_formula_structural   LiCu(PO3)2
_chemical_formula_sum   'Li4 Cu4 P8 O24'
_cell_volume   510.19021029
_cell_formula_units_Z   4
loop_
 _symmetry_equiv_pos_site_id
 _symmetry_equiv_pos_as_xyz
  1  'x, y, z'
loop_
 _atom_site_type_symbol
 _atom_site_label
 _atom_site_symmetry_multiplicity
 _atom_site_fract_x
 _atom_site_fract_y
 _atom_site_fract_z
 _atom_site_occupancy
  Li  Li0  1  0.16780168  0.62349697  0.38856759  1
  Li  Li1  1  0.33219832  0.12349697  0.61143241  1
  Li  Li2  1  0.66780168  0.87650303  0.38856759  1
  Li  Li3  1  0.83219832  0.37650303  0.61143241  1
  Cu  Cu4  1  0.21967473  0.46913100  0.82624740  1
  Cu  Cu5  1  0.28032527  0.96913100  0.17375260  1
  Cu  Cu6  1  0.71967473  0.03086900  0.82624740  1
  Cu  Cu7  1  0.78032527  0.53086900  0.17375260  1
  P  P8  1  0.02241790  0.16521182  0.16258626  1
  P  P9  1  0.16119918  0.37746347  0.31980763  1
  P  P10  1  0.33880082  0.87746347  0.68019237  1
  P  P11  1  0.47758210  0.66521182  0.83741374  1
  P  P12  1  0.52241790  0.33478818  0.16258626  1
  P  P13  1  0.66119918  0.12253653  0.31980763  1
  P  P14  1  0.83880082  0.62253653  0.68019237  1
  P  P15  1  0.97758210  0.83478818  0.83741374  1
  O  O16  1  0.05691231  0.29432395  0.13064217  1
  O  O17  1  0.08898064  0.36446090  0.56285028  1
  O  O18  1  0.04475202  0.87550387  0.08136504  1
  O  O19  1  0.13408501  0.83351054  0.65078318  1
  O  O20  1  0.15342503  0.48756711  0.20151975  1
  O  O21  1  0.18728353  0.11614108  0.30149188  1
  O  O22  1  0.31271647  0.61614108  0.69850812  1
  O  O23  1  0.34657497  0.98756711  0.79848025  1
  O  O24  1  0.36591499  0.33351054  0.34921682  1
  O  O25  1  0.45524798  0.37550387  0.91863496  1
  O  O26  1  0.41101936  0.86446090  0.43714972  1
  O  O27  1  0.44308769  0.79432395  0.86935783  1
  O  O28  1  0.55691231  0.20567605  0.13064217  1
  O  O29  1  0.58898164  0.13553910  0.56285028  1
  O  O30  1  0.54475202  0.62449613  0.08136504  1
  O  O31  1  0.63408501  0.66648946  0.65078318  1
  O  O32  1  0.65342503  0.01243289  0.20151975  1
  O  O33  1  0.68728353  0.38385892  0.30149188  1
  O  O34  1  0.81271647  0.88385892  0.69850812  1
  O  O35  1  0.84657497  0.51243289  0.79848025  1
  O  O36  1  0.86591499  0.16648946  0.34921682  1
  O  O37  1  0.95524798  0.12449613  0.91863496  1
  O  O38  1  0.91101836  0.63553910  0.43714972  1
  O  O39  1  0.94308769  0.70567605  0.86935783  1
