# generated using pymatgen
data_LiCu(HO)4
_symmetry_space_group_name_H-M   'P 1'
_cell_length_a   6.26120660
_cell_length_b   6.65424473
_cell_length_c   8.45149476
_cell_angle_alpha   90.00000000
_cell_angle_beta   90.00000000
_cell_angle_gamma   90.00000000
_symmetry_Int_Tables_number   1
_chemical_formula_structural   LiCu(HO)4
_chemical_formula_sum   'Li4 Cu4 H16 O16'
_cell_volume   352.11970572
_cell_formula_units_Z   4
loop_
 _symmetry_equiv_pos_site_id
 _symmetry_equiv_pos_as_xyz
  1  'x, y, z'
loop_
 _atom_site_type_symbol
 _atom_site_label
 _atom_site_symmetry_multiplicity
 _atom_site_fract_x
 _atom_site_fract_y
 _atom_site_fract_z
 _atom_site_occupancy
  Li  Li0  1  0.02661558  0.84432470  0.74754776  1
  Li  Li1  1  0.47338442  0.34432470  0.24754776  1
  Li  Li2  1  0.52661558  0.65567530  0.74754776  1
  Li  Li3  1  0.97338442  0.15567530  0.24754776  1
  Cu  Cu4  1  0.22469388  0.50873256  0.50331427  1
  Cu  Cu5  1  0.27530612  0.00873256  0.00331427  1
  Cu  Cu6  1  0.72469388  0.99126744  0.50331427  1
  Cu  Cu7  1  0.77530612  0.49126744  0.00331427  1
  H  H8  1  0.02665344  0.17228206  0.56280877  1
  H  H9  1  0.99378081  0.23621761  0.92835462  1
  H  H10  1  0.10140261  0.52800295  0.23858228  1
  H  H11  1  0.25189820  0.34428409  0.74543106  1
  H  H12  1  0.24810180  0.84428409  0.24543006  1
  H  H13  1  0.39859739  0.02800295  0.73858228  1
  H  H14  1  0.50621919  0.73621761  0.42835462  1
  H  H15  1  0.47334656  0.67228206  0.06280877  1
  H  H16  1  0.52665344  0.32771794  0.56280877  1
  H  H17  1  0.49378081  0.26378239  0.92835462  1
  H  H18  1  0.60140261  0.97199705  0.23858228  1
  H  H19  1  0.75189820  0.15571591  0.74543106  1
  H  H20  1  0.74810180  0.65571591  0.24543006  1
  H  H21  1  0.89859739  0.47199705  0.73858228  1
  H  H22  1  0.00621919  0.76378239  0.42835462  1
  H  H23  1  0.97334656  0.82771794  0.06280877  1
  O  O24  1  0.02338908  0.70603504  0.53324262  1
  O  O25  1  0.07872870  0.80403887  0.97935018  1
  O  O26  1  0.23845841  0.48917369  0.72013534  1
  O  O27  1  0.24245145  0.55537039  0.28574509  1
  O  O28  1  0.25754855  0.05537039  0.78574509  1
  O  O29  1  0.26154259  0.98917369  0.22013534  1
  O  O30  1  0.42127130  0.30403887  0.47935018  1
  O  O31  1  0.47661092  0.20603504  0.03324262  1
  O  O32  1  0.52338908  0.79396496  0.53324262  1
  O  O33  1  0.57872870  0.69596113  0.97935018  1
  O  O34  1  0.73845841  0.01082631  0.72013534  1
  O  O35  1  0.74245145  0.94462961  0.28574509  1
  O  O36  1  0.75754855  0.44462961  0.78574509  1
  O  O37  1  0.76154259  0.51082631  0.22013534  1
  O  O38  1  0.92127130  0.19596113  0.47935018  1
  O  O39  1  0.97661092  0.29396496  0.03324262  1
