# generated using pymatgen
data_Li3Sb(PO4)2
_symmetry_space_group_name_H-M   'P 1'
_cell_length_a   8.74691166
_cell_length_b   8.74671682
_cell_length_c   7.22989995
_cell_angle_alpha   89.99081478
_cell_angle_beta   90.00220268
_cell_angle_gamma   120.00166129
_symmetry_Int_Tables_number   1
_chemical_formula_structural   Li3Sb(PO4)2
_chemical_formula_sum   'Li9 Sb3 P6 O24'
_cell_volume   479.02198802
_cell_formula_units_Z   3
loop_
 _symmetry_equiv_pos_site_id
 _symmetry_equiv_pos_as_xyz
  1  'x, y, z'
loop_
 _atom_site_type_symbol
 _atom_site_label
 _atom_site_symmetry_multiplicity
 _atom_site_fract_x
 _atom_site_fract_y
 _atom_site_fract_z
 _atom_site_occupancy
  Li  Li0  1  0.36460774  0.05193152  0.65718036  1
  Li  Li1  1  0.94784781  0.31259414  0.65741966  1
  Li  Li2  1  0.99992257  0.00068420  0.49919281  1
  Li  Li3  1  0.33341546  0.66678567  0.52306871  1
  Li  Li4  1  0.31263973  0.36458414  0.34278352  1
  Li  Li5  1  0.68740704  0.63527573  0.65754797  1
  Li  Li6  1  0.66671026  0.33338183  0.47689786  1
  Li  Li7  1  0.05201841  0.68745316  0.34260554  1
  Li  Li8  1  0.63536759  0.94790512  0.34234043  1
  Sb  Sb9  1  0.99991049  0.00007001  0.99885113  1
  Sb  Sb10  1  0.33325282  0.66652997  0.04434192  1
  Sb  Sb11  1  0.66664817  0.33321712  0.95598863  1
  P  P12  1  0.02473917  0.68886179  0.75621126  1
  P  P13  1  0.31118709  0.33580047  0.75624152  1
  P  P14  1  0.66418657  0.97543600  0.75620118  1
  P  P15  1  0.33570532  0.02457650  0.24387092  1
  P  P16  1  0.68882793  0.66411790  0.24411214  1
  P  P17  1  0.97540058  0.31108751  0.24411912  1
  O  O18  1  0.13172551  0.92901933  0.26567326  1
  O  O19  1  0.15617633  0.72985868  0.59600765  1
  O  O20  1  0.11881726  0.73491847  0.94549137  1
  O  O21  1  0.39382388  0.87851640  0.25361900  1
  O  O22  1  0.12154535  0.51532693  0.25369514  1
  O  O23  1  0.07097388  0.20259512  0.26686598  1
  O  O24  1  0.61646181  0.88144745  0.94526689  1
  O  O25  1  0.20248633  0.13153907  0.73394553  1
  O  O26  1  0.26478381  0.38321133  0.94567950  1
  O  O27  1  0.27065491  0.42675750  0.59629029  1
  O  O28  1  0.57320447  0.84380458  0.59578447  1
  O  O29  1  0.48465906  0.60620263  0.25385569  1
  O  O30  1  0.51525668  0.39364581  0.74651831  1
  O  O31  1  0.42654749  0.15616119  0.40386331  1
  O  O32  1  0.72946603  0.57344441  0.40417204  1
  O  O33  1  0.73480101  0.61606631  0.05473936  1
  O  O34  1  0.79739159  0.86832048  0.26600906  1
  O  O35  1  0.38388867  0.11878868  0.05436372  1
  O  O36  1  0.92907051  0.79748845  0.73461682  1
  O  O37  1  0.87857655  0.48481749  0.74620686  1
  O  O38  1  0.60632792  0.12157919  0.74616885  1
  O  O39  1  0.88165302  0.26475386  0.05457050  1
  O  O40  1  0.84378963  0.27065246  0.40389601  1
  O  O41  1  0.86832056  0.07079141  0.73372570  1
