# generated using pymatgen
data_LiCuPO4
_symmetry_space_group_name_H-M   'P 1'
_cell_length_a   8.48359200
_cell_length_b   5.29474073
_cell_length_c   8.03778281
_cell_angle_alpha   90.00000000
_cell_angle_beta   104.18917508
_cell_angle_gamma   90.00000000
_symmetry_Int_Tables_number   1
_chemical_formula_structural   LiCuPO4
_chemical_formula_sum   'Li4 Cu4 P4 O16'
_cell_volume   350.02964327
_cell_formula_units_Z   4
loop_
 _symmetry_equiv_pos_site_id
 _symmetry_equiv_pos_as_xyz
  1  'x, y, z'
loop_
 _atom_site_type_symbol
 _atom_site_label
 _atom_site_symmetry_multiplicity
 _atom_site_fract_x
 _atom_site_fract_y
 _atom_site_fract_z
 _atom_site_occupancy
  Li  Li0  1  0.07138681  0.86198937  0.96358248  1
  Li  Li1  1  0.28701234  0.32687519  0.50765577  1
  Li  Li2  1  0.57138681  0.13801063  0.96358248  1
  Li  Li3  1  0.78701234  0.67312481  0.50765577  1
  Cu  Cu4  1  0.21140778  0.34665846  0.87801542  1
  Cu  Cu5  1  0.37671179  0.83335708  0.36450751  1
  Cu  Cu6  1  0.71140778  0.65334154  0.87801542  1
  Cu  Cu7  1  0.87671179  0.16664292  0.36450751  1
  P  P8  1  0.00829532  0.66568681  0.24731896  1
  P  P9  1  0.33131057  0.82294034  0.73987464  1
  P  P10  1  0.50829532  0.33431319  0.24731896  1
  P  P11  1  0.83131057  0.17705966  0.73987464  1
  O  O12  1  0.00097264  0.19711006  0.86845105  1
  O  O13  1  0.04152331  0.38730985  0.30112164  1
  O  O14  1  0.19987185  0.70395231  0.82233799  1
  O  O15  1  0.28972788  0.10519222  0.70408483  1
  O  O16  1  0.16616678  0.78715650  0.21518558  1
  O  O17  1  0.33400199  0.67703298  0.57361360  1
  O  O18  1  0.50097264  0.80288994  0.86845105  1
  O  O19  1  0.44376828  0.19140325  0.38519815  1
  O  O20  1  0.39164266  0.28846145  0.06785436  1
  O  O21  1  0.54152331  0.61269015  0.30112164  1
  O  O22  1  0.69987185  0.29604769  0.82233799  1
  O  O23  1  0.78972788  0.89480778  0.70408483  1
  O  O24  1  0.66616678  0.21284350  0.21518558  1
  O  O25  1  0.83400199  0.32296702  0.57361360  1
  O  O26  1  0.94376828  0.80859675  0.38519815  1
  O  O27  1  0.89164266  0.71153855  0.06785436  1
