# generated using pymatgen
data_Li5CuHO4
_symmetry_space_group_name_H-M   'P 1'
_cell_length_a   8.80902344
_cell_length_b   8.79792250
_cell_length_c   10.79349983
_cell_angle_alpha   90.00000000
_cell_angle_beta   90.00000000
_cell_angle_gamma   90.00000000
_symmetry_Int_Tables_number   1
_chemical_formula_structural   Li5CuHO4
_chemical_formula_sum   'Li40 Cu8 H8 O32'
_cell_volume   836.50816932
_cell_formula_units_Z   8
loop_
 _symmetry_equiv_pos_site_id
 _symmetry_equiv_pos_as_xyz
  1  'x, y, z'
loop_
 _atom_site_type_symbol
 _atom_site_label
 _atom_site_symmetry_multiplicity
 _atom_site_fract_x
 _atom_site_fract_y
 _atom_site_fract_z
 _atom_site_occupancy
  Li  Li0  1  0.97160677  0.58528262  0.20072866  1
  Li  Li1  1  0.97160677  0.91471738  0.20072866  1
  Li  Li2  1  0.07386217  0.07022820  0.42685997  1
  Li  Li3  1  0.07386217  0.42977180  0.42685997  1
  Li  Li4  1  0.07239798  0.75000000  0.44631604  1
  Li  Li5  1  0.11623047  0.25000000  0.98774789  1
  Li  Li6  1  0.11462299  0.56753372  0.98680161  1
  Li  Li7  1  0.11462299  0.93246628  0.98680161  1
  Li  Li8  1  0.20924967  0.57517415  0.65768241  1
  Li  Li9  1  0.20924967  0.92482585  0.65768241  1
  Li  Li10  1  0.29075033  0.07517415  0.15768241  1
  Li  Li11  1  0.29075033  0.42482585  0.15768241  1
  Li  Li12  1  0.38537701  0.06753372  0.48680161  1
  Li  Li13  1  0.38537701  0.43246628  0.48680161  1
  Li  Li14  1  0.38376953  0.75000000  0.48774789  1
  Li  Li15  1  0.42760202  0.25000000  0.94631604  1
  Li  Li16  1  0.42613783  0.57022820  0.92685997  1
  Li  Li17  1  0.42613783  0.92977180  0.92685997  1
  Li  Li18  1  0.52839323  0.08528262  0.70072866  1
  Li  Li19  1  0.52839323  0.41471738  0.70072866  1
  Li  Li20  1  0.47160677  0.58528262  0.29927134  1
  Li  Li21  1  0.47160677  0.91471738  0.29927134  1
  Li  Li22  1  0.57386217  0.07022820  0.07314003  1
  Li  Li23  1  0.57386217  0.42977180  0.07314003  1
  Li  Li24  1  0.57239798  0.75000000  0.05368396  1
  Li  Li25  1  0.61623047  0.25000000  0.51225211  1
  Li  Li26  1  0.61462299  0.56753372  0.51319839  1
  Li  Li27  1  0.61462299  0.93246628  0.51319839  1
  Li  Li28  1  0.70924967  0.57517415  0.84231759  1
  Li  Li29  1  0.70924967  0.92482585  0.84231759  1
  Li  Li30  1  0.79075033  0.07517415  0.34231759  1
  Li  Li31  1  0.79075033  0.42482585  0.34231759  1
  Li  Li32  1  0.88537701  0.06753372  0.01319839  1
  Li  Li33  1  0.88537701  0.43246628  0.01319839  1
  Li  Li34  1  0.88376953  0.75000000  0.01225211  1
  Li  Li35  1  0.92760202  0.25000000  0.55368396  1
  Li  Li36  1  0.92613783  0.92977180  0.57314003  1
  Li  Li37  1  0.92613783  0.57022820  0.57314003  1
  Li  Li38  1  0.02839323  0.08528262  0.79927134  1
  Li  Li39  1  0.02839323  0.41471738  0.79927134  1
  Cu  Cu40  1  0.01574048  0.25000000  0.21820956  1
  Cu  Cu41  1  0.21347455  0.25000000  0.62150959  1
  Cu  Cu42  1  0.28652545  0.75000000  0.12150959  1
  Cu  Cu43  1  0.48425952  0.75000000  0.71820956  1
  Cu  Cu44  1  0.51574048  0.25000000  0.28179044  1
  Cu  Cu45  1  0.71347455  0.25000000  0.87849041  1
  Cu  Cu46  1  0.78652545  0.75000000  0.37849041  1
  Cu  Cu47  1  0.98425952  0.75000000  0.78179044  1
  H  H48  1  0.18498617  0.59668681  0.32066622  1
  H  H49  1  0.18498617  0.90331319  0.32066622  1
  H  H50  1  0.31501383  0.09668681  0.82066622  1
  H  H51  1  0.31501383  0.40331319  0.82066622  1
  H  H52  1  0.68498617  0.59668681  0.17933378  1
  H  H53  1  0.68498617  0.90331319  0.17933378  1
  H  H54  1  0.81501383  0.09668681  0.67933378  1
  H  H55  1  0.81501383  0.40331319  0.67933378  1
  O  O56  1  0.06569340  0.75000000  0.62454849  1
  O  O57  1  0.07566071  0.41280167  0.11496300  1
  O  O58  1  0.07566071  0.08719833  0.11496300  1
  O  O59  1  0.06686162  0.40860326  0.61571602  1
  O  O60  1  0.06686162  0.09139674  0.61571602  1
  O  O61  1  0.07911130  0.75000000  0.10665808  1
  O  O62  1  0.23663050  0.05501032  0.87556413  1
  O  O63  1  0.23663050  0.44498968  0.87556413  1
  O  O64  1  0.26336950  0.55501032  0.37556413  1
  O  O65  1  0.26336950  0.94498968  0.37556413  1
  O  O66  1  0.42088870  0.25000000  0.60665808  1
  O  O67  1  0.43313838  0.59139674  0.11571602  1
  O  O68  1  0.43313838  0.90860326  0.11571602  1
  O  O69  1  0.42433929  0.58719833  0.61496300  1
  O  O70  1  0.42433929  0.91280167  0.61496300  1
  O  O71  1  0.43430560  0.25000000  0.12454849  1
  O  O72  1  0.56569340  0.75000000  0.87545151  1
  O  O73  1  0.57566071  0.08719833  0.38503700  1
  O  O74  1  0.57566071  0.41280167  0.38503700  1
  O  O75  1  0.56686162  0.09139674  0.88428398  1
  O  O76  1  0.56686162  0.40860326  0.88428398  1
  O  O77  1  0.57911130  0.75000000  0.39334192  1
  O  O78  1  0.73663050  0.05501032  0.62443587  1
  O  O79  1  0.73663050  0.44498968  0.62443587  1
  O  O80  1  0.76336950  0.55501032  0.12443587  1
  O  O81  1  0.76336950  0.94498968  0.12443587  1
  O  O82  1  0.92088870  0.25000000  0.89334192  1
  O  O83  1  0.93313838  0.90860326  0.38428398  1
  O  O84  1  0.93313838  0.59139674  0.38428398  1
  O  O85  1  0.92433929  0.91280167  0.88503700  1
  O  O86  1  0.92433929  0.58719833  0.88503700  1
  O  O87  1  0.93430660  0.25000000  0.37545151  1
