# generated using pymatgen
data_Li3Bi2(PO4)3
_symmetry_space_group_name_H-M   'P 1'
_cell_length_a   9.51704607
_cell_length_b   9.02465386
_cell_length_c   9.39367038
_cell_angle_alpha   122.41433846
_cell_angle_beta   59.56457058
_cell_angle_gamma   121.82188913
_symmetry_Int_Tables_number   1
_chemical_formula_structural   Li3Bi2(PO4)3
_chemical_formula_sum   'Li6 Bi4 P6 O24'
_cell_volume   549.80185397
_cell_formula_units_Z   2
loop_
 _symmetry_equiv_pos_site_id
 _symmetry_equiv_pos_as_xyz
  1  'x, y, z'
loop_
 _atom_site_type_symbol
 _atom_site_label
 _atom_site_symmetry_multiplicity
 _atom_site_fract_x
 _atom_site_fract_y
 _atom_site_fract_z
 _atom_site_occupancy
  Li  Li0  1  0.00000000  0.00000000  0.00000000  1
  Li  Li1  1  0.27760286  0.72771689  0.61581643  1
  Li  Li2  1  0.33429760  0.22771689  0.11581643  1
  Li  Li3  1  0.50000000  0.50000000  0.50000000  1
  Li  Li4  1  0.66570240  0.77228311  0.88418357  1
  Li  Li5  1  0.72239714  0.27228311  0.38418357  1
  Bi  Bi6  1  0.14051487  0.45702467  0.14800456  1
  Bi  Bi7  1  0.33149476  0.04297533  0.35199544  1
  Bi  Bi8  1  0.66850524  0.95702467  0.64800456  1
  Bi  Bi9  1  0.85948513  0.54297533  0.85199544  1
  P  P10  1  0.09902635  0.29157776  0.43603018  1
  P  P11  1  0.55984391  0.75000000  0.25000000  1
  P  P12  1  0.25652223  0.79157776  0.93603018  1
  P  P13  1  0.74347777  0.20842224  0.06396982  1
  P  P14  1  0.44015609  0.25000000  0.75000000  1
  P  P15  1  0.90097365  0.70842224  0.56396982  1
  O  O16  1  0.32617779  0.98892446  0.06851277  1
  O  O17  1  0.05636496  0.86124789  0.49493657  1
  O  O18  1  0.10044333  0.24726110  0.24883856  1
  O  O19  1  0.09423391  0.48892446  0.56851277  1
  O  O20  1  0.11104997  0.79359660  0.90240817  1
  O  O21  1  0.52944216  0.92999258  0.30995520  1
  O  O22  1  0.40940477  0.57000742  0.19004480  1
  O  O23  1  0.28013746  0.29359660  0.40240817  1
  O  O24  1  0.56843358  0.73862013  0.40655045  1
  O  O25  1  0.73636390  0.76137987  0.09344955  1
  O  O26  1  0.19005264  0.63875211  0.00506343  1
  O  O27  1  0.39797921  0.74726110  0.74883856  1
  O  O28  1  0.60202079  0.25273890  0.25116144  1
  O  O29  1  0.80994736  0.36124789  0.99493657  1
  O  O30  1  0.26363610  0.23862013  0.90655045  1
  O  O31  1  0.43156642  0.26137987  0.59344955  1
  O  O32  1  0.71986254  0.70640340  0.59759183  1
  O  O33  1  0.59059523  0.42999258  0.80995520  1
  O  O34  1  0.47055784  0.07000742  0.69004480  1
  O  O35  1  0.88895003  0.20640340  0.09759183  1
  O  O36  1  0.90576609  0.51107554  0.43148723  1
  O  O37  1  0.89955667  0.75273890  0.75116144  1
  O  O38  1  0.94363504  0.13875211  0.50506343  1
  O  O39  1  0.67382221  0.01107554  0.93148723  1
