# generated using pymatgen
data_KLi2Sb(PO4)2
_symmetry_space_group_name_H-M   'P 1'
_cell_length_a   10.29187190
_cell_length_b   10.19354548
_cell_length_c   13.63525563
_cell_angle_alpha   78.78508697
_cell_angle_beta   79.03279816
_cell_angle_gamma   120.22058412
_symmetry_Int_Tables_number   1
_chemical_formula_structural   KLi2Sb(PO4)2
_chemical_formula_sum   'K6 Li12 Sb6 P12 O48'
_cell_volume   1140.25865114
_cell_formula_units_Z   6
loop_
 _symmetry_equiv_pos_site_id
 _symmetry_equiv_pos_as_xyz
  1  'x, y, z'
loop_
 _atom_site_type_symbol
 _atom_site_label
 _atom_site_symmetry_multiplicity
 _atom_site_fract_x
 _atom_site_fract_y
 _atom_site_fract_z
 _atom_site_occupancy
  K  K0  1  0.00297937  0.50485285  0.99915417  1
  K  K1  1  0.16667848  0.49949755  0.33541337  1
  K  K2  1  0.50215108  0.49877280  0.98470134  1
  K  K3  1  0.36421682  0.52595458  0.66801544  1
  K  K4  1  0.66476369  0.49894308  0.33333976  1
  K  K5  1  0.82892892  0.52650826  0.66978617  1
  Li  Li6  1  0.01458123  0.32769818  0.59949203  1
  Li  Li7  1  0.31525617  0.66589518  0.07348178  1
  Li  Li8  1  0.14455446  0.66297788  0.74245971  1
  Li  Li9  1  0.35539400  0.33761406  0.25613469  1
  Li  Li10  1  0.18755477  0.34550624  0.92137976  1
  Li  Li11  1  0.47702172  0.66150742  0.40715587  1
  Li  Li12  1  0.52270123  0.34107630  0.59074199  1
  Li  Li13  1  0.71024304  0.88326185  0.91625511  1
  Li  Li14  1  0.81250629  0.66529763  0.07440675  1
  Li  Li15  1  0.85471300  0.33715363  0.25941961  1
  Li  Li16  1  0.69660425  0.34525149  0.92083010  1
  Li  Li17  1  0.98019983  0.65974936  0.40813805  1
  Sb  Sb18  1  0.01230895  0.00722464  0.00293569  1
  Sb  Sb19  1  0.16604482  -0.00009911  0.33573124  1
  Sb  Sb20  1  0.49428659  0.00892379  0.00655666  1
  Sb  Sb21  1  0.33475442  0.00256109  0.66567695  1
  Sb  Sb22  1  0.66412673  0.99878402  0.33197672  1
  Sb  Sb23  1  0.82073563  0.97837943  0.66068128  1
  P  P24  1  0.07978563  0.74402385  0.16871507  1
  P  P25  1  0.09013398  0.25867787  0.16523316  1
  P  P26  1  0.24360826  0.73856090  0.50288443  1
  P  P27  1  0.57400800  0.74083595  0.16683479  1
  P  P28  1  0.25328432  0.25577287  0.49907159  1
  P  P29  1  0.41906950  0.75276185  0.83067909  1
  P  P30  1  0.58751833  0.25841286  0.16486711  1
  P  P31  1  0.75328341  0.74910894  0.49397641  1
  P  P32  1  0.41443039  0.24449203  0.83447587  1
  P  P33  1  0.75087348  0.25255546  0.49866543  1
  P  P34  1  0.91708876  0.75186674  0.84050985  1
  P  P35  1  0.91890144  0.25572993  0.83345681  1
  O  O36  1  0.97610269  0.55879737  0.20708375  1
  O  O37  1  0.13848378  0.80127428  0.25900358  1
  O  O38  1  0.98177714  0.80174837  0.93129745  1
  O  O39  1  0.22614622  0.80640729  0.06809432  1
  O  O40  1  0.05650946  0.80822580  0.73785069  1
  O  O41  1  0.14063814  0.80095339  0.47037437  1
  O  O42  1  0.19306428  0.44387330  0.12362847  1
  O  O43  1  0.14095998  0.55351663  0.54019128  1
  O  O44  1  0.29796971  0.79419993  0.59483781  1
  O  O45  1  0.39350129  0.80309288  0.40368618  1
  O  O46  1  0.46127155  0.79258009  0.14285221  1
  O  O47  1  0.30681647  0.80773737  0.81047811  1
  O  O48  1  0.19195582  0.19652677  0.19851085  1
  O  O49  1  0.02585820  0.19976013  0.86748697  1
  O  O50  1  0.10401644  0.19266454  0.59475206  1
  O  O51  1  0.20212102  0.19729918  0.40585322  1
  O  O52  1  0.48094477  0.55648312  0.21007930  1
  O  O53  1  0.35847228  0.44130163  0.45686669  1
  O  O54  1  0.31783269  0.56697900  0.87250810  1
  O  O55  1  0.64206311  0.80727890  0.25245354  1
  O  O56  1  0.49099673  0.81115995  0.91840570  1
  O  O57  1  0.71255606  0.80386797  0.05983110  1
  O  O58  1  0.55750017  0.82085026  0.72438498  1
  O  O59  1  0.64281210  0.80260716  0.46583364  1
  O  O60  1  0.35901483  0.19749815  0.53237579  1
  O  O61  1  0.44058171  0.19644444  0.26317108  1
  O  O62  1  0.26615168  0.18139707  0.93569637  1
  O  O63  1  0.52914797  0.20096125  0.07242842  1
  O  O64  1  0.35602875  0.18153559  0.74547511  1
  O  O65  1  0.69073709  0.44303334  0.12248788  1
  O  O66  1  0.65241958  0.56428440  0.54269156  1
  O  O67  1  0.51449497  0.42817943  0.79459367  1
  O  O68  1  0.82787668  0.82650274  0.57422624  1
  O  O69  1  0.89347865  0.80259044  0.39271918  1
  O  O70  1  0.97592775  0.80631226  0.13827862  1
  O  O71  1  0.82028279  0.82738231  0.81895930  1
  O  O72  1  0.69088780  0.19665133  0.19487500  1
  O  O73  1  0.51713343  0.18338852  0.86975876  1
  O  O74  1  0.60479662  0.19927302  0.59603003  1
  O  O75  1  0.69261462  0.19179509  0.40804571  1
  O  O76  1  0.85789099  0.43763825  0.45449136  1
  O  O77  1  0.80652789  0.56630223  0.87853904  1
  O  O78  1  0.84939591  0.18669610  0.53303617  1
  O  O79  1  0.94054841  0.19752662  0.26197939  1
  O  O80  1  0.77091064  0.19322329  0.93413812  1
  O  O81  1  0.03821343  0.20126148  0.07222768  1
  O  O82  1  0.85912253  0.18778291  0.74772795  1
  O  O83  1  0.01805719  0.44130396  0.79329830  1
