# generated using pymatgen
data_LiCrPO4
_symmetry_space_group_name_H-M   'P 1'
_cell_length_a   4.98719669
_cell_length_b   4.98719669
_cell_length_c   6.46676021
_cell_angle_alpha   90.00000000
_cell_angle_beta   90.00000000
_cell_angle_gamma   67.99567346
_symmetry_Int_Tables_number   1
_chemical_formula_structural   LiCrPO4
_chemical_formula_sum   'Li2 Cr2 P2 O8'
_cell_volume   149.12565359
_cell_formula_units_Z   2
loop_
 _symmetry_equiv_pos_site_id
 _symmetry_equiv_pos_as_xyz
  1  'x, y, z'
loop_
 _atom_site_type_symbol
 _atom_site_label
 _atom_site_symmetry_multiplicity
 _atom_site_fract_x
 _atom_site_fract_y
 _atom_site_fract_z
 _atom_site_occupancy
  Li  Li0  1  0.50000000  0.50000000  0.00000000  1
  Li  Li1  1  0.50000000  0.50000000  0.50000000  1
  Cr  Cr2  1  0.20644503  0.20644503  0.25000000  1
  Cr  Cr3  1  0.79355497  0.79355497  0.75000000  1
  P  P4  1  0.14534656  0.14534656  0.75000000  1
  P  P5  1  0.85465344  0.85465344  0.25000000  1
  O  O6  1  0.19164111  0.73696529  0.25000000  1
  O  O7  1  0.26303471  0.80835889  0.75000000  1
  O  O8  1  0.74385455  0.74385455  0.05711559  1
  O  O9  1  0.25614545  0.25614545  0.55711559  1
  O  O10  1  0.25614545  0.25614545  0.94288441  1
  O  O11  1  0.74385455  0.74385455  0.44288441  1
  O  O12  1  0.73696529  0.19164111  0.25000000  1
  O  O13  1  0.80835889  0.26303471  0.75000000  1
