# generated using pymatgen
data_LiSbP2O7
_symmetry_space_group_name_H-M   'P 1'
_cell_length_a   7.44329476
_cell_length_b   10.80030323
_cell_length_c   8.58728160
_cell_angle_alpha   90.00000000
_cell_angle_beta   114.44666460
_cell_angle_gamma   90.00000000
_symmetry_Int_Tables_number   1
_chemical_formula_structural   LiSbP2O7
_chemical_formula_sum   'Li4 Sb4 P8 O28'
_cell_volume   628.43995903
_cell_formula_units_Z   4
loop_
 _symmetry_equiv_pos_site_id
 _symmetry_equiv_pos_as_xyz
  1  'x, y, z'
loop_
 _atom_site_type_symbol
 _atom_site_label
 _atom_site_symmetry_multiplicity
 _atom_site_fract_x
 _atom_site_fract_y
 _atom_site_fract_z
 _atom_site_occupancy
  Li  Li0  1  0.11626615  0.15594892  0.57716565  1
  Li  Li1  1  0.11626615  0.34405108  0.07716565  1
  Li  Li2  1  0.88373385  0.65594892  0.92283435  1
  Li  Li3  1  0.88373385  0.84405108  0.42283435  1
  Sb  Sb4  1  0.23002687  0.60709935  0.73055994  1
  Sb  Sb5  1  0.23002687  0.89290065  0.23055994  1
  Sb  Sb6  1  0.76997313  0.10709935  0.76944006  1
  Sb  Sb7  1  0.76997313  0.39290065  0.26944006  1
  P  P8  1  0.13439153  0.90934288  0.78859297  1
  P  P9  1  0.13439153  0.59065712  0.28859297  1
  P  P10  1  0.47349388  0.85098138  0.71571668  1
  P  P11  1  0.52650612  0.35098138  0.78428332  1
  P  P12  1  0.47349388  0.64901862  0.21571668  1
  P  P13  1  0.52650612  0.14901862  0.28428332  1
  P  P14  1  0.86560847  0.40934288  0.71140703  1
  P  P15  1  0.86560847  0.09065712  0.21140703  1
  O  O16  1  0.05980747  0.03686521  0.71120902  1
  O  O17  1  0.03630948  0.80293651  0.66228295  1
  O  O18  1  0.05980747  0.46313479  0.21120902  1
  O  O19  1  0.10844055  0.60908094  0.45534986  1
  O  O20  1  0.03630948  0.69706349  0.16228295  1
  O  O21  1  0.36881294  0.90288091  0.83786481  1
  O  O22  1  0.32843386  0.41956494  0.71840936  1
  O  O23  1  0.10844055  0.89091906  0.95534986  1
  O  O24  1  0.33591323  0.87964772  0.53126926  1
  O  O25  1  0.50967050  0.71065338  0.75819583  1
  O  O26  1  0.36881294  0.59711909  0.33786481  1
  O  O27  1  0.32843386  0.08043506  0.21840936  1
  O  O28  1  0.49032950  0.21065338  0.74180417  1
  O  O29  1  0.33591323  0.62035228  0.03126926  1
  O  O30  1  0.66408677  0.37964772  0.96873074  1
  O  O31  1  0.50967050  0.78934662  0.25819583  1
  O  O32  1  0.67156614  0.91956494  0.78159064  1
  O  O33  1  0.63118706  0.40288091  0.66213519  1
  O  O34  1  0.49032950  0.28934662  0.24180417  1
  O  O35  1  0.66408677  0.12035228  0.46873074  1
  O  O36  1  0.89155945  0.10908094  0.04465014  1
  O  O37  1  0.67156614  0.58043506  0.28159064  1
  O  O38  1  0.63118706  0.09711909  0.16213519  1
  O  O39  1  0.96369052  0.30293651  0.83771705  1
  O  O40  1  0.89155945  0.39091906  0.54465014  1
  O  O41  1  0.94019253  0.53686521  0.78879098  1
  O  O42  1  0.96369052  0.19706349  0.33771705  1
  O  O43  1  0.94019253  0.96313479  0.28879098  1
