# generated using pymatgen
data_Li2Cr(PO4)2
_symmetry_space_group_name_H-M   'P 1'
_cell_length_a   7.46619853
_cell_length_b   12.45503041
_cell_length_c   6.25315957
_cell_angle_alpha   90.00000000
_cell_angle_beta   97.85357156
_cell_angle_gamma   90.00000000
_symmetry_Int_Tables_number   1
_chemical_formula_structural   Li2Cr(PO4)2
_chemical_formula_sum   'Li8 Cr4 P8 O32'
_cell_volume   576.03802762
_cell_formula_units_Z   4
loop_
 _symmetry_equiv_pos_site_id
 _symmetry_equiv_pos_as_xyz
  1  'x, y, z'
loop_
 _atom_site_type_symbol
 _atom_site_label
 _atom_site_symmetry_multiplicity
 _atom_site_fract_x
 _atom_site_fract_y
 _atom_site_fract_z
 _atom_site_occupancy
  Li  Li0  1  0.05776782  0.77529038  0.63386077  1
  Li  Li1  1  0.05776782  0.72470962  0.13386077  1
  Li  Li2  1  0.54291104  0.37626715  0.94649017  1
  Li  Li3  1  0.45708896  0.87626715  0.55350983  1
  Li  Li4  1  0.54291104  0.12373285  0.44649017  1
  Li  Li5  1  0.45708896  0.62373285  0.05350983  1
  Li  Li6  1  0.94223218  0.27529038  0.86613923  1
  Li  Li7  1  0.94223218  0.22470962  0.36614023  1
  Cr  Cr8  1  0.22892452  0.07641084  0.75557969  1
  Cr  Cr9  1  0.22892452  0.42358916  0.25557969  1
  Cr  Cr10  1  0.77107548  0.57641084  0.74442031  1
  Cr  Cr11  1  0.77107548  0.92358916  0.24442031  1
  P  P12  1  0.16997168  0.47049642  0.74020675  1
  P  P13  1  0.16997168  0.02950358  0.24020675  1
  P  P14  1  0.36296880  0.64222269  0.53810181  1
  P  P15  1  0.36296880  0.85777731  0.03810181  1
  P  P16  1  0.63703120  0.14222269  0.96189819  1
  P  P17  1  0.63703120  0.35777731  0.46189819  1
  P  P18  1  0.83002832  0.97049642  0.75979325  1
  P  P19  1  0.83002832  0.52950358  0.25979325  1
  O  O20  1  0.02962885  0.96528432  0.72748680  1
  O  O21  1  0.02962885  0.53471568  0.22748680  1
  O  O22  1  0.08979144  0.18326099  0.67060488  1
  O  O23  1  0.08979144  0.31673901  0.17060488  1
  O  O24  1  0.20671689  0.59032269  0.66572392  1
  O  O25  1  0.29730178  0.45358676  0.95410282  1
  O  O26  1  0.21582923  0.39368063  0.56658159  1
  O  O27  1  0.28717382  0.74628108  0.98878789  1
  O  O28  1  0.20671689  0.90967731  0.16572392  1
  O  O29  1  0.29730178  0.04641324  0.45410282  1
  O  O30  1  0.21582923  0.10631937  0.06658159  1
  O  O31  1  0.28717382  0.75371892  0.48878789  1
  O  O32  1  0.37967345  0.92888125  0.84220693  1
  O  O33  1  0.37967345  0.57111875  0.34220693  1
  O  O34  1  0.46594047  0.14646859  0.79238144  1
  O  O35  1  0.46594047  0.35353141  0.29238144  1
  O  O36  1  0.53405953  0.64646859  0.70761856  1
  O  O37  1  0.53405953  0.85353141  0.20761856  1
  O  O38  1  0.62032655  0.42888125  0.65779307  1
  O  O39  1  0.62032655  0.07111875  0.15779307  1
  O  O40  1  0.71282618  0.24628108  0.51121211  1
  O  O41  1  0.78417077  0.89368063  0.93341841  1
  O  O42  1  0.70269822  0.95358676  0.54589718  1
  O  O43  1  0.79328311  0.09032269  0.83427608  1
  O  O44  1  0.71282618  0.25371892  0.01121211  1
  O  O45  1  0.78417077  0.60631937  0.43341841  1
  O  O46  1  0.70269822  0.54641324  0.04589718  1
  O  O47  1  0.79328311  0.40967731  0.33427608  1
  O  O48  1  0.91020856  0.68326099  0.82939512  1
  O  O49  1  0.91020856  0.81673901  0.32939512  1
  O  O50  1  0.97037115  0.46528432  0.77251320  1
  O  O51  1  0.97037115  0.03471568  0.27251320  1
