# generated using pymatgen
data_LiVPO4
_symmetry_space_group_name_H-M   'P 1'
_cell_length_a   9.47707238
_cell_length_b   5.55230687
_cell_length_c   6.47122966
_cell_angle_alpha   103.72734996
_cell_angle_beta   106.91079119
_cell_angle_gamma   79.00308427
_symmetry_Int_Tables_number   1
_chemical_formula_structural   LiVPO4
_chemical_formula_sum   'Li4 V4 P4 O16'
_cell_volume   313.75736856
_cell_formula_units_Z   4
loop_
 _symmetry_equiv_pos_site_id
 _symmetry_equiv_pos_as_xyz
  1  'x, y, z'
loop_
 _atom_site_type_symbol
 _atom_site_label
 _atom_site_symmetry_multiplicity
 _atom_site_fract_x
 _atom_site_fract_y
 _atom_site_fract_z
 _atom_site_occupancy
  Li  Li0  1  0.11028692  0.31704459  0.35866691  1
  Li  Li1  1  0.24982143  0.80903664  0.47918391  1
  Li  Li2  1  0.75017857  0.19096336  0.52081609  1
  Li  Li3  1  0.88971308  0.68295541  0.64133309  1
  V  V4  1  0.21349011  0.71243131  0.94862834  1
  V  V5  1  0.41671933  0.22557719  0.16791230  1
  V  V6  1  0.58328067  0.77442281  0.83208770  1
  V  V7  1  0.78650989  0.28756869  0.05137166  1
  P  P8  1  0.07816959  0.18544092  0.81681743  1
  P  P9  1  0.45080482  0.32222542  0.69482456  1
  P  P10  1  0.54919518  0.67777458  0.30517544  1
  P  P11  1  0.92183041  0.81455908  0.18318257  1
  O  O12  1  0.10784580  0.39506561  0.71667788  1
  O  O13  1  0.11433434  0.91783597  0.68456552  1
  O  O14  1  0.08770854  0.77117379  0.18340238  1
  O  O15  1  0.17968007  0.18576008  0.05736861  1
  O  O16  1  0.44806275  0.14544583  0.84601089  1
  O  O17  1  0.37823674  0.59841218  0.75969448  1
  O  O18  1  0.36723920  0.21136212  0.46090524  1
  O  O19  1  0.38202743  0.64520060  0.27271135  1
  O  O20  1  0.61797257  0.35479940  0.72728865  1
  O  O21  1  0.63276080  0.78863788  0.53909476  1
  O  O22  1  0.62176326  0.40158782  0.24030552  1
  O  O23  1  0.55193725  0.85455417  0.15398911  1
  O  O24  1  0.82031993  0.81423992  0.94263139  1
  O  O25  1  0.91229146  0.22882621  0.81659762  1
  O  O26  1  0.88566566  0.08216403  0.31543448  1
  O  O27  1  0.89215420  0.60493439  0.28332212  1
