# generated using pymatgen
data_LiVPO4
_symmetry_space_group_name_H-M   'P 1'
_cell_length_a   4.97789008
_cell_length_b   9.92927696
_cell_length_c   7.21146537
_cell_angle_alpha   90.00000000
_cell_angle_beta   90.86211686
_cell_angle_gamma   90.00000000
_symmetry_Int_Tables_number   1
_chemical_formula_structural   LiVPO4
_chemical_formula_sum   'Li4 V4 P4 O16'
_cell_volume   356.39966302
_cell_formula_units_Z   4
loop_
 _symmetry_equiv_pos_site_id
 _symmetry_equiv_pos_as_xyz
  1  'x, y, z'
loop_
 _atom_site_type_symbol
 _atom_site_label
 _atom_site_symmetry_multiplicity
 _atom_site_fract_x
 _atom_site_fract_y
 _atom_site_fract_z
 _atom_site_occupancy
  Li  Li0  1  0.20000656  0.16734265  0.51008512  1
  Li  Li1  1  0.29999344  0.66734265  0.98991488  1
  Li  Li2  1  0.70000656  0.33265735  0.01008512  1
  Li  Li3  1  0.79999344  0.83265735  0.48991488  1
  V  V4  1  0.23178429  0.11822356  0.01226336  1
  V  V5  1  0.26821571  0.61822356  0.48773664  1
  V  V6  1  0.73178429  0.38177644  0.51226336  1
  V  V7  1  0.76821571  0.88177644  0.98773664  1
  P  P8  1  0.19496160  0.40593032  0.23285872  1
  P  P9  1  0.30503840  0.90593032  0.26714128  1
  P  P10  1  0.69496160  0.09406968  0.73285872  1
  P  P11  1  0.80503840  0.59406968  0.76714128  1
  O  O12  1  0.10984493  0.62450812  0.76322207  1
  O  O13  1  0.19837525  0.87851271  0.05991275  1
  O  O14  1  0.17032266  0.81784749  0.41398097  1
  O  O15  1  0.24346751  0.05697434  0.29717091  1
  O  O16  1  0.25653249  0.55697434  0.20282909  1
  O  O17  1  0.32967734  0.31784749  0.08601903  1
  O  O18  1  0.30162475  0.37851271  0.44008725  1
  O  O19  1  0.39015507  0.12450812  0.73677793  1
  O  O20  1  0.60984493  0.87549188  0.26322207  1
  O  O21  1  0.69837525  0.62148729  0.55991275  1
  O  O22  1  0.67032266  0.68215251  0.91398097  1
  O  O23  1  0.74346751  0.44302566  0.79717091  1
  O  O24  1  0.75653249  0.94302566  0.70282909  1
  O  O25  1  0.82967734  0.18215251  0.58601903  1
  O  O26  1  0.80162475  0.12148729  0.94008725  1
  O  O27  1  0.89015507  0.37549188  0.23677793  1
