# generated using pymatgen
data_Na3LiSbP2O9
_symmetry_space_group_name_H-M   'P 1'
_cell_length_a   7.32515620
_cell_length_b   9.49811183
_cell_length_c   12.72838055
_cell_angle_alpha   89.99998273
_cell_angle_beta   90.01321198
_cell_angle_gamma   89.99999800
_symmetry_Int_Tables_number   1
_chemical_formula_structural   Na3LiSbP2O9
_chemical_formula_sum   'Na12 Li4 Sb4 P8 O36'
_cell_volume   885.57899777
_cell_formula_units_Z   4
loop_
 _symmetry_equiv_pos_site_id
 _symmetry_equiv_pos_as_xyz
  1  'x, y, z'
loop_
 _atom_site_type_symbol
 _atom_site_label
 _atom_site_symmetry_multiplicity
 _atom_site_fract_x
 _atom_site_fract_y
 _atom_site_fract_z
 _atom_site_occupancy
  Na  Na0  1  0.85754882  0.60778078  0.85067781  1
  Na  Na1  1  0.84308027  0.74204929  0.23390595  1
  Na  Na2  1  0.76498900  0.08523893  0.49863092  1
  Na  Na3  1  0.73505140  0.91489797  0.99861016  1
  Na  Na4  1  0.65688018  0.25814388  0.73391438  1
  Na  Na5  1  0.64243852  0.39243116  0.35065810  1
  Na  Na6  1  0.35756108  0.89243126  0.14934107  1
  Na  Na7  1  0.34311998  0.75814391  0.76608572  1
  Na  Na8  1  0.26494652  0.41489652  0.50138970  1
  Na  Na9  1  0.23501112  0.58523857  0.00136932  1
  Na  Na10  1  0.15691953  0.24204921  0.26609388  1
  Na  Na11  1  0.14245067  0.10778091  0.64932224  1
  Li  Li12  1  0.90371259  0.05761603  0.83485474  1
  Li  Li13  1  0.59637521  0.94265449  0.33491507  1
  Li  Li14  1  0.40362324  0.44265633  0.16508556  1
  Li  Li15  1  0.09629389  0.55761969  0.66514495  1
  Sb  Sb16  1  0.98252935  0.25390691  0.00389111  1
  Sb  Sb17  1  0.51746750  0.74609903  0.50383122  1
  Sb  Sb18  1  0.48253285  0.24609918  0.99616869  1
  Sb  Sb19  1  0.01747052  0.75390687  0.49610881  1
  P  P20  1  0.77943542  0.87371475  0.70940319  1
  P  P21  1  0.76728367  0.45989345  0.57909856  1
  P  P22  1  0.73282784  0.54009207  0.07908822  1
  P  P23  1  0.72068197  0.12615124  0.20940172  1
  P  P24  1  0.27931803  0.62615184  0.29059802  1
  P  P25  1  0.26717221  0.04009285  0.42091182  1
  P  P26  1  0.23271683  0.95989309  0.92090155  1
  P  P27  1  0.22056439  0.37371502  0.79059682  1
  O  O28  1  0.94263973  0.78525515  0.66122216  1
  O  O29  1  0.95044319  0.52709726  0.53389385  1
  O  O30  1  0.90505018  0.18108158  0.16085730  1
  O  O31  1  0.89687999  0.47064465  0.01364106  1
  O  O32  1  0.81141961  0.03269430  0.68602395  1
  O  O33  1  0.76337735  0.81073457  0.43901909  1
  O  O34  1  0.75789798  0.30415336  0.55218687  1
  O  O35  1  0.77587264  0.85021738  0.82803186  1
  O  O36  1  0.74368368  0.51090330  0.19699216  1
  O  O37  1  0.75628818  0.48914610  0.69701690  1
  O  O38  1  0.72391163  0.14967234  0.32804393  1
  O  O39  1  0.74190139  0.69587862  0.05214082  1
  O  O40  1  0.73573662  0.18916375  0.93903453  1
  O  O41  1  0.68854803  0.96718941  0.18603048  1
  O  O42  1  0.60308981  0.52955385  0.51362765  1
  O  O43  1  0.59494376  0.81872996  0.66066557  1
  O  O44  1  0.54959422  0.47261986  0.03383883  1
  O  O45  1  0.55737641  0.21459172  0.16103233  1
  O  O46  1  0.44262395  0.71459181  0.33896782  1
  O  O47  1  0.45040659  0.97261994  0.46616107  1
  O  O48  1  0.40505582  0.31873004  0.83933462  1
  O  O49  1  0.39690994  0.02955354  0.98637240  1
  O  O50  1  0.31145173  0.46718923  0.31396994  1
  O  O51  1  0.26426483  0.68916381  0.56096554  1
  O  O52  1  0.25809887  0.19587839  0.44785920  1
  O  O53  1  0.27608844  0.64967178  0.17195652  1
  O  O54  1  0.24371133  0.98914579  0.80298287  1
  O  O55  1  0.25631698  0.01090333  0.30300794  1
  O  O56  1  0.22412731  0.35021763  0.67196816  1
  O  O57  1  0.24210209  0.80415302  0.94781296  1
  O  O58  1  0.23662246  0.31073454  0.06098103  1
  O  O59  1  0.18857994  0.53269492  0.81397592  1
  O  O60  1  0.10311987  0.97064504  0.48635905  1
  O  O61  1  0.09495002  0.68108205  0.33914288  1
  O  O62  1  0.04955737  0.02709675  0.96610636  1
  O  O63  1  0.05736045  0.28525502  0.83877810  1
