# generated using pymatgen
data_LiFe(Si2O5)2
_symmetry_space_group_name_H-M   'P 1'
_cell_length_a   7.40529036
_cell_length_b   7.40529036
_cell_length_c   14.77679071
_cell_angle_alpha   90.00000000
_cell_angle_beta   90.00000000
_cell_angle_gamma   90.00000000
_symmetry_Int_Tables_number   1
_chemical_formula_structural   LiFe(Si2O5)2
_chemical_formula_sum   'Li4 Fe4 Si16 O40'
_cell_volume   810.33445608
_cell_formula_units_Z   4
loop_
 _symmetry_equiv_pos_site_id
 _symmetry_equiv_pos_as_xyz
  1  'x, y, z'
loop_
 _atom_site_type_symbol
 _atom_site_label
 _atom_site_symmetry_multiplicity
 _atom_site_fract_x
 _atom_site_fract_y
 _atom_site_fract_z
 _atom_site_occupancy
  Li  Li0  1  0.25000000  0.25000000  0.05875019  1
  Li  Li1  1  0.25000000  0.25000000  0.55875019  1
  Li  Li2  1  0.75000000  0.75000000  0.44124981  1
  Li  Li3  1  0.75000000  0.75000000  0.94124981  1
  Fe  Fe4  1  0.25000000  0.75000000  0.00000000  1
  Fe  Fe5  1  0.25000000  0.75000000  0.50000000  1
  Fe  Fe6  1  0.75000000  0.25000000  0.50000000  1
  Fe  Fe7  1  0.75000000  0.25000000  0.00000000  1
  Si  Si8  1  0.98516075  0.10325009  0.35510413  1
  Si  Si9  1  0.98516075  0.39674991  0.85510413  1
  Si  Si10  1  0.10325009  0.98516075  0.85510413  1
  Si  Si11  1  0.10325009  0.51483925  0.35510413  1
  Si  Si12  1  0.39674991  0.51483925  0.85510413  1
  Si  Si13  1  0.39674991  0.98516075  0.35510413  1
  Si  Si14  1  0.51483925  0.10325009  0.85510413  1
  Si  Si15  1  0.51483925  0.39674991  0.35510413  1
  Si  Si16  1  0.48516075  0.89674991  0.14489587  1
  Si  Si17  1  0.48516075  0.60325009  0.64489587  1
  Si  Si18  1  0.60325009  0.48516075  0.14489587  1
  Si  Si19  1  0.60325009  0.01483925  0.64489587  1
  Si  Si20  1  0.89674991  0.01483925  0.14489587  1
  Si  Si21  1  0.89674991  0.48516075  0.64489587  1
  Si  Si22  1  0.01483925  0.89674991  0.64489587  1
  Si  Si23  1  0.01483925  0.60325009  0.14489587  1
  O  O24  1  0.99187621  0.81975553  0.12719507  1
  O  O25  1  0.99187621  0.68024447  0.62719507  1
  O  O26  1  0.95875392  0.16688150  0.07221665  1
  O  O27  1  0.95875392  0.33311850  0.57221665  1
  O  O28  1  0.06944978  0.56944978  0.25000000  1
  O  O29  1  0.06944978  0.93055022  0.75000000  1
  O  O30  1  0.16688150  0.95875392  0.57221665  1
  O  O31  1  0.16688150  0.54124608  0.07221665  1
  O  O32  1  0.18024447  0.00812379  0.37280493  1
  O  O33  1  0.18024447  0.49187621  0.87280493  1
  O  O34  1  0.31975553  0.49187621  0.37280493  1
  O  O35  1  0.31975553  0.00812379  0.87280493  1
  O  O36  1  0.33311850  0.54124608  0.57221665  1
  O  O37  1  0.33311850  0.95875392  0.07221665  1
  O  O38  1  0.43055022  0.93055022  0.25000000  1
  O  O39  1  0.43055022  0.56944978  0.75000000  1
  O  O40  1  0.54124608  0.33311850  0.07221665  1
  O  O41  1  0.54124608  0.16688150  0.57221665  1
  O  O42  1  0.50812379  0.68024447  0.12719507  1
  O  O43  1  0.50812379  0.81975553  0.62719507  1
  O  O44  1  0.49187621  0.31975553  0.87280493  1
  O  O45  1  0.49187621  0.18024447  0.37280493  1
  O  O46  1  0.45875392  0.83311850  0.42778335  1
  O  O47  1  0.45875392  0.66688150  0.92778335  1
  O  O48  1  0.56944978  0.06944978  0.75000000  1
  O  O49  1  0.56944978  0.43055022  0.25000000  1
  O  O50  1  0.66688150  0.04124608  0.92778335  1
  O  O51  1  0.66688150  0.45875392  0.42778335  1
  O  O52  1  0.68024447  0.99187621  0.12719507  1
  O  O53  1  0.68024447  0.50812379  0.62719507  1
  O  O54  1  0.81975553  0.50812379  0.12719507  1
  O  O55  1  0.81975553  0.99187621  0.62719507  1
  O  O56  1  0.83311850  0.04124608  0.42778335  1
  O  O57  1  0.83311850  0.45875392  0.92778335  1
  O  O58  1  0.93055022  0.06944978  0.25000000  1
  O  O59  1  0.93055022  0.43055022  0.75000000  1
  O  O60  1  0.04124608  0.66688150  0.42778335  1
  O  O61  1  0.04124608  0.83311850  0.92778335  1
  O  O62  1  0.00812379  0.31975553  0.37280493  1
  O  O63  1  0.00812379  0.18024447  0.87280493  1
