# generated using pymatgen
data_LiCu4(PO4)3
_symmetry_space_group_name_H-M   'P 1'
_cell_length_a   8.65512396
_cell_length_b   8.65512396
_cell_length_c   6.38726525
_cell_angle_alpha   71.36375702
_cell_angle_beta   108.63624298
_cell_angle_gamma   87.30430654
_symmetry_Int_Tables_number   1
_chemical_formula_structural   LiCu4(PO4)3
_chemical_formula_sum   'Li2 Cu8 P6 O24'
_cell_volume   423.64772394
_cell_formula_units_Z   2
loop_
 _symmetry_equiv_pos_site_id
 _symmetry_equiv_pos_as_xyz
  1  'x, y, z'
loop_
 _atom_site_type_symbol
 _atom_site_label
 _atom_site_symmetry_multiplicity
 _atom_site_fract_x
 _atom_site_fract_y
 _atom_site_fract_z
 _atom_site_occupancy
  Li  Li0  1  0.02366396  0.02407512  0.74923549  1
  Li  Li1  1  0.97592488  0.97633604  0.24923549  1
  Cu  Cu2  1  0.06162055  0.62193259  0.63823246  1
  Cu  Cu3  1  0.37806741  0.93837945  0.13823246  1
  Cu  Cu4  1  0.75049964  0.75016032  0.75266499  1
  Cu  Cu5  1  0.49857454  0.50450211  0.50502593  1
  Cu  Cu6  1  0.24983968  0.24950036  0.25266499  1
  Cu  Cu7  1  0.49549789  0.50142546  0.00502593  1
  Cu  Cu8  1  0.62082411  0.06567628  0.85862454  1
  Cu  Cu9  1  0.93432372  0.37917589  0.35862454  1
  P  P10  1  0.33639176  0.87315519  0.63931948  1
  P  P11  1  0.12684481  0.66360824  0.13931948  1
  P  P12  1  0.29489115  0.29750864  0.75121399  1
  P  P13  1  0.70249136  0.70510885  0.25121399  1
  P  P14  1  0.87182937  0.33857027  0.86144916  1
  P  P15  1  0.66142973  0.12817063  0.36144916  1
  O  O16  1  0.39581795  0.96187720  0.82055378  1
  O  O17  1  0.15505368  0.84667857  0.60546410  1
  O  O18  1  0.03812280  0.60418205  0.32055378  1
  O  O19  1  0.15332143  0.84494632  0.10546410  1
  O  O20  1  0.66287885  0.00326502  0.60000798  1
  O  O21  1  0.46124824  0.71130372  0.72001993  1
  O  O22  1  0.27878618  0.47278456  0.77577784  1
  O  O23  1  0.99673498  0.33712115  0.10000798  1
  O  O24  1  0.26622416  0.17979140  0.97269276  1
  O  O25  1  0.17960035  0.26748473  0.52977319  1
  O  O26  1  0.28869628  0.53875176  0.22001993  1
  O  O27  1  0.52721544  0.72121382  0.27577784  1
  O  O28  1  0.47091772  0.28586791  0.72930808  1
  O  O29  1  0.71274208  0.46594894  0.78462483  1
  O  O30  1  0.82020860  0.73377584  0.47269276  1
  O  O31  1  0.73251527  0.82039965  0.02977319  1
  O  O32  1  0.00374764  0.66331147  0.90092156  1
  O  O33  1  0.71413209  0.52908228  0.22930808  1
  O  O34  1  0.53405106  0.28725792  0.28462483  1
  O  O35  1  0.33668853  0.99625236  0.40092156  1
  O  O36  1  0.84237668  0.15796092  0.89560133  1
  O  O37  1  0.95919537  0.39496806  0.67871057  1
  O  O38  1  0.84203908  0.15762332  0.39560133  1
  O  O39  1  0.60503194  0.04080463  0.17871057  1
