# generated using pymatgen
data_Li6Ni3P6WO24
_symmetry_space_group_name_H-M   'P 1'
_cell_length_a   8.69906253
_cell_length_b   8.75355676
_cell_length_c   8.75449128
_cell_angle_alpha   60.48115721
_cell_angle_beta   60.29935075
_cell_angle_gamma   60.52766816
_symmetry_Int_Tables_number   1
_chemical_formula_structural   Li6Ni3P6WO24
_chemical_formula_sum   'Li6 Ni3 P6 W1 O24'
_cell_volume   476.02510616
_cell_formula_units_Z   1
loop_
 _symmetry_equiv_pos_site_id
 _symmetry_equiv_pos_as_xyz
  1  'x, y, z'
loop_
 _atom_site_type_symbol
 _atom_site_label
 _atom_site_symmetry_multiplicity
 _atom_site_fract_x
 _atom_site_fract_y
 _atom_site_fract_z
 _atom_site_occupancy
  Li  Li0  1  0.03825522  0.02595252  0.01777032  1
  Li  Li1  1  0.75114956  0.15580956  0.35156629  1
  Li  Li2  1  0.47071620  0.49778858  0.48913146  1
  Li  Li3  1  0.31915839  0.84194283  0.63427861  1
  Li  Li4  1  0.63343833  0.32431931  0.83911017  1
  Li  Li5  1  0.84354855  0.63446416  0.31933391  1
  Ni  Ni6  1  0.14567654  0.14957345  0.14308278  1
  Ni  Ni7  1  0.35533315  0.36243332  0.35163442  1
  Ni  Ni8  1  0.64823860  0.64925923  0.64824798  1
  P  P9  1  0.04733584  0.74730794  0.44153220  1
  P  P10  1  0.44583811  0.04894130  0.74219376  1
  P  P11  1  0.74524774  0.44546129  0.04529505  1
  P  P12  1  0.24925838  0.53766263  0.95976257  1
  P  P13  1  0.54092134  0.96242154  0.25100961  1
  P  P14  1  0.95600575  0.24818691  0.53400491  1
  W  W15  1  0.85258161  0.85044267  0.85310216  1
  O  O16  1  0.13143220  0.26362281  0.51290832  1
  O  O17  1  0.26802254  0.53228559  0.12520112  1
  O  O18  1  0.04798215  0.92201650  0.27056404  1
  O  O19  1  0.54937913  0.12086762  0.27218539  1
  O  O20  1  0.23379172  0.59466661  0.44511939  1
  O  O21  1  0.97612127  0.81227702  0.61846435  1
  O  O22  1  0.26464613  0.08146134  0.90024427  1
  O  O23  1  0.48056524  0.22095887  0.57282569  1
  O  O24  1  0.58984711  0.44886187  0.23306272  1
  O  O25  1  0.19491225  0.38585477  0.98757183  1
  O  O26  1  0.08684495  0.73750432  0.90503344  1
  O  O27  1  0.37924313  0.00362535  0.20250136  1
  O  O28  1  0.61694739  0.97255908  0.81782599  1
  O  O29  1  0.90351949  0.26048100  0.07272419  1
  O  O30  1  0.81686521  0.61356485  0.98040237  1
  O  O31  1  0.41506247  0.56264230  0.77259443  1
  O  O32  1  0.56276211  0.77471635  0.41409970  1
  O  O33  1  0.73732662  0.90567130  0.08538460  1
  O  O34  1  0.96547391  0.19799356  0.38598940  1
  O  O35  1  0.77286879  0.41464162  0.56417696  1
  O  O36  1  0.47513987  0.89358458  0.68766741  1
  O  O37  1  0.90756136  0.08455807  0.73403978  1
  O  O38  1  0.68602831  0.47914322  0.89224454  1
  O  O39  1  0.89495433  0.68347317  0.47711351  1
