# generated using pymatgen
data_Li2CoP2O7
_symmetry_space_group_name_H-M   'P 1'
_cell_length_a   8.25535980
_cell_length_b   18.12743407
_cell_length_c   7.89689361
_cell_angle_alpha   90.00000000
_cell_angle_beta   92.77798164
_cell_angle_gamma   90.00000000
_symmetry_Int_Tables_number   1
_chemical_formula_structural   Li2CoP2O7
_chemical_formula_sum   'Li16 Co8 P16 O56'
_cell_volume   1180.36944907
_cell_formula_units_Z   8
loop_
 _symmetry_equiv_pos_site_id
 _symmetry_equiv_pos_as_xyz
  1  'x, y, z'
loop_
 _atom_site_type_symbol
 _atom_site_label
 _atom_site_symmetry_multiplicity
 _atom_site_fract_x
 _atom_site_fract_y
 _atom_site_fract_z
 _atom_site_occupancy
  Li  Li0  1  0.01075888  0.54288529  0.64766294  1
  Li  Li1  1  0.00754334  0.30315613  0.15500792  1
  Li  Li2  1  0.05893150  0.78362975  0.38213549  1
  Li  Li3  1  0.11017428  0.10308469  0.66820324  1
  Li  Li4  1  0.12626278  0.57519908  0.09320174  1
  Li  Li5  1  0.25634226  0.36785450  0.38605380  1
  Li  Li6  1  0.26654631  0.94393697  0.11422354  1
  Li  Li7  1  0.51910466  0.18494508  0.81284277  1
  Li  Li8  1  0.48089534  0.68494508  0.18715723  1
  Li  Li9  1  0.73345369  0.44393697  0.88577646  1
  Li  Li10  1  0.74365774  0.86785450  0.61394620  1
  Li  Li11  1  0.87373722  0.07519908  0.90679826  1
  Li  Li12  1  0.88982572  0.60308469  0.33179676  1
  Li  Li13  1  0.94106850  0.28362975  0.61786451  1
  Li  Li14  1  0.99245666  0.80315613  0.84499208  1
  Li  Li15  1  0.98924112  0.04288529  0.35233706  1
  Co  Co16  1  0.42452322  0.53578022  0.88878230  1
  Co  Co17  1  0.41622698  0.79088521  0.57807446  1
  Co  Co18  1  0.40643614  0.29263910  0.09293450  1
  Co  Co19  1  0.39390264  0.04162691  0.41735994  1
  Co  Co20  1  0.60609736  0.54162691  0.58264006  1
  Co  Co21  1  0.59356386  0.79263910  0.90706550  1
  Co  Co22  1  0.58377302  0.29088521  0.42192554  1
  Co  Co23  1  0.57547678  0.03578022  0.11121770  1
  P  P24  1  0.13959858  0.41279775  0.93470549  1
  P  P25  1  0.13520898  0.91982624  0.55314494  1
  P  P26  1  0.25134389  0.63220206  0.55395164  1
  P  P27  1  0.21225633  0.20060936  0.38145916  1
  P  P28  1  0.24608412  0.69845595  0.89793306  1
  P  P29  1  0.23277087  0.13067803  0.04902843  1
  P  P30  1  0.42730104  0.37207333  0.73752839  1
  P  P31  1  0.42531719  0.95260603  0.76601761  1
  P  P32  1  0.57468281  0.45260603  0.23398239  1
  P  P33  1  0.57269896  0.87207333  0.26247161  1
  P  P34  1  0.76722913  0.63067803  0.95097157  1
  P  P35  1  0.75391588  0.19845595  0.10206694  1
  P  P36  1  0.78774367  0.70060936  0.61854084  1
  P  P37  1  0.74865611  0.13220206  0.44604836  1
  P  P38  1  0.86479102  0.41982624  0.44685506  1
  P  P39  1  0.86040142  0.91279775  0.06529451  1
  O  O40  1  0.96056330  0.40970807  0.88570271  1
  O  O41  1  0.95926947  0.91095161  0.59124305  1
  O  O42  1  0.11152583  0.59284261  0.45601442  1
  O  O43  1  0.08073745  0.24823159  0.45044042  1
  O  O44  1  0.10594123  0.09748469  0.92337248  1
  O  O45  1  0.16554993  0.65866246  0.72670482  1
  O  O46  1  0.11325845  0.73739320  0.98682644  1
  O  O47  1  0.13363617  0.16605838  0.20330533  1
  O  O48  1  0.20213286  0.49291103  0.96447189  1
  O  O49  1  0.21431060  0.84902766  0.48563580  1
  O  O50  1  0.16854048  0.98783456  0.44056217  1
  O  O51  1  0.19070294  0.35766051  0.07761865  1
  O  O52  1  0.23585444  0.38541842  0.77064840  1
  O  O53  1  0.23080844  0.93678967  0.73478961  1
  O  O54  1  0.33120985  0.19118714  0.96491604  1
  O  O55  1  0.26388495  0.13590718  0.49910616  1
  O  O56  1  0.32234170  0.63568867  0.01070671  1
  O  O57  1  0.31748243  0.69736010  0.45435142  1
  O  O58  1  0.38181428  0.57994395  0.63307510  1
  O  O59  1  0.35489725  0.24547756  0.31979602  1
  O  O60  1  0.37028335  0.75098788  0.82450784  1
  O  O61  1  0.33745742  0.07242487  0.14854658  1
  O  O62  1  0.41291352  0.33114718  0.57009849  1
  O  O63  1  0.43775082  0.97105216  0.95254811  1
  O  O64  1  0.52688213  0.51678219  0.34587255  1
  O  O65  1  0.51046165  0.44793965  0.72480603  1
  O  O66  1  0.48559427  0.38006785  0.27024136  1
  O  O67  1  0.50635073  0.32455251  0.87765025  1
  O  O68  1  0.49364927  0.82455251  0.12234975  1
  O  O69  1  0.51440573  0.88006785  0.72975864  1
  O  O70  1  0.48953835  0.94793965  0.27519397  1
  O  O71  1  0.47311787  0.01678219  0.65412745  1
  O  O72  1  0.56224918  0.47105216  0.04745189  1
  O  O73  1  0.58708648  0.83114718  0.42990151  1
  O  O74  1  0.66254258  0.57242487  0.85145442  1
  O  O75  1  0.62971665  0.25098788  0.17549216  1
  O  O76  1  0.64510275  0.74547756  0.68020398  1
  O  O77  1  0.61818572  0.07994395  0.36692490  1
  O  O78  1  0.68251757  0.19736010  0.54564858  1
  O  O79  1  0.67765830  0.13568867  0.98929329  1
  O  O80  1  0.73611505  0.63590718  0.50089384  1
  O  O81  1  0.66879015  0.69118714  0.03508396  1
  O  O82  1  0.76919156  0.43678967  0.26521039  1
  O  O83  1  0.76414556  0.88541842  0.22935160  1
  O  O84  1  0.80929706  0.85766051  0.92238135  1
  O  O85  1  0.83145952  0.48783456  0.55943783  1
  O  O86  1  0.78568940  0.34902766  0.51436420  1
  O  O87  1  0.79786714  0.99291103  0.03552811  1
  O  O88  1  0.86636383  0.66605838  0.79669467  1
  O  O89  1  0.88674155  0.23739320  0.01317356  1
  O  O90  1  0.83445007  0.15866246  0.27329518  1
  O  O91  1  0.89405877  0.59748569  0.07662752  1
  O  O92  1  0.91926255  0.74823159  0.54955958  1
  O  O93  1  0.88847417  0.09284261  0.54398558  1
  O  O94  1  0.04073053  0.41095161  0.40875695  1
  O  O95  1  0.03943670  0.90970807  0.11429729  1
