# generated using pymatgen
data_LiFePO4
_symmetry_space_group_name_H-M   'P 1'
_cell_length_a   13.70534643
_cell_length_b   5.10857558
_cell_length_c   18.19259237
_cell_angle_alpha   90.00000000
_cell_angle_beta   92.59657172
_cell_angle_gamma   90.00000000
_symmetry_Int_Tables_number   1
_chemical_formula_structural   LiFePO4
_chemical_formula_sum   'Li16 Fe16 P16 O64'
_cell_volume   1272.44289942
_cell_formula_units_Z   16
loop_
 _symmetry_equiv_pos_site_id
 _symmetry_equiv_pos_as_xyz
  1  'x, y, z'
loop_
 _atom_site_type_symbol
 _atom_site_label
 _atom_site_symmetry_multiplicity
 _atom_site_fract_x
 _atom_site_fract_y
 _atom_site_fract_z
 _atom_site_occupancy
  Li  Li0  1  0.13756328  0.21035246  0.94066784  1
  Li  Li1  1  0.16912302  0.77930864  0.72464095  1
  Li  Li2  1  0.27450366  0.14310969  0.62202267  1
  Li  Li3  1  0.27284066  0.28591212  0.11517755  1
  Li  Li4  1  0.22715934  0.78591212  0.38482245  1
  Li  Li5  1  0.22549634  0.64310969  0.87797733  1
  Li  Li6  1  0.33087698  0.27930864  0.77535905  1
  Li  Li7  1  0.36243672  0.71035246  0.55933216  1
  Li  Li8  1  0.63756328  0.28964754  0.44066784  1
  Li  Li9  1  0.66912302  0.72069136  0.22464095  1
  Li  Li10  1  0.77450366  0.35689031  0.12202267  1
  Li  Li11  1  0.77284066  0.21408788  0.61517755  1
  Li  Li12  1  0.72715934  0.71408788  0.88482245  1
  Li  Li13  1  0.72549634  0.85689031  0.37797733  1
  Li  Li14  1  0.83087698  0.22069136  0.27535905  1
  Li  Li15  1  0.86243672  0.78964754  0.05933216  1
  Fe  Fe16  1  0.00683678  0.24301613  0.12291544  1
  Fe  Fe17  1  0.00468447  0.74961322  0.37551060  1
  Fe  Fe18  1  0.10802529  0.74540321  0.19027405  1
  Fe  Fe19  1  0.11275871  0.29691206  0.44911739  1
  Fe  Fe20  1  0.38724129  0.79691206  0.05088261  1
  Fe  Fe21  1  0.39197471  0.24540321  0.30972595  1
  Fe  Fe22  1  0.49531553  0.24961322  0.12448940  1
  Fe  Fe23  1  0.49316322  0.74301613  0.37708456  1
  Fe  Fe24  1  0.50683678  0.25698387  0.62291544  1
  Fe  Fe25  1  0.50468447  0.75038678  0.87551060  1
  Fe  Fe26  1  0.60802529  0.75459679  0.69027405  1
  Fe  Fe27  1  0.61275871  0.20308794  0.94911739  1
  Fe  Fe28  1  0.88724129  0.70308794  0.55088261  1
  Fe  Fe29  1  0.89197471  0.25459679  0.80972595  1
  Fe  Fe30  1  0.99531553  0.25038678  0.62448940  1
  Fe  Fe31  1  0.99316322  0.75698387  0.87708456  1
  P  P32  1  0.11351164  0.24415885  0.78322314  1
  P  P33  1  0.12181154  0.79993809  0.54429782  1
  P  P34  1  0.13312045  0.69041265  0.03476080  1
  P  P35  1  0.14154633  0.25346315  0.29239752  1
  P  P36  1  0.35845367  0.75346315  0.20760248  1
  P  P37  1  0.36687955  0.19041265  0.46523920  1
  P  P38  1  0.37818846  0.29993809  0.95570218  1
  P  P39  1  0.38648836  0.74415885  0.71677686  1
  P  P40  1  0.61351164  0.25584115  0.28322314  1
  P  P41  1  0.62181154  0.70006191  0.04429782  1
  P  P42  1  0.63312045  0.80958735  0.53476080  1
  P  P43  1  0.64154633  0.24653685  0.79239752  1
  P  P44  1  0.85845367  0.74653685  0.70760248  1
  P  P45  1  0.86687955  0.30958735  0.96523920  1
  P  P46  1  0.87818846  0.20006191  0.45570218  1
  P  P47  1  0.88648836  0.75584115  0.21677686  1
  O  O48  1  0.02657501  0.40910434  0.81111076  1
  O  O49  1  0.04558152  0.63143813  0.58361561  1
  O  O50  1  0.05944608  0.87453127  0.07276194  1
  O  O51  1  0.08610581  0.09082112  0.54360512  1
  O  O52  1  0.09738519  0.62261924  0.95354523  1
  O  O53  1  0.09206806  0.13127508  0.70476052  1
  O  O54  1  0.09288893  0.14580978  0.21913921  1
  O  O55  1  0.10883988  0.53875199  0.30837712  1
  O  O56  1  0.11218838  0.06970053  0.35705982  1
  O  O57  1  0.12881446  0.00292051  0.83537662  1
  O  O58  1  0.12272240  0.70409387  0.46137919  1
  O  O59  1  0.13869771  0.42810793  0.08007090  1
  O  O60  1  0.20027507  0.43786267  0.78131502  1
  O  O61  1  0.22430586  0.78776276  0.58017506  1
  O  O62  1  0.23396905  0.81942659  0.03268625  1
  O  O63  1  0.25213582  0.24331423  0.29058003  1
  O  O64  1  0.24786418  0.74331423  0.20941997  1
  O  O65  1  0.26603095  0.31942659  0.46731375  1
  O  O66  1  0.27569414  0.28776276  0.91982494  1
  O  O67  1  0.29972493  0.93786267  0.71868498  1
  O  O68  1  0.36130229  0.92810793  0.41992910  1
  O  O69  1  0.37727760  0.20409387  0.03862081  1
  O  O70  1  0.37118554  0.50292051  0.66462338  1
  O  O71  1  0.38781162  0.56970053  0.14294018  1
  O  O72  1  0.39116012  0.03875199  0.19162288  1
  O  O73  1  0.40793194  0.63127508  0.79523948  1
  O  O74  1  0.40711107  0.64580978  0.28086079  1
  O  O75  1  0.40261481  0.12261924  0.54645477  1
  O  O76  1  0.41389419  0.59082112  0.95639488  1
  O  O77  1  0.44055392  0.37453127  0.42723806  1
  O  O78  1  0.45441848  0.13143813  0.91638439  1
  O  O79  1  0.47342499  0.90910434  0.68888924  1
  O  O80  1  0.52657501  0.09089566  0.31111076  1
  O  O81  1  0.54558152  0.86856187  0.08361561  1
  O  O82  1  0.55944608  0.62546873  0.57276194  1
  O  O83  1  0.58610581  0.40917888  0.04360512  1
  O  O84  1  0.59738519  0.87738076  0.45354523  1
  O  O85  1  0.59288893  0.35419022  0.71913921  1
  O  O86  1  0.59206806  0.36872492  0.20476052  1
  O  O87  1  0.60883988  0.96124801  0.80837712  1
  O  O88  1  0.61218838  0.43029947  0.85705982  1
  O  O89  1  0.62881446  0.49707949  0.33537662  1
  O  O90  1  0.62272240  0.79590613  0.96137919  1
  O  O91  1  0.63869771  0.07189207  0.58007090  1
  O  O92  1  0.70027507  0.06213733  0.28131502  1
  O  O93  1  0.72430586  0.71223724  0.08017506  1
  O  O94  1  0.73396905  0.68057341  0.53268625  1
  O  O95  1  0.75213582  0.25668577  0.79058003  1
  O  O96  1  0.74786418  0.75668577  0.70941997  1
  O  O97  1  0.76603095  0.18057341  0.96731375  1
  O  O98  1  0.77569414  0.21223724  0.41982494  1
  O  O99  1  0.79972493  0.56213733  0.21868498  1
  O  O100  1  0.86130229  0.57189207  0.91992910  1
  O  O101  1  0.87727760  0.29590613  0.53862081  1
  O  O102  1  0.87118554  0.99707949  0.16462338  1
  O  O103  1  0.88781162  0.93029947  0.64294018  1
  O  O104  1  0.89116012  0.46124801  0.69162288  1
  O  O105  1  0.90711107  0.85419022  0.78086079  1
  O  O106  1  0.90793194  0.86872492  0.29523948  1
  O  O107  1  0.90261481  0.37738076  0.04645477  1
  O  O108  1  0.91389419  0.90917888  0.45639488  1
  O  O109  1  0.94055392  0.12546873  0.92723806  1
  O  O110  1  0.95441848  0.36856187  0.41638439  1
  O  O111  1  0.97342499  0.59089566  0.18888924  1
