# generated using pymatgen
data_CrHSe3O8
_symmetry_space_group_name_H-M   'P 1'
_cell_length_a   7.63475584
_cell_length_b   12.16198667
_cell_length_c   8.12785611
_cell_angle_alpha   90.00000000
_cell_angle_beta   86.04775990
_cell_angle_gamma   90.00000000
_symmetry_Int_Tables_number   1
_chemical_formula_structural   CrHSe3O8
_chemical_formula_sum   'Cr4 H4 Se12 O32'
_cell_volume   752.90752028
_cell_formula_units_Z   4
loop_
 _symmetry_equiv_pos_site_id
 _symmetry_equiv_pos_as_xyz
  1  'x, y, z'
loop_
 _atom_site_type_symbol
 _atom_site_label
 _atom_site_symmetry_multiplicity
 _atom_site_fract_x
 _atom_site_fract_y
 _atom_site_fract_z
 _atom_site_occupancy
  Cr  Cr0  1  0.11951908  0.17470201  0.12444669  1
  Cr  Cr1  1  0.38048092  0.67470201  0.37555331  1
  Cr  Cr2  1  0.61951908  0.32529799  0.62444669  1
  Cr  Cr3  1  0.88048092  0.82529799  0.87555331  1
  H  H4  1  0.03779128  0.68092663  0.65299609  1
  H  H5  1  0.46220872  0.18092663  0.84700391  1
  H  H6  1  0.53779128  0.81907337  0.15299609  1
  H  H7  1  0.96220872  0.31907337  0.34700391  1
  Se  Se8  1  0.03860552  0.84193749  0.47678883  1
  Se  Se9  1  0.06048194  0.62602392  0.07961364  1
  Se  Se10  1  0.24786512  0.95345761  0.90898283  1
  Se  Se11  1  0.25213488  0.45345761  0.59101717  1
  Se  Se12  1  0.43951806  0.12602392  0.42038636  1
  Se  Se13  1  0.46139448  0.34193749  0.02321117  1
  Se  Se14  1  0.53860552  0.65806251  0.97678883  1
  Se  Se15  1  0.56048194  0.87397608  0.57961364  1
  Se  Se16  1  0.74786512  0.54654239  0.40898283  1
  Se  Se17  1  0.75213488  0.04654239  0.09101717  1
  Se  Se18  1  0.93951806  0.37397608  0.92038636  1
  Se  Se19  1  0.96139448  0.15806251  0.52321117  1
  O  O20  1  0.09073069  0.23740223  0.62380984  1
  O  O21  1  0.03383841  0.75927267  0.68522725  1
  O  O22  1  0.11830469  0.45729407  0.78406965  1
  O  O23  1  0.27357320  0.09085900  0.95337494  1
  O  O24  1  0.04321751  0.95414468  0.83232664  1
  O  O25  1  0.03645092  0.76348865  0.04964646  1
  O  O26  1  0.26689583  0.11230130  0.30370282  1
  O  O27  1  0.24901243  0.31450306  0.09524905  1
  O  O28  1  0.25098757  0.81450306  0.40475095  1
  O  O29  1  0.23310417  0.61230130  0.19629718  1
  O  O30  1  0.46354908  0.26348865  0.45035354  1
  O  O31  1  0.45678249  0.45414468  0.66767336  1
  O  O32  1  0.22642680  0.59085900  0.54662506  1
  O  O33  1  0.38169531  0.95729407  0.71593035  1
  O  O34  1  0.46616159  0.25927267  0.81477275  1
  O  O35  1  0.40926931  0.73740223  0.87619016  1
  O  O36  1  0.59073069  0.26259777  0.12380984  1
  O  O37  1  0.53383841  0.74072733  0.18522725  1
  O  O38  1  0.61830469  0.04270593  0.28406965  1
  O  O39  1  0.77357320  0.40914100  0.45337494  1
  O  O40  1  0.54321751  0.54585532  0.33232664  1
  O  O41  1  0.53645092  0.73651135  0.54964646  1
  O  O42  1  0.76689583  0.38769870  0.80370282  1
  O  O43  1  0.74901243  0.18549694  0.59524905  1
  O  O44  1  0.75098757  0.68549694  0.90475095  1
  O  O45  1  0.73310417  0.88769870  0.69629718  1
  O  O46  1  0.96354908  0.23651135  0.95035354  1
  O  O47  1  0.95678249  0.04585532  0.16767336  1
  O  O48  1  0.72642680  0.90914100  0.04662506  1
  O  O49  1  0.88169531  0.54270593  0.21593035  1
  O  O50  1  0.96616159  0.24072733  0.31477275  1
  O  O51  1  0.90926931  0.76259777  0.37619016  1
