# generated using pymatgen
data_LiCoPO4
_symmetry_space_group_name_H-M   'P 1'
_cell_length_a   7.58550629
_cell_length_b   7.58596297
_cell_length_c   9.71994999
_cell_angle_alpha   90.00204364
_cell_angle_beta   89.99897464
_cell_angle_gamma   120.00199483
_symmetry_Int_Tables_number   1
_chemical_formula_structural   LiCoPO4
_chemical_formula_sum   'Li6 Co6 P6 O24'
_cell_volume   484.37444623
_cell_formula_units_Z   6
loop_
 _symmetry_equiv_pos_site_id
 _symmetry_equiv_pos_as_xyz
  1  'x, y, z'
loop_
 _atom_site_type_symbol
 _atom_site_label
 _atom_site_symmetry_multiplicity
 _atom_site_fract_x
 _atom_site_fract_y
 _atom_site_fract_z
 _atom_site_occupancy
  Li  Li0  1  0.05645791  0.59093591  0.48673197  1
  Li  Li1  1  0.53450921  0.94357994  0.48673367  1
  Li  Li2  1  0.40906781  0.46549915  0.48677329  1
  Li  Li3  1  0.46549079  0.40907073  0.98673367  1
  Li  Li4  1  0.59093219  0.05643134  0.98677329  1
  Li  Li5  1  0.94354209  0.53447800  0.98673197  1
  Co  Co6  1  0.22381094  0.94946456  0.26706805  1
  Co  Co7  1  0.05052406  0.27434396  0.26707348  1
  Co  Co8  1  0.27433178  0.05051007  0.76706575  1
  Co  Co9  1  0.72566822  0.77617829  0.26706575  1
  Co  Co10  1  0.77618906  0.72565462  0.76706805  1
  Co  Co11  1  0.94947594  0.22381890  0.76707348  1
  P  P12  1  0.33335427  0.66669058  0.18582972  1
  P  P13  1  0.00003594  0.00004879  0.00106438  1
  P  P14  1  -0.00003594  0.00001286  0.50106438  1
  P  P15  1  0.33334625  0.66665496  0.76997210  1
  P  P16  1  0.66664573  0.33333531  0.68582972  1
  P  P17  1  0.66665375  0.33330970  0.26997210  1
  O  O18  1  0.08543281  0.86492580  0.44927364  1
  O  O19  1  0.19073034  0.74441025  0.13104882  1
  O  O20  1  0.37686418  0.87643507  0.82854780  1
  O  O21  1  0.12360108  0.50045508  0.82854872  1
  O  O22  1  0.25557935  0.44628115  0.13105238  1
  O  O23  1  0.33331294  0.66666386  0.34430922  1
  O  O24  1  0.00000749  0.00001888  0.16588761  1
  O  O25  1  0.99999251  0.00001139  0.66588761  1
  O  O26  1  0.33334788  0.66665698  0.61201677  1
  O  O27  1  0.13506747  0.22049601  0.44927554  1
  O  O28  1  0.22047268  0.13505680  0.94927340  1
  O  O29  1  0.55368776  0.80925269  0.13106533  1
  O  O30  1  0.49956488  0.62317149  0.82855635  1
  O  O31  1  0.77952732  0.91458312  0.44927340  1
  O  O32  1  0.44631224  0.25556493  0.63106533  1
  O  O33  1  0.50043512  0.12360662  0.32855635  1
  O  O34  1  0.62313582  0.49957089  0.32854780  1
  O  O35  1  0.80926966  0.55367991  0.63104882  1
  O  O36  1  0.66668706  0.33335092  0.84430922  1
  O  O37  1  0.66665212  0.33331011  0.11201677  1
  O  O38  1  0.91456719  0.77949299  0.94927364  1
  O  O39  1  0.74442065  0.19070181  0.63105238  1
  O  O40  1  0.87639892  0.37685400  0.32854872  1
  O  O41  1  0.86493253  0.08542955  0.94927554  1
