# generated using pymatgen
data_SrFeAsF
_symmetry_space_group_name_H-M   'P 1'
_cell_length_a   4.14112841
_cell_length_b   4.17369856
_cell_length_c   9.37233196
_cell_angle_alpha   90.00000000
_cell_angle_beta   90.00000000
_cell_angle_gamma   90.13519016
_symmetry_Int_Tables_number   1
_chemical_formula_structural   SrFeAsF
_chemical_formula_sum   'Sr2 Fe2 As2 F2'
_cell_volume   161.98926334
_cell_formula_units_Z   2
loop_
 _symmetry_equiv_pos_site_id
 _symmetry_equiv_pos_as_xyz
  1  'x, y, z'
loop_
 _atom_site_type_symbol
 _atom_site_label
 _atom_site_symmetry_multiplicity
 _atom_site_fract_x
 _atom_site_fract_y
 _atom_site_fract_z
 _atom_site_occupancy
  Sr  Sr0  1  0.75000000  0.25000000  0.14935579  1
  Sr  Sr1  1  0.25000000  0.75000000  0.85064421  1
  Fe  Fe2  1  0.75000000  0.75000000  0.50164645  1
  Fe  Fe3  1  0.25000000  0.25000000  0.49835355  1
  As  As4  1  0.75000000  0.25000000  0.67276158  1
  As  As5  1  0.25000000  0.75000000  0.32723842  1
  F  F6  1  0.75000000  0.75000000  0.00066288  1
  F  F7  1  0.25000000  0.25000000  0.99933712  1
