# generated using pymatgen
data_Li2MnSi3O8
_symmetry_space_group_name_H-M   'P 1'
_cell_length_a   6.77467151
_cell_length_b   10.20353312
_cell_length_c   5.05444627
_cell_angle_alpha   90.00000000
_cell_angle_beta   90.33710380
_cell_angle_gamma   90.00000000
_symmetry_Int_Tables_number   1
_chemical_formula_structural   Li2MnSi3O8
_chemical_formula_sum   'Li4 Mn2 Si6 O16'
_cell_volume   349.38550870
_cell_formula_units_Z   2
loop_
 _symmetry_equiv_pos_site_id
 _symmetry_equiv_pos_as_xyz
  1  'x, y, z'
loop_
 _atom_site_type_symbol
 _atom_site_label
 _atom_site_symmetry_multiplicity
 _atom_site_fract_x
 _atom_site_fract_y
 _atom_site_fract_z
 _atom_site_occupancy
  Li  Li0  1  0.00543307  0.14541012  0.18695170  1
  Li  Li1  1  0.49456693  0.64541012  0.31304830  1
  Li  Li2  1  0.49792305  0.34340186  0.65300295  1
  Li  Li3  1  0.00207695  0.84340186  0.84699705  1
  Mn  Mn4  1  0.50819000  0.16445530  0.15723698  1
  Mn  Mn5  1  0.99181000  0.66445530  0.34276302  1
  Si  Si6  1  0.97713445  0.33579244  0.70253202  1
  Si  Si7  1  0.27006154  0.91156769  0.28940097  1
  Si  Si8  1  0.22993846  0.41156769  0.21059903  1
  Si  Si9  1  0.52286555  0.83579244  0.79746798  1
  Si  Si10  1  0.77414938  0.59356901  0.84802162  1
  Si  Si11  1  0.72585062  0.09356901  0.65197838  1
  O  O12  1  0.06130476  0.84680894  0.21804615  1
  O  O13  1  0.04798537  0.33895312  0.39106812  1
  O  O14  1  0.33617159  0.87542518  0.60469617  1
  O  O15  1  0.24234895  0.56554539  0.26156699  1
  O  O16  1  0.16382841  0.37542618  0.89530383  1
  O  O17  1  0.25765105  0.06554539  0.23843301  1
  O  O18  1  0.45201463  0.83895312  0.10893188  1
  O  O19  1  0.43869524  0.34680894  0.28195385  1
  O  O20  1  0.58284846  0.68262021  0.71322980  1
  O  O21  1  0.52960248  0.16537110  0.75190206  1
  O  O22  1  0.71935488  0.93479798  0.76105740  1
  O  O23  1  0.73922650  0.59628064  0.16202701  1
  O  O24  1  0.78064512  0.43479798  0.73894260  1
  O  O25  1  0.76077350  0.09628064  0.33797299  1
  O  O26  1  0.97039752  0.66537110  0.74809794  1
  O  O27  1  0.91715154  0.18262021  0.78677020  1
