# generated using pymatgen
data_LiFePO4
_symmetry_space_group_name_H-M   'P 1'
_cell_length_a   7.68488954
_cell_length_b   13.98183876
_cell_length_c   5.80452627
_cell_angle_alpha   90.00000000
_cell_angle_beta   90.00000000
_cell_angle_gamma   90.00000000
_symmetry_Int_Tables_number   1
_chemical_formula_structural   LiFePO4
_chemical_formula_sum   'Li8 Fe8 P8 O32'
_cell_volume   623.68988400
_cell_formula_units_Z   8
loop_
 _symmetry_equiv_pos_site_id
 _symmetry_equiv_pos_as_xyz
  1  'x, y, z'
loop_
 _atom_site_type_symbol
 _atom_site_label
 _atom_site_symmetry_multiplicity
 _atom_site_fract_x
 _atom_site_fract_y
 _atom_site_fract_z
 _atom_site_occupancy
  Li  Li0  1  0.17175629  0.52706059  0.41500075  1
  Li  Li1  1  0.17175629  0.97293941  0.91500075  1
  Li  Li2  1  0.32824371  0.02706059  0.41500075  1
  Li  Li3  1  0.32824371  0.47293941  0.91500075  1
  Li  Li4  1  0.67175629  0.52706059  0.08499925  1
  Li  Li5  1  0.67175629  0.97293941  0.58499925  1
  Li  Li6  1  0.82824371  0.02706059  0.08499925  1
  Li  Li7  1  0.82824371  0.47293941  0.58499925  1
  Fe  Fe8  1  0.18411492  0.21843319  0.15964697  1
  Fe  Fe9  1  0.18411492  0.28156681  0.65964697  1
  Fe  Fe10  1  0.31588508  0.78156681  0.65964697  1
  Fe  Fe11  1  0.31588508  0.71843319  0.15964697  1
  Fe  Fe12  1  0.68411492  0.21843319  0.34035303  1
  Fe  Fe13  1  0.68411492  0.28156681  0.84035303  1
  Fe  Fe14  1  0.81588508  0.71843319  0.34035303  1
  Fe  Fe15  1  0.81588508  0.78156681  0.84035303  1
  P  P16  1  0.04056577  0.62651347  0.89492754  1
  P  P17  1  0.04056577  0.87348653  0.39492754  1
  P  P18  1  0.45943423  0.12651247  0.89492754  1
  P  P19  1  0.45943423  0.37348653  0.39492754  1
  P  P20  1  0.54056577  0.62651347  0.60507246  1
  P  P21  1  0.54056577  0.87348653  0.10507246  1
  P  P22  1  0.95943423  0.12651247  0.60507246  1
  P  P23  1  0.95943423  0.37348653  0.10507246  1
  O  O24  1  0.97638478  0.06147528  0.81321796  1
  O  O25  1  0.97638478  0.43852472  0.31321796  1
  O  O26  1  0.08548324  0.76685772  0.32368570  1
  O  O27  1  0.08548324  0.73314228  0.82368570  1
  O  O28  1  0.14005585  0.14231361  0.48143576  1
  O  O29  1  0.14005585  0.35768639  0.98143576  1
  O  O30  1  0.18350283  0.59296928  0.06705578  1
  O  O31  1  0.18350283  0.90703072  0.56705578  1
  O  O32  1  0.31649717  0.09296928  0.06705578  1
  O  O33  1  0.31649717  0.40703072  0.56705578  1
  O  O34  1  0.35994415  0.64231361  0.48143576  1
  O  O35  1  0.35994415  0.85768639  0.98143576  1
  O  O36  1  0.41451676  0.23314228  0.82368570  1
  O  O37  1  0.41451676  0.26685772  0.32368570  1
  O  O38  1  0.52361522  0.56147528  0.81321796  1
  O  O39  1  0.52361522  0.93852472  0.31321796  1
  O  O40  1  0.47638478  0.43852472  0.18678204  1
  O  O41  1  0.47638478  0.06147528  0.68678204  1
  O  O42  1  0.58548324  0.73314228  0.67631430  1
  O  O43  1  0.58548324  0.76685772  0.17631430  1
  O  O44  1  0.64005585  0.14231361  0.01856424  1
  O  O45  1  0.64005585  0.35768639  0.51856424  1
  O  O46  1  0.68350283  0.59296928  0.43294422  1
  O  O47  1  0.68350283  0.90703072  0.93294422  1
  O  O48  1  0.81649717  0.09296928  0.43294422  1
  O  O49  1  0.81649717  0.40703072  0.93294422  1
  O  O50  1  0.85994415  0.64231361  0.01856424  1
  O  O51  1  0.85994415  0.85768639  0.51856424  1
  O  O52  1  0.91451676  0.23314228  0.67631430  1
  O  O53  1  0.91451676  0.26685772  0.17631430  1
  O  O54  1  0.02361522  0.56147528  0.68678204  1
  O  O55  1  0.02361522  0.93852472  0.18678204  1
