# generated using pymatgen
data_LiFe(SiO3)2
_symmetry_space_group_name_H-M   'P 1'
_cell_length_a   11.20591891
_cell_length_b   11.20591891
_cell_length_c   11.20591891
_cell_angle_alpha   113.65490615
_cell_angle_beta   113.65490615
_cell_angle_gamma   101.39349320
_symmetry_Int_Tables_number   1
_chemical_formula_structural   LiFe(SiO3)2
_chemical_formula_sum   'Li8 Fe8 Si16 O48'
_cell_volume   1067.40616574
_cell_formula_units_Z   8
loop_
 _symmetry_equiv_pos_site_id
 _symmetry_equiv_pos_as_xyz
  1  'x, y, z'
loop_
 _atom_site_type_symbol
 _atom_site_label
 _atom_site_symmetry_multiplicity
 _atom_site_fract_x
 _atom_site_fract_y
 _atom_site_fract_z
 _atom_site_occupancy
  Li  Li0  1  0.74775950  0.29075021  0.25675382  1
  Li  Li1  1  0.00899432  0.75224050  0.04299071  1
  Li  Li2  1  0.79075021  0.03399639  0.54299071  1
  Li  Li3  1  0.53399639  0.49100568  0.24324618  1
  Li  Li4  1  0.46600361  0.50899432  0.75675382  1
  Li  Li5  1  0.20924979  0.96600361  0.45700929  1
  Li  Li6  1  0.99100568  0.24775950  0.95700929  1
  Li  Li7  1  0.25224050  0.70924979  0.74324618  1
  Fe  Fe8  1  0.00565063  0.04066052  0.27740378  1
  Fe  Fe9  1  0.54066052  0.76325674  0.03500989  1
  Fe  Fe10  1  0.77175315  0.49434937  0.53500989  1
  Fe  Fe11  1  0.73674326  0.27175315  0.77740378  1
  Fe  Fe12  1  0.26325674  0.72824685  0.22259622  1
  Fe  Fe13  1  0.45933948  0.23674326  0.96499011  1
  Fe  Fe14  1  0.22824685  0.50565063  0.46499011  1
  Fe  Fe15  1  0.99434937  0.95933948  0.72259622  1
  Si  Si16  1  0.70957316  0.47819917  0.03413735  1
  Si  Si17  1  0.25349209  0.15654829  0.07393442  1
  Si  Si18  1  0.58261387  0.17955667  0.42606558  1
  Si  Si19  1  0.94406182  0.67543681  0.46586265  1
  Si  Si20  1  0.82456319  0.79042684  0.26862601  1
  Si  Si21  1  0.97819917  0.44406182  0.76862601  1
  Si  Si22  1  0.32044333  0.24650791  0.40305721  1
  Si  Si23  1  0.65654829  0.08261387  0.90305721  1
  Si  Si24  1  0.67955667  0.75349209  0.59694279  1
  Si  Si25  1  0.34345171  0.91738613  0.09694279  1
  Si  Si26  1  0.17543681  0.20957316  0.73137399  1
  Si  Si27  1  0.02180083  0.55593818  0.23137399  1
  Si  Si28  1  0.05593818  0.32456319  0.53413735  1
  Si  Si29  1  0.41738613  0.82044333  0.57393442  1
  Si  Si30  1  0.74650791  0.84345171  0.92606558  1
  Si  Si31  1  0.29042684  0.52180083  0.96586265  1
  O  O32  1  0.96470631  0.20298909  0.34889652  1
  O  O33  1  0.84824510  0.44873590  0.12335527  1
  O  O34  1  0.49341034  0.02102854  0.26713980  1
  O  O35  1  0.58604306  0.43542216  0.07196250  1
  O  O36  1  0.39332812  0.27266538  0.10300025  1
  O  O37  1  0.77511018  0.65175490  0.10049080  1
  O  O38  1  0.94873590  0.32537963  0.60049080  1
  O  O39  1  0.66966513  0.29032787  0.39699975  1
  O  O40  1  0.86345866  0.51408057  0.42803750  1
  O  O41  1  0.25388874  0.22627054  0.23286020  1
  O  O42  1  0.90695766  0.88737760  0.06487460  1
  O  O43  1  0.67749700  0.15791694  0.56487460  1
  O  O44  1  0.47897146  0.24611126  0.47238280  1
  O  O45  1  0.72627054  0.99341034  0.97238280  1
  O  O46  1  0.77266538  0.16966513  0.87933726  1
  O  O47  1  0.20967213  0.10667188  0.37933726  1
  O  O48  1  0.82537963  0.72488982  0.37664473  1
  O  O49  1  0.98591943  0.91395694  0.34937909  1
  O  O50  1  0.93542216  0.36345866  0.84937909  1
  O  O51  1  0.70298909  0.85409257  0.23828278  1
  O  O52  1  0.88419021  0.53529369  0.73828278  1
  O  O53  1  0.35409257  0.61580979  0.15110348  1
  O  O54  1  0.65791694  0.59304234  0.48041994  1
  O  O55  1  0.38737760  0.82250300  0.98041994  1
  O  O56  1  0.34208306  0.40695766  0.51958006  1
  O  O57  1  0.61262240  0.17749700  0.01958006  1
  O  O58  1  0.64590743  0.38419021  0.84889652  1
  O  O59  1  0.11580979  0.46470631  0.26171722  1
  O  O60  1  0.29701091  0.14590743  0.76171722  1
  O  O61  1  0.06457784  0.63654134  0.15062091  1
  O  O62  1  0.01408057  0.08604306  0.65062091  1
  O  O63  1  0.17462037  0.27511018  0.62335527  1
  O  O64  1  0.79032787  0.89332812  0.62066274  1
  O  O65  1  0.22733462  0.83033487  0.12066274  1
  O  O66  1  0.52102854  0.75388874  0.52761720  1
  O  O67  1  0.27372946  0.00658966  0.02761720  1
  O  O68  1  0.09304234  0.11262240  0.93512540  1
  O  O69  1  0.32250300  0.84208306  0.43512540  1
  O  O70  1  0.74611126  0.77372946  0.76713980  1
  O  O71  1  0.13654134  0.48591943  0.57196250  1
  O  O72  1  0.33033487  0.70967213  0.60300025  1
  O  O73  1  0.05126410  0.67462037  0.39950920  1
  O  O74  1  0.22488982  0.34824510  0.89950920  1
  O  O75  1  0.60667188  0.72733462  0.89699975  1
  O  O76  1  0.41395694  0.56457784  0.92803750  1
  O  O77  1  0.50658966  0.97897146  0.73286020  1
  O  O78  1  0.15175490  0.55126410  0.87664473  1
  O  O79  1  0.03529369  0.79701091  0.65110348  1
