# generated using pymatgen
data_Cr3Co(PO4)6
_symmetry_space_group_name_H-M   'P 1'
_cell_length_a   8.72989449
_cell_length_b   8.51317673
_cell_length_c   8.51317642
_cell_angle_alpha   60.00000203
_cell_angle_beta   60.81784998
_cell_angle_gamma   60.81785489
_symmetry_Int_Tables_number   1
_chemical_formula_structural   Cr3Co(PO4)6
_chemical_formula_sum   'Cr3 Co1 P6 O24'
_cell_volume   452.83165740
_cell_formula_units_Z   1
loop_
 _symmetry_equiv_pos_site_id
 _symmetry_equiv_pos_as_xyz
  1  'x, y, z'
loop_
 _atom_site_type_symbol
 _atom_site_label
 _atom_site_symmetry_multiplicity
 _atom_site_fract_x
 _atom_site_fract_y
 _atom_site_fract_z
 _atom_site_occupancy
  Cr  Cr0  1  0.07210375  0.64263175  0.64263175  1
  Cr  Cr1  1  0.42578225  0.85807225  0.85807225  1
  Cr  Cr2  1  0.92460192  0.35846636  0.35846636  1
  Co  Co3  1  0.56779721  0.14406793  0.14406793  1
  P  P4  1  0.25285073  0.25028765  0.52854197  1
  P  P5  1  0.25285073  0.96832065  0.25028765  1
  P  P6  1  0.25285073  0.52854197  0.96832065  1
  P  P7  1  0.74701613  0.46276841  0.03499480  1
  P  P8  1  0.74701613  0.03499480  0.75522066  1
  P  P9  1  0.74701613  0.75522066  0.46276841  1
  O  O10  1  0.07626423  0.13854245  0.28003914  1
  O  O11  1  0.07626423  0.50515418  0.13854245  1
  O  O12  1  0.07626423  0.28003914  0.50515418  1
  O  O13  1  0.27000363  0.07469519  0.71200096  1
  O  O14  1  0.23333023  0.42063929  0.56369102  1
  O  O15  1  0.42923559  0.23012663  0.35384890  1
  O  O16  1  0.27000363  0.94330022  0.07469519  1
  O  O17  1  0.23333023  0.78233946  0.42063929  1
  O  O18  1  0.23333023  0.56369102  0.78233946  1
  O  O19  1  0.57279310  0.63586629  0.00932153  1
  O  O20  1  0.73452358  0.27846762  0.05483094  1
  O  O21  1  0.57279310  0.00932153  0.78201809  1
  O  O22  1  0.42923559  0.98678887  0.23012663  1
  O  O23  1  0.27000363  0.71200096  0.94330022  1
  O  O24  1  0.42923559  0.35384890  0.98678887  1
  O  O25  1  0.76385578  0.43386689  0.22020615  1
  O  O26  1  0.76385578  0.22020615  0.58207018  1
  O  O27  1  0.73452358  0.05483094  0.93217886  1
  O  O28  1  0.57279310  0.78201809  0.63586629  1
  O  O29  1  0.76385578  0.58207018  0.43386689  1
  O  O30  1  0.73452358  0.93217886  0.27846762  1
  O  O31  1  0.92336529  0.71963632  0.49140298  1
  O  O32  1  0.92336529  0.49140298  0.86559441  1
  O  O33  1  0.92336529  0.86559441  0.71963632  1
