# generated using pymatgen
data_Li2CoP2O7
_symmetry_space_group_name_H-M   'P 1'
_cell_length_a   4.85411137
_cell_length_b   5.23192941
_cell_length_c   12.19728816
_cell_angle_alpha   109.71774922
_cell_angle_beta   101.42998182
_cell_angle_gamma   62.41055452
_symmetry_Int_Tables_number   1
_chemical_formula_structural   Li2CoP2O7
_chemical_formula_sum   'Li4 Co2 P4 O14'
_cell_volume   258.11901227
_cell_formula_units_Z   2
loop_
 _symmetry_equiv_pos_site_id
 _symmetry_equiv_pos_as_xyz
  1  'x, y, z'
loop_
 _atom_site_type_symbol
 _atom_site_label
 _atom_site_symmetry_multiplicity
 _atom_site_fract_x
 _atom_site_fract_y
 _atom_site_fract_z
 _atom_site_occupancy
  Li  Li0  1  0.37461090  0.86542771  0.16049676  1
  Li  Li1  1  0.07907101  0.63334902  0.33709169  1
  Li  Li2  1  0.92712466  0.36601751  0.66304409  1
  Li  Li3  1  0.62118605  0.13249860  0.83083199  1
  Co  Co4  1  0.00163306  0.50016067  0.99963646  1
  Co  Co5  1  0.50062026  0.00079955  0.49965383  1
  P  P6  1  0.34378505  0.76938396  0.87238207  1
  P  P7  1  0.23917523  0.73213367  0.62849791  1
  P  P8  1  0.76190293  0.26896855  0.37133250  1
  P  P9  1  0.65676405  0.23339812  0.12720056  1
  O  O10  1  0.68048359  0.91564215  0.09489043  1
  O  O11  1  0.34833379  0.98372141  0.66009293  1
  O  O12  1  0.95529227  0.78989424  0.54525155  1
  O  O13  1  0.49900561  0.58610547  0.40347517  1
  O  O14  1  0.11301468  0.74708639  0.75021255  1
  O  O15  1  0.20104242  0.71570362  0.95732142  1
  O  O16  1  0.67243570  0.51857092  0.84007937  1
  O  O17  1  0.32618370  0.48025663  0.15967375  1
  O  O18  1  0.79530565  0.29615005  0.04436888  1
  O  O19  1  0.88722522  0.25105390  0.24922514  1
  O  O20  1  0.50457201  0.41613351  0.59658334  1
  O  O21  1  0.04625104  0.21107186  0.45462312  1
  O  O22  1  0.65112647  0.01876468  0.33998352  1
  O  O23  1  0.32250666  0.08534283  0.90183896  1
