# generated using pymatgen
data_Li5Mn5O12
_symmetry_space_group_name_H-M   'P 1'
_cell_length_a   5.01966299
_cell_length_b   8.88587651
_cell_length_c   9.41587477
_cell_angle_alpha   95.83602241
_cell_angle_beta   95.08070428
_cell_angle_gamma   86.21818544
_symmetry_Int_Tables_number   1
_chemical_formula_structural   Li5Mn5O12
_chemical_formula_sum   'Li10 Mn10 O24'
_cell_volume   415.48032658
_cell_formula_units_Z   2
loop_
 _symmetry_equiv_pos_site_id
 _symmetry_equiv_pos_as_xyz
  1  'x, y, z'
loop_
 _atom_site_type_symbol
 _atom_site_label
 _atom_site_symmetry_multiplicity
 _atom_site_fract_x
 _atom_site_fract_y
 _atom_site_fract_z
 _atom_site_occupancy
  Li  Li0  1  0.00552599  0.82638503  0.48833980  1
  Li  Li1  1  0.74376234  0.91957480  0.00657155  1
  Li  Li2  1  0.61906616  0.46355089  0.24353574  1
  Li  Li3  1  0.63524645  0.13031903  0.25547513  1
  Li  Li4  1  0.48635931  0.66304719  0.49058788  1
  Li  Li5  1  0.51809453  0.31642745  0.48897722  1
  Li  Li6  1  0.26601273  0.08977331  0.01550874  1
  Li  Li7  1  0.24503129  0.43095527  0.01136698  1
  Li  Li8  1  0.11391947  0.96405267  0.25455692  1
  Li  Li9  1  0.10218418  0.62213342  0.24294743  1
  Mn  Mn10  1  0.99299846  0.49132950  0.49577963  1
  Mn  Mn11  1  0.86390440  0.71048462  0.75110408  1
  Mn  Mn12  1  0.88961045  0.03960315  0.74456978  1
  Mn  Mn13  1  0.75110405  0.26275789  0.00364946  1
  Mn  Mn14  1  0.62863140  0.78711594  0.24594125  1
  Mn  Mn15  1  0.48726956  0.99728663  0.49275370  1
  Mn  Mn16  1  0.39436191  0.53918323  0.75001269  1
  Mn  Mn17  1  0.35979737  0.20841732  0.74684739  1
  Mn  Mn18  1  0.24923534  0.75487257  0.00378390  1
  Mn  Mn19  1  0.12944938  0.28780332  0.25278203  1
  O  O20  1  0.93518148  0.41579668  0.12180493  1
  O  O21  1  0.94453566  0.13006373  0.13306973  1
  O  O22  1  0.92914601  0.78576586  0.13910342  1
  O  O23  1  0.83901034  0.33122048  0.38341601  1
  O  O24  1  0.80790942  0.64125919  0.37813941  1
  O  O25  1  0.76601561  0.95705910  0.36772734  1
  O  O26  1  0.72840499  0.87123766  0.63016154  1
  O  O27  1  0.70014131  0.54471094  0.63292366  1
  O  O28  1  0.65731064  0.16094280  0.62275547  1
  O  O29  1  0.56045395  0.70680543  0.85790495  1
  O  O30  1  0.59828982  0.08838085  0.87566725  1
  O  O31  1  0.42785529  0.91534671  0.11492163  1
  O  O32  1  0.42851680  0.62902585  0.13639473  1
  O  O33  1  0.51795349  0.37740607  0.86689671  1
  O  O34  1  0.42470954  0.27381349  0.13291766  1
  O  O35  1  0.33596934  0.82989024  0.38704429  1
  O  O36  1  0.33038923  0.14096641  0.37332814  1
  O  O37  1  0.27334739  0.46247949  0.37235840  1
  O  O38  1  0.23217185  0.37318922  0.63171643  1
  O  O39  1  0.20250425  0.03851758  0.63703071  1
  O  O40  1  0.16851846  0.65937414  0.61957046  1
  O  O41  1  0.10352766  0.58622921  0.87257262  1
  O  O42  1  0.06340393  0.20152990  0.85961650  1
  O  O43  1  0.02186877  0.88014974  0.86882970  1
