# generated using pymatgen
data_Ba8Bi10O27
_symmetry_space_group_name_H-M   'P 1'
_cell_length_a   9.89095017
_cell_length_b   9.89095017
_cell_length_c   9.89095017
_cell_angle_alpha   66.50358197
_cell_angle_beta   66.50358197
_cell_angle_gamma   66.50358197
_symmetry_Int_Tables_number   1
_chemical_formula_structural   Ba8Bi10O27
_chemical_formula_sum   'Ba8 Bi10 O27'
_cell_volume   780.06642539
_cell_formula_units_Z   1
loop_
 _symmetry_equiv_pos_site_id
 _symmetry_equiv_pos_as_xyz
  1  'x, y, z'
loop_
 _atom_site_type_symbol
 _atom_site_label
 _atom_site_symmetry_multiplicity
 _atom_site_fract_x
 _atom_site_fract_y
 _atom_site_fract_z
 _atom_site_occupancy
  Ba  Ba0  1  0.42702380  0.11131109  0.78229722  1
  Ba  Ba1  1  0.66514763  0.66514763  0.66514763  1
  Ba  Ba2  1  0.21770278  0.57297620  0.88868891  1
  Ba  Ba3  1  0.88868891  0.21770278  0.57297620  1
  Ba  Ba4  1  0.11131109  0.78229722  0.42702380  1
  Ba  Ba5  1  0.33485237  0.33485237  0.33485237  1
  Ba  Ba6  1  0.57297620  0.88868891  0.21770278  1
  Ba  Ba7  1  0.78229722  0.42702380  0.11131109  1
  Bi  Bi8  1  0.83395631  0.83395631  0.83395631  1
  Bi  Bi9  1  0.61170309  0.27585202  0.94389032  1
  Bi  Bi10  1  0.05610968  0.38829691  0.72414798  1
  Bi  Bi11  1  0.27585202  0.94389032  0.61170309  1
  Bi  Bi12  1  0.50000000  0.50000000  0.50000000  1
  Bi  Bi13  1  0.94389032  0.61170309  0.27585202  1
  Bi  Bi14  1  0.72414798  0.05610968  0.38829691  1
  Bi  Bi15  1  0.16604369  0.16604369  0.16604369  1
  Bi  Bi16  1  0.38829691  0.72414798  0.05610968  1
  Bi  Bi17  1  0.00000000  0.00000000  0.00000000  1
  O  O18  1  0.94661278  0.60369175  0.78999252  1
  O  O19  1  0.74648303  0.05502849  0.89388869  1
  O  O20  1  0.60369175  0.78999252  0.94661278  1
  O  O21  1  0.84036527  0.32022019  0.84005680  1
  O  O22  1  0.10611131  0.25351697  0.94497151  1
  O  O23  1  0.32022019  0.84005680  0.84036527  1
  O  O24  1  0.57137540  0.38441522  0.71536759  1
  O  O25  1  0.78999252  0.94661278  0.60369175  1
  O  O26  1  0.15994320  0.15963473  0.67977981  1
  O  O27  1  0.05502849  0.89388869  0.74648303  1
  O  O28  1  0.84005680  0.84036527  0.32022019  1
  O  O29  1  0.28463241  0.42862460  0.61558478  1
  O  O30  1  0.50000000  0.00000000  0.50000000  1
  O  O31  1  0.71536759  0.57137540  0.38441522  1
  O  O32  1  0.38441522  0.71536759  0.57137540  1
  O  O33  1  0.61558478  0.28463241  0.42862460  1
  O  O34  1  0.94497151  0.10611131  0.25351697  1
  O  O35  1  0.67977981  0.15994320  0.15963473  1
  O  O36  1  0.42862460  0.61558478  0.28463241  1
  O  O37  1  0.89388869  0.74648303  0.05502849  1
  O  O38  1  0.00000000  0.50000000  0.50000000  1
  O  O39  1  0.21000748  0.05338722  0.39630825  1
  O  O40  1  0.50000000  0.50000000  0.00000000  1
  O  O41  1  0.15963473  0.67977981  0.15994320  1
  O  O42  1  0.39630825  0.21000748  0.05338722  1
  O  O43  1  0.05338722  0.39630825  0.21000748  1
  O  O44  1  0.25351697  0.94497151  0.10611131  1
