# generated using pymatgen
data_TiFeH2
_symmetry_space_group_name_H-M   'P 1'
_cell_length_a   2.82052045
_cell_length_b   4.57463968
_cell_length_c   4.75886630
_cell_angle_alpha   90.00000000
_cell_angle_beta   90.00000000
_cell_angle_gamma   90.00000000
_symmetry_Int_Tables_number   1
_chemical_formula_structural   TiFeH2
_chemical_formula_sum   'Ti2 Fe2 H4'
_cell_volume   61.40300832
_cell_formula_units_Z   2
loop_
 _symmetry_equiv_pos_site_id
 _symmetry_equiv_pos_as_xyz
  1  'x, y, z'
loop_
 _atom_site_type_symbol
 _atom_site_label
 _atom_site_symmetry_multiplicity
 _atom_site_fract_x
 _atom_site_fract_y
 _atom_site_fract_z
 _atom_site_occupancy
  Ti  Ti0  1  0.50000000  0.28994364  0.29982298  1
  Ti  Ti1  1  0.50000000  0.78994364  0.70017702  1
  Fe  Fe2  1  0.00000000  0.78968320  0.18702783  1
  Fe  Fe3  1  0.00000000  0.28968320  0.81297217  1
  H  H4  1  0.50000000  0.44952149  0.93246373  1
  H  H5  1  0.50000000  0.94952149  0.06753627  1
  H  H6  1  0.00000000  0.55285167  0.47856349  1
  H  H7  1  0.00000000  0.05285167  0.52143651  1
