# generated using pymatgen
data_Mn7Co(PO4)12
_symmetry_space_group_name_H-M   'P 1'
_cell_length_a   8.44959522
_cell_length_b   8.43612232
_cell_length_c   11.75698164
_cell_angle_alpha   90.03044610
_cell_angle_beta   89.98921420
_cell_angle_gamma   90.07278695
_symmetry_Int_Tables_number   1
_chemical_formula_structural   Mn7Co(PO4)12
_chemical_formula_sum   'Mn7 Co1 P12 O48'
_cell_volume   838.05822660
_cell_formula_units_Z   1
loop_
 _symmetry_equiv_pos_site_id
 _symmetry_equiv_pos_as_xyz
  1  'x, y, z'
loop_
 _atom_site_type_symbol
 _atom_site_label
 _atom_site_symmetry_multiplicity
 _atom_site_fract_x
 _atom_site_fract_y
 _atom_site_fract_z
 _atom_site_occupancy
  Mn  Mn0  1  0.24984389  0.96584783  0.61816522  1
  Mn  Mn1  1  0.25070460  0.53449467  0.38083780  1
  Mn  Mn2  1  0.24964086  0.03463759  0.11836280  1
  Mn  Mn3  1  0.25015323  0.46528512  0.88242609  1
  Mn  Mn4  1  0.75056527  0.53449659  0.11843689  1
  Mn  Mn5  1  0.75010954  0.96564862  0.88231428  1
  Mn  Mn6  1  0.74923489  0.03478185  0.38165300  1
  Co  Co7  1  0.74876414  0.46481432  0.61760969  1
  P  P8  1  0.03578207  0.25029406  0.49915788  1
  P  P9  1  0.10611840  0.39145347  0.14542726  1
  P  P10  1  0.10595250  0.10867943  0.85480836  1
  P  P11  1  0.39351270  0.60770895  0.64495767  1
  P  P12  1  0.39365771  0.89165876  0.35457256  1
  P  P13  1  0.46360791  0.75003008  0.00032608  1
  P  P14  1  0.53637568  0.25008262  0.99987431  1
  P  P15  1  0.60665039  0.39102814  0.35552334  1
  P  P16  1  0.60745758  0.10819002  0.64534386  1
  P  P17  1  0.89328287  0.60915270  0.85417938  1
  P  P18  1  0.89358207  0.89165458  0.14571808  1
  P  P19  1  0.96355402  0.74878422  0.49970566  1
  O  O20  1  0.06126010  0.64193317  0.42197611  1
  O  O21  1  0.05929558  0.85777929  0.57810471  1
  O  O22  1  0.07552550  0.90074640  0.16003794  1
  O  O23  1  0.07537844  0.59966432  0.84050623  1
  O  O24  1  0.14763753  0.15999723  0.57990279  1
  O  O25  1  0.14456858  0.34231497  0.41722804  1
  O  O26  1  0.15825681  0.43875782  0.02624045  1
  O  O27  1  0.15856128  0.06058398  0.97360014  1
  O  O28  1  0.15098259  0.22087839  0.17614169  1
  O  O29  1  0.15089834  0.27941121  0.82416350  1
  O  O30  1  0.18030693  0.51413461  0.22715885  1
  O  O31  1  0.17860257  0.98669466  0.77187216  1
  O  O32  1  0.32058295  0.01404876  0.27244818  1
  O  O33  1  0.31941843  0.48626413  0.72730544  1
  O  O34  1  0.34872975  0.77835609  0.67631062  1
  O  O35  1  0.34954967  0.72078574  0.32358073  1
  O  O36  1  0.34049013  0.56141010  0.52607507  1
  O  O37  1  0.34059361  0.93858716  0.47371378  1
  O  O38  1  0.35395740  0.84153447  0.08183432  1
  O  O39  1  0.35423341  0.65845698  0.91840264  1
  O  O40  1  0.42592902  0.09790964  0.66053579  1
  O  O41  1  0.42449179  0.39937430  0.34131004  1
  O  O42  1  0.43974210  0.14145698  0.07760319  1
  O  O43  1  0.43971742  0.35880759  0.92230394  1
  O  O44  1  0.56048392  0.64145620  0.07775324  1
  O  O45  1  0.56024738  0.85875327  0.92252479  1
  O  O46  1  0.57744138  0.59817841  0.66031664  1
  O  O47  1  0.57563236  0.90020543  0.34125410  1
  O  O48  1  0.64643533  0.34137505  0.08141752  1
  O  O49  1  0.64529491  0.15838297  0.91794441  1
  O  O50  1  0.65956596  0.06116315  0.52629664  1
  O  O51  1  0.65932903  0.44054573  0.47396360  1
  O  O52  1  0.65107858  0.22059626  0.32387205  1
  O  O53  1  0.65140562  0.28078999  0.67708912  1
  O  O54  1  0.67762368  0.51389638  0.27222153  1
  O  O55  1  0.68165747  0.98582732  0.72726273  1
  O  O56  1  0.81983159  0.01385978  0.22778045  1
  O  O57  1  0.82100288  0.48552649  0.77070046  1
  O  O58  1  0.84935043  0.72066242  0.17649496  1
  O  O59  1  0.85000252  0.78016248  0.82445079  1
  O  O60  1  0.84124076  0.56115154  0.97318686  1
  O  O61  1  0.84109059  0.93916600  0.02676068  1
  O  O62  1  0.85098435  0.65833304  0.58169312  1
  O  O63  1  0.85492510  0.84105980  0.41806172  1
  O  O64  1  0.92393574  0.09998335  0.84081389  1
  O  O65  1  0.92410199  0.39990661  0.15963426  1
  O  O66  1  0.93994732  0.14058561  0.42173166  1
  O  O67  1  0.94013088  0.35981809  0.57902123  1
