# generated using pymatgen
data_LiCoPO4
_symmetry_space_group_name_H-M   'P 1'
_cell_length_a   9.70972616
_cell_length_b   9.70972584
_cell_length_c   23.02188706
_cell_angle_alpha   90.00000000
_cell_angle_beta   90.00000000
_cell_angle_gamma   120.00000366
_symmetry_Int_Tables_number   1
_chemical_formula_structural   LiCoPO4
_chemical_formula_sum   'Li24 Co24 P24 O96'
_cell_volume   1879.68676701
_cell_formula_units_Z   24
loop_
 _symmetry_equiv_pos_site_id
 _symmetry_equiv_pos_as_xyz
  1  'x, y, z'
loop_
 _atom_site_type_symbol
 _atom_site_label
 _atom_site_symmetry_multiplicity
 _atom_site_fract_x
 _atom_site_fract_y
 _atom_site_fract_z
 _atom_site_occupancy
  Li  Li0  1  0.09498049  0.82090586  0.27486018  1
  Li  Li1  1  0.08932489  0.75408435  0.91947798  1
  Li  Li2  1  0.12810592  0.75955210  0.59453091  1
  Li  Li3  1  0.31089952  0.66827184  0.75555546  1
  Li  Li4  1  0.33172816  0.64262768  0.08888946  1
  Li  Li5  1  0.35737232  0.68910048  0.42222246  1
  Li  Li6  1  0.17909414  0.27407463  0.60819318  1
  Li  Li7  1  0.24044790  0.36855482  0.92786391  1
  Li  Li8  1  0.24591565  0.33524054  0.25281098  1
  Li  Li9  1  0.63144518  0.87189408  0.26119691  1
  Li  Li10  1  0.66475946  0.91067511  0.58614498  1
  Li  Li11  1  0.27407463  0.09498049  0.44152618  1
  Li  Li12  1  0.72592537  0.90501951  0.94152618  1
  Li  Li13  1  0.33524054  0.08932489  0.08614498  1
  Li  Li14  1  0.36855482  0.12810592  0.76119691  1
  Li  Li15  1  0.75408435  0.66475946  0.75281098  1
  Li  Li16  1  0.75955210  0.63144518  0.42786391  1
  Li  Li17  1  0.82090586  0.72592537  0.10819318  1
  Li  Li18  1  0.64262768  0.31089952  0.92222246  1
  Li  Li19  1  0.66827184  0.35737232  0.58888946  1
  Li  Li20  1  0.68910048  0.33172816  0.25555546  1
  Li  Li21  1  0.87189408  0.24044790  0.09453091  1
  Li  Li22  1  0.91067511  0.24591565  0.41947798  1
  Li  Li23  1  0.90501951  0.17909414  0.77486018  1
  Co  Co24  1  0.99747215  0.01168241  0.70446381  1
  Co  Co25  1  0.02446927  0.57152356  0.04598515  1
  Co  Co26  1  0.06257670  0.46162051  0.19482025  1
  Co  Co27  1  0.04806970  0.48720807  0.84940606  1
  Co  Co28  1  0.39904481  0.93742330  0.86148625  1
  Co  Co29  1  0.43913837  0.95193030  0.51607206  1
  Co  Co30  1  0.98831759  0.98578974  0.03779781  1
  Co  Co31  1  0.98578974  0.99747215  0.87113081  1
  Co  Co32  1  0.54705530  0.97553073  0.71265115  1
  Co  Co33  1  0.42847644  0.45294470  0.37931815  1
  Co  Co34  1  0.51279193  0.56086163  0.18273906  1
  Co  Co35  1  0.53837949  0.60095519  0.52815325  1
  Co  Co36  1  0.46162051  0.39904481  0.02815325  1
  Co  Co37  1  0.48720807  0.43913837  0.68273906  1
  Co  Co38  1  0.57152356  0.54705530  0.87931815  1
  Co  Co39  1  0.45294470  0.02446927  0.21265115  1
  Co  Co40  1  0.01421026  0.00252785  0.37113081  1
  Co  Co41  1  0.01168241  0.01421026  0.53779781  1
  Co  Co42  1  0.56086163  0.04806970  0.01607206  1
  Co  Co43  1  0.60095519  0.06257670  0.36148625  1
  Co  Co44  1  0.95193030  0.51279193  0.34940606  1
  Co  Co45  1  0.93742330  0.53837949  0.69482025  1
  Co  Co46  1  0.97553073  0.42847644  0.54598515  1
  Co  Co47  1  0.00252785  0.98831759  0.20446381  1
  P  P48  1  0.08762625  0.78812880  0.78821956  1
  P  P49  1  0.08126829  0.74667248  0.46936789  1
  P  P50  1  0.13712982  0.79278058  0.13849684  1
  P  P51  1  0.29123456  0.65615597  0.29291599  1
  P  P52  1  0.36492141  0.70876544  0.95958299  1
  P  P53  1  0.34384403  0.63507859  0.62624899  1
  P  P54  1  0.20721942  0.34434924  0.47183084  1
  P  P55  1  0.21187120  0.29949846  0.12155356  1
  P  P56  1  0.25332752  0.33459481  0.80270089  1
  P  P57  1  0.65565076  0.86287018  0.80516384  1
  P  P58  1  0.66540519  0.91873171  0.13603389  1
  P  P59  1  0.70050154  0.91237375  0.45488656  1
  P  P60  1  0.29949846  0.08762625  0.95488656  1
  P  P61  1  0.33459481  0.08126829  0.63603389  1
  P  P62  1  0.34434924  0.13712982  0.30516384  1
  P  P63  1  0.74667248  0.66540519  0.30270089  1
  P  P64  1  0.78812880  0.70050154  0.62155356  1
  P  P65  1  0.79278058  0.65565076  0.97183084  1
  P  P66  1  0.65615597  0.36492141  0.12624899  1
  P  P67  1  0.63507859  0.29123456  0.45958299  1
  P  P68  1  0.70876544  0.34384403  0.79291599  1
  P  P69  1  0.86287018  0.20721942  0.63849684  1
  P  P70  1  0.91873171  0.25332752  0.96936789  1
  P  P71  1  0.91237375  0.21187120  0.28821956  1
  O  O72  1  0.04909560  0.78860713  0.08121510  1
  O  O73  1  0.07493378  0.90661408  0.47470131  1
  O  O74  1  0.01513012  0.67747920  0.84161858  1
  O  O75  1  0.12865253  0.97035264  0.93067115  1
  O  O76  1  0.03582183  0.79990960  0.18969484  1
  O  O77  1  0.01264863  0.64924088  0.52516085  1
  O  O78  1  0.24028825  0.94005011  0.80715857  1
  O  O79  1  0.13308249  0.65878732  0.30140744  1
  O  O80  1  0.11930823  0.69089083  0.74195610  1
  O  O81  1  0.32129291  0.97517246  0.58320502  1
  O  O82  1  0.31080013  0.92892903  0.13978178  1
  O  O83  1  0.13975390  0.63206768  0.13691186  1
  O  O84  1  0.25784845  0.79144498  0.46180471  1
  O  O85  1  0.17282316  0.59304641  0.61093112  1
  O  O86  1  0.07107097  0.38187110  0.47311578  1
  O  O87  1  0.27710598  0.73494136  0.90671581  1
  O  O88  1  0.02482754  0.34612045  0.91653902  1
  O  O89  1  0.05994989  0.30023814  0.14049157  1
  O  O90  1  0.02964736  0.15830089  0.26400415  1
  O  O91  1  0.09338592  0.16831971  0.80803531  1
  O  O92  1  0.25894098  0.67066925  0.01391169  1
  O  O93  1  0.26505864  0.54216362  0.24004981  1
  O  O94  1  0.32933075  0.58827173  0.34724469  1
  O  O95  1  0.20855502  0.46640247  0.79513871  1
  O  O96  1  0.41172827  0.74105902  0.68057869  1
  O  O97  1  0.42022325  0.82717684  0.27759712  1
  O  O98  1  0.49231378  0.86024610  0.80357886  1
  O  O99  1  0.30910917  0.42841740  0.07528910  1
  O  O100  1  0.34121268  0.47429617  0.63474044  1
  O  O101  1  0.36793232  0.50768622  0.47024586  1
  O  O102  1  0.20009040  0.23591222  0.52302784  1
  O  O103  1  0.40695359  0.57977675  0.94426412  1
  O  O104  1  0.45783638  0.72289402  0.57338281  1
  O  O105  1  0.52570383  0.86691751  0.96807344  1
  O  O106  1  0.57158260  0.88069177  0.40862310  1
  O  O107  1  0.15830089  0.12865253  0.09733715  1
  O  O108  1  0.21139287  0.26048847  0.41454810  1
  O  O109  1  0.32252080  0.33765092  0.17495258  1
  O  O110  1  0.16831971  0.07493378  0.64136831  1
  O  O111  1  0.35075912  0.36340775  0.85849385  1
  O  O112  1  0.53359753  0.74215155  0.12847171  1
  O  O113  1  0.30023814  0.24028825  0.97382557  1
  O  O114  1  0.63659225  0.98735137  0.19182785  1
  O  O115  1  0.34612045  0.32129291  0.74987202  1
  O  O116  1  0.38187110  0.31080013  0.30644878  1
  O  O117  1  0.66234908  0.98486988  0.50828558  1
  O  O118  1  0.76408778  0.96417817  0.85636184  1
  O  O119  1  0.26048847  0.04909560  0.24788110  1
  O  O120  1  0.73951153  0.95090440  0.74788110  1
  O  O121  1  0.23591222  0.03582183  0.35636184  1
  O  O122  1  0.33765092  0.01513012  0.00828558  1
  O  O123  1  0.61812890  0.68919987  0.80644878  1
  O  O124  1  0.65387955  0.67870709  0.24987202  1
  O  O125  1  0.36340775  0.01264863  0.69182785  1
  O  O126  1  0.69976186  0.75971175  0.47382557  1
  O  O127  1  0.46640247  0.25784845  0.62847171  1
  O  O128  1  0.64924088  0.63659225  0.35849385  1
  O  O129  1  0.83168029  0.92506622  0.14136831  1
  O  O130  1  0.67747920  0.66234908  0.67495258  1
  O  O131  1  0.78860713  0.73951153  0.91454810  1
  O  O132  1  0.84169911  0.87134747  0.59733715  1
  O  O133  1  0.42841740  0.11930823  0.90862310  1
  O  O134  1  0.47429617  0.13308249  0.46807344  1
  O  O135  1  0.54216362  0.27710598  0.07338281  1
  O  O136  1  0.59304641  0.42022325  0.44426412  1
  O  O137  1  0.79990960  0.76408778  0.02302784  1
  O  O138  1  0.63206768  0.49231378  0.97024586  1
  O  O139  1  0.65878732  0.52570383  0.13474044  1
  O  O140  1  0.69089083  0.57158260  0.57528910  1
  O  O141  1  0.50768622  0.13975390  0.30357886  1
  O  O142  1  0.57977675  0.17282316  0.77759712  1
  O  O143  1  0.58827173  0.25894098  0.18057869  1
  O  O144  1  0.79144498  0.53359753  0.29513871  1
  O  O145  1  0.67066925  0.41172827  0.84724469  1
  O  O146  1  0.73494136  0.45783638  0.74004981  1
  O  O147  1  0.74105902  0.32933075  0.51391169  1
  O  O148  1  0.90661408  0.83168029  0.30803531  1
  O  O149  1  0.97035264  0.84169911  0.76400415  1
  O  O150  1  0.94005011  0.69976186  0.64049157  1
  O  O151  1  0.97517246  0.65387955  0.41653902  1
  O  O152  1  0.72289402  0.26505864  0.40671581  1
  O  O153  1  0.92892903  0.61812890  0.97311578  1
  O  O154  1  0.82717684  0.40695359  0.11093112  1
  O  O155  1  0.74215155  0.20855502  0.96180471  1
  O  O156  1  0.86024610  0.36793232  0.63691186  1
  O  O157  1  0.68919987  0.07107097  0.63978178  1
  O  O158  1  0.67870709  0.02482754  0.08320502  1
  O  O159  1  0.88069177  0.30910917  0.24195610  1
  O  O160  1  0.86691751  0.34121268  0.80140744  1
  O  O161  1  0.75971175  0.05994989  0.30715857  1
  O  O162  1  0.98735137  0.35075912  0.02516085  1
  O  O163  1  0.96417817  0.20009040  0.68969484  1
  O  O164  1  0.87134747  0.02964736  0.43067115  1
  O  O165  1  0.98486988  0.32252080  0.34161858  1
  O  O166  1  0.92506622  0.09338592  0.97470131  1
  O  O167  1  0.95090440  0.21139287  0.58121510  1
