# generated using pymatgen
data_Li3Mn2(CO5)2
_symmetry_space_group_name_H-M   'P 1'
_cell_length_a   9.63019010
_cell_length_b   11.70386814
_cell_length_c   5.79366121
_cell_angle_alpha   90.00000000
_cell_angle_beta   90.00000000
_cell_angle_gamma   90.00000000
_symmetry_Int_Tables_number   1
_chemical_formula_structural   Li3Mn2(CO5)2
_chemical_formula_sum   'Li12 Mn8 C8 O40'
_cell_volume   653.00630751
_cell_formula_units_Z   4
loop_
 _symmetry_equiv_pos_site_id
 _symmetry_equiv_pos_as_xyz
  1  'x, y, z'
loop_
 _atom_site_type_symbol
 _atom_site_label
 _atom_site_symmetry_multiplicity
 _atom_site_fract_x
 _atom_site_fract_y
 _atom_site_fract_z
 _atom_site_occupancy
  Li  Li0  1  0.99683225  0.00187696  0.75000000  1
  Li  Li1  1  0.00134776  0.49555550  0.99774491  1
  Li  Li2  1  0.00134776  0.49555550  0.50225509  1
  Li  Li3  1  0.00167106  0.27938018  0.25000000  1
  Li  Li4  1  0.49832894  0.77938018  0.25000000  1
  Li  Li5  1  0.50316775  0.50187696  0.75000000  1
  Li  Li6  1  0.49865224  0.99555550  0.99774491  1
  Li  Li7  1  0.49865224  0.99555550  0.50225509  1
  Li  Li8  1  0.50248579  0.21914244  0.25000000  1
  Li  Li9  1  0.50567870  0.21884518  0.75000000  1
  Li  Li10  1  0.99751421  0.71914244  0.25000000  1
  Li  Li11  1  0.99432130  0.71884518  0.75000000  1
  Mn  Mn12  1  0.24464098  0.11178757  0.99912785  1
  Mn  Mn13  1  0.24464098  0.11178757  0.50087215  1
  Mn  Mn14  1  0.25535902  0.61178757  0.99912785  1
  Mn  Mn15  1  0.25535902  0.61178757  0.50087215  1
  Mn  Mn16  1  0.74422795  0.38830649  0.00039814  1
  Mn  Mn17  1  0.74422795  0.38830649  0.49960186  1
  Mn  Mn18  1  0.75577205  0.88830649  0.00039814  1
  Mn  Mn19  1  0.75577205  0.88830649  0.49960186  1
  C  C20  1  0.23905618  0.86227245  0.49926694  1
  C  C21  1  0.23905618  0.86227245  0.00073306  1
  C  C22  1  0.26094382  0.36227245  0.00073306  1
  C  C23  1  0.26094382  0.36227245  0.49926694  1
  C  C24  1  0.74203766  0.63890375  0.00000976  1
  C  C25  1  0.74203766  0.63890375  0.49999024  1
  C  C26  1  0.75796234  0.13890375  0.00000976  1
  C  C27  1  0.75796234  0.13890375  0.49999024  1
  O  O28  1  0.12812796  0.14878168  0.25000000  1
  O  O29  1  0.12498302  0.14344372  0.75000000  1
  O  O30  1  0.13023511  0.57691116  0.25000000  1
  O  O31  1  0.12976205  0.57768322  0.75000000  1
  O  O32  1  0.13071084  0.36188472  0.01053960  1
  O  O33  1  0.13071084  0.36188472  0.48946040  1
  O  O34  1  0.16328406  0.95521131  0.99189813  1
  O  O35  1  0.16328406  0.95521131  0.50810187  1
  O  O36  1  0.16482524  0.76692620  0.99900552  1
  O  O37  1  0.16482524  0.76692620  0.50099448  1
  O  O38  1  0.33517476  0.26692620  0.99900552  1
  O  O39  1  0.33517476  0.26692620  0.50099448  1
  O  O40  1  0.33671594  0.45521131  0.99189813  1
  O  O41  1  0.33671594  0.45521131  0.50810187  1
  O  O42  1  0.36928916  0.86188472  0.01053960  1
  O  O43  1  0.36928916  0.86188472  0.48946040  1
  O  O44  1  0.36976489  0.07691116  0.25000000  1
  O  O45  1  0.37023795  0.07768322  0.75000000  1
  O  O46  1  0.37187204  0.64878168  0.25000000  1
  O  O47  1  0.37501698  0.64344372  0.75000000  1
  O  O48  1  0.62780692  0.35163038  0.25000000  1
  O  O49  1  0.62140211  0.35590957  0.75000000  1
  O  O50  1  0.62959474  0.92273964  0.25000000  1
  O  O51  1  0.63537936  0.92609891  0.75000000  1
  O  O52  1  0.62567679  0.13767520  0.99995664  1
  O  O53  1  0.62567679  0.13767520  0.50004336  1
  O  O54  1  0.66635873  0.54625359  0.99546070  1
  O  O55  1  0.66635873  0.54625359  0.50453930  1
  O  O56  1  0.67020473  0.73339271  0.00461636  1
  O  O57  1  0.67020473  0.73339271  0.49538364  1
  O  O58  1  0.82979527  0.23339271  0.00461636  1
  O  O59  1  0.82979527  0.23339271  0.49538364  1
  O  O60  1  0.83364127  0.04625359  0.99546070  1
  O  O61  1  0.83364127  0.04625359  0.50453930  1
  O  O62  1  0.87432321  0.63767520  0.99995664  1
  O  O63  1  0.87432321  0.63767520  0.50004336  1
  O  O64  1  0.87040526  0.42273964  0.25000000  1
  O  O65  1  0.86462064  0.42609891  0.75000000  1
  O  O66  1  0.87219308  0.85163038  0.25000000  1
  O  O67  1  0.87859789  0.85590957  0.75000000  1
