# generated using pymatgen
data_Li3Fe3SiO8
_symmetry_space_group_name_H-M   'P 1'
_cell_length_a   5.18274350
_cell_length_b   5.82184616
_cell_length_c   5.07717380
_cell_angle_alpha   89.99999555
_cell_angle_beta   71.30391074
_cell_angle_gamma   89.99999991
_symmetry_Int_Tables_number   1
_chemical_formula_structural   Li3Fe3SiO8
_chemical_formula_sum   'Li3 Fe3 Si1 O8'
_cell_volume   145.11052213
_cell_formula_units_Z   1
loop_
 _symmetry_equiv_pos_site_id
 _symmetry_equiv_pos_as_xyz
  1  'x, y, z'
loop_
 _atom_site_type_symbol
 _atom_site_label
 _atom_site_symmetry_multiplicity
 _atom_site_fract_x
 _atom_site_fract_y
 _atom_site_fract_z
 _atom_site_occupancy
  Li  Li0  1  0.00000000  0.50000000  0.00000000  1
  Li  Li1  1  1.00000000  0.23889448  0.50000000  1
  Li  Li2  1  0.00000000  0.76110552  0.50000000  1
  Fe  Fe3  1  0.50000000  0.24636362  1.00000000  1
  Fe  Fe4  1  0.50000000  0.75363638  0.00000000  1
  Fe  Fe5  1  0.50000000  0.50000000  0.50000000  1
  Si  Si6  1  0.50000000  0.00000000  0.50000000  1
  O  O7  1  0.29623890  0.00000000  0.27695368  1
  O  O8  1  0.70798067  0.23195971  0.28065058  1
  O  O9  1  0.26485511  0.50000000  0.23238176  1
  O  O10  1  0.29201933  0.23195971  0.71934942  1
  O  O11  1  0.70798067  0.76804029  0.28065058  1
  O  O12  1  0.70376110  1.00000000  0.72304632  1
  O  O13  1  0.73514489  0.50000000  0.76761824  1
  O  O14  1  0.29201933  0.76804029  0.71934942  1
