# generated using pymatgen
data_LiFeSiO4
_symmetry_space_group_name_H-M   'P 1'
_cell_length_a   7.51740480
_cell_length_b   15.93063559
_cell_length_c   5.80308329
_cell_angle_alpha   90.00000000
_cell_angle_beta   90.00000000
_cell_angle_gamma   90.00000000
_symmetry_Int_Tables_number   1
_chemical_formula_structural   LiFeSiO4
_chemical_formula_sum   'Li8 Fe8 Si8 O32'
_cell_volume   694.96005709
_cell_formula_units_Z   8
loop_
 _symmetry_equiv_pos_site_id
 _symmetry_equiv_pos_as_xyz
  1  'x, y, z'
loop_
 _atom_site_type_symbol
 _atom_site_label
 _atom_site_symmetry_multiplicity
 _atom_site_fract_x
 _atom_site_fract_y
 _atom_site_fract_z
 _atom_site_occupancy
  Li  Li0  1  0.25224807  0.26756573  0.09069597  1
  Li  Li1  1  0.25224807  0.23243427  0.59069597  1
  Li  Li2  1  0.24775193  0.73243427  0.59069597  1
  Li  Li3  1  0.24775193  0.76756573  0.09069597  1
  Li  Li4  1  0.75224807  0.26756573  0.40930403  1
  Li  Li5  1  0.75224807  0.23243427  0.90930403  1
  Li  Li6  1  0.74775193  0.76756573  0.40930403  1
  Li  Li7  1  0.74775193  0.73243427  0.90930403  1
  Fe  Fe8  1  0.18110102  0.53405778  0.40834812  1
  Fe  Fe9  1  0.18110102  0.96594222  0.90834812  1
  Fe  Fe10  1  0.31889898  0.03405778  0.40834812  1
  Fe  Fe11  1  0.31889898  0.46594222  0.90834812  1
  Fe  Fe12  1  0.68110102  0.53405778  0.09165188  1
  Fe  Fe13  1  0.68110102  0.96594222  0.59165188  1
  Fe  Fe14  1  0.81889898  0.03405778  0.09165188  1
  Fe  Fe15  1  0.81889898  0.46594222  0.59165188  1
  Si  Si16  1  0.04245111  0.61556412  0.90419046  1
  Si  Si17  1  0.04245111  0.88443588  0.40419046  1
  Si  Si18  1  0.45754889  0.11556412  0.90419046  1
  Si  Si19  1  0.45754889  0.38443588  0.40419046  1
  Si  Si20  1  0.54245111  0.61556412  0.59580954  1
  Si  Si21  1  0.54245111  0.88443588  0.09580954  1
  Si  Si22  1  0.95754889  0.11556412  0.59580954  1
  Si  Si23  1  0.95754889  0.38443588  0.09580954  1
  O  O24  1  0.98223280  0.05940697  0.84155961  1
  O  O25  1  0.98223280  0.44059303  0.34155961  1
  O  O26  1  0.12925589  0.79479054  0.36517265  1
  O  O27  1  0.12925589  0.70520946  0.86517265  1
  O  O28  1  0.15393382  0.12319002  0.47135109  1
  O  O29  1  0.15393382  0.37680998  0.97135109  1
  O  O30  1  0.17198697  0.55254108  0.06808423  1
  O  O31  1  0.17198697  0.94745892  0.56808423  1
  O  O32  1  0.32801303  0.05254108  0.06808423  1
  O  O33  1  0.32801303  0.44745892  0.56808423  1
  O  O34  1  0.34606618  0.62319002  0.47135109  1
  O  O35  1  0.34606618  0.87680998  0.97135109  1
  O  O36  1  0.37074411  0.20520946  0.86517265  1
  O  O37  1  0.37074411  0.29479054  0.36517265  1
  O  O38  1  0.51776720  0.55940697  0.84155961  1
  O  O39  1  0.51776720  0.94059303  0.34155961  1
  O  O40  1  0.48223280  0.44059303  0.15844039  1
  O  O41  1  0.48223280  0.05940697  0.65844039  1
  O  O42  1  0.62925589  0.70520946  0.63482735  1
  O  O43  1  0.62925589  0.79479054  0.13482735  1
  O  O44  1  0.65393382  0.12319002  0.02864891  1
  O  O45  1  0.65393382  0.37680998  0.52864891  1
  O  O46  1  0.67198697  0.55254108  0.43191577  1
  O  O47  1  0.67198697  0.94745892  0.93191577  1
  O  O48  1  0.82801303  0.05254108  0.43191577  1
  O  O49  1  0.82801303  0.44745892  0.93191577  1
  O  O50  1  0.84606618  0.62319002  0.02864891  1
  O  O51  1  0.84606618  0.87680998  0.52864891  1
  O  O52  1  0.87074411  0.20520946  0.63482735  1
  O  O53  1  0.87074411  0.29479054  0.13482735  1
  O  O54  1  0.01776720  0.55940697  0.65844039  1
  O  O55  1  0.01776720  0.94059303  0.15844039  1
