# generated using pymatgen
data_LiCoSiO4
_symmetry_space_group_name_H-M   'P 1'
_cell_length_a   6.04423089
_cell_length_b   11.10862464
_cell_length_c   5.02059345
_cell_angle_alpha   90.00000000
_cell_angle_beta   90.00000000
_cell_angle_gamma   90.00000000
_symmetry_Int_Tables_number   1
_chemical_formula_structural   LiCoSiO4
_chemical_formula_sum   'Li4 Co4 Si4 O16'
_cell_volume   337.09816888
_cell_formula_units_Z   4
loop_
 _symmetry_equiv_pos_site_id
 _symmetry_equiv_pos_as_xyz
  1  'x, y, z'
loop_
 _atom_site_type_symbol
 _atom_site_label
 _atom_site_symmetry_multiplicity
 _atom_site_fract_x
 _atom_site_fract_y
 _atom_site_fract_z
 _atom_site_occupancy
  Li  Li0  1  0.50071562  0.92258419  0.33017616  1
  Li  Li1  1  0.50071562  0.42258419  0.16982384  1
  Li  Li2  1  0.00071562  0.57741581  0.83017616  1
  Li  Li3  1  0.00071562  0.07741581  0.66982384  1
  Co  Co4  1  0.24707830  0.33285386  0.67159907  1
  Co  Co5  1  0.24707830  0.83285386  0.82840093  1
  Co  Co6  1  0.74707830  0.66714614  0.32840093  1
  Co  Co7  1  0.74707830  0.16714614  0.17159907  1
  Si  Si8  1  0.25033080  0.67233699  0.32990413  1
  Si  Si9  1  0.25033080  0.17233699  0.17009587  1
  Si  Si10  1  0.75033080  0.32766301  0.67009587  1
  Si  Si11  1  0.75033080  0.82766301  0.82990413  1
  O  O12  1  0.02384783  0.60638134  0.21865180  1
  O  O13  1  0.02384783  0.10638134  0.28134820  1
  O  O14  1  0.23216191  0.18385735  0.84423097  1
  O  O15  1  0.27134148  0.30785916  0.30296530  1
  O  O16  1  0.27134148  0.80785916  0.19703470  1
  O  O17  1  0.23216191  0.68385735  0.65576903  1
  O  O18  1  0.47427605  0.09267992  0.23963104  1
  O  O19  1  0.47427605  0.59267992  0.26036896  1
  O  O20  1  0.52384783  0.89361866  0.71865180  1
  O  O21  1  0.52384783  0.39361866  0.78134820  1
  O  O22  1  0.77134148  0.19214084  0.80296530  1
  O  O23  1  0.73216191  0.31614265  0.34423097  1
  O  O24  1  0.77134148  0.69214084  0.69703470  1
  O  O25  1  0.73216191  0.81614265  0.15576903  1
  O  O26  1  0.97427605  0.40732008  0.73963104  1
  O  O27  1  0.97427605  0.90732008  0.76036896  1
