# generated using pymatgen
data_Li4Fe(SiO3)3
_symmetry_space_group_name_H-M   'P 1'
_cell_length_a   6.30598380
_cell_length_b   10.09387355
_cell_length_c   6.30598380
_cell_angle_alpha   89.08023504
_cell_angle_beta   72.82693716
_cell_angle_gamma   90.91976496
_symmetry_Int_Tables_number   1
_chemical_formula_structural   Li4Fe(SiO3)3
_chemical_formula_sum   'Li8 Fe2 Si6 O18'
_cell_volume   383.35206290
_cell_formula_units_Z   2
loop_
 _symmetry_equiv_pos_site_id
 _symmetry_equiv_pos_as_xyz
  1  'x, y, z'
loop_
 _atom_site_type_symbol
 _atom_site_label
 _atom_site_symmetry_multiplicity
 _atom_site_fract_x
 _atom_site_fract_y
 _atom_site_fract_z
 _atom_site_occupancy
  Li  Li0  1  0.36978155  0.20900167  0.81492087  1
  Li  Li1  1  0.18945726  0.78834644  0.46040293  1
  Li  Li2  1  0.55465811  0.50000000  0.55465811  1
  Li  Li3  1  0.99162763  0.50000000  0.99162763  1
  Li  Li4  1  0.62526445  0.00000000  0.62526445  1
  Li  Li5  1  0.00048585  0.00000000  0.00048585  1
  Li  Li6  1  0.46040293  0.21165356  0.18945726  1
  Li  Li7  1  0.81492087  0.79099833  0.36978155  1
  Fe  Fe8  1  0.81624887  0.25081126  0.83160132  1
  Fe  Fe9  1  0.83160132  0.74918874  0.81624887  1
  Si  Si10  1  0.33840293  0.74737460  0.88365787  1
  Si  Si11  1  0.07447020  0.49557161  0.47948458  1
  Si  Si12  1  0.13002719  0.05165835  0.50999126  1
  Si  Si13  1  0.50999126  0.94834165  0.13002719  1
  Si  Si14  1  0.47948458  0.50442839  0.07447020  1
  Si  Si15  1  0.88365787  0.25262540  0.33840293  1
  O  O16  1  0.14059233  0.79660466  0.79381651  1
  O  O17  1  0.30671822  0.58609185  0.95755244  1
  O  O18  1  0.11423045  0.11603859  0.74709004  1
  O  O19  1  0.03297465  0.41330378  0.70908850  1
  O  O20  1  0.50287108  0.06243503  0.95022402  1
  O  O21  1  0.48875644  0.35665012  0.97703108  1
  O  O22  1  0.11902342  0.17615896  0.33175670  1
  O  O23  1  0.57183510  0.77199088  0.68990692  1
  O  O24  1  0.35424836  0.50000000  0.35424836  1
  O  O25  1  0.39346687  0.00000000  0.39346687  1
  O  O26  1  0.68990692  0.22800912  0.57183510  1
  O  O27  1  0.33175670  0.82384104  0.11902342  1
  O  O28  1  0.97703108  0.64334988  0.48875644  1
  O  O29  1  0.95022402  0.93756497  0.50287108  1
  O  O30  1  0.70908850  0.58669622  0.03297465  1
  O  O31  1  0.74709004  0.88396141  0.11423045  1
  O  O32  1  0.95755244  0.41390815  0.30671822  1
  O  O33  1  0.79381651  0.20339534  0.14059233  1
