# generated using pymatgen
data_MnV4O12
_symmetry_space_group_name_H-M   'P 1'
_cell_length_a   5.34154367
_cell_length_b   10.88042685
_cell_length_c   9.60605827
_cell_angle_alpha   26.97456353
_cell_angle_beta   50.05142895
_cell_angle_gamma   54.98943824
_symmetry_Int_Tables_number   1
_chemical_formula_structural   MnV4O12
_chemical_formula_sum   'Mn1 V4 O12'
_cell_volume   194.13458445
_cell_formula_units_Z   1
loop_
 _symmetry_equiv_pos_site_id
 _symmetry_equiv_pos_as_xyz
  1  'x, y, z'
loop_
 _atom_site_type_symbol
 _atom_site_label
 _atom_site_symmetry_multiplicity
 _atom_site_fract_x
 _atom_site_fract_y
 _atom_site_fract_z
 _atom_site_occupancy
  Mn  Mn0  1  0.31160812  0.00128175  0.29181044  1
  V  V1  1  0.03044415  0.02031285  0.96448905  1
  V  V2  1  0.95736768  0.48707520  0.03126477  1
  V  V3  1  0.49504153  0.98831887  0.52290464  1
  V  V4  1  0.49834087  0.52412212  0.48073328  1
  O  O5  1  0.33699206  0.28511500  0.13042645  1
  O  O6  1  0.23552084  0.10823725  0.61819717  1
  O  O7  1  0.12913755  0.30539595  0.72467275  1
  O  O8  1  0.87656697  0.17532142  0.23926094  1
  O  O9  1  0.32971583  0.80177371  0.13218525  1
  O  O10  1  0.74281847  0.39384516  0.33856940  1
  O  O11  1  0.23712449  0.66336485  0.56498618  1
  O  O12  1  0.57541232  0.18655608  0.87765604  1
  O  O13  1  0.13408662  0.80651370  0.71068058  1
  O  O14  1  0.84225591  0.68056462  0.23953472  1
  O  O15  1  0.70899297  0.89034313  0.33677336  1
  O  O16  1  0.61787361  0.68185834  0.85515396  1
