# generated using pymatgen
data_Li4Ti2Mn3Nb3O16
_symmetry_space_group_name_H-M   'P 1'
_cell_length_a   6.22388821
_cell_length_b   6.07146810
_cell_length_c   9.89601930
_cell_angle_alpha   89.99985405
_cell_angle_beta   88.18866865
_cell_angle_gamma   119.19295107
_symmetry_Int_Tables_number   1
_chemical_formula_structural   Li4Ti2Mn3Nb3O16
_chemical_formula_sum   'Li4 Ti2 Mn3 Nb3 O16'
_cell_volume   326.23945659
_cell_formula_units_Z   1
loop_
 _symmetry_equiv_pos_site_id
 _symmetry_equiv_pos_as_xyz
  1  'x, y, z'
loop_
 _atom_site_type_symbol
 _atom_site_label
 _atom_site_symmetry_multiplicity
 _atom_site_fract_x
 _atom_site_fract_y
 _atom_site_fract_z
 _atom_site_occupancy
  Li  Li0  1  0.33892264  0.66947289  0.90404214  1
  Li  Li1  1  0.00432433  0.00217786  0.99789677  1
  Li  Li2  1  0.01434597  0.00718386  0.48562194  1
  Li  Li3  1  0.67286204  0.33644626  0.39783380  1
  Ti  Ti4  1  0.28290607  0.64146292  0.48005535  1
  Ti  Ti5  1  0.65837725  0.32919958  0.00481596  1
  Mn  Mn6  1  0.16315644  0.82720059  0.20350750  1
  Mn  Mn7  1  0.16314705  0.33597851  0.20352487  1
  Mn  Mn8  1  0.33834899  0.16917540  0.70645479  1
  Nb  Nb9  1  0.64527391  0.82265060  0.22800099  1
  Nb  Nb10  1  0.82263581  0.65909130  0.71877098  1
  Nb  Nb11  1  0.82264432  0.16357186  0.71876848  1
  O  O12  1  0.15249040  0.81478838  0.59176842  1
  O  O13  1  0.04726609  0.52363828  0.35605614  1
  O  O14  1  0.36892883  0.68447249  0.10252052  1
  O  O15  1  0.97810812  0.98906158  0.30178850  1
  O  O16  1  0.00098506  0.00049920  0.81493925  1
  O  O17  1  0.15249364  0.33771886  0.59177019  1
  O  O18  1  0.49436585  0.96319269  0.35153921  1
  O  O19  1  0.49437284  0.53120673  0.35154199  1
  O  O20  1  0.34611207  0.17306901  0.08096342  1
  O  O21  1  0.68305117  0.84153838  0.60063309  1
  O  O22  1  0.54287018  0.49806658  0.84369649  1
  O  O23  1  0.54287821  0.04482507  0.84369799  1
  O  O24  1  0.68517352  0.34259633  0.59837195  1
  O  O25  1  0.80715409  0.64843950  0.09368735  1
  O  O26  1  0.96964356  0.48483444  0.84187931  1
  O  O27  1  0.80716256  0.15874184  0.09368960  1
