# generated using pymatgen
data_LiFe(PO3)4
_symmetry_space_group_name_H-M   'P 1'
_cell_length_a   7.52706958
_cell_length_b   9.37022751
_cell_length_c   8.99082959
_cell_angle_alpha   114.30141453
_cell_angle_beta   114.74604536
_cell_angle_gamma   66.31874556
_symmetry_Int_Tables_number   1
_chemical_formula_structural   LiFe(PO3)4
_chemical_formula_sum   'Li2 Fe2 P8 O24'
_cell_volume   504.30992865
_cell_formula_units_Z   2
loop_
 _symmetry_equiv_pos_site_id
 _symmetry_equiv_pos_as_xyz
  1  'x, y, z'
loop_
 _atom_site_type_symbol
 _atom_site_label
 _atom_site_symmetry_multiplicity
 _atom_site_fract_x
 _atom_site_fract_y
 _atom_site_fract_z
 _atom_site_occupancy
  Li  Li0  1  0.83468871  0.75000000  0.75000000  1
  Li  Li1  1  0.16531129  0.25000000  0.25000000  1
  Fe  Fe2  1  0.28177973  0.75000000  0.75000000  1
  Fe  Fe3  1  0.71822027  0.25000000  0.25000000  1
  P  P4  1  0.95984430  0.88891462  0.16914863  1
  P  P5  1  0.56423006  0.83836934  0.13249821  1
  P  P6  1  0.27010118  0.66163066  0.36750179  1
  P  P7  1  0.67960928  0.61108538  0.33085037  1
  P  P8  1  0.32039072  0.38891462  0.66914963  1
  P  P9  1  0.72989882  0.33836934  0.63249821  1
  P  P10  1  0.43576994  0.16163066  0.86750179  1
  P  P11  1  0.04015570  0.11108538  0.83085037  1
  O  O12  1  0.40415016  0.96072026  0.20904614  1
  O  O13  1  0.76548657  0.89869956  0.21115556  1
  O  O14  1  0.97614068  0.78222644  0.99801258  1
  O  O15  1  0.14299164  0.83350406  0.32591420  1
  O  O16  1  0.05366673  0.92970955  0.78294400  1
  O  O17  1  0.65058150  0.66649594  0.17408580  1
  O  O18  1  0.76035455  0.71777356  0.50198742  1
  O  O19  1  0.36336176  0.71576626  0.56354515  1
  O  O20  1  0.51558287  0.78423374  0.93645485  1
  O  O21  1  0.45303057  0.60130044  0.28884444  1
  O  O22  1  0.15582428  0.53927974  0.29095386  1
  O  O23  1  0.20043228  0.57029045  0.71705600  1
  O  O24  1  0.79956772  0.42970955  0.28294400  1
  O  O25  1  0.84417572  0.46072026  0.70904614  1
  O  O26  1  0.54696943  0.39869956  0.71115556  1
  O  O27  1  0.48441713  0.21576626  0.06354515  1
  O  O28  1  0.63663824  0.28423374  0.43645485  1
  O  O29  1  0.23964545  0.28222644  0.49801258  1
  O  O30  1  0.34941850  0.33350406  0.82591420  1
  O  O31  1  0.94633327  0.07029045  0.21705600  1
  O  O32  1  0.85700836  0.16649594  0.67408580  1
  O  O33  1  0.02385932  0.21777356  0.00198742  1
  O  O34  1  0.23451343  0.10130044  0.78884444  1
  O  O35  1  0.59584984  0.03927974  0.79095386  1
