# generated using pymatgen
data_Li3TiFe3O8
_symmetry_space_group_name_H-M   'P 1'
_cell_length_a   5.61939608
_cell_length_b   6.60835662
_cell_length_c   10.25995389
_cell_angle_alpha   90.07135643
_cell_angle_beta   89.99335215
_cell_angle_gamma   90.07027843
_symmetry_Int_Tables_number   1
_chemical_formula_structural   Li3TiFe3O8
_chemical_formula_sum   'Li6 Ti2 Fe6 O16'
_cell_volume   381.00252882
_cell_formula_units_Z   2
loop_
 _symmetry_equiv_pos_site_id
 _symmetry_equiv_pos_as_xyz
  1  'x, y, z'
loop_
 _atom_site_type_symbol
 _atom_site_label
 _atom_site_symmetry_multiplicity
 _atom_site_fract_x
 _atom_site_fract_y
 _atom_site_fract_z
 _atom_site_occupancy
  Li  Li0  1  0.08461983  0.61833746  0.49427798  1
  Li  Li1  1  0.08522562  0.61651141  0.99857481  1
  Li  Li2  1  0.41885049  0.12956926  0.24597476  1
  Li  Li3  1  0.57382702  0.87757507  0.49888608  1
  Li  Li4  1  0.57298142  0.87633040  0.99479006  1
  Li  Li5  1  0.91026679  0.37325457  0.74540183  1
  Ti  Ti6  1  0.91897979  0.87434684  0.24916340  1
  Ti  Ti7  1  0.91610028  0.87537553  0.74957288  1
  Fe  Fe8  1  0.08791158  0.13211478  0.49766290  1
  Fe  Fe9  1  0.08725858  0.13224272  0.99883753  1
  Fe  Fe10  1  0.41697728  0.62238340  0.24954311  1
  Fe  Fe11  1  0.41864365  0.62265868  0.74961820  1
  Fe  Fe12  1  0.58548450  0.37297940  0.49917234  1
  Fe  Fe13  1  0.58462286  0.37217046  0.99834624  1
  O  O14  1  0.07253412  0.09317925  0.18436685  1
  O  O15  1  0.04123284  0.10569246  0.68251580  1
  O  O16  1  0.09601188  0.66161138  0.19235171  1
  O  O17  1  0.08977540  0.64889247  0.69704631  1
  O  O18  1  0.42710877  0.61511088  0.43624287  1
  O  O19  1  0.42773972  0.61449913  0.93627706  1
  O  O20  1  0.41211999  0.13401255  0.44374566  1
  O  O21  1  0.41246152  0.13095224  0.96099885  1
  O  O22  1  0.54493845  0.38509865  0.18280183  1
  O  O23  1  0.57886924  0.39853022  0.68420538  1
  O  O24  1  0.60260744  0.85906217  0.19664018  1
  O  O25  1  0.61219680  0.84476598  0.69266024  1
  O  O26  1  0.91621626  0.36720742  0.46086083  1
  O  O27  1  0.91366014  0.36459804  0.94340323  1
  O  O28  1  0.93206810  0.88805387  0.43031506  1
  O  O29  1  0.92726264  0.88937032  0.93076602  1
