# generated using pymatgen
data_Li2Fe(PO4)2
_symmetry_space_group_name_H-M   'P 1'
_cell_length_a   10.22978281
_cell_length_b   5.91241015
_cell_length_c   4.82500707
_cell_angle_alpha   88.64764832
_cell_angle_beta   89.74294945
_cell_angle_gamma   89.91065740
_symmetry_Int_Tables_number   1
_chemical_formula_structural   Li2Fe(PO4)2
_chemical_formula_sum   'Li4 Fe2 P4 O16'
_cell_volume   291.74478888
_cell_formula_units_Z   2
loop_
 _symmetry_equiv_pos_site_id
 _symmetry_equiv_pos_as_xyz
  1  'x, y, z'
loop_
 _atom_site_type_symbol
 _atom_site_label
 _atom_site_symmetry_multiplicity
 _atom_site_fract_x
 _atom_site_fract_y
 _atom_site_fract_z
 _atom_site_occupancy
  Li  Li0  1  0.00000000  0.00000000  0.00000000  1
  Li  Li1  1  0.22568278  0.74711023  0.46873722  1
  Li  Li2  1  0.50000000  0.50000000  0.50000000  1
  Li  Li3  1  0.77431722  0.25288977  0.53126278  1
  Fe  Fe4  1  0.27887777  0.25314336  0.98388492  1
  Fe  Fe5  1  0.72112223  0.74685664  0.01611508  1
  P  P6  1  0.10270012  0.24891816  0.41592429  1
  P  P7  1  0.40636843  0.75121905  0.93232971  1
  P  P8  1  0.59363157  0.24878095  0.06767029  1
  P  P9  1  0.89729988  0.75108184  0.58407571  1
  O  O10  1  0.04255437  0.75184225  0.65874665  1
  O  O11  1  0.12280282  0.23823950  0.73242394  1
  O  O12  1  0.16933831  0.04513396  0.26184692  1
  O  O13  1  0.17979624  0.44747544  0.27112593  1
  O  O14  1  0.33534819  0.96324907  0.81138458  1
  O  O15  1  0.33743057  0.54385142  0.79480354  1
  O  O16  1  0.40444057  0.73471934  0.24749397  1
  O  O17  1  0.45023933  0.25290632  0.18633561  1
  O  O18  1  0.54976067  0.74709368  0.81366439  1
  O  O19  1  0.59555943  0.26528066  0.75250603  1
  O  O20  1  0.66465181  0.03675093  0.18861542  1
  O  O21  1  0.66256943  0.45614858  0.20519646  1
  O  O22  1  0.82020376  0.55252456  0.72887407  1
  O  O23  1  0.83066169  0.95486604  0.73815308  1
  O  O24  1  0.87719718  0.76176050  0.26757606  1
  O  O25  1  0.95744563  0.24815675  0.34125335  1
