# generated using pymatgen
data_Fe3CoCu2(PO4)6
_symmetry_space_group_name_H-M   'P 1'
_cell_length_a   8.47841185
_cell_length_b   8.52240933
_cell_length_c   8.52240880
_cell_angle_alpha   59.99999920
_cell_angle_beta   59.82818554
_cell_angle_gamma   59.82818499
_symmetry_Int_Tables_number   1
_chemical_formula_structural   Fe3CoCu2(PO4)6
_chemical_formula_sum   'Fe3 Co1 Cu2 P6 O24'
_cell_volume   434.30168251
_cell_formula_units_Z   1
loop_
 _symmetry_equiv_pos_site_id
 _symmetry_equiv_pos_as_xyz
  1  'x, y, z'
loop_
 _atom_site_type_symbol
 _atom_site_label
 _atom_site_symmetry_multiplicity
 _atom_site_fract_x
 _atom_site_fract_y
 _atom_site_fract_z
 _atom_site_occupancy
  Fe  Fe0  1  0.06619202  0.64460266  0.64460266  1
  Fe  Fe1  1  0.43047410  0.85650830  0.85650830  1
  Fe  Fe2  1  0.93146463  0.35617879  0.35617879  1
  Co  Co3  1  0.57751528  0.14082824  0.14082824  1
  Cu  Cu4  1  0.99833033  0.00055656  0.00055656  1
  Cu  Cu5  1  0.49940570  0.50019777  0.50019777  1
  P  P6  1  0.25431917  0.24919874  0.53691157  1
  P  P7  1  0.25431917  0.95957052  0.24919874  1
  P  P8  1  0.25431917  0.53691157  0.95957052  1
  P  P9  1  0.74554091  0.45477849  0.04564007  1
  P  P10  1  0.74554091  0.04564007  0.75404153  1
  P  P11  1  0.74554091  0.75404153  0.45477849  1
  O  O12  1  0.06773710  0.11507813  0.31182865  1
  O  O13  1  0.06773710  0.50535713  0.11507813  1
  O  O14  1  0.06773710  0.31182865  0.50535713  1
  O  O15  1  0.23316151  0.08515855  0.73605609  1
  O  O16  1  0.43924920  0.19196620  0.37525875  1
  O  O17  1  0.27304551  0.41308593  0.55376470  1
  O  O18  1  0.23316151  0.94562385  0.08515855  1
  O  O19  1  0.27304551  0.76010386  0.41308593  1
  O  O20  1  0.56344857  0.61459392  0.00925460  1
  O  O21  1  0.27304551  0.55376470  0.76010386  1
  O  O22  1  0.76315268  0.25643887  0.05808560  1
  O  O23  1  0.56344857  0.00925460  0.81270291  1
  O  O24  1  0.43924920  0.99352685  0.19196620  1
  O  O25  1  0.23316151  0.73605609  0.94562385  1
  O  O26  1  0.72804240  0.43842461  0.24366002  1
  O  O27  1  0.43924920  0.37525875  0.99352685  1
  O  O28  1  0.72804240  0.24366002  0.58987397  1
  O  O29  1  0.76315268  0.05808560  0.92232285  1
  O  O30  1  0.72804240  0.58987397  0.43842461  1
  O  O31  1  0.56344857  0.81270291  0.61459392  1
  O  O32  1  0.76315268  0.92232285  0.25643887  1
  O  O33  1  0.93117627  0.69455032  0.48752854  1
  O  O34  1  0.93117627  0.48752854  0.88674588  1
  O  O35  1  0.93117627  0.88674588  0.69455032  1
