# generated using pymatgen
data_Er2NiSn6
_symmetry_space_group_name_H-M   'P 1'
_cell_length_a   4.37334278
_cell_length_b   4.42267000
_cell_length_c   11.42926002
_cell_angle_alpha   90.00000000
_cell_angle_beta   101.02996001
_cell_angle_gamma   90.00000000
_symmetry_Int_Tables_number   1
_chemical_formula_structural   Er2NiSn6
_chemical_formula_sum   'Er2 Ni1 Sn6'
_cell_volume   216.97941771
_cell_formula_units_Z   1
loop_
 _symmetry_equiv_pos_site_id
 _symmetry_equiv_pos_as_xyz
  1  'x, y, z'
loop_
 _atom_site_type_symbol
 _atom_site_label
 _atom_site_symmetry_multiplicity
 _atom_site_fract_x
 _atom_site_fract_y
 _atom_site_fract_z
 _atom_site_occupancy
  Er  Er0  1  0.17863429  0.00000000  0.35726858  1
  Er  Er1  1  0.82136571  0.00000000  0.64273142  1
  Ni  Ni2  1  0.50000000  0.50000000  -0.00000000  1
  Sn  Sn3  1  0.42985520  0.00000000  0.85971040  1
  Sn  Sn4  1  0.57014480  0.00000000  0.14028960  1
  Sn  Sn5  1  0.07126667  0.50000000  0.14253334  1
  Sn  Sn6  1  0.92873333  0.50000000  0.85746666  1
  Sn  Sn7  1  0.70404702  0.50000000  0.40809403  1
  Sn  Sn8  1  0.29595298  0.50000000  0.59190597  1
