# generated using pymatgen
data_LiMn2F9
_symmetry_space_group_name_H-M   'P 1'
_cell_length_a   4.92324227
_cell_length_b   8.50203617
_cell_length_c   9.53414613
_cell_angle_alpha   121.34154808
_cell_angle_beta   104.98937154
_cell_angle_gamma   90.86765144
_symmetry_Int_Tables_number   1
_chemical_formula_structural   LiMn2F9
_chemical_formula_sum   'Li2 Mn4 F18'
_cell_volume   323.78291698
_cell_formula_units_Z   2
loop_
 _symmetry_equiv_pos_site_id
 _symmetry_equiv_pos_as_xyz
  1  'x, y, z'
loop_
 _atom_site_type_symbol
 _atom_site_label
 _atom_site_symmetry_multiplicity
 _atom_site_fract_x
 _atom_site_fract_y
 _atom_site_fract_z
 _atom_site_occupancy
  Li  Li0  1  0.38474993  0.29057650  0.42194460  1
  Li  Li1  1  0.61525007  0.70942350  0.57805540  1
  Mn  Mn2  1  0.06489577  0.51676768  0.75927379  1
  Mn  Mn3  1  0.40414933  0.13004588  0.79975827  1
  Mn  Mn4  1  0.59585067  0.86995412  0.20024173  1
  Mn  Mn5  1  0.93510423  0.48323232  0.24072621  1
  F  F6  1  0.08290392  0.97646366  0.65111523  1
  F  F7  1  0.05980001  0.29359642  0.25718890  1
  F  F8  1  0.21353630  0.65649050  0.43204736  1
  F  F9  1  0.23749846  0.32797595  0.79554861  1
  F  F10  1  0.30372043  0.48950116  0.62944104  1
  F  F11  1  0.14820702  0.45548447  0.10763697  1
  F  F12  1  0.38801397  0.87875091  0.32564741  1
  F  F13  1  0.37395891  0.69911019  0.96817599  1
  F  F14  1  0.54685903  0.94425782  0.81369526  1
  F  F15  1  0.45314097  0.05574218  0.18630474  1
  F  F16  1  0.62604109  0.30088981  0.03182401  1
  F  F17  1  0.61198603  0.12124909  0.67435259  1
  F  F18  1  0.85179298  0.54451553  0.89236303  1
  F  F19  1  0.69627957  0.51049884  0.37055896  1
  F  F20  1  0.76250154  0.67202405  0.20445139  1
  F  F21  1  0.78646370  0.34350950  0.56795264  1
  F  F22  1  0.94019999  0.70640358  0.74281110  1
  F  F23  1  0.91709608  0.02353634  0.34888477  1
