# generated using pymatgen
data_LiMnF3
_symmetry_space_group_name_H-M   'P 1'
_cell_length_a   5.42584533
_cell_length_b   5.42589395
_cell_length_c   10.48540697
_cell_angle_alpha   89.94609559
_cell_angle_beta   90.01545153
_cell_angle_gamma   120.00240751
_symmetry_Int_Tables_number   1
_chemical_formula_structural   LiMnF3
_chemical_formula_sum   'Li4 Mn4 F12'
_cell_volume   267.32765809
_cell_formula_units_Z   4
loop_
 _symmetry_equiv_pos_site_id
 _symmetry_equiv_pos_as_xyz
  1  'x, y, z'
loop_
 _atom_site_type_symbol
 _atom_site_label
 _atom_site_symmetry_multiplicity
 _atom_site_fract_x
 _atom_site_fract_y
 _atom_site_fract_z
 _atom_site_occupancy
  Li  Li0  1  0.33331626  0.66636814  0.91719365  1
  Li  Li1  1  0.33335514  0.66681837  0.58303223  1
  Li  Li2  1  0.66655457  0.33315402  0.41703584  1
  Li  Li3  1  0.66668680  0.33368782  0.08285566  1
  Mn  Mn4  1  0.33329936  0.66674410  0.25008023  1
  Mn  Mn5  1  0.99993738  0.00007081  0.24996848  1
  Mn  Mn6  1  0.99999224  0.99990164  0.74997080  1
  Mn  Mn7  1  0.66668578  0.33327286  0.74996880  1
  F  F8  1  0.99535584  0.66294276  0.63875943  1
  F  F9  1  0.33716245  0.00450333  0.86121010  1
  F  F10  1  0.99536571  0.33231279  0.86112328  1
  F  F11  1  0.33726801  0.33259671  0.63874061  1
  F  F12  1  0.66746078  0.00472691  0.63880142  1
  F  F13  1  0.33241918  0.33697698  0.36117534  1
  F  F14  1  0.66750651  0.66245835  0.86127727  1
  F  F15  1  0.33249760  0.99549293  0.13881241  1
  F  F16  1  0.66272849  0.66773807  0.13878740  1
  F  F17  1  0.00458070  0.66740690  0.36122830  1
  F  F18  1  0.66277586  0.99525559  0.36124941  1
  F  F19  1  0.00485334  0.33757092  0.13872831  1
