# generated using pymatgen
data_Li2Fe(PO4)2
_symmetry_space_group_name_H-M   'P 1'
_cell_length_a   4.72891177
_cell_length_b   5.12847621
_cell_length_c   13.97620299
_cell_angle_alpha   97.31285028
_cell_angle_beta   89.99999996
_cell_angle_gamma   62.54547682
_symmetry_Int_Tables_number   1
_chemical_formula_structural   Li2Fe(PO4)2
_chemical_formula_sum   'Li4 Fe2 P4 O16'
_cell_volume   297.66818106
_cell_formula_units_Z   2
loop_
 _symmetry_equiv_pos_site_id
 _symmetry_equiv_pos_as_xyz
  1  'x, y, z'
loop_
 _atom_site_type_symbol
 _atom_site_label
 _atom_site_symmetry_multiplicity
 _atom_site_fract_x
 _atom_site_fract_y
 _atom_site_fract_z
 _atom_site_occupancy
  Li  Li0  1  0.67953831  0.67839826  0.33907526  1
  Li  Li1  1  0.64206243  0.67839826  0.83907526  1
  Li  Li2  1  0.96053812  0.01230608  0.74413861  1
  Li  Li3  1  0.02715580  0.01230608  0.24413861  1
  Fe  Fe4  1  0.02189008  0.98682223  0.50895980  1
  Fe  Fe5  1  0.99128669  0.98682223  0.00895980  1
  P  P6  1  0.67046523  0.67827581  0.11665932  1
  P  P7  1  0.65125795  0.67827581  0.61665932  1
  P  P8  1  0.35041304  0.31762734  0.38604800  1
  P  P9  1  0.33195962  0.31762734  0.88604800  1
  O  O10  1  0.84296159  0.87905870  0.12627398  1
  O  O11  1  0.78344087  0.77674716  0.53438413  1
  O  O12  1  0.79302929  0.71113100  0.71256983  1
  O  O13  1  0.93870524  0.35441829  0.08757731  1
  O  O14  1  0.70687747  0.35441829  0.58757731  1
  O  O15  1  0.49583871  0.71113100  0.21256983  1
  O  O16  1  0.43981297  0.77674716  0.03438413  1
  O  O17  1  0.70580308  0.08415935  0.36223619  1
  O  O18  1  0.27797970  0.87905870  0.62627398  1
  O  O19  1  0.55816670  0.21364904  0.96904490  1
  O  O20  1  0.53340716  0.34180612  0.80439364  1
  O  O21  1  0.33438476  0.62848960  0.41641102  1
  O  O22  1  0.03712664  0.62848960  0.91641102  1
  O  O23  1  0.12478773  0.34180612  0.30439364  1
  O  O24  1  0.22818425  0.21364904  0.46904490  1
  O  O25  1  0.21003757  0.08415935  0.86223619  1
