# generated using pymatgen
data_LiCoSiO4
_symmetry_space_group_name_H-M   'P 1'
_cell_length_a   8.63778486
_cell_length_b   8.01311908
_cell_length_c   15.07322436
_cell_angle_alpha   90.00000000
_cell_angle_beta   89.78533345
_cell_angle_gamma   90.00000000
_symmetry_Int_Tables_number   1
_chemical_formula_structural   LiCoSiO4
_chemical_formula_sum   'Li12 Co12 Si12 O48'
_cell_volume   1043.29492518
_cell_formula_units_Z   12
loop_
 _symmetry_equiv_pos_site_id
 _symmetry_equiv_pos_as_xyz
  1  'x, y, z'
loop_
 _atom_site_type_symbol
 _atom_site_label
 _atom_site_symmetry_multiplicity
 _atom_site_fract_x
 _atom_site_fract_y
 _atom_site_fract_z
 _atom_site_occupancy
  Li  Li0  1  0.22355671  0.02823749  0.55718506  1
  Li  Li1  1  0.23193796  0.96632944  0.90442802  1
  Li  Li2  1  0.24501731  0.15096244  0.24941545  1
  Li  Li3  1  0.25498269  0.65096244  0.25058455  1
  Li  Li4  1  0.26806204  0.46632944  0.59557198  1
  Li  Li5  1  0.27644329  0.52823749  0.94281494  1
  Li  Li6  1  0.72355671  0.47176251  0.05718506  1
  Li  Li7  1  0.73193796  0.53367056  0.40442802  1
  Li  Li8  1  0.74501731  0.34903756  0.74941545  1
  Li  Li9  1  0.75498269  0.84903756  0.75058455  1
  Li  Li10  1  0.76806204  0.03367056  0.09557198  1
  Li  Li11  1  0.77644329  0.97176251  0.44281494  1
  Co  Co12  1  0.04554577  0.73073368  0.09483055  1
  Co  Co13  1  0.09176425  0.79035526  0.72861150  1
  Co  Co14  1  0.11524544  0.72609027  0.42884789  1
  Co  Co15  1  0.38475456  0.22609027  0.07115211  1
  Co  Co16  1  0.40823575  0.29035526  0.77138850  1
  Co  Co17  1  0.45445423  0.23073368  0.40516945  1
  Co  Co18  1  0.54554577  0.76926632  0.59483055  1
  Co  Co19  1  0.59176425  0.70964474  0.22861150  1
  Co  Co20  1  0.61524544  0.77390973  0.92884789  1
  Co  Co21  1  0.88475456  0.27390973  0.57115211  1
  Co  Co22  1  0.90823575  0.20964474  0.27138850  1
  Co  Co23  1  0.95445423  0.26926632  0.90516945  1
  Si  Si24  1  0.05058273  0.33675414  0.09334958  1
  Si  Si25  1  0.08478663  0.17418682  0.72549203  1
  Si  Si26  1  0.10936877  0.33153323  0.42347599  1
  Si  Si27  1  0.39063123  0.83153323  0.07652401  1
  Si  Si28  1  0.41521337  0.67418682  0.77450797  1
  Si  Si29  1  0.44941727  0.83675414  0.40665042  1
  Si  Si30  1  0.55058273  0.16324586  0.59334958  1
  Si  Si31  1  0.58478663  0.32581318  0.22549203  1
  Si  Si32  1  0.60936877  0.16846677  0.92347599  1
  Si  Si33  1  0.89063123  0.66846677  0.57652401  1
  Si  Si34  1  0.91521337  0.82581318  0.27450797  1
  Si  Si35  1  0.94941727  0.66324586  0.90665042  1
  O  O36  1  0.03749939  0.48299127  0.89266226  1
  O  O37  1  0.04656064  0.64361736  0.63815899  1
  O  O38  1  0.05979946  0.77328208  0.97380274  1
  O  O39  1  0.07351664  0.72938435  0.30608727  1
  O  O40  1  0.06894138  0.21822984  0.51177063  1
  O  O41  1  0.10047330  0.99706601  0.67116712  1
  O  O42  1  0.07873646  0.13531979  0.83331317  1
  O  O43  1  0.07108890  0.23526657  0.18719589  1
  O  O44  1  0.17322410  0.51207876  0.46138035  1
  O  O45  1  0.22327075  0.37032572  0.04854374  1
  O  O46  1  0.24671268  0.23968223  0.36565722  1
  O  O47  1  0.23507686  0.29111048  0.69924228  1
  O  O48  1  0.25328732  0.73968223  0.13434278  1
  O  O49  1  0.26492314  0.79111048  0.80075772  1
  O  O50  1  0.27672925  0.87032572  0.45145626  1
  O  O51  1  0.32677590  0.01207876  0.03861965  1
  O  O52  1  0.42891110  0.73526657  0.31280411  1
  O  O53  1  0.42126354  0.63531979  0.66668683  1
  O  O54  1  0.39952670  0.49706601  0.82883288  1
  O  O55  1  0.42648336  0.22938435  0.19391273  1
  O  O56  1  0.43105862  0.71822984  0.98822937  1
  O  O57  1  0.44020054  0.27328208  0.52619726  1
  O  O58  1  0.45343936  0.14361736  0.86184101  1
  O  O59  1  0.46250061  0.98299127  0.60733774  1
  O  O60  1  0.53749939  0.01700873  0.39266226  1
  O  O61  1  0.54656064  0.85638264  0.13815899  1
  O  O62  1  0.55979946  0.72671792  0.47380274  1
  O  O63  1  0.56894138  0.28177016  0.01177063  1
  O  O64  1  0.57351664  0.77061565  0.80608727  1
  O  O65  1  0.60047330  0.50293399  0.17116712  1
  O  O66  1  0.57873646  0.36468021  0.33331317  1
  O  O67  1  0.57108890  0.26473343  0.68719589  1
  O  O68  1  0.67322410  0.98792124  0.96138035  1
  O  O69  1  0.72327075  0.12967428  0.54854374  1
  O  O70  1  0.73507686  0.20888952  0.19924228  1
  O  O71  1  0.74671268  0.26031777  0.86565722  1
  O  O72  1  0.76492314  0.70888952  0.30075772  1
  O  O73  1  0.75328732  0.76031777  0.63434278  1
  O  O74  1  0.77672925  0.62967428  0.95145626  1
  O  O75  1  0.82677590  0.48792124  0.53861965  1
  O  O76  1  0.92891110  0.76473343  0.81280411  1
  O  O77  1  0.92126354  0.86468021  0.16668683  1
  O  O78  1  0.89952670  0.00293499  0.32883288  1
  O  O79  1  0.93105862  0.78177016  0.48822937  1
  O  O80  1  0.92648336  0.27061565  0.69391273  1
  O  O81  1  0.94020054  0.22671792  0.02619726  1
  O  O82  1  0.95343936  0.35638264  0.36184101  1
  O  O83  1  0.96250061  0.51700873  0.10733774  1
