# generated using pymatgen
data_Li4V2Co3Ni3O16
_symmetry_space_group_name_H-M   'P 1'
_cell_length_a   5.84894649
_cell_length_b   5.78293933
_cell_length_c   9.35876941
_cell_angle_alpha   89.86984841
_cell_angle_beta   91.16326850
_cell_angle_gamma   119.77365596
_symmetry_Int_Tables_number   1
_chemical_formula_structural   Li4V2Co3Ni3O16
_chemical_formula_sum   'Li4 V2 Co3 Ni3 O16'
_cell_volume   274.69742282
_cell_formula_units_Z   1
loop_
 _symmetry_equiv_pos_site_id
 _symmetry_equiv_pos_as_xyz
  1  'x, y, z'
loop_
 _atom_site_type_symbol
 _atom_site_label
 _atom_site_symmetry_multiplicity
 _atom_site_fract_x
 _atom_site_fract_y
 _atom_site_fract_z
 _atom_site_occupancy
  Li  Li0  1  0.32676088  0.66301453  0.90066767  1
  Li  Li1  1  0.00983757  0.00634424  0.99045406  1
  Li  Li2  1  0.01395346  0.00716302  0.49632722  1
  Li  Li3  1  0.65608861  0.32774306  0.39843780  1
  V  V4  1  0.33341375  0.66766921  0.49931183  1
  V  V5  1  0.70364102  0.35177310  0.98709495  1
  Co  Co6  1  0.17844574  0.83463277  0.21580056  1
  Co  Co7  1  0.18182633  0.34458122  0.21762957  1
  Co  Co8  1  0.35038577  0.17518109  0.72274902  1
  Ni  Ni9  1  0.66114768  0.83065152  0.21327932  1
  Ni  Ni10  1  0.82786164  0.65885737  0.71172892  1
  Ni  Ni11  1  0.82777826  0.16881449  0.71171027  1
  O  O12  1  0.18275608  0.83120786  0.59157839  1
  O  O13  1  0.04145975  0.52007080  0.33289972  1
  O  O14  1  0.30994325  0.65364480  0.11092686  1
  O  O15  1  0.02178640  0.01231334  0.30267885  1
  O  O16  1  0.02092748  0.01022884  0.79777040  1
  O  O17  1  0.18333529  0.35130944  0.59137727  1
  O  O18  1  0.45836790  0.95583096  0.34316299  1
  O  O19  1  0.45941352  0.50383272  0.34226362  1
  O  O20  1  0.33001334  0.16333795  0.10635710  1
  O  O21  1  0.65513078  0.82729557  0.57653878  1
  O  O22  1  0.50064218  0.46098498  0.84882817  1
  O  O23  1  0.50085990  0.03943456  0.84893113  1
  O  O24  1  0.64042002  0.32025704  0.60848418  1
  O  O25  1  0.83495617  0.65968514  0.09169093  1
  O  O26  1  0.95590241  0.47833878  0.85805508  1
  O  O27  1  0.83294484  0.17610161  0.09110833  1
