# generated using pymatgen
data_LiCoSiO4
_symmetry_space_group_name_H-M   'P 1'
_cell_length_a   4.77092603
_cell_length_b   5.79618306
_cell_length_c   10.15644328
_cell_angle_alpha   90.00074082
_cell_angle_beta   89.97814964
_cell_angle_gamma   89.99728827
_symmetry_Int_Tables_number   1
_chemical_formula_structural   LiCoSiO4
_chemical_formula_sum   'Li4 Co4 Si4 O16'
_cell_volume   280.85773714
_cell_formula_units_Z   4
loop_
 _symmetry_equiv_pos_site_id
 _symmetry_equiv_pos_as_xyz
  1  'x, y, z'
loop_
 _atom_site_type_symbol
 _atom_site_label
 _atom_site_symmetry_multiplicity
 _atom_site_fract_x
 _atom_site_fract_y
 _atom_site_fract_z
 _atom_site_occupancy
  Li  Li0  1  0.99961024  0.25653649  0.49992833  1
  Li  Li1  1  0.50028932  0.25631791  0.00020749  1
  Li  Li2  1  0.50037479  0.75629155  0.99983411  1
  Li  Li3  1  0.99953236  0.75607000  0.49955354  1
  Co  Co4  1  0.01724877  0.00658785  0.22430573  1
  Co  Co5  1  0.48252236  0.00657439  0.72445126  1
  Co  Co6  1  0.51742381  0.50662070  0.27550922  1
  Co  Co7  1  0.98281963  0.50661676  0.77574037  1
  Si  Si8  1  0.05613678  0.50656872  0.09344044  1
  Si  Si9  1  0.44463420  0.50657236  0.59359929  1
  Si  Si10  1  0.55541424  0.00660247  0.40641061  1
  Si  Si11  1  0.94469638  0.00660633  0.90664347  1
  O  O12  1  0.18885281  0.50652953  0.94506990  1
  O  O13  1  0.21201901  0.28817423  0.17234082  1
  O  O14  1  0.21198465  0.72501033  0.17233686  1
  O  O15  1  0.21585055  0.00650851  0.39908711  1
  O  O16  1  0.28344291  0.00651164  0.89943820  1
  O  O17  1  0.28813253  0.72497893  0.67244255  1
  O  O18  1  0.28809320  0.28817935  0.67244280  1
  O  O19  1  0.31186310  0.50651816  0.44505833  1
  O  O20  1  0.68758717  0.00651949  0.55475631  1
  O  O21  1  0.71158546  0.78824732  0.32753562  1
  O  O22  1  0.71154920  0.22493326  0.32753799  1
  O  O23  1  0.71669148  0.50651997  0.10065587  1
  O  O24  1  0.78335631  0.50651414  0.60083345  1
  O  O25  1  0.78831945  0.22502824  0.82787692  1
  O  O26  1  0.78828392  0.78815715  0.82786126  1
  O  O27  1  0.81168536  0.00650426  0.05510214  1
