# generated using pymatgen
data_Ti2V3Cr(PO4)6
_symmetry_space_group_name_H-M   'P 1'
_cell_length_a   8.44284875
_cell_length_b   8.69476214
_cell_length_c   8.69476185
_cell_angle_alpha   60.00000046
_cell_angle_beta   59.00797824
_cell_angle_gamma   59.00797713
_symmetry_Int_Tables_number   1
_chemical_formula_structural   Ti2V3Cr(PO4)6
_chemical_formula_sum   'Ti2 V3 Cr1 P6 O24'
_cell_volume   444.43884383
_cell_formula_units_Z   1
loop_
 _symmetry_equiv_pos_site_id
 _symmetry_equiv_pos_as_xyz
  1  'x, y, z'
loop_
 _atom_site_type_symbol
 _atom_site_label
 _atom_site_symmetry_multiplicity
 _atom_site_fract_x
 _atom_site_fract_y
 _atom_site_fract_z
 _atom_site_occupancy
  Ti  Ti0  1  0.00729976  0.99756708  0.99756708  1
  Ti  Ti1  1  0.50200575  0.49933108  0.49933108  1
  V  V2  1  0.07224417  0.64258528  0.64258528  1
  V  V3  1  0.42475584  0.85841439  0.85841439  1
  V  V4  1  0.92322855  0.35892348  0.35892348  1
  Cr  Cr5  1  0.57417067  0.14194278  0.14194278  1
  P  P6  1  0.25111969  0.25112322  0.54152561  1
  P  P7  1  0.25111969  0.95623149  0.25112322  1
  P  P8  1  0.25111969  0.54152561  0.95623149  1
  P  P9  1  0.74847525  0.45438708  0.04473638  1
  P  P10  1  0.74847525  0.04473638  0.75240129  1
  P  P11  1  0.74847525  0.75240129  0.45438708  1
  O  O12  1  0.06523772  0.10776962  0.32321455  1
  O  O13  1  0.06523772  0.50377811  0.10776962  1
  O  O14  1  0.06523772  0.32321455  0.50377811  1
  O  O15  1  0.21532451  0.09831799  0.74709640  1
  O  O16  1  0.43765717  0.17922940  0.38994176  1
  O  O17  1  0.28572039  0.40238063  0.56152328  1
  O  O18  1  0.21532451  0.93926210  0.09831799  1
  O  O19  1  0.28572039  0.75037570  0.40238063  1
  O  O20  1  0.56412328  0.60761134  0.00563577  1
  O  O21  1  0.28572039  0.56152328  0.75037570  1
  O  O22  1  0.78350611  0.24951362  0.06176610  1
  O  O23  1  0.56412328  0.00563577  0.82262862  1
  O  O24  1  0.43765717  0.99317167  0.17922940  1
  O  O25  1  0.21532451  0.74709640  0.93926210  1
  O  O26  1  0.71291380  0.43668328  0.25023919  1
  O  O27  1  0.43765717  0.38994176  0.99317167  1
  O  O28  1  0.71291380  0.25023919  0.60016473  1
  O  O29  1  0.78350611  0.06176610  0.90521517  1
  O  O30  1  0.71291380  0.60016473  0.43668328  1
  O  O31  1  0.56412328  0.82262862  0.60761134  1
  O  O32  1  0.78350611  0.90521517  0.24951362  1
  O  O33  1  0.93468817  0.67888474  0.49285750  1
  O  O34  1  0.93468817  0.49285750  0.89356958  1
  O  O35  1  0.93468817  0.89356958  0.67888474  1
