# generated using pymatgen
data_Li4V7(PO4)6
_symmetry_space_group_name_H-M   'P 1'
_cell_length_a   8.91268461
_cell_length_b   8.91268461
_cell_length_c   6.70780173
_cell_angle_alpha   79.96582603
_cell_angle_beta   100.03417397
_cell_angle_gamma   74.17005797
_symmetry_Int_Tables_number   1
_chemical_formula_structural   Li4V7(PO4)6
_chemical_formula_sum   'Li4 V7 P6 O24'
_cell_volume   490.76644122
_cell_formula_units_Z   1
loop_
 _symmetry_equiv_pos_site_id
 _symmetry_equiv_pos_as_xyz
  1  'x, y, z'
loop_
 _atom_site_type_symbol
 _atom_site_label
 _atom_site_symmetry_multiplicity
 _atom_site_fract_x
 _atom_site_fract_y
 _atom_site_fract_z
 _atom_site_occupancy
  Li  Li0  1  0.00404197  0.99595803  0.49174957  1
  Li  Li1  1  0.36931856  0.63068144  0.58846023  1
  Li  Li2  1  0.67352594  0.54693879  0.49014645  1
  Li  Li3  1  0.45306121  0.32647406  0.49014645  1
  V  V4  1  0.64307955  0.99276984  0.19388495  1
  V  V5  1  0.00723016  0.35692045  0.19388495  1
  V  V6  1  0.00369209  0.99630791  0.99758306  1
  V  V7  1  0.32663525  0.31660966  0.00492266  1
  V  V8  1  0.68339034  0.67336475  0.00492266  1
  V  V9  1  0.36253156  0.99802307  0.81415015  1
  V  V10  1  0.00197693  0.63746844  0.81415015  1
  P  P11  1  0.72036426  0.90760397  0.69803974  1
  P  P12  1  0.09239603  0.27963574  0.69803974  1
  P  P13  1  0.33613051  0.66386949  0.08899390  1
  P  P14  1  0.67483484  0.32516516  0.91671720  1
  P  P15  1  0.28357349  0.07841506  0.30846637  1
  P  P16  1  0.92158494  0.71642651  0.30846637  1
  O  O17  1  0.05006833  0.64717393  0.51118183  1
  O  O18  1  0.35282607  0.94993167  0.51118183  1
  O  O19  1  0.05947694  0.36967333  0.87773539  1
  O  O20  1  0.63032667  0.94052306  0.87773539  1
  O  O21  1  0.20667466  0.79332534  0.13785243  1
  O  O22  1  0.43068837  0.74338622  0.94480307  1
  O  O23  1  0.25661378  0.56931163  0.94480307  1
  O  O24  1  0.10392429  0.09677551  0.75503492  1
  O  O25  1  0.90322449  0.89607571  0.75503492  1
  O  O26  1  0.73106186  0.72713706  0.69961506  1
  O  O27  1  0.27286294  0.26893814  0.69961506  1
  O  O28  1  0.44960263  0.55039737  0.29285000  1
  O  O29  1  0.56010744  0.43989256  0.71201208  1
  O  O30  1  0.28203097  0.25585805  0.31453095  1
  O  O31  1  0.74414195  0.71796903  0.31453095  1
  O  O32  1  0.09907980  0.09942755  0.24068954  1
  O  O33  1  0.90057245  0.90092020  0.24068954  1
  O  O34  1  0.80270983  0.19729017  0.86484375  1
  O  O35  1  0.37656768  0.04556519  0.13217583  1
  O  O36  1  0.95443481  0.62343232  0.13217583  1
  O  O37  1  0.75524303  0.42267636  0.05258097  1
  O  O38  1  0.57732364  0.24475697  0.05258097  1
  O  O39  1  0.63688253  0.03488480  0.49691451  1
  O  O40  1  0.96511520  0.36311747  0.49691451  1
