# generated using pymatgen
data_Li4VP2O9
_symmetry_space_group_name_H-M   'P 1'
_cell_length_a   6.85492073
_cell_length_b   13.77038886
_cell_length_c   10.24113626
_cell_angle_alpha   90.00000000
_cell_angle_beta   90.00000000
_cell_angle_gamma   90.00000000
_symmetry_Int_Tables_number   1
_chemical_formula_structural   Li4VP2O9
_chemical_formula_sum   'Li16 V4 P8 O36'
_cell_volume   966.71127952
_cell_formula_units_Z   4
loop_
 _symmetry_equiv_pos_site_id
 _symmetry_equiv_pos_as_xyz
  1  'x, y, z'
loop_
 _atom_site_type_symbol
 _atom_site_label
 _atom_site_symmetry_multiplicity
 _atom_site_fract_x
 _atom_site_fract_y
 _atom_site_fract_z
 _atom_site_occupancy
  Li  Li0  1  0.16262281  0.58758350  0.39595029  1
  Li  Li1  1  0.16262281  0.91241650  0.39595029  1
  Li  Li2  1  0.09517630  0.53802688  0.80626965  1
  Li  Li3  1  0.09517630  0.96197312  0.80626965  1
  Li  Li4  1  0.40482370  0.03802688  0.30626965  1
  Li  Li5  1  0.40482370  0.46197312  0.30626965  1
  Li  Li6  1  0.33737719  0.08758350  0.89595029  1
  Li  Li7  1  0.33737719  0.41241650  0.89595029  1
  Li  Li8  1  0.66262281  0.58758350  0.10404971  1
  Li  Li9  1  0.66262281  0.91241650  0.10404971  1
  Li  Li10  1  0.59517630  0.53802688  0.69373035  1
  Li  Li11  1  0.59517630  0.96197312  0.69373035  1
  Li  Li12  1  0.90482370  0.46197312  0.19373035  1
  Li  Li13  1  0.90482370  0.03802688  0.19373035  1
  Li  Li14  1  0.83737719  0.41241650  0.60404971  1
  Li  Li15  1  0.83737719  0.08758350  0.60404971  1
  V  V16  1  0.06376496  0.25000000  0.76601976  1
  V  V17  1  0.43623504  0.75000000  0.26601976  1
  V  V18  1  0.56376496  0.25000000  0.73398024  1
  V  V19  1  0.93623504  0.75000000  0.23398024  1
  P  P20  1  0.20071338  0.91658360  0.10202414  1
  P  P21  1  0.20071338  0.58341640  0.10202414  1
  P  P22  1  0.29928662  0.08341640  0.60202414  1
  P  P23  1  0.29928662  0.41658360  0.60202414  1
  P  P24  1  0.70071338  0.58341640  0.39797586  1
  P  P25  1  0.70071338  0.91658360  0.39797586  1
  P  P26  1  0.79928662  0.08341640  0.89797586  1
  P  P27  1  0.79928662  0.41658360  0.89797586  1
  O  O28  1  0.98309748  0.15076423  0.89680160  1
  O  O29  1  0.98309748  0.34923577  0.89680160  1
  O  O30  1  0.17585846  0.50935741  0.21636152  1
  O  O31  1  0.17585846  0.99064259  0.21636152  1
  O  O32  1  0.18988481  0.75000000  0.31610817  1
  O  O33  1  0.22221256  0.96821091  0.97056519  1
  O  O34  1  0.22221256  0.53178909  0.97056519  1
  O  O35  1  0.11057408  0.35521898  0.62713012  1
  O  O36  1  0.11057408  0.14478102  0.62713012  1
  O  O37  1  0.38942592  0.64478102  0.12713012  1
  O  O38  1  0.38942592  0.85521898  0.12713012  1
  O  O39  1  0.27778744  0.03178909  0.47056519  1
  O  O40  1  0.27778744  0.46821091  0.47056519  1
  O  O41  1  0.31011519  0.25000000  0.81610817  1
  O  O42  1  0.32414154  0.00935741  0.71636152  1
  O  O43  1  0.32414154  0.49064259  0.71636152  1
  O  O44  1  0.51690252  0.65076423  0.39680160  1
  O  O45  1  0.51690252  0.84923577  0.39680160  1
  O  O46  1  0.48309748  0.15076423  0.60319840  1
  O  O47  1  0.48309748  0.34923577  0.60319840  1
  O  O48  1  0.67585846  0.50935741  0.28363848  1
  O  O49  1  0.67585846  0.99064259  0.28363848  1
  O  O50  1  0.68988481  0.75000000  0.18389183  1
  O  O51  1  0.72221256  0.53178909  0.52943481  1
  O  O52  1  0.72221256  0.96821091  0.52943481  1
  O  O53  1  0.61057408  0.14478102  0.87286988  1
  O  O54  1  0.61057408  0.35521898  0.87286988  1
  O  O55  1  0.88942592  0.64478102  0.37286988  1
  O  O56  1  0.88942592  0.85521898  0.37286988  1
  O  O57  1  0.77778744  0.03178909  0.02943481  1
  O  O58  1  0.77778744  0.46821091  0.02943481  1
  O  O59  1  0.81011519  0.25000000  0.68389183  1
  O  O60  1  0.82414154  0.49064259  0.78363848  1
  O  O61  1  0.82414154  0.00935741  0.78363848  1
  O  O62  1  0.01690252  0.65076423  0.10319840  1
  O  O63  1  0.01690252  0.84923577  0.10319840  1
