# generated using pymatgen
data_Li3MnF5
_symmetry_space_group_name_H-M   'P 1'
_cell_length_a   10.60101649
_cell_length_b   6.62387407
_cell_length_c   6.71800993
_cell_angle_alpha   90.00000000
_cell_angle_beta   90.00000000
_cell_angle_gamma   90.00000000
_symmetry_Int_Tables_number   1
_chemical_formula_structural   Li3MnF5
_chemical_formula_sum   'Li12 Mn4 F20'
_cell_volume   471.73730188
_cell_formula_units_Z   4
loop_
 _symmetry_equiv_pos_site_id
 _symmetry_equiv_pos_as_xyz
  1  'x, y, z'
loop_
 _atom_site_type_symbol
 _atom_site_label
 _atom_site_symmetry_multiplicity
 _atom_site_fract_x
 _atom_site_fract_y
 _atom_site_fract_z
 _atom_site_occupancy
  Li  Li0  1  0.04516341  0.25000000  0.76273731  1
  Li  Li1  1  0.17289514  0.96075946  0.23088170  1
  Li  Li2  1  0.17289514  0.53924054  0.23088170  1
  Li  Li3  1  0.32710486  0.03924054  0.73088170  1
  Li  Li4  1  0.32710486  0.46075946  0.73088170  1
  Li  Li5  1  0.45483659  0.75000000  0.26273731  1
  Li  Li6  1  0.54516341  0.25000000  0.73726269  1
  Li  Li7  1  0.67289514  0.96075946  0.26911830  1
  Li  Li8  1  0.67289514  0.53924054  0.26911830  1
  Li  Li9  1  0.82710486  0.46075946  0.76911830  1
  Li  Li10  1  0.82710486  0.03924054  0.76911830  1
  Li  Li11  1  0.95483659  0.75000000  0.23726269  1
  Mn  Mn12  1  0.07915185  0.75000000  0.73358430  1
  Mn  Mn13  1  0.42084815  0.25000000  0.23358430  1
  Mn  Mn14  1  0.57915185  0.75000000  0.76641570  1
  Mn  Mn15  1  0.92084815  0.25000000  0.26641570  1
  F  F16  1  0.90401808  0.25000000  0.94975342  1
  F  F17  1  0.15221607  0.03474353  0.73834183  1
  F  F18  1  0.15221607  0.46525647  0.73834183  1
  F  F19  1  0.11852137  0.25000000  0.24003805  1
  F  F20  1  0.09853817  0.75000000  0.41996043  1
  F  F21  1  0.40146183  0.25000000  0.91996043  1
  F  F22  1  0.38147863  0.75000000  0.74003805  1
  F  F23  1  0.34778393  0.96525647  0.23834183  1
  F  F24  1  0.34778393  0.53474353  0.23834183  1
  F  F25  1  0.59598192  0.75000000  0.44975342  1
  F  F26  1  0.40401808  0.25000000  0.55024658  1
  F  F27  1  0.65221607  0.46525647  0.76165817  1
  F  F28  1  0.65221607  0.03474353  0.76165817  1
  F  F29  1  0.61852137  0.25000000  0.25996195  1
  F  F30  1  0.59853817  0.75000000  0.08003957  1
  F  F31  1  0.90146183  0.25000000  0.58003957  1
  F  F32  1  0.88147863  0.75000000  0.75996195  1
  F  F33  1  0.84778393  0.96525647  0.26165817  1
  F  F34  1  0.84778393  0.53474353  0.26165817  1
  F  F35  1  0.09598192  0.75000000  0.05024658  1
