# generated using pymatgen
data_Li2Cr3CoO8
_symmetry_space_group_name_H-M   'P 1'
_cell_length_a   5.86075480
_cell_length_b   5.85898217
_cell_length_c   5.94355285
_cell_angle_alpha   119.15419691
_cell_angle_beta   89.81479042
_cell_angle_gamma   59.84393819
_symmetry_Int_Tables_number   1
_chemical_formula_structural   Li2Cr3CoO8
_chemical_formula_sum   'Li2 Cr3 Co1 O8'
_cell_volume   145.56619748
_cell_formula_units_Z   1
loop_
 _symmetry_equiv_pos_site_id
 _symmetry_equiv_pos_as_xyz
  1  'x, y, z'
loop_
 _atom_site_type_symbol
 _atom_site_label
 _atom_site_symmetry_multiplicity
 _atom_site_fract_x
 _atom_site_fract_y
 _atom_site_fract_z
 _atom_site_occupancy
  Li  Li0  1  0.00000000  0.00000000  0.50000000  1
  Li  Li1  1  0.50000000  0.50000000  0.50000000  1
  Cr  Cr2  1  0.00000000  0.50000000  0.00000000  1
  Cr  Cr3  1  0.50000000  0.00000000  0.00000000  1
  Cr  Cr4  1  0.50000000  0.50000000  0.00000000  1
  Co  Co5  1  0.00000000  0.00000000  0.00000000  1
  O  O6  1  0.22883093  0.01722326  0.78834851  1
  O  O7  1  0.23637709  0.54327703  0.79543419  1
  O  O8  1  0.74749770  0.03230167  0.79552719  1
  O  O9  1  0.73037532  0.51752257  0.78713463  1
  O  O10  1  0.26962468  0.48247643  0.21286537  1
  O  O11  1  0.25250230  0.96769833  0.20447281  1
  O  O12  1  0.76362291  0.45672397  0.20456581  1
  O  O13  1  0.77116907  0.98277774  0.21165149  1
