# generated using pymatgen
data_LiCoSiO4
_symmetry_space_group_name_H-M   'P 1'
_cell_length_a   5.21172333
_cell_length_b   6.56179016
_cell_length_c   10.45364064
_cell_angle_alpha   90.00416802
_cell_angle_beta   90.00000000
_cell_angle_gamma   90.00000000
_symmetry_Int_Tables_number   1
_chemical_formula_structural   LiCoSiO4
_chemical_formula_sum   'Li4 Co4 Si4 O16'
_cell_volume   357.49605697
_cell_formula_units_Z   4
loop_
 _symmetry_equiv_pos_site_id
 _symmetry_equiv_pos_as_xyz
  1  'x, y, z'
loop_
 _atom_site_type_symbol
 _atom_site_label
 _atom_site_symmetry_multiplicity
 _atom_site_fract_x
 _atom_site_fract_y
 _atom_site_fract_z
 _atom_site_occupancy
  Li  Li0  1  0.79204530  0.88058863  0.08658804  1
  Li  Li1  1  0.29213949  0.38062207  0.41341323  1
  Li  Li2  1  0.70795470  0.88058863  0.58658804  1
  Li  Li3  1  0.20786051  0.38062207  0.91341323  1
  Co  Co4  1  0.67650479  0.36481931  0.08917897  1
  Co  Co5  1  0.17651126  0.86482135  0.41080550  1
  Co  Co6  1  0.82349521  0.36481931  0.58917897  1
  Co  Co7  1  0.32348874  0.86482135  0.91080550  1
  Si  Si8  1  0.17665512  0.61565495  0.15767144  1
  Si  Si9  1  0.67665072  0.11564979  0.34232486  1
  Si  Si10  1  0.32334488  0.61565495  0.65767144  1
  Si  Si11  1  0.82334928  0.11564979  0.84232486  1
  O  O12  1  0.24882580  0.82912200  0.08328452  1
  O  O13  1  0.32309510  0.42025239  0.09143858  1
  O  O14  1  0.86399657  0.59257230  0.13673040  1
  O  O15  1  0.74264824  0.13254864  0.18880958  1
  O  O16  1  0.24265186  0.63257957  0.31118132  1
  O  O17  1  0.36402774  0.09256108  0.36330988  1
  O  O18  1  0.82310309  0.92030886  0.40857724  1
  O  O19  1  0.74868037  0.32907807  0.41669045  1
  O  O20  1  0.25117420  0.82912200  0.58328452  1
  O  O21  1  0.17690490  0.42025239  0.59143858  1
  O  O22  1  0.63600343  0.59257230  0.63673040  1
  O  O23  1  0.75735176  0.13254864  0.68880958  1
  O  O24  1  0.25734814  0.63257957  0.81118132  1
  O  O25  1  0.13597226  0.09256108  0.86330988  1
  O  O26  1  0.67689691  0.92030886  0.90857724  1
  O  O27  1  0.75131963  0.32907807  0.91669045  1
