# generated using pymatgen
data_LiP4WO12
_symmetry_space_group_name_H-M   'P 1'
_cell_length_a   9.47868101
_cell_length_b   13.06249850
_cell_length_c   7.47960829
_cell_angle_alpha   90.00000000
_cell_angle_beta   87.04862555
_cell_angle_gamma   90.00000000
_symmetry_Int_Tables_number   1
_chemical_formula_structural   LiP4WO12
_chemical_formula_sum   'Li4 P16 W4 O48'
_cell_volume   924.86124525
_cell_formula_units_Z   4
loop_
 _symmetry_equiv_pos_site_id
 _symmetry_equiv_pos_as_xyz
  1  'x, y, z'
loop_
 _atom_site_type_symbol
 _atom_site_label
 _atom_site_symmetry_multiplicity
 _atom_site_fract_x
 _atom_site_fract_y
 _atom_site_fract_z
 _atom_site_occupancy
  Li  Li0  1  0.06385423  0.23418730  0.02308659  1
  Li  Li1  1  0.43614577  0.73418730  0.47691341  1
  Li  Li2  1  0.56385423  0.26581270  0.52308659  1
  Li  Li3  1  0.93614577  0.76581270  0.97691341  1
  P  P4  1  0.19080797  0.37603531  0.38136857  1
  P  P5  1  0.19421554  0.59334006  0.31376789  1
  P  P6  1  0.26768744  0.11764661  0.58135611  1
  P  P7  1  0.22754817  0.90658216  0.71822728  1
  P  P8  1  0.27245183  0.40658216  0.78177272  1
  P  P9  1  0.23231256  0.61764661  0.91864389  1
  P  P10  1  0.30578446  0.09334006  0.18623211  1
  P  P11  1  0.30919203  0.87603531  0.11863143  1
  P  P12  1  0.69080797  0.12396469  0.88136857  1
  P  P13  1  0.69421554  0.90665994  0.81376789  1
  P  P14  1  0.76768744  0.38235339  0.08135611  1
  P  P15  1  0.72754817  0.59341784  0.21822728  1
  P  P16  1  0.77245183  0.09341784  0.28177272  1
  P  P17  1  0.73231256  0.88235339  0.41864389  1
  P  P18  1  0.80578446  0.40665994  0.68623211  1
  P  P19  1  0.80919203  0.62396469  0.61863143  1
  W  W20  1  0.06343495  0.80291726  0.46820398  1
  W  W21  1  0.43656505  0.30291726  0.03179602  1
  W  W22  1  0.56343495  0.69708274  0.96820398  1
  W  W23  1  0.93656505  0.19708274  0.53179602  1
  O  O24  1  0.07317383  0.66892254  0.30226555  1
  O  O25  1  0.06964363  0.91618935  0.69325573  1
  O  O26  1  0.12548052  0.15429047  0.65767916  1
  O  O27  1  0.08461089  0.29122176  0.36001859  1
  O  O28  1  0.11494994  0.48432735  0.35614634  1
  O  O29  1  0.10922345  0.68734611  0.91745064  1
  O  O30  1  0.17809230  0.87252937  0.23970379  1
  O  O31  1  0.23648074  0.38039439  0.58400454  1
  O  O32  1  0.21755824  0.32262411  0.91001391  1
  O  O33  1  0.19147558  0.51260487  0.81491233  1
  O  O34  1  0.23863878  0.07367242  0.38487322  1
  O  O35  1  0.19355363  0.11500754  0.06019269  1
  O  O36  1  0.30644637  0.61500754  0.43980731  1
  O  O37  1  0.26136122  0.57367242  0.11512678  1
  O  O38  1  0.30852442  0.01260487  0.68508767  1
  O  O39  1  0.28244176  0.82262411  0.58998609  1
  O  O40  1  0.26351926  0.88039439  0.91599546  1
  O  O41  1  0.32190770  0.37252937  0.26029621  1
  O  O42  1  0.39077655  0.18734611  0.58254936  1
  O  O43  1  0.38505006  0.98432735  0.14385366  1
  O  O44  1  0.41538911  0.79122176  0.13998241  1
  O  O45  1  0.37451948  0.65429047  0.84232084  1
  O  O46  1  0.43035637  0.41618935  0.80674427  1
  O  O47  1  0.42682617  0.16892254  0.19773445  1
  O  O48  1  0.57317383  0.83107746  0.80226555  1
  O  O49  1  0.56964363  0.58381065  0.19325573  1
  O  O50  1  0.62548052  0.34570953  0.15767916  1
  O  O51  1  0.58461089  0.20877824  0.86001859  1
  O  O52  1  0.61494994  0.01567265  0.85614634  1
  O  O53  1  0.60922345  0.81265389  0.41745064  1
  O  O54  1  0.67809230  0.62747063  0.73970379  1
  O  O55  1  0.73648074  0.11960561  0.08400454  1
  O  O56  1  0.71755824  0.17737589  0.41001391  1
  O  O57  1  0.69147558  0.98739513  0.31491233  1
  O  O58  1  0.73863878  0.42632758  0.88487322  1
  O  O59  1  0.69355363  0.38499246  0.56019269  1
  O  O60  1  0.80644637  0.88499246  0.93980731  1
  O  O61  1  0.76136122  0.92632758  0.61512678  1
  O  O62  1  0.80852442  0.48739513  0.18508767  1
  O  O63  1  0.78244176  0.67737589  0.08998609  1
  O  O64  1  0.76351926  0.61960561  0.41599546  1
  O  O65  1  0.82190770  0.12747063  0.76029621  1
  O  O66  1  0.89077655  0.31265389  0.08254936  1
  O  O67  1  0.88505006  0.51567265  0.64385366  1
  O  O68  1  0.91538911  0.70877824  0.63998141  1
  O  O69  1  0.87451948  0.84570953  0.34232084  1
  O  O70  1  0.93035637  0.08381065  0.30674427  1
  O  O71  1  0.92682617  0.33107746  0.69773445  1
