# generated using pymatgen
data_LiV3O8
_symmetry_space_group_name_H-M   'P 1'
_cell_length_a   6.48546991
_cell_length_b   3.50366008
_cell_length_c   7.20275192
_cell_angle_alpha   89.99999767
_cell_angle_beta   109.02900925
_cell_angle_gamma   74.32882122
_symmetry_Int_Tables_number   1
_chemical_formula_structural   LiV3O8
_chemical_formula_sum   'Li1 V3 O8'
_cell_volume   148.27304792
_cell_formula_units_Z   1
loop_
 _symmetry_equiv_pos_site_id
 _symmetry_equiv_pos_as_xyz
  1  'x, y, z'
loop_
 _atom_site_type_symbol
 _atom_site_label
 _atom_site_symmetry_multiplicity
 _atom_site_fract_x
 _atom_site_fract_y
 _atom_site_fract_z
 _atom_site_occupancy
  Li  Li0  1  0.37103885  0.31448058  0.27825379  1
  V  V1  1  0.20645844  0.39677078  0.74871290  1
  V  V2  1  0.60699106  0.69650397  0.66957055  1
  V  V3  1  0.80586535  0.59706732  0.23505929  1
  O  O4  1  0.08861381  0.45569309  0.34197343  1
  O  O5  1  0.27644445  0.36177778  0.98708023  1
  O  O6  1  0.25277803  0.87361148  0.68690228  1
  O  O7  1  0.53325127  0.23337486  0.71447875  1
  O  O8  1  0.48959866  0.75520117  0.42297698  1
  O  O9  1  0.72325367  0.13837316  0.28368161  1
  O  O10  1  0.89733198  0.55133401  0.67408991  1
  O  O11  1  0.74242142  0.62878979  0.98754529  1
