# generated using pymatgen
data_LiV4(PO4)3
_symmetry_space_group_name_H-M   'P 1'
_cell_length_a   10.24352125
_cell_length_b   8.23057595
_cell_length_c   6.71189633
_cell_angle_alpha   65.93695215
_cell_angle_beta   90.00000000
_cell_angle_gamma   90.00000000
_symmetry_Int_Tables_number   1
_chemical_formula_structural   LiV4(PO4)3
_chemical_formula_sum   'Li2 V8 P6 O24'
_cell_volume   516.70398902
_cell_formula_units_Z   2
loop_
 _symmetry_equiv_pos_site_id
 _symmetry_equiv_pos_as_xyz
  1  'x, y, z'
loop_
 _atom_site_type_symbol
 _atom_site_label
 _atom_site_symmetry_multiplicity
 _atom_site_fract_x
 _atom_site_fract_y
 _atom_site_fract_z
 _atom_site_occupancy
  Li  Li0  1  0.24764710  0.95143738  0.02428131  1
  Li  Li1  1  0.74764710  0.04856262  0.97571869  1
  V  V2  1  0.05940131  0.73892141  0.63053929  1
  V  V3  1  0.24987379  0.41114389  0.04798648  1
  V  V4  1  0.24987379  0.41114389  0.54086964  1
  V  V5  1  0.43747300  0.73281533  0.63359183  1
  V  V6  1  0.55940131  0.26107859  0.36946071  1
  V  V7  1  0.74987379  0.58885611  0.45913036  1
  V  V8  1  0.74987379  0.58885611  0.95201352  1
  V  V9  1  0.93747300  0.26718467  0.36640817  1
  P  P10  1  0.03754370  0.63035712  0.18482094  1
  P  P11  1  0.29558342  0.04443002  0.47778499  1
  P  P12  1  0.46395669  0.62993346  0.18503327  1
  P  P13  1  0.53754370  0.36964288  0.81517906  1
  P  P14  1  0.79558342  0.95556998  0.52221501  1
  P  P15  1  0.96395669  0.37006654  0.81496673  1
  O  O16  1  0.07585830  0.73284442  0.31911997  1
  O  O17  1  0.07585830  0.73284442  0.94803560  1
  O  O18  1  0.11179652  0.44185773  0.27907113  1
  O  O19  1  0.11342476  0.43203131  0.78398384  1
  O  O20  1  0.24900572  0.13637629  0.23625016  1
  O  O21  1  0.24900572  0.13637629  0.62737355  1
  O  O22  1  0.24760714  0.84783256  0.57608422  1
  O  O23  1  0.38817198  0.43213299  0.78393300  1
  O  O24  1  0.38860354  0.44226961  0.27886520  1
  O  O25  1  0.42587641  0.73256736  0.31932718  1
  O  O26  1  0.42587641  0.73256736  0.94810446  1
  O  O27  1  0.44779238  0.02302094  0.48849003  1
  O  O28  1  0.57585830  0.26715558  0.05196440  1
  O  O29  1  0.57585830  0.26715558  0.68088003  1
  O  O30  1  0.61179652  0.55814227  0.72092887  1
  O  O31  1  0.61342476  0.56796869  0.21601616  1
  O  O32  1  0.74760714  0.15216744  0.42391578  1
  O  O33  1  0.74900572  0.86362371  0.37262645  1
  O  O34  1  0.74900572  0.86362371  0.76374984  1
  O  O35  1  0.88817198  0.56786701  0.21606700  1
  O  O36  1  0.88860354  0.55773039  0.72113480  1
  O  O37  1  0.92587641  0.26743264  0.68067282  1
  O  O38  1  0.92587641  0.26743264  0.05189554  1
  O  O39  1  0.94779238  0.97697906  0.51150997  1
