# generated using pymatgen
data_LiCo2(CO3)4
_symmetry_space_group_name_H-M   'P 1'
_cell_length_a   6.73962615
_cell_length_b   7.53051094
_cell_length_c   5.29135491
_cell_angle_alpha   89.74493521
_cell_angle_beta   113.66473204
_cell_angle_gamma   91.45446170
_symmetry_Int_Tables_number   1
_chemical_formula_structural   LiCo2(CO3)4
_chemical_formula_sum   'Li1 Co2 C4 O12'
_cell_volume   245.88463802
_cell_formula_units_Z   1
loop_
 _symmetry_equiv_pos_site_id
 _symmetry_equiv_pos_as_xyz
  1  'x, y, z'
loop_
 _atom_site_type_symbol
 _atom_site_label
 _atom_site_symmetry_multiplicity
 _atom_site_fract_x
 _atom_site_fract_y
 _atom_site_fract_z
 _atom_site_occupancy
  Li  Li0  1  0.81050931  0.56306500  0.60322131  1
  Co  Co1  1  0.00340307  0.99650830  0.00032392  1
  Co  Co2  1  0.47937542  0.49783833  0.97702520  1
  C  C3  1  0.12278488  0.26225464  0.88055232  1
  C  C4  1  0.62948589  0.24210827  0.87244361  1
  C  C5  1  0.37903152  0.76219464  0.12402874  1
  C  C6  1  0.87513403  0.73449848  0.13639000  1
  O  O7  1  0.07771176  0.12214920  0.72592933  1
  O  O8  1  0.17754981  0.41402483  0.80563239  1
  O  O9  1  0.38764492  0.73630874  0.88093565  1
  O  O10  1  0.09922890  0.24144355  0.11027081  1
  O  O11  1  0.31929659  0.90054853  0.19819200  1
  O  O12  1  0.44155022  0.61951889  0.27901361  1
  O  O13  1  0.60102574  0.39306707  0.73221290  1
  O  O14  1  0.68575475  0.10024116  0.80503863  1
  O  O15  1  0.89639426  0.74571656  0.90040518  1
  O  O16  1  0.58223327  0.26367753  0.09029782  1
  O  O17  1  0.80707126  0.59476310  0.21839038  1
  O  O18  1  0.93108742  0.88022717  0.27968120  1
