# generated using pymatgen
data_Li2Mn5O12
_symmetry_space_group_name_H-M   'P 1'
_cell_length_a   5.82600661
_cell_length_b   5.82600610
_cell_length_c   13.06521142
_cell_angle_alpha   77.05811310
_cell_angle_beta   77.05811406
_cell_angle_gamma   89.98175182
_symmetry_Int_Tables_number   1
_chemical_formula_structural   Li2Mn5O12
_chemical_formula_sum   'Li4 Mn10 O24'
_cell_volume   420.63985687
_cell_formula_units_Z   2
loop_
 _symmetry_equiv_pos_site_id
 _symmetry_equiv_pos_as_xyz
  1  'x, y, z'
loop_
 _atom_site_type_symbol
 _atom_site_label
 _atom_site_symmetry_multiplicity
 _atom_site_fract_x
 _atom_site_fract_y
 _atom_site_fract_z
 _atom_site_occupancy
  Li  Li0  1  0.32981134  0.34116083  0.32981120  1
  Li  Li1  1  0.09116083  0.57981134  0.82981120  1
  Li  Li2  1  0.99627050  -0.00007326  0.00350510  1
  Li  Li3  1  0.74992674  0.24627050  0.50350510  1
  Mn  Mn4  1  0.04577640  0.78648545  0.41954007  1
  Mn  Mn5  1  0.20786543  0.95794064  0.58387944  1
  Mn  Mn6  1  0.37429388  0.12963157  0.74710987  1
  Mn  Mn7  1  0.53749912  0.78687043  0.41923828  1
  Mn  Mn8  1  0.70794064  0.45786543  0.08387944  1
  Mn  Mn9  1  0.53648545  0.29577640  0.91954007  1
  Mn  Mn10  1  0.53687043  0.78749912  0.91923828  1
  Mn  Mn11  1  0.87962732  0.12673797  0.24750506  1
  Mn  Mn12  1  0.87963157  0.62429388  0.24710987  1
  Mn  Mn13  1  0.87673797  0.12962732  0.74750506  1
  O  O14  1  0.07667417  0.37107266  0.25837925  1
  O  O15  1  0.09029044  0.87074618  0.25798007  1
  O  O16  1  0.12107266  0.32667417  0.75837925  1
  O  O17  1  0.12956822  0.90174773  0.74106598  1
  O  O18  1  0.28743038  0.01570129  0.42514659  1
  O  O19  1  0.29551747  0.58767968  0.40854598  1
  O  O20  1  0.48879935  0.23286311  0.06832915  1
  O  O21  1  0.48815216  0.69732413  0.06923074  1
  O  O22  1  0.43877849  0.17441165  0.59793560  1
  O  O23  1  0.44732413  0.73815216  0.56923074  1
  O  O24  1  0.32129401  0.04471827  0.91106731  1
  O  O25  1  0.65174773  0.37956822  0.24106598  1
  O  O26  1  0.65178333  0.86890705  0.26235778  1
  O  O27  1  0.33767968  0.54551747  0.90854598  1
  O  O28  1  0.92505009  0.21491459  0.09755638  1
  O  O29  1  0.92441165  0.68877849  0.09793560  1
  O  O30  1  0.62074618  0.34029044  0.75798007  1
  O  O31  1  0.61890705  0.90178333  0.76235778  1
  O  O32  1  0.79625121  0.01769874  0.40758713  1
  O  O33  1  0.79471827  0.57129401  0.41106731  1
  O  O34  1  0.76769874  0.04625121  0.90758713  1
  O  O35  1  0.76570129  0.53743038  0.92514659  1
  O  O36  1  0.96491459  0.17505009  0.59755638  1
  O  O37  1  0.98286311  0.73879935  0.56832915  1
