# generated using pymatgen
data_LiV2PO7
_symmetry_space_group_name_H-M   'P 1'
_cell_length_a   5.39869557
_cell_length_b   9.61104165
_cell_length_c   5.13903367
_cell_angle_alpha   90.00000000
_cell_angle_beta   103.35177373
_cell_angle_gamma   90.00000000
_symmetry_Int_Tables_number   1
_chemical_formula_structural   LiV2PO7
_chemical_formula_sum   'Li2 V4 P2 O14'
_cell_volume   259.44211567
_cell_formula_units_Z   2
loop_
 _symmetry_equiv_pos_site_id
 _symmetry_equiv_pos_as_xyz
  1  'x, y, z'
loop_
 _atom_site_type_symbol
 _atom_site_label
 _atom_site_symmetry_multiplicity
 _atom_site_fract_x
 _atom_site_fract_y
 _atom_site_fract_z
 _atom_site_occupancy
  Li  Li0  1  0.36988548  0.13714955  0.20337023  1
  Li  Li1  1  0.63011452  0.63714955  0.29662977  1
  V  V2  1  0.03623753  0.63653975  0.90007431  1
  V  V3  1  0.13847566  0.82574150  0.39044207  1
  V  V4  1  0.96376247  0.13653875  0.59992569  1
  V  V5  1  0.86152434  0.32574150  0.10955793  1
  P  P6  1  0.37438849  0.39951675  0.63642025  1
  P  P7  1  0.62561151  0.89951675  0.86357975  1
  O  O8  1  0.04930706  0.20700859  0.93233561  1
  O  O9  1  0.17585970  0.29611300  0.45037814  1
  O  O10  1  0.22572333  0.48266064  0.81075270  1
  O  O11  1  0.13692498  0.01046699  0.41062972  1
  O  O12  1  0.44184958  0.79935617  0.67239298  1
  O  O13  1  0.27833479  0.71586015  0.16312761  1
  O  O14  1  0.50631716  0.48958690  0.47266976  1
  O  O15  1  0.55815042  0.29935617  0.82760702  1
  O  O16  1  0.49368284  0.98958690  0.02733024  1
  O  O17  1  0.72166521  0.21586015  0.33687239  1
  O  O18  1  0.77427667  0.98266064  0.68924730  1
  O  O19  1  0.86307502  0.51046699  0.08937028  1
  O  O20  1  0.95069294  0.70700859  0.56766439  1
  O  O21  1  0.82414030  0.79611300  0.04962186  1
