# generated using pymatgen
data_LiV4(PO4)3
_symmetry_space_group_name_H-M   'P 1'
_cell_length_a   6.47823478
_cell_length_b   16.47960704
_cell_length_c   9.83055533
_cell_angle_alpha   90.00000000
_cell_angle_beta   90.00000000
_cell_angle_gamma   90.00000000
_symmetry_Int_Tables_number   1
_chemical_formula_structural   LiV4(PO4)3
_chemical_formula_sum   'Li4 V16 P12 O48'
_cell_volume   1049.49793142
_cell_formula_units_Z   4
loop_
 _symmetry_equiv_pos_site_id
 _symmetry_equiv_pos_as_xyz
  1  'x, y, z'
loop_
 _atom_site_type_symbol
 _atom_site_label
 _atom_site_symmetry_multiplicity
 _atom_site_fract_x
 _atom_site_fract_y
 _atom_site_fract_z
 _atom_site_occupancy
  Li  Li0  1  0.00000000  0.44489587  0.24490191  1
  Li  Li1  1  0.00000000  0.55510413  0.75509809  1
  Li  Li2  1  0.50000000  0.05510413  0.74490191  1
  Li  Li3  1  0.50000000  0.94489587  0.25509809  1
  V  V4  1  0.00000000  0.09328637  0.54878763  1
  V  V5  1  0.00000000  0.14012060  0.99157049  1
  V  V6  1  0.00000000  0.85987940  0.00842951  1
  V  V7  1  0.00000000  0.90671363  0.45121237  1
  V  V8  1  0.25098260  0.29417547  0.75832718  1
  V  V9  1  0.25098260  0.70582453  0.24167282  1
  V  V10  1  0.24901740  0.20582453  0.25832718  1
  V  V11  1  0.24901740  0.79417547  0.74167282  1
  V  V12  1  0.50000000  0.59328637  0.95121237  1
  V  V13  1  0.50000000  0.35987940  0.49157049  1
  V  V14  1  0.50000000  0.40671363  0.04878763  1
  V  V15  1  0.50000000  0.64012060  0.50842951  1
  V  V16  1  0.75098260  0.79417547  0.74167282  1
  V  V17  1  0.75098260  0.20582453  0.25832718  1
  V  V18  1  0.74901740  0.29417547  0.75832718  1
  V  V19  1  0.74901740  0.70582453  0.24167282  1
  P  P20  1  0.00000000  0.03735406  0.21034834  1
  P  P21  1  0.00000000  0.34133224  0.04964257  1
  P  P22  1  0.00000000  0.28494833  0.45807510  1
  P  P23  1  0.00000000  0.71505167  0.54192490  1
  P  P24  1  0.00000000  0.65866776  0.95035743  1
  P  P25  1  0.00000000  0.96264594  0.78965166  1
  P  P26  1  0.50000000  0.53735406  0.28965166  1
  P  P27  1  0.50000000  0.21505167  0.95807510  1
  P  P28  1  0.50000000  0.15866776  0.54964257  1
  P  P29  1  0.50000000  0.46264594  0.71034834  1
  P  P30  1  0.50000000  0.78494833  0.04192490  1
  P  P31  1  0.50000000  0.84133224  0.45035743  1
  O  O32  1  0.00000000  0.02588048  0.36636636  1
  O  O33  1  0.00000000  0.25268639  0.11802196  1
  O  O34  1  0.00000000  0.19339111  0.40497498  1
  O  O35  1  0.00000000  0.04675312  0.85217280  1
  O  O36  1  0.00000000  0.28195132  0.61494769  1
  O  O37  1  0.00000000  0.67003692  0.10753241  1
  O  O38  1  0.00000000  0.32996308  0.89246759  1
  O  O39  1  0.00000000  0.71804868  0.38505231  1
  O  O40  1  0.00000000  0.95324688  0.14782720  1
  O  O41  1  0.00000000  0.80660889  0.59502502  1
  O  O42  1  0.00000000  0.74731361  0.88197804  1
  O  O43  1  0.00000000  0.97411952  0.63363364  1
  O  O44  1  0.19177273  0.08928298  0.16259800  1
  O  O45  1  0.19177273  0.91071702  0.83740300  1
  O  O46  1  0.18746513  0.61072520  0.89888190  1
  O  O47  1  0.18746513  0.38927480  0.10111810  1
  O  O48  1  0.19970381  0.32063739  0.39539644  1
  O  O49  1  0.19970381  0.67936261  0.60460356  1
  O  O50  1  0.30029619  0.17936261  0.89539644  1
  O  O51  1  0.30029619  0.82063739  0.10460356  1
  O  O52  1  0.31253487  0.88927480  0.39888190  1
  O  O53  1  0.31253487  0.11072520  0.60111810  1
  O  O54  1  0.30822727  0.58928298  0.33740200  1
  O  O55  1  0.30822727  0.41071702  0.66259700  1
  O  O56  1  0.50000000  0.17003692  0.39246759  1
  O  O57  1  0.50000000  0.45324688  0.35217280  1
  O  O58  1  0.50000000  0.52588048  0.13363364  1
  O  O59  1  0.50000000  0.21804868  0.11494769  1
  O  O60  1  0.50000000  0.47411952  0.86636636  1
  O  O61  1  0.50000000  0.54675312  0.64782720  1
  O  O62  1  0.50000000  0.24731361  0.61802196  1
  O  O63  1  0.50000000  0.30660889  0.90497498  1
  O  O64  1  0.50000000  0.69339111  0.09502502  1
  O  O65  1  0.50000000  0.78195132  0.88505231  1
  O  O66  1  0.50000000  0.82996308  0.60753241  1
  O  O67  1  0.50000000  0.75268639  0.38197804  1
  O  O68  1  0.69177273  0.41071702  0.66259700  1
  O  O69  1  0.69177273  0.58928298  0.33740200  1
  O  O70  1  0.68746513  0.11072520  0.60111810  1
  O  O71  1  0.68746513  0.88927480  0.39888190  1
  O  O72  1  0.69970381  0.17936261  0.89539644  1
  O  O73  1  0.69970381  0.82063739  0.10460356  1
  O  O74  1  0.80029619  0.32063739  0.39539644  1
  O  O75  1  0.80029619  0.67936261  0.60460356  1
  O  O76  1  0.81253487  0.38927480  0.10111810  1
  O  O77  1  0.81253487  0.61072520  0.89888190  1
  O  O78  1  0.80822727  0.08928298  0.16259800  1
  O  O79  1  0.80822727  0.91071702  0.83740300  1
