# generated using pymatgen
data_Li4Cr3Fe2Co3O16
_symmetry_space_group_name_H-M   'P 1'
_cell_length_a   5.80600812
_cell_length_b   5.89130381
_cell_length_c   9.50262957
_cell_angle_alpha   91.03711532
_cell_angle_beta   89.12281772
_cell_angle_gamma   120.45361724
_symmetry_Int_Tables_number   1
_chemical_formula_structural   Li4Cr3Fe2Co3O16
_chemical_formula_sum   'Li4 Cr3 Fe2 Co3 O16'
_cell_volume   280.14185113
_cell_formula_units_Z   1
loop_
 _symmetry_equiv_pos_site_id
 _symmetry_equiv_pos_as_xyz
  1  'x, y, z'
loop_
 _atom_site_type_symbol
 _atom_site_label
 _atom_site_symmetry_multiplicity
 _atom_site_fract_x
 _atom_site_fract_y
 _atom_site_fract_z
 _atom_site_occupancy
  Li  Li0  1  0.34382060  0.67149999  0.89202856  1
  Li  Li1  1  0.98830742  0.99488179  0.99632745  1
  Li  Li2  1  0.98804142  0.99460550  0.49761579  1
  Li  Li3  1  0.67004116  0.33170115  0.39430696  1
  Cr  Cr4  1  0.16836685  0.82962653  0.21372224  1
  Cr  Cr5  1  0.16559293  0.33460548  0.21199945  1
  Cr  Cr6  1  0.34291552  0.17259199  0.71446845  1
  Fe  Fe7  1  0.32939822  0.66631973  0.49056930  1
  Fe  Fe8  1  0.66878974  0.33728121  0.99006295  1
  Co  Co9  1  0.65823243  0.82841452  0.21645806  1
  Co  Co10  1  0.83214304  0.66384835  0.71548924  1
  Co  Co11  1  0.83414933  0.17119622  0.71317738  1
  O  O12  1  0.16443492  0.84451161  0.59879797  1
  O  O13  1  0.03757115  0.51086064  0.33531779  1
  O  O14  1  0.34847202  0.66904643  0.10663214  1
  O  O15  1  0.98472861  0.99485740  0.30997464  1
  O  O16  1  0.00663057  0.01730967  0.80893761  1
  O  O17  1  0.15500883  0.32268255  0.60205337  1
  O  O18  1  0.49273251  0.95953589  0.33703152  1
  O  O19  1  0.48354523  0.51966385  0.33391316  1
  O  O20  1  0.32291056  0.16928813  0.10240591  1
  O  O21  1  0.67181612  0.84510196  0.60975860  1
  O  O22  1  0.51449938  0.47503309  0.83699652  1
  O  O23  1  0.52853735  0.04046844  0.83457316  1
  O  O24  1  0.66446352  0.31953516  0.60711443  1
  O  O25  1  0.83003810  0.67569056  0.09894051  1
  O  O26  1  0.96665242  0.47487201  0.83278979  1
  O  O27  1  0.83815805  0.16526914  0.10638102  1
