# generated using pymatgen
data_LiFeP2O7
_symmetry_space_group_name_H-M   'P 1'
_cell_length_a   7.89179450
_cell_length_b   6.35321397
_cell_length_c   6.15030383
_cell_angle_alpha   108.87737771
_cell_angle_beta   103.51647584
_cell_angle_gamma   99.21696387
_symmetry_Int_Tables_number   1
_chemical_formula_structural   LiFeP2O7
_chemical_formula_sum   'Li2 Fe2 P4 O14'
_cell_volume   274.22205534
_cell_formula_units_Z   2
loop_
 _symmetry_equiv_pos_site_id
 _symmetry_equiv_pos_as_xyz
  1  'x, y, z'
loop_
 _atom_site_type_symbol
 _atom_site_label
 _atom_site_symmetry_multiplicity
 _atom_site_fract_x
 _atom_site_fract_y
 _atom_site_fract_z
 _atom_site_occupancy
  Li  Li0  1  0.00000000  0.00000000  0.00000000  1
  Li  Li1  1  0.50000000  0.00000000  0.00000000  1
  Fe  Fe2  1  0.22863488  0.68216483  0.36819989  1
  Fe  Fe3  1  0.77136512  0.31783517  0.63180011  1
  P  P4  1  0.20989816  0.54944819  0.82183339  1
  P  P5  1  0.31832239  0.23309009  0.45137170  1
  P  P6  1  0.68167761  0.76690991  0.54862830  1
  P  P7  1  0.79010184  0.45055181  0.17816661  1
  O  O8  1  0.03622773  0.38554241  0.79053169  1
  O  O9  1  0.18854091  0.71580810  0.68866055  1
  O  O10  1  0.20727787  0.99918965  0.41613724  1
  O  O11  1  0.20889470  0.32718543  0.27688815  1
  O  O12  1  0.34386900  0.39922587  0.72539822  1
  O  O13  1  0.31701375  0.69484540  0.08723347  1
  O  O14  1  0.49409848  0.76988067  0.57632452  1
  O  O15  1  0.50590152  0.23011933  0.42367548  1
  O  O16  1  0.68298625  0.30515460  0.91276653  1
  O  O17  1  0.65613100  0.60077413  0.27460178  1
  O  O18  1  0.79110530  0.67281457  0.72311185  1
  O  O19  1  0.79272213  0.00081035  0.58386276  1
  O  O20  1  0.81145909  0.28419190  0.31133945  1
  O  O21  1  0.96377227  0.61445759  0.20946831  1
