# generated using pymatgen
data_Fe2C2O7
_symmetry_space_group_name_H-M   'P 1'
_cell_length_a   11.53424961
_cell_length_b   6.72576978
_cell_length_c   9.67345219
_cell_angle_alpha   90.00000000
_cell_angle_beta   50.10347087
_cell_angle_gamma   90.00000000
_symmetry_Int_Tables_number   1
_chemical_formula_structural   Fe2C2O7
_chemical_formula_sum   'Fe8 C8 O28'
_cell_volume   575.73641054
_cell_formula_units_Z   4
loop_
 _symmetry_equiv_pos_site_id
 _symmetry_equiv_pos_as_xyz
  1  'x, y, z'
loop_
 _atom_site_type_symbol
 _atom_site_label
 _atom_site_symmetry_multiplicity
 _atom_site_fract_x
 _atom_site_fract_y
 _atom_site_fract_z
 _atom_site_occupancy
  Fe  Fe0  1  0.25555136  0.06087892  0.89617971  1
  Fe  Fe1  1  0.02768970  0.11182019  0.72007929  1
  Fe  Fe2  1  0.25555136  0.43912108  0.39617971  1
  Fe  Fe3  1  0.02768970  0.38817981  0.22007929  1
  Fe  Fe4  1  0.97231030  0.61182019  0.77992071  1
  Fe  Fe5  1  0.74444864  0.56087892  0.60382029  1
  Fe  Fe6  1  0.97231030  0.88817981  0.27992071  1
  Fe  Fe7  1  0.74444864  0.93912108  0.10382029  1
  C  C8  1  0.20637427  0.69112471  0.94212477  1
  C  C9  1  0.32448775  0.23463609  0.61554715  1
  C  C10  1  0.20637427  0.80887529  0.44212477  1
  C  C11  1  0.67551225  0.73463609  0.88445285  1
  C  C12  1  0.32448775  0.26536391  0.11554715  1
  C  C13  1  0.79362573  0.19112471  0.55787523  1
  C  C14  1  0.67551225  0.76536391  0.38445285  1
  C  C15  1  0.79362573  0.30887529  0.05787523  1
  O  O16  1  0.94757653  0.87462331  0.87874482  1
  O  O17  1  0.15201779  0.51296291  0.97682163  1
  O  O18  1  0.36507658  0.17709108  0.97451984  1
  O  O19  1  0.18228308  0.16912130  0.74532790  1
  O  O20  1  0.27465773  0.77905631  0.79132262  1
  O  O21  1  0.94757653  0.62537669  0.37874482  1
  O  O22  1  0.15201779  0.98703709  0.47682163  1
  O  O23  1  0.18814392  0.69923042  0.56931884  1
  O  O24  1  0.58817584  0.69617660  0.84841065  1
  O  O25  1  0.41182416  0.19617660  0.65158935  1
  O  O26  1  0.36507658  0.32290892  0.47451984  1
  O  O27  1  0.81185608  0.19923042  0.93068116  1
  O  O28  1  0.18228308  0.33087870  0.24532790  1
  O  O29  1  0.72534227  0.27905631  0.70867738  1
  O  O30  1  0.27465773  0.72094369  0.29132262  1
  O  O31  1  0.81771692  0.66912130  0.75467210  1
  O  O32  1  0.18814392  0.80076958  0.06931884  1
  O  O33  1  0.63492342  0.67709108  0.52548016  1
  O  O34  1  0.58817584  0.80382340  0.34841065  1
  O  O35  1  0.41182416  0.30382340  0.15158935  1
  O  O36  1  0.81185608  0.30076958  0.43068116  1
  O  O37  1  0.84798221  0.01296291  0.52317837  1
  O  O38  1  0.05242347  0.37462331  0.62125518  1
  O  O39  1  0.72534227  0.22094369  0.20867738  1
  O  O40  1  0.81771692  0.83087870  0.25467210  1
  O  O41  1  0.63492342  0.82290892  0.02548016  1
  O  O42  1  0.84798221  0.48703709  0.02317837  1
  O  O43  1  0.05242347  0.12537669  0.12125518  1
