# generated using pymatgen
data_LiFe(CO3)2
_symmetry_space_group_name_H-M   'P 1'
_cell_length_a   6.56077283
_cell_length_b   7.77864357
_cell_length_c   5.17168521
_cell_angle_alpha   90.00000000
_cell_angle_beta   115.37167143
_cell_angle_gamma   90.00000000
_symmetry_Int_Tables_number   1
_chemical_formula_structural   LiFe(CO3)2
_chemical_formula_sum   'Li2 Fe2 C4 O12'
_cell_volume   238.47443457
_cell_formula_units_Z   2
loop_
 _symmetry_equiv_pos_site_id
 _symmetry_equiv_pos_as_xyz
  1  'x, y, z'
loop_
 _atom_site_type_symbol
 _atom_site_label
 _atom_site_symmetry_multiplicity
 _atom_site_fract_x
 _atom_site_fract_y
 _atom_site_fract_z
 _atom_site_occupancy
  Li  Li0  1  0.68421233  0.06230609  0.38201194  1
  Li  Li1  1  0.81578767  0.56230609  0.61798806  1
  Fe  Fe2  1  0.02176418  0.00040720  0.02847288  1
  Fe  Fe3  1  0.47823582  0.50040720  0.97152712  1
  C  C4  1  0.11645728  0.26486170  0.85452616  1
  C  C5  1  0.38354272  0.76486170  0.14547384  1
  C  C6  1  0.63715679  0.23700433  0.85789598  1
  C  C7  1  0.86284321  0.73700433  0.14210402  1
  O  O8  1  0.06113169  0.13162113  0.68843304  1
  O  O9  1  0.16180517  0.41359063  0.77608004  1
  O  O10  1  0.38099713  0.74541463  0.89330449  1
  O  O11  1  0.11900287  0.24541463  0.10669551  1
  O  O12  1  0.33819483  0.91359063  0.22391996  1
  O  O13  1  0.43886831  0.63162113  0.31156696  1
  O  O14  1  0.60976249  0.38030941  0.71555282  1
  O  O15  1  0.69627663  0.09623158  0.77895037  1
  O  O16  1  0.90409986  0.74615631  0.91620101  1
  O  O17  1  0.59590014  0.24615631  0.08379899  1
  O  O18  1  0.80372337  0.59623158  0.22104963  1
  O  O19  1  0.89023751  0.88030941  0.28444718  1
