# generated using pymatgen
data_Li3Mn2(CO3)4
_symmetry_space_group_name_H-M   'P 1'
_cell_length_a   7.16825374
_cell_length_b   9.97812264
_cell_length_c   8.63687803
_cell_angle_alpha   90.00000000
_cell_angle_beta   68.64616366
_cell_angle_gamma   90.00000000
_symmetry_Int_Tables_number   1
_chemical_formula_structural   Li3Mn2(CO3)4
_chemical_formula_sum   'Li6 Mn4 C8 O24'
_cell_volume   575.34941866
_cell_formula_units_Z   2
loop_
 _symmetry_equiv_pos_site_id
 _symmetry_equiv_pos_as_xyz
  1  'x, y, z'
loop_
 _atom_site_type_symbol
 _atom_site_label
 _atom_site_symmetry_multiplicity
 _atom_site_fract_x
 _atom_site_fract_y
 _atom_site_fract_z
 _atom_site_occupancy
  Li  Li0  1  0.07080743  0.18219346  0.06364358  1
  Li  Li1  1  0.01579605  0.08194926  0.65295361  1
  Li  Li2  1  0.51144286  0.41406153  0.15399647  1
  Li  Li3  1  0.42919257  0.68219346  0.43635642  1
  Li  Li4  1  0.48420395  0.58194926  0.84704639  1
  Li  Li5  1  0.98855714  0.91406153  0.34600353  1
  Mn  Mn6  1  0.03736942  0.36623205  0.44161247  1
  Mn  Mn7  1  0.46263058  0.86623205  0.05838653  1
  Mn  Mn8  1  0.54527009  0.14888935  0.92186812  1
  Mn  Mn9  1  0.95472991  0.64888935  0.57813188  1
  C  C10  1  0.23583764  0.11029080  0.28133005  1
  C  C11  1  0.26416236  0.61029080  0.21866995  1
  C  C12  1  0.27325525  0.47640454  0.63997955  1
  C  C13  1  0.22674475  0.97640454  0.86002045  1
  C  C14  1  0.77247603  0.01772421  0.13395279  1
  C  C15  1  0.72752397  0.51772421  0.36604721  1
  C  C16  1  0.74142240  0.39282039  0.78284427  1
  C  C17  1  0.75857760  0.89282039  0.71715573  1
  O  O18  1  0.10805224  0.14953518  0.42256444  1
  O  O19  1  0.22321778  0.48255212  0.24000296  1
  O  O20  1  0.19062656  0.69750853  0.33607927  1
  O  O21  1  0.30937344  0.19750853  0.16392073  1
  O  O22  1  0.27678222  0.98255212  0.25999704  1
  O  O23  1  0.39194776  0.64953518  0.07743556  1
  O  O24  1  0.11887445  0.95517528  0.77646358  1
  O  O25  1  0.22632848  0.37657009  0.56203912  1
  O  O26  1  0.21147164  0.59897882  0.62678923  1
  O  O27  1  0.28852836  0.09897882  0.87321077  1
  O  O28  1  0.27367152  0.87657009  0.93796088  1
  O  O29  1  0.59740638  0.53162359  0.29689704  1
  O  O30  1  0.38112555  0.45517528  0.72353642  1
  O  O31  1  0.74589170  0.11630578  0.04690355  1
  O  O32  1  0.67452630  0.90415789  0.15245071  1
  O  O33  1  0.82547370  0.40415789  0.34754929  1
  O  O34  1  0.75410830  0.61630578  0.45309745  1
  O  O35  1  0.90259362  0.03162359  0.20310296  1
  O  O36  1  0.60995153  0.35094683  0.92132970  1
  O  O37  1  0.72454566  0.01910511  0.73500789  1
  O  O38  1  0.67000849  0.80516517  0.83206793  1
  O  O39  1  0.82999151  0.30516517  0.66793207  1
  O  O40  1  0.77545434  0.51910511  0.76499211  1
  O  O41  1  0.89004847  0.85094683  0.57867030  1
