# generated using pymatgen
data_Mn12O7F17
_symmetry_space_group_name_H-M   'P 1'
_cell_length_a   4.78120213
_cell_length_b   5.72463198
_cell_length_c   16.00249100
_cell_angle_alpha   90.09302967
_cell_angle_beta   89.69839913
_cell_angle_gamma   87.46275922
_symmetry_Int_Tables_number   1
_chemical_formula_structural   Mn12O7F17
_chemical_formula_sum   'Mn12 O7 F17'
_cell_volume   437.56193598
_cell_formula_units_Z   1
loop_
 _symmetry_equiv_pos_site_id
 _symmetry_equiv_pos_as_xyz
  1  'x, y, z'
loop_
 _atom_site_type_symbol
 _atom_site_label
 _atom_site_symmetry_multiplicity
 _atom_site_fract_x
 _atom_site_fract_y
 _atom_site_fract_z
 _atom_site_occupancy
  Mn  Mn0  1  0.01909225  0.17608197  0.41864800  1
  Mn  Mn1  1  0.01289181  0.83670049  0.24124778  1
  Mn  Mn2  1  0.99400429  0.15508884  0.07921485  1
  Mn  Mn3  1  0.04745468  0.17117868  0.75647931  1
  Mn  Mn4  1  0.01975113  0.83283470  0.57495182  1
  Mn  Mn5  1  0.01344369  0.84009767  0.90920335  1
  Mn  Mn6  1  0.47916367  0.33708392  0.57678596  1
  Mn  Mn7  1  0.50680498  0.34979615  0.92014583  1
  Mn  Mn8  1  0.52481710  0.33359906  0.26143549  1
  Mn  Mn9  1  0.48990694  0.64973391  0.08406131  1
  Mn  Mn10  1  0.49251169  0.65327689  0.41898114  1
  Mn  Mn11  1  0.48653645  0.65495123  0.75514671  1
  O  O12  1  0.22057014  0.88430217  0.13047192  1
  O  O13  1  0.23381271  0.89699454  0.46645502  1
  O  O14  1  0.23569964  0.88738239  0.80634887  1
  O  O15  1  0.26371809  0.40462297  0.47372860  1
  O  O16  1  0.29962166  0.39775866  0.81460571  1
  O  O17  1  0.70996537  0.38181727  0.02840662  1
  O  O18  1  0.73634046  0.39553850  0.37014176  1
  F  F19  1  0.21728473  0.11242548  0.30249687  1
  F  F20  1  0.22931251  0.10700983  0.63933455  1
  F  F21  1  0.22232679  0.12125352  0.97106014  1
  F  F22  1  0.25570132  0.38694192  0.14434373  1
  F  F23  1  0.26961398  0.61481220  0.30559395  1
  F  F24  1  0.26206356  0.60001780  0.64403910  1
  F  F25  1  0.26493442  0.61552192  0.97667107  1
  F  F26  1  0.71762489  0.61465604  0.19130332  1
  F  F27  1  0.71971101  0.61404143  0.53326864  1
  F  F28  1  0.74406636  0.60723131  0.86354407  1
  F  F29  1  0.73322165  0.38387221  0.69620797  1
  F  F30  1  0.76413098  0.11168304  0.18700798  1
  F  F31  1  0.76782830  0.11013950  0.52689981  1
  F  F32  1  0.75884113  0.88901099  0.35658254  1
  F  F33  1  0.76043965  0.88130229  0.01905108  1
  F  F34  1  0.76742920  0.11787084  0.86096746  1
  F  F35  1  0.75936376  0.87336967  0.69516764  1
