# generated using pymatgen
data_LiFe3P3O11
_symmetry_space_group_name_H-M   'P 1'
_cell_length_a   8.04087747
_cell_length_b   9.07751374
_cell_length_c   11.47227930
_cell_angle_alpha   90.00000000
_cell_angle_beta   97.25541510
_cell_angle_gamma   90.00000000
_symmetry_Int_Tables_number   1
_chemical_formula_structural   LiFe3P3O11
_chemical_formula_sum   'Li4 Fe12 P12 O44'
_cell_volume   830.67030675
_cell_formula_units_Z   4
loop_
 _symmetry_equiv_pos_site_id
 _symmetry_equiv_pos_as_xyz
  1  'x, y, z'
loop_
 _atom_site_type_symbol
 _atom_site_label
 _atom_site_symmetry_multiplicity
 _atom_site_fract_x
 _atom_site_fract_y
 _atom_site_fract_z
 _atom_site_occupancy
  Li  Li0  1  0.12117013  0.26872669  0.46830362  1
  Li  Li1  1  0.12117013  0.23127331  0.96830262  1
  Li  Li2  1  0.87882987  0.76872669  0.03169638  1
  Li  Li3  1  0.87882987  0.73127331  0.53169738  1
  Fe  Fe4  1  0.06780929  0.63298632  0.76033912  1
  Fe  Fe5  1  0.06780929  0.86701368  0.26033912  1
  Fe  Fe6  1  0.45327313  0.64276439  0.92833983  1
  Fe  Fe7  1  0.42308953  0.62273125  0.64991942  1
  Fe  Fe8  1  0.45327313  0.85723561  0.42833983  1
  Fe  Fe9  1  0.57691047  0.12273125  0.85008058  1
  Fe  Fe10  1  0.42308953  0.87726875  0.14991942  1
  Fe  Fe11  1  0.54672687  0.14276439  0.57166017  1
  Fe  Fe12  1  0.57691047  0.37726875  0.35008058  1
  Fe  Fe13  1  0.54672687  0.35723561  0.07166017  1
  Fe  Fe14  1  0.93219071  0.13298632  0.73966088  1
  Fe  Fe15  1  0.93219071  0.36701368  0.23966088  1
  P  P16  1  0.21171793  0.93080912  0.89626509  1
  P  P17  1  0.22160295  0.93732498  0.64495941  1
  P  P18  1  0.21171793  0.56919088  0.39626509  1
  P  P19  1  0.31997664  0.32927138  0.79761736  1
  P  P20  1  0.22160295  0.56267502  0.14495941  1
  P  P21  1  0.31997664  0.17072862  0.29761736  1
  P  P22  1  0.68002336  0.82927138  0.70238264  1
  P  P23  1  0.77839705  0.43732498  0.85504059  1
  P  P24  1  0.68002336  0.67072862  0.20238264  1
  P  P25  1  0.78828207  0.43080912  0.60373491  1
  P  P26  1  0.77839705  0.06267502  0.35504059  1
  P  P27  1  0.78828207  0.06919088  0.10373491  1
  O  O28  1  0.04170510  0.00829801  0.88198948  1
  O  O29  1  0.06023198  0.02323950  0.61946809  1
  O  O30  1  0.04170510  0.49170199  0.38198948  1
  O  O31  1  0.13623609  0.28360594  0.78182678  1
  O  O32  1  0.20736374  0.76034825  0.89228398  1
  O  O33  1  0.06023198  0.47676050  0.11946809  1
  O  O34  1  0.13623609  0.21639406  0.28182678  1
  O  O35  1  0.20243367  0.76751234  0.64437368  1
  O  O36  1  0.20736374  0.73965175  0.39228398  1
  O  O37  1  0.32596393  0.50366413  0.78760931  1
  O  O38  1  0.30492158  0.97954998  0.78203987  1
  O  O39  1  0.20243367  0.73248766  0.14437368  1
  O  O40  1  0.32317886  0.51449398  0.50459119  1
  O  O41  1  0.39761402  0.27260539  0.92233406  1
  O  O42  1  0.35195923  0.98337240  0.56562852  1
  O  O43  1  0.32596393  0.99633587  0.28760931  1
  O  O44  1  0.30492158  0.52045002  0.28203987  1
  O  O45  1  0.43331498  0.25752387  0.71192071  1
  O  O46  1  0.32317886  0.98550602  0.00459119  1
  O  O47  1  0.39761402  0.22739461  0.42233406  1
  O  O48  1  0.35195923  0.51662760  0.06562852  1
  O  O49  1  0.43331498  0.24247613  0.21192071  1
  O  O50  1  0.56668502  0.75752387  0.78807929  1
  O  O51  1  0.64804077  0.48337240  0.93437148  1
  O  O52  1  0.60238598  0.77260539  0.57766594  1
  O  O53  1  0.67682114  0.01449398  0.99540881  1
  O  O54  1  0.56668502  0.74247613  0.28807929  1
  O  O55  1  0.69507842  0.47954998  0.71796013  1
  O  O56  1  0.67403607  0.00366413  0.71239069  1
  O  O57  1  0.64804077  0.01662760  0.43437148  1
  O  O58  1  0.60238598  0.72739461  0.07766594  1
  O  O59  1  0.67682114  0.48550602  0.49540881  1
  O  O60  1  0.79756633  0.26751234  0.85562632  1
  O  O61  1  0.69507842  0.02045002  0.21796013  1
  O  O62  1  0.67403607  0.49633587  0.21239069  1
  O  O63  1  0.79263626  0.26034825  0.60771602  1
  O  O64  1  0.79756633  0.23248766  0.35562632  1
  O  O65  1  0.86376391  0.78360594  0.71817322  1
  O  O66  1  0.93976802  0.52323950  0.88053191  1
  O  O67  1  0.79263626  0.23965175  0.10771602  1
  O  O68  1  0.86376391  0.71639406  0.21817322  1
  O  O69  1  0.95829490  0.50829801  0.61801052  1
  O  O70  1  0.93976802  0.97676050  0.38053191  1
  O  O71  1  0.95829490  0.99170199  0.11801052  1
