# generated using pymatgen
data_LiCo2OF3
_symmetry_space_group_name_H-M   'P 1'
_cell_length_a   6.09332953
_cell_length_b   6.09251547
_cell_length_c   8.61754787
_cell_angle_alpha   89.99471879
_cell_angle_beta   89.98603811
_cell_angle_gamma   89.99291581
_symmetry_Int_Tables_number   1
_chemical_formula_structural   LiCo2OF3
_chemical_formula_sum   'Li4 Co8 O4 F12'
_cell_volume   319.91528655
_cell_formula_units_Z   4
loop_
 _symmetry_equiv_pos_site_id
 _symmetry_equiv_pos_as_xyz
  1  'x, y, z'
loop_
 _atom_site_type_symbol
 _atom_site_label
 _atom_site_symmetry_multiplicity
 _atom_site_fract_x
 _atom_site_fract_y
 _atom_site_fract_z
 _atom_site_occupancy
  Li  Li0  1  0.25356010  0.50562663  0.25015503  1
  Li  Li1  1  0.49443121  0.25363337  0.00014085  1
  Li  Li2  1  0.50562656  0.74638604  0.50009185  1
  Li  Li3  1  0.74635548  0.49446429  0.75008419  1
  Co  Co4  1  0.01059781  0.24620726  0.98492698  1
  Co  Co5  1  0.98946576  0.75373767  0.48503804  1
  Co  Co6  1  0.22582161  0.25557256  0.63577161  1
  Co  Co7  1  0.25558421  0.77421347  0.88576820  1
  Co  Co8  1  0.24620431  0.98941098  0.23498179  1
  Co  Co9  1  0.75377873  0.01061617  0.73493075  1
  Co  Co10  1  0.74434977  0.22576641  0.38573286  1
  Co  Co11  1  0.77429853  0.74440021  0.13579947  1
  O  O12  1  0.02651880  0.75531102  0.26056443  1
  O  O13  1  0.24471749  0.02651759  0.01051249  1
  O  O14  1  0.75526985  0.97343406  0.51047740  1
  O  O15  1  0.97344551  0.24474435  0.76046944  1
  F  F16  1  0.00616360  0.26552298  0.24035873  1
  F  F17  1  0.26547984  0.99382899  0.49037290  1
  F  F18  1  0.25908147  0.49545772  0.00812841  1
  F  F19  1  0.24980091  0.51774159  0.49512645  1
  F  F20  1  0.50448880  0.25907938  0.75811385  1
  F  F21  1  0.51773637  0.75023430  0.74512646  1
  F  F22  1  0.48221351  0.24974184  0.24514325  1
  F  F23  1  0.49549387  0.74092111  0.25813190  1
  F  F24  1  0.74089022  0.50450624  0.50812873  1
  F  F25  1  0.75025001  0.48226586  0.99515993  1
  F  F26  1  0.73450852  0.00612748  0.99036522  1
  F  F27  1  0.99386715  0.73453042  0.74040279  1
