# generated using pymatgen
data_LiVOF3
_symmetry_space_group_name_H-M   'P 1'
_cell_length_a   5.74854511
_cell_length_b   5.74854589
_cell_length_c   5.04540185
_cell_angle_alpha   89.05717236
_cell_angle_beta   90.94282341
_cell_angle_gamma   117.25706215
_symmetry_Int_Tables_number   1
_chemical_formula_structural   LiVOF3
_chemical_formula_sum   'Li2 V2 O2 F6'
_cell_volume   148.18819341
_cell_formula_units_Z   2
loop_
 _symmetry_equiv_pos_site_id
 _symmetry_equiv_pos_as_xyz
  1  'x, y, z'
loop_
 _atom_site_type_symbol
 _atom_site_label
 _atom_site_symmetry_multiplicity
 _atom_site_fract_x
 _atom_site_fract_y
 _atom_site_fract_z
 _atom_site_occupancy
  Li  Li0  1  0.34919262  0.95254779  0.76278164  1
  Li  Li1  1  0.95254779  0.34919262  0.73721836  1
  V  V2  1  0.35136058  0.35136058  0.25000000  1
  V  V3  1  0.62610172  0.62610172  0.75000000  1
  O  O4  1  0.31220238  0.50947623  0.93626353  1
  O  O5  1  0.50947623  0.31220238  0.56373647  1
  F  F6  1  0.25751670  0.02734829  0.10361739  1
  F  F7  1  0.47929836  0.71236260  0.43419673  1
  F  F8  1  0.72400463  0.98302209  0.83442693  1
  F  F9  1  0.71236260  0.47929836  0.06580327  1
  F  F10  1  0.98302209  0.72400463  0.66557307  1
  F  F11  1  0.02734829  0.25751670  0.39638261  1
