# generated using pymatgen
data_Fe3(OF2)2
_symmetry_space_group_name_H-M   'P 1'
_cell_length_a   4.78518608
_cell_length_b   7.87266456
_cell_length_c   5.72292141
_cell_angle_alpha   94.74166375
_cell_angle_beta   91.00776054
_cell_angle_gamma   89.47359117
_symmetry_Int_Tables_number   1
_chemical_formula_structural   Fe3(OF2)2
_chemical_formula_sum   'Fe6 O4 F8'
_cell_volume   214.81727040
_cell_formula_units_Z   2
loop_
 _symmetry_equiv_pos_site_id
 _symmetry_equiv_pos_as_xyz
  1  'x, y, z'
loop_
 _atom_site_type_symbol
 _atom_site_label
 _atom_site_symmetry_multiplicity
 _atom_site_fract_x
 _atom_site_fract_y
 _atom_site_fract_z
 _atom_site_occupancy
  Fe  Fe0  1  0.50520931  0.66146017  0.17225463  1
  Fe  Fe1  1  0.52773169  0.00072166  0.49255900  1
  Fe  Fe2  1  0.46232505  0.35207291  0.81172316  1
  Fe  Fe3  1  0.00053064  0.67382251  0.66191237  1
  Fe  Fe4  1  0.00808276  0.30619254  0.35054871  1
  Fe  Fe5  1  0.98980760  0.00373712  0.00864156  1
  O  O6  1  0.79778934  0.10592374  0.30590075  1
  O  O7  1  0.67877617  0.76616288  0.45581964  1
  O  O8  1  0.31192718  0.57110525  0.87774379  1
  O  O9  1  0.30710172  0.22745096  0.53957805  1
  F  F10  1  0.79846543  0.42435036  0.62300778  1
  F  F11  1  0.79352991  0.76550893  0.97631756  1
  F  F12  1  0.69308180  0.11213301  0.80191307  1
  F  F13  1  0.70715277  0.42979468  0.12505155  1
  F  F14  1  0.30295723  0.89552963  0.20053962  1
  F  F15  1  0.20935596  0.24288834  0.04087802  1
  F  F16  1  0.19515471  0.54842077  0.35235430  1
  F  F17  1  0.21101873  0.91272453  0.70325744  1
