# generated using pymatgen
data_Mn6O7F5
_symmetry_space_group_name_H-M   'P 1'
_cell_length_a   4.65148992
_cell_length_b   5.67528986
_cell_length_c   15.28970273
_cell_angle_alpha   91.15810134
_cell_angle_beta   90.83521094
_cell_angle_gamma   87.06035916
_symmetry_Int_Tables_number   1
_chemical_formula_structural   Mn6O7F5
_chemical_formula_sum   'Mn12 O14 F10'
_cell_volume   402.97551361
_cell_formula_units_Z   2
loop_
 _symmetry_equiv_pos_site_id
 _symmetry_equiv_pos_as_xyz
  1  'x, y, z'
loop_
 _atom_site_type_symbol
 _atom_site_label
 _atom_site_symmetry_multiplicity
 _atom_site_fract_x
 _atom_site_fract_y
 _atom_site_fract_z
 _atom_site_occupancy
  Mn  Mn0  1  0.00734391  0.16786767  0.42063917  1
  Mn  Mn1  1  0.03091125  0.85259435  0.24518514  1
  Mn  Mn2  1  0.00966839  0.15781585  0.08824992  1
  Mn  Mn3  1  0.01991152  0.16758836  0.74554229  1
  Mn  Mn4  1  0.02587995  0.84452320  0.58051636  1
  Mn  Mn5  1  0.00825965  0.86322087  0.91218918  1
  Mn  Mn6  1  0.47237545  0.34719578  0.58928441  1
  Mn  Mn7  1  0.47118863  0.32179021  0.92176549  1
  Mn  Mn8  1  0.51981107  0.34572753  0.25094988  1
  Mn  Mn9  1  0.49137750  0.63210915  0.08609457  1
  Mn  Mn10  1  0.47276209  0.63599917  0.41424946  1
  Mn  Mn11  1  0.47953889  0.63814641  0.75157681  1
  O  O12  1  0.21980734  0.11705962  0.63825778  1
  O  O13  1  0.20347740  0.10732819  0.97508296  1
  O  O14  1  0.24022912  0.88146896  0.13770077  1
  O  O15  1  0.22185093  0.88574970  0.47218817  1
  O  O16  1  0.23035437  0.89344738  0.80484773  1
  O  O17  1  0.28551285  0.38345065  0.14329367  1
  O  O18  1  0.27711587  0.61155733  0.30240988  1
  O  O19  1  0.26578215  0.38733164  0.47922610  1
  O  O20  1  0.27051266  0.61269602  0.64190939  1
  O  O21  1  0.27081477  0.38671962  0.81075684  1
  O  O22  1  0.71808405  0.37635576  0.02712007  1
  O  O23  1  0.72897673  0.39231613  0.36238462  1
  O  O24  1  0.71981056  0.38684229  0.69342831  1
  O  O25  1  0.79870278  0.11702554  0.19407916  1
  F  F26  1  0.25957414  0.10886727  0.31010954  1
  F  F27  1  0.24928520  0.60807277  0.97469210  1
  F  F28  1  0.75540129  0.62002727  0.19178811  1
  F  F29  1  0.72732399  0.61956603  0.52533579  1
  F  F30  1  0.73074061  0.63463772  0.86149457  1
  F  F31  1  0.74071920  0.11230137  0.53172591  1
  F  F32  1  0.78462475  0.89506219  0.35609142  1
  F  F33  1  0.75415522  0.87193826  0.02039340  1
  F  F34  1  0.76570113  0.13784127  0.84983801  1
  F  F35  1  0.77241558  0.87775947  0.68960502  1
