# generated using pymatgen
data_Li2Mn2F7
_symmetry_space_group_name_H-M   'P 1'
_cell_length_a   7.43576053
_cell_length_b   7.89825206
_cell_length_c   11.05671677
_cell_angle_alpha   90.01043553
_cell_angle_beta   89.93422015
_cell_angle_gamma   90.00348381
_symmetry_Int_Tables_number   1
_chemical_formula_structural   Li2Mn2F7
_chemical_formula_sum   'Li8 Mn8 F28'
_cell_volume   649.35512830
_cell_formula_units_Z   4
loop_
 _symmetry_equiv_pos_site_id
 _symmetry_equiv_pos_as_xyz
  1  'x, y, z'
loop_
 _atom_site_type_symbol
 _atom_site_label
 _atom_site_symmetry_multiplicity
 _atom_site_fract_x
 _atom_site_fract_y
 _atom_site_fract_z
 _atom_site_occupancy
  Li  Li0  1  0.07286995  0.56981700  0.13715850  1
  Li  Li1  1  0.08934543  0.44679787  0.89984888  1
  Li  Li2  1  0.41126377  0.94731201  0.34984716  1
  Li  Li3  1  0.42835003  0.07045185  0.11270359  1
  Li  Li4  1  0.57131780  0.92892715  0.61207596  1
  Li  Li5  1  0.59004366  0.05284742  0.84888887  1
  Li  Li6  1  0.90882301  0.55278212  0.40074441  1
  Li  Li7  1  0.92735080  0.42981392  0.63777931  1
  Mn  Mn8  1  0.11493524  0.86805352  0.57821749  1
  Mn  Mn9  1  0.14875524  0.89944254  0.92618737  1
  Mn  Mn10  1  0.35211465  0.40018776  0.32401893  1
  Mn  Mn11  1  0.38400638  0.36757827  0.67191236  1
  Mn  Mn12  1  0.61565075  0.63251517  0.17160313  1
  Mn  Mn13  1  0.64684769  0.60054739  0.82369269  1
  Mn  Mn14  1  0.85220274  0.10093559  0.42661890  1
  Mn  Mn15  1  0.88563490  0.13179229  0.07859863  1
  F  F16  1  0.10161078  0.95502088  0.41654309  1
  F  F17  1  0.01711917  0.35239902  0.05482126  1
  F  F18  1  0.09615196  0.00122985  0.10415056  1
  F  F19  1  0.12062370  0.65971692  0.97917346  1
  F  F20  1  0.11914163  0.52519723  0.30699088  1
  F  F21  1  0.14680051  0.31105380  0.70537484  1
  F  F22  1  0.15799224  0.84857564  0.74495087  1
  F  F23  1  0.34152255  0.34871365  0.50506827  1
  F  F24  1  0.35202091  0.81142020  0.54432577  1
  F  F25  1  0.37983821  0.02778185  0.94276716  1
  F  F26  1  0.38191778  0.16059191  0.27092431  1
  F  F27  1  0.40463112  0.50249711  0.14639988  1
  F  F28  1  0.48329459  0.85275145  0.19492914  1
  F  F29  1  0.39721491  0.45447176  0.83365497  1
  F  F30  1  0.60361539  0.54426887  0.33312774  1
  F  F31  1  0.51643865  0.14716344  0.69395013  1
  F  F32  1  0.59379275  0.49903181  0.64591579  1
  F  F33  1  0.61903785  0.83986863  0.76984646  1
  F  F34  1  0.62250686  0.97040103  0.44274265  1
  F  F35  1  0.64845790  0.18871161  0.04594758  1
  F  F36  1  0.65655526  0.65245180  0.00457898  1
  F  F37  1  0.84415904  0.15203842  0.24553268  1
  F  F38  1  0.85277371  0.68982979  0.20375379  1
  F  F39  1  0.87826025  0.47296584  0.80710556  1
  F  F40  1  0.87833848  0.34037970  0.48042890  1
  F  F41  1  0.90558224  -0.00011140  0.60461525  1
  F  F42  1  0.98292945  0.64750993  0.55554897  1
  F  F43  1  0.89826005  0.04416840  0.91693487  1
