# generated using pymatgen
data_Li2MnSi4O11
_symmetry_space_group_name_H-M   'P 1'
_cell_length_a   7.79840100
_cell_length_b   8.40620461
_cell_length_c   8.40620461
_cell_angle_alpha   102.42461452
_cell_angle_beta   117.63568667
_cell_angle_gamma   62.36431333
_symmetry_Int_Tables_number   1
_chemical_formula_structural   Li2MnSi4O11
_chemical_formula_sum   'Li4 Mn2 Si8 O22'
_cell_volume   432.50330807
_cell_formula_units_Z   2
loop_
 _symmetry_equiv_pos_site_id
 _symmetry_equiv_pos_as_xyz
  1  'x, y, z'
loop_
 _atom_site_type_symbol
 _atom_site_label
 _atom_site_symmetry_multiplicity
 _atom_site_fract_x
 _atom_site_fract_y
 _atom_site_fract_z
 _atom_site_occupancy
  Li  Li0  1  0.61795242  0.03310094  0.26900578  1
  Li  Li1  1  0.65105336  0.73099422  0.03310094  1
  Li  Li2  1  0.34894664  0.26900578  0.96689906  1
  Li  Li3  1  0.38204758  0.96689906  0.73099422  1
  Mn  Mn4  1  0.24373644  0.00000000  0.00000000  1
  Mn  Mn5  1  0.75626356  0.00000000  0.00000000  1
  Si  Si6  1  0.17621730  0.32075833  0.28578015  1
  Si  Si7  1  0.78880552  0.32075833  0.28578015  1
  Si  Si8  1  0.89043615  0.28578015  0.67924167  1
  Si  Si9  1  0.50302437  0.28578015  0.67924167  1
  Si  Si10  1  0.10956385  0.71421985  0.32075833  1
  Si  Si11  1  0.49697563  0.71421985  0.32075833  1
  Si  Si12  1  0.82378270  0.67924167  0.71421985  1
  Si  Si13  1  0.21119448  0.67924167  0.71421985  1
  O  O14  1  0.00000000  0.00000000  0.00000000  1
  O  O15  1  0.50000000  0.00000000  0.00000000  1
  O  O16  1  0.21103909  0.23719025  0.10548122  1
  O  O17  1  0.65725287  0.23719025  0.10548122  1
  O  O18  1  0.03868267  0.25083767  0.32820400  1
  O  O19  1  0.40978271  0.26552376  0.45910187  1
  O  O20  1  0.78379540  0.26552376  0.45910187  1
  O  O21  1  0.04931916  0.54089813  0.26552376  1
  O  O22  1  0.67530647  0.54089813  0.26552376  1
  O  O23  1  0.10555687  0.10548122  0.76280975  1
  O  O24  1  0.55177066  0.10548122  0.76280975  1
  O  O25  1  0.28952134  0.67179600  0.25083767  1
  O  O26  1  0.71047866  0.32820400  0.74916233  1
  O  O27  1  0.89444313  0.89451878  0.23719025  1
  O  O28  1  0.44822934  0.89451878  0.23719025  1
  O  O29  1  0.32469353  0.45910187  0.73447624  1
  O  O30  1  0.95068084  0.45910187  0.73447624  1
  O  O31  1  0.21620460  0.73447624  0.54089813  1
  O  O32  1  0.59021729  0.73447624  0.54089813  1
  O  O33  1  0.96131733  0.74916233  0.67179600  1
  O  O34  1  0.34274713  0.76280975  0.89451878  1
  O  O35  1  0.78896091  0.76280975  0.89451878  1
