# generated using pymatgen
data_Li7VO5F
_symmetry_space_group_name_H-M   'P 1'
_cell_length_a   5.55595385
_cell_length_b   5.79785435
_cell_length_c   5.52278527
_cell_angle_alpha   89.53202897
_cell_angle_beta   61.22032366
_cell_angle_gamma   61.07172537
_symmetry_Int_Tables_number   1
_chemical_formula_structural   Li7VO5F
_chemical_formula_sum   'Li7 V1 O5 F1'
_cell_volume   130.48584070
_cell_formula_units_Z   1
loop_
 _symmetry_equiv_pos_site_id
 _symmetry_equiv_pos_as_xyz
  1  'x, y, z'
loop_
 _atom_site_type_symbol
 _atom_site_label
 _atom_site_symmetry_multiplicity
 _atom_site_fract_x
 _atom_site_fract_y
 _atom_site_fract_z
 _atom_site_occupancy
  Li  Li0  1  0.39308006  0.33203450  0.11749229  1
  Li  Li1  1  0.13480987  0.35451725  0.74870304  1
  Li  Li2  1  0.25935616  0.67977261  0.49349267  1
  Li  Li3  1  0.81239235  0.31557199  0.47452873  1
  Li  Li4  1  0.83902564  0.66661870  0.22775316  1
  Li  Li5  1  0.58179817  0.65395688  0.93153006  1
  Li  Li6  1  0.67818309  0.96392325  0.68448612  1
  V  V7  1  0.04630401  0.97969539  0.96285286  1
  O  O8  1  0.13849140  0.23968721  0.07062992  1
  O  O9  1  0.11697341  0.78125103  0.22629368  1
  O  O10  1  0.48166570  0.75868458  0.63164077  1
  O  O11  1  0.82482325  0.24090278  0.81197888  1
  O  O12  1  0.89273702  0.75278374  0.87572878  1
  F  F13  1  0.51646887  0.26972011  0.39920805  1
