# generated using pymatgen
data_Li8Co(O2F)2
_symmetry_space_group_name_H-M   'P 1'
_cell_length_a   5.57261348
_cell_length_b   10.78658204
_cell_length_c   5.47330129
_cell_angle_alpha   103.26255756
_cell_angle_beta   59.93228887
_cell_angle_gamma   88.86077658
_symmetry_Int_Tables_number   1
_chemical_formula_structural   Li8Co(O2F)2
_chemical_formula_sum   'Li16 Co2 O8 F4'
_cell_volume   273.55858141
_cell_formula_units_Z   2
loop_
 _symmetry_equiv_pos_site_id
 _symmetry_equiv_pos_as_xyz
  1  'x, y, z'
loop_
 _atom_site_type_symbol
 _atom_site_label
 _atom_site_symmetry_multiplicity
 _atom_site_fract_x
 _atom_site_fract_y
 _atom_site_fract_z
 _atom_site_occupancy
  Li  Li0  1  0.11712648  0.67754566  0.10784784  1
  Li  Li1  1  0.20408227  0.31605983  0.21894333  1
  Li  Li2  1  0.06662182  0.81799697  0.52562890  1
  Li  Li3  1  0.17674106  0.48609332  0.58815578  1
  Li  Li4  1  0.28464980  0.00304331  0.30218310  1
  Li  Li5  1  0.27544437  0.16719366  0.77368545  1
  Li  Li6  1  0.43332157  0.66479935  0.47353622  1
  Li  Li7  1  0.58788235  0.17986594  0.10640829  1
  Li  Li8  1  0.41211765  0.82013406  0.89359171  1
  Li  Li9  1  0.56667843  0.33520065  0.52646378  1
  Li  Li10  1  0.72455563  0.83280634  0.22631455  1
  Li  Li11  1  0.71535020  0.99695669  0.69781690  1
  Li  Li12  1  0.82325894  0.51390668  0.41184422  1
  Li  Li13  1  0.79591773  0.68394017  0.78105667  1
  Li  Li14  1  0.93337818  0.18200303  0.47437110  1
  Li  Li15  1  0.88287352  0.32245434  0.89215216  1
  Co  Co16  1  0.00000000  0.00000000  0.00000000  1
  Co  Co17  1  0.50000000  0.50000000  0.00000000  1
  O  O18  1  0.03982629  0.88307447  0.23931326  1
  O  O19  1  0.26964874  0.12043279  0.08376382  1
  O  O20  1  0.14092040  0.61864729  0.40027907  1
  O  O21  1  0.52249842  0.37866916  0.23279939  1
  O  O22  1  0.47750158  0.62133084  0.76720061  1
  O  O23  1  0.85907960  0.38135271  0.59972093  1
  O  O24  1  0.73035126  0.87956721  0.91623618  1
  O  O25  1  0.96017371  0.11692553  0.76068674  1
  F  F26  1  0.38222533  0.85689134  0.57486508  1
  F  F27  1  0.21075502  0.36239335  0.89402911  1
  F  F28  1  0.78924498  0.63760665  0.10597089  1
  F  F29  1  0.61777467  0.14310866  0.42513492  1
