# generated using pymatgen
data_Sm3Sb4S9
_symmetry_space_group_name_H-M   'P 1'
_cell_length_a   3.84981340
_cell_length_b   15.86498109
_cell_length_c   24.58837634
_cell_angle_alpha   90.00000000
_cell_angle_beta   90.00000000
_cell_angle_gamma   90.00000000
_symmetry_Int_Tables_number   1
_chemical_formula_structural   Sm3Sb4S9
_chemical_formula_sum   'Sm12 Sb16 S36'
_cell_volume   1501.78959226
_cell_formula_units_Z   4
loop_
 _symmetry_equiv_pos_site_id
 _symmetry_equiv_pos_as_xyz
  1  'x, y, z'
loop_
 _atom_site_type_symbol
 _atom_site_label
 _atom_site_symmetry_multiplicity
 _atom_site_fract_x
 _atom_site_fract_y
 _atom_site_fract_z
 _atom_site_occupancy
  Sm  Sm0  1  0.75000000  0.37105651  0.06339246  1
  Sm  Sm1  1  0.75000000  0.87105651  0.43660754  1
  Sm  Sm2  1  0.25000000  0.62894349  0.93660754  1
  Sm  Sm3  1  0.25000000  0.12894349  0.56339246  1
  Sm  Sm4  1  0.75000000  0.17416900  0.17800505  1
  Sm  Sm5  1  0.75000000  0.67416900  0.32199495  1
  Sm  Sm6  1  0.25000000  0.82583100  0.82199495  1
  Sm  Sm7  1  0.25000000  0.32583100  0.67800505  1
  Sm  Sm8  1  0.75000000  0.45962618  0.23262515  1
  Sm  Sm9  1  0.75000000  0.95962618  0.26737485  1
  Sm  Sm10  1  0.25000000  0.54037382  0.76737485  1
  Sm  Sm11  1  0.25000000  0.04037382  0.73262515  1
  Sb  Sb12  1  0.75000000  0.35446146  0.50070263  1
  Sb  Sb13  1  0.75000000  0.85446146  0.99929737  1
  Sb  Sb14  1  0.25000000  0.64553854  0.49929737  1
  Sb  Sb15  1  0.25000000  0.14553854  0.00070263  1
  Sb  Sb16  1  0.75000000  0.04230369  0.91222302  1
  Sb  Sb17  1  0.75000000  0.54230369  0.58777698  1
  Sb  Sb18  1  0.25000000  0.95769631  0.08777698  1
  Sb  Sb19  1  0.25000000  0.45769631  0.41222302  1
  Sb  Sb20  1  0.75000000  0.39768364  0.89681612  1
  Sb  Sb21  1  0.75000000  0.89768364  0.60318388  1
  Sb  Sb22  1  0.25000000  0.60231636  0.10318388  1
  Sb  Sb23  1  0.25000000  0.10231636  0.39681612  1
  Sb  Sb24  1  0.75000000  0.23495681  0.82394972  1
  Sb  Sb25  1  0.75000000  0.73495681  0.67605028  1
  Sb  Sb26  1  0.25000000  0.76504319  0.17605028  1
  Sb  Sb27  1  0.25000000  0.26504319  0.32394972  1
  S  S28  1  0.75000000  0.24585006  0.60193555  1
  S  S29  1  0.75000000  0.74585006  0.89806445  1
  S  S30  1  0.25000000  0.75414994  0.39806445  1
  S  S31  1  0.25000000  0.25414994  0.10193555  1
  S  S32  1  0.75000000  0.04882760  0.63823170  1
  S  S33  1  0.75000000  0.54882760  0.86176830  1
  S  S34  1  0.25000000  0.95117240  0.36176830  1
  S  S35  1  0.25000000  0.45117240  0.13823170  1
  S  S36  1  0.75000000  0.45027654  0.70740651  1
  S  S37  1  0.75000000  0.95027654  0.79259349  1
  S  S38  1  0.25000000  0.54972346  0.29259349  1
  S  S39  1  0.25000000  0.04972346  0.20740651  1
  S  S40  1  0.75000000  0.20386256  0.72560198  1
  S  S41  1  0.75000000  0.70386256  0.77439802  1
  S  S42  1  0.25000000  0.79613744  0.27439802  1
  S  S43  1  0.25000000  0.29613744  0.22560198  1
  S  S44  1  0.75000000  0.06946987  0.07761889  1
  S  S45  1  0.75000000  0.56946987  0.42238111  1
  S  S46  1  0.25000000  0.93053013  0.92238111  1
  S  S47  1  0.25000000  0.43053013  0.57761889  1
  S  S48  1  0.75000000  0.05518610  0.46508644  1
  S  S49  1  0.75000000  0.55518610  0.03491356  1
  S  S50  1  0.25000000  0.94481390  0.53491356  1
  S  S51  1  0.25000000  0.44481390  0.96508644  1
  S  S52  1  0.75000000  0.25292488  0.97650455  1
  S  S53  1  0.75000000  0.75292488  0.52349545  1
  S  S54  1  0.25000000  0.74707512  0.02349545  1
  S  S55  1  0.25000000  0.24707512  0.47650455  1
  S  S56  1  0.75000000  0.13019887  0.30949561  1
  S  S57  1  0.75000000  0.63019887  0.19050439  1
  S  S58  1  0.25000000  0.86980113  0.69050439  1
  S  S59  1  0.25000000  0.36980113  0.80949561  1
  S  S60  1  0.75000000  0.37458659  0.33579288  1
  S  S61  1  0.75000000  0.87458659  0.16420712  1
  S  S62  1  0.25000000  0.62541341  0.66420712  1
  S  S63  1  0.25000000  0.12541341  0.83579288  1
