# generated using pymatgen
data_Li10Mn3V5O16
_symmetry_space_group_name_H-M   'P 1'
_cell_length_a   6.02095638
_cell_length_b   6.12709842
_cell_length_c   9.94531596
_cell_angle_alpha   89.68945068
_cell_angle_beta   89.59168464
_cell_angle_gamma   120.05308249
_symmetry_Int_Tables_number   1
_chemical_formula_structural   Li10Mn3V5O16
_chemical_formula_sum   'Li10 Mn3 V5 O16'
_cell_volume   317.54300698
_cell_formula_units_Z   1
loop_
 _symmetry_equiv_pos_site_id
 _symmetry_equiv_pos_as_xyz
  1  'x, y, z'
loop_
 _atom_site_type_symbol
 _atom_site_label
 _atom_site_symmetry_multiplicity
 _atom_site_fract_x
 _atom_site_fract_y
 _atom_site_fract_z
 _atom_site_occupancy
  Li  Li0  1  0.37607957  0.19045788  0.05293969  1
  Li  Li1  1  0.78161098  0.19401731  0.04602985  1
  Li  Li2  1  0.66552890  0.34668981  0.26425076  1
  Li  Li3  1  0.79598036  0.60184888  0.04423857  1
  Li  Li4  1  0.18657154  0.38849367  0.54977865  1
  Li  Li5  1  0.98900650  0.00675022  0.98080609  1
  Li  Li6  1  0.32231064  0.66251689  0.76480345  1
  Li  Li7  1  0.60044729  0.79895369  0.54778752  1
  Li  Li8  1  0.00669377  0.01512170  0.47889596  1
  Li  Li9  1  0.18338994  0.79282617  0.54882935  1
  Mn  Mn10  1  0.82639917  0.67218905  0.77931486  1
  Mn  Mn11  1  0.66463373  0.84131441  0.27817924  1
  Mn  Mn12  1  0.16809226  0.83813837  0.28123131  1
  V  V13  1  0.32952171  0.17087177  0.77978095  1
  V  V14  1  0.67029134  0.34286846  0.51979019  1
  V  V15  1  0.32463561  0.67133167  0.01988211  1
  V  V16  1  0.82169474  0.17223389  0.77868952  1
  V  V17  1  0.17141193  0.34923115  0.27826962  1
  O  O18  1  0.00313430  0.02547902  0.66771292  1
  O  O19  1  0.50608607  0.01972120  0.65557072  1
  O  O20  1  0.84755284  0.19372946  0.40552465  1
  O  O21  1  0.02172904  0.02127704  0.17275995  1
  O  O22  1  0.64966307  0.32184633  0.89639573  1
  O  O23  1  0.34410299  0.19752200  0.40401306  1
  O  O24  1  0.97363225  0.48546553  0.65129634  1
  O  O25  1  0.49482718  0.47902965  0.65175986  1
  O  O26  1  0.47721852  0.50373991  0.14965539  1
  O  O27  1  0.14921754  0.33404866  0.89710890  1
  O  O28  1  0.85443499  0.68910649  0.40590955  1
  O  O29  1  0.01043082  0.50059633  0.14778731  1
  O  O30  1  0.31628846  0.66422565  0.39573051  1
  O  O31  1  0.65305402  0.84695785  0.90861947  1
  O  O32  1  0.46946666  0.97738283  0.15403587  1
  O  O33  1  0.16740225  0.85485705  0.90577708  1
