# generated using pymatgen
data_LiFe2OF3
_symmetry_space_group_name_H-M   'P 1'
_cell_length_a   6.27804007
_cell_length_b   6.22980597
_cell_length_c   8.62666477
_cell_angle_alpha   90.03994092
_cell_angle_beta   91.05598573
_cell_angle_gamma   90.19677511
_symmetry_Int_Tables_number   1
_chemical_formula_structural   LiFe2OF3
_chemical_formula_sum   'Li4 Fe8 O4 F12'
_cell_volume   337.33785073
_cell_formula_units_Z   4
loop_
 _symmetry_equiv_pos_site_id
 _symmetry_equiv_pos_as_xyz
  1  'x, y, z'
loop_
 _atom_site_type_symbol
 _atom_site_label
 _atom_site_symmetry_multiplicity
 _atom_site_fract_x
 _atom_site_fract_y
 _atom_site_fract_z
 _atom_site_occupancy
  Li  Li0  1  0.00700445  0.24796733  0.01770386  1
  Li  Li1  1  0.01092488  0.73108299  0.49444276  1
  Li  Li2  1  0.74645465  0.50164567  0.25158507  1
  Li  Li3  1  0.74063451  0.99934013  0.25372968  1
  Fe  Fe4  1  0.24938627  0.99405910  0.76383679  1
  Fe  Fe5  1  0.25444279  0.49331749  0.72796113  1
  Fe  Fe6  1  0.23966972  0.26927036  0.36145881  1
  Fe  Fe7  1  0.22415404  0.78628019  0.12748590  1
  Fe  Fe8  1  0.49413712  0.24693963  0.00052851  1
  Fe  Fe9  1  0.49269916  0.73768742  0.49042079  1
  Fe  Fe10  1  0.71247146  0.25268185  0.62998841  1
  Fe  Fe11  1  0.82135480  0.75600458  0.87876807  1
  O  O12  1  0.05336104  0.73830083  0.74120532  1
  O  O13  1  0.26566111  0.52450501  0.48440324  1
  O  O14  1  0.24847071  0.03907030  0.00580335  1
  O  O15  1  0.45987105  0.24551576  0.75419170  1
  F  F16  1  0.99171869  0.23877035  0.75205499  1
  F  F17  1  0.24072156  0.48905617  0.01409002  1
  F  F18  1  0.24684223  0.98578793  0.49047409  1
  F  F19  1  0.52225545  0.74694879  0.76050512  1
  F  F20  1  0.53177460  0.25324042  0.24900216  1
  F  F21  1  0.52210935  0.75243863  0.24377826  1
  F  F22  1  0.72630022  0.97258734  0.49562710  1
  F  F23  1  0.76022205  0.01791065  0.01059435  1
  F  F24  1  0.75377714  0.47731672  0.00760456  1
  F  F25  1  0.75915352  0.51061102  0.49117772  1
  F  F26  1  0.96362324  0.24102888  0.24834633  1
  F  F27  1  0.96080519  0.75063545  0.25322992  1
