# generated using pymatgen
data_Li2MnF6
_symmetry_space_group_name_H-M   'P 1'
_cell_length_a   5.73951574
_cell_length_b   5.73964130
_cell_length_c   4.85998991
_cell_angle_alpha   90.01206363
_cell_angle_beta   90.00000000
_cell_angle_gamma   119.99927035
_symmetry_Int_Tables_number   1
_chemical_formula_structural   Li2MnF6
_chemical_formula_sum   'Li2 Mn1 F6'
_cell_volume   138.65297210
_cell_formula_units_Z   1
loop_
 _symmetry_equiv_pos_site_id
 _symmetry_equiv_pos_as_xyz
  1  'x, y, z'
loop_
 _atom_site_type_symbol
 _atom_site_label
 _atom_site_symmetry_multiplicity
 _atom_site_fract_x
 _atom_site_fract_y
 _atom_site_fract_z
 _atom_site_occupancy
  Li  Li0  1  0.33336445  0.66667514  0.27351445  1
  Li  Li1  1  0.66668931  0.33332486  0.72648555  1
  Mn  Mn2  1  -0.00011810  1.00000000  0.00000000  1
  F  F3  1  0.15107544  0.84893375  0.21834981  1
  F  F4  1  0.15105482  0.30207923  0.21848799  1
  F  F5  1  0.30214269  0.15106725  0.78165019  1
  F  F6  1  0.69792704  0.84893827  0.21832619  1
  F  F7  1  0.84897559  0.69792077  0.78151201  1
  F  F8  1  0.84898877  0.15106173  0.78167381  1
