# generated using pymatgen
data_Mn3VSb2(PO4)6
_symmetry_space_group_name_H-M   'P 1'
_cell_length_a   8.90960243
_cell_length_b   8.75118293
_cell_length_c   8.75118221
_cell_angle_alpha   60.00000007
_cell_angle_beta   60.58646498
_cell_angle_gamma   60.58646690
_symmetry_Int_Tables_number   1
_chemical_formula_structural   Mn3VSb2(PO4)6
_chemical_formula_sum   'Mn3 V1 Sb2 P6 O24'
_cell_volume   486.70996962
_cell_formula_units_Z   1
loop_
 _symmetry_equiv_pos_site_id
 _symmetry_equiv_pos_as_xyz
  1  'x, y, z'
loop_
 _atom_site_type_symbol
 _atom_site_label
 _atom_site_symmetry_multiplicity
 _atom_site_fract_x
 _atom_site_fract_y
 _atom_site_fract_z
 _atom_site_occupancy
  Mn  Mn0  1  0.04778730  0.65073723  0.65073723  1
  Mn  Mn1  1  0.46339431  0.84553556  0.84553556  1
  Mn  Mn2  1  0.94061589  0.35312804  0.35312804  1
  V  V3  1  0.56365554  0.14544782  0.14544782  1
  Sb  Sb4  1  0.03935866  0.98688078  0.98688078  1
  Sb  Sb5  1  0.49816797  0.50061101  0.50061101  1
  P  P6  1  0.25037884  0.24921974  0.53707535  1
  P  P7  1  0.25037884  0.96332607  0.24921974  1
  P  P8  1  0.25037884  0.53707535  0.96332607  1
  P  P9  1  0.74690910  0.45168475  0.04861743  1
  P  P10  1  0.74690910  0.04861743  0.75278872  1
  P  P11  1  0.74690910  0.75278872  0.45168475  1
  O  O12  1  0.07286184  0.11093927  0.30834635  1
  O  O13  1  0.07286184  0.50785353  0.11093927  1
  O  O14  1  0.07286184  0.30834635  0.50785353  1
  O  O15  1  0.24254195  0.08210484  0.73271578  1
  O  O16  1  0.42307203  0.17986830  0.38542918  1
  O  O17  1  0.27089930  0.40726057  0.55212222  1
  O  O18  1  0.24254195  0.94263842  0.08210484  1
  O  O19  1  0.27089930  0.76971791  0.40726057  1
  O  O20  1  0.57236922  0.61293812  0.02179480  1
  O  O21  1  0.27089930  0.55212222  0.76971791  1
  O  O22  1  0.73640566  0.26400135  0.07798608  1
  O  O23  1  0.57236922  0.02179480  0.79289785  1
  O  O24  1  0.42307203  0.01163048  0.17986830  1
  O  O25  1  0.24254195  0.73271578  0.94263842  1
  O  O26  1  0.74313545  0.42654100  0.24168818  1
  O  O27  1  0.42307203  0.38542918  0.01163048  1
  O  O28  1  0.74313545  0.24168818  0.58863538  1
  O  O29  1  0.73640566  0.07798608  0.92160691  1
  O  O30  1  0.74313545  0.58863538  0.42654100  1
  O  O31  1  0.57236922  0.79289785  0.61293812  1
  O  O32  1  0.73640566  0.92160691  0.26400135  1
  O  O33  1  0.92376704  0.70925278  0.47242236  1
  O  O34  1  0.92376704  0.47242236  0.89455781  1
  O  O35  1  0.92376704  0.89455781  0.70925278  1
