# generated using pymatgen
data_LiCo2(PO4)3
_symmetry_space_group_name_H-M   'P 1'
_cell_length_a   8.67038898
_cell_length_b   12.05143699
_cell_length_c   8.78361913
_cell_angle_alpha   90.00000000
_cell_angle_beta   90.00000000
_cell_angle_gamma   90.47620710
_symmetry_Int_Tables_number   1
_chemical_formula_structural   LiCo2(PO4)3
_chemical_formula_sum   'Li4 Co8 P12 O48'
_cell_volume   917.77434144
_cell_formula_units_Z   4
loop_
 _symmetry_equiv_pos_site_id
 _symmetry_equiv_pos_as_xyz
  1  'x, y, z'
loop_
 _atom_site_type_symbol
 _atom_site_label
 _atom_site_symmetry_multiplicity
 _atom_site_fract_x
 _atom_site_fract_y
 _atom_site_fract_z
 _atom_site_occupancy
  Li  Li0  1  0.20636261  0.18253495  0.77511404  1
  Li  Li1  1  0.27747000  0.68284220  0.22502673  1
  Li  Li2  1  0.70636261  0.68253495  0.72488596  1
  Li  Li3  1  0.77747000  0.18284220  0.27497327  1
  Co  Co4  1  0.25046564  0.62029536  0.54811378  1
  Co  Co5  1  0.25014726  0.88261487  0.03199225  1
  Co  Co6  1  0.25166740  0.11784037  0.45269782  1
  Co  Co7  1  0.25337785  0.38656893  0.96885906  1
  Co  Co8  1  0.75166740  0.61784037  0.04730218  1
  Co  Co9  1  0.75337785  0.88656893  0.53114094  1
  Co  Co10  1  0.75046564  0.12029536  0.95188622  1
  Co  Co11  1  0.75014726  0.38261487  0.46800775  1
  P  P12  1  0.03842593  0.49623385  0.25129409  1
  P  P13  1  0.10996761  0.85591682  0.39087608  1
  P  P14  1  0.10568804  0.14757970  0.10569290  1
  P  P15  1  0.39535189  0.64581092  0.89333031  1
  P  P16  1  0.39046790  0.35300346  0.60469979  1
  P  P17  1  0.46104486  0.00021875  0.74447077  1
  P  P18  1  0.53842593  0.99623385  0.24870591  1
  P  P19  1  0.60568804  0.64757970  0.39430710  1
  P  P20  1  0.60996761  0.35591682  0.10912392  1
  P  P21  1  0.89046790  0.85300346  0.89530021  1
  P  P22  1  0.89535189  0.14581092  0.60666969  1
  P  P23  1  0.96104486  0.50021875  0.75552923  1
  O  O24  1  0.05952656  0.43458901  0.86770191  1
  O  O25  1  0.06066050  0.58211787  0.65941868  1
  O  O26  1  0.06993210  0.85912943  0.90157405  1
  O  O27  1  0.07082758  0.16422791  0.59357607  1
  O  O28  1  0.13205498  0.58077317  0.34892956  1
  O  O29  1  0.15221307  0.97718618  0.42471773  1
  O  O30  1  0.15213995  0.82210293  0.22662166  1
  O  O31  1  0.15997271  0.23472996  0.98500533  1
  O  O32  1  0.15991979  0.42776162  0.16397412  1
  O  O33  1  0.16108079  0.17832646  0.26620870  1
  O  O34  1  0.17242171  0.03605267  0.05378005  1
  O  O35  1  0.19124162  0.77718383  0.50520017  1
  O  O36  1  0.30977232  0.71903565  0.01005426  1
  O  O37  1  0.32349245  0.46572250  0.55801335  1
  O  O38  1  0.33497200  0.32008791  0.76557863  1
  O  O39  1  0.33532698  0.07062309  0.66623519  1
  O  O40  1  0.35248702  0.67318868  0.72533296  1
  O  O41  1  0.35198907  0.52327760  0.92750337  1
  O  O42  1  0.33952182  0.26294243  0.48859441  1
  O  O43  1  0.38301119  0.91724967  0.85502259  1
  O  O44  1  0.42615121  0.64523995  0.39133875  1
  O  O45  1  0.43608360  0.91684598  0.15476270  1
  O  O46  1  0.43567612  0.33299269  0.08208288  1
  O  O47  1  0.44456183  0.06729165  0.36121560  1
  O  O48  1  0.55952656  0.93458901  0.63229809  1
  O  O49  1  0.57082758  0.66422791  0.90642393  1
  O  O50  1  0.56066050  0.08211787  0.84058132  1
  O  O51  1  0.56993210  0.35912943  0.59842595  1
  O  O52  1  0.63205498  0.08077317  0.15107044  1
  O  O53  1  0.65997271  0.73472996  0.51499467  1
  O  O54  1  0.65221307  0.47718618  0.07528227  1
  O  O55  1  0.65213995  0.32210293  0.27337834  1
  O  O56  1  0.65991979  0.92776162  0.33602588  1
  O  O57  1  0.66108079  0.67832646  0.23379130  1
  O  O58  1  0.67242171  0.53605267  0.44621995  1
  O  O59  1  0.69124162  0.27718383  0.99479983  1
  O  O60  1  0.80977232  0.21903565  0.48994574  1
  O  O61  1  0.82349245  0.96572250  0.94198665  1
  O  O62  1  0.83497200  0.82008791  0.73442137  1
  O  O63  1  0.83532698  0.57062309  0.83376481  1
  O  O64  1  0.83952182  0.76294243  0.01140559  1
  O  O65  1  0.85248702  0.17318868  0.77466704  1
  O  O66  1  0.85198907  0.02327760  0.57249663  1
  O  O67  1  0.88301119  0.41724967  0.64497741  1
  O  O68  1  0.93567612  0.83299269  0.41791712  1
  O  O69  1  0.92615121  0.14523995  0.10866125  1
  O  O70  1  0.93608360  0.41684598  0.34523730  1
  O  O71  1  0.94456183  0.56729165  0.13878440  1
