# generated using pymatgen
data_KLi2MnPCO7
_symmetry_space_group_name_H-M   'P 1'
_cell_length_a   5.59609666
_cell_length_b   6.76945252
_cell_length_c   9.27605775
_cell_angle_alpha   89.99824148
_cell_angle_beta   89.47961183
_cell_angle_gamma   89.99549021
_symmetry_Int_Tables_number   1
_chemical_formula_structural   KLi2MnPCO7
_chemical_formula_sum   'K2 Li4 Mn2 P2 C2 O14'
_cell_volume   351.38586126
_cell_formula_units_Z   2
loop_
 _symmetry_equiv_pos_site_id
 _symmetry_equiv_pos_as_xyz
  1  'x, y, z'
loop_
 _atom_site_type_symbol
 _atom_site_label
 _atom_site_symmetry_multiplicity
 _atom_site_fract_x
 _atom_site_fract_y
 _atom_site_fract_z
 _atom_site_occupancy
  K  K0  1  0.22600554  0.46488740  0.74767851  1
  K  K1  1  0.77399291  0.96488247  0.25230829  1
  Li  Li2  1  0.19791106  0.91636181  0.84803080  1
  Li  Li3  1  0.61225962  0.08975109  0.83827079  1
  Li  Li4  1  0.38744836  0.58983111  0.16159511  1
  Li  Li5  1  0.80186415  0.41634255  0.15199284  1
  Mn  Mn6  1  0.77981290  0.77020936  0.62555364  1
  Mn  Mn7  1  0.22022266  0.27022391  0.37441853  1
  P  P8  1  0.71512360  0.27198027  0.57547000  1
  P  P9  1  0.28491125  0.77197677  0.42450705  1
  C  C10  1  0.70735202  0.73736799  0.93231100  1
  C  C11  1  0.29248942  0.23737222  0.06766382  1
  O  O12  1  0.32866353  0.16008948  0.94184738  1
  O  O13  1  0.92237880  0.76228116  0.88203970  1
  O  O14  1  0.52701859  0.79534460  0.85341027  1
  O  O15  1  0.79036571  0.08892490  0.66939280  1
  O  O16  1  0.76473676  0.45746825  0.66958952  1
  O  O17  1  0.14568237  0.77227769  0.56968147  1
  O  O18  1  0.44255855  0.25702496  0.54835437  1
  O  O19  1  0.55747294  0.75702664  0.45162327  1
  O  O20  1  0.85434296  0.27230822  0.43028918  1
  O  O21  1  0.23525984  0.95747408  0.33038806  1
  O  O22  1  0.20968965  0.58893445  0.33058420  1
  O  O23  1  0.47284989  0.29534027  0.14654225  1
  O  O24  1  0.07748025  0.26233984  0.11796974  1
  O  O25  1  0.67112667  0.66011351  0.05814642  1
