# generated using pymatgen
data_Fe4O5F3
_symmetry_space_group_name_H-M   'P 1'
_cell_length_a   4.80803474
_cell_length_b   5.69484866
_cell_length_c   5.69484866
_cell_angle_alpha   116.16669018
_cell_angle_beta   95.68227862
_cell_angle_gamma   84.31772138
_symmetry_Int_Tables_number   1
_chemical_formula_structural   Fe4O5F3
_chemical_formula_sum   'Fe4 O5 F3'
_cell_volume   138.99485925
_cell_formula_units_Z   1
loop_
 _symmetry_equiv_pos_site_id
 _symmetry_equiv_pos_as_xyz
  1  'x, y, z'
loop_
 _atom_site_type_symbol
 _atom_site_label
 _atom_site_symmetry_multiplicity
 _atom_site_fract_x
 _atom_site_fract_y
 _atom_site_fract_z
 _atom_site_occupancy
  Fe  Fe0  1  0.54403993  0.02094142  0.47905858  1
  Fe  Fe1  1  0.49396482  0.49660590  0.00339410  1
  Fe  Fe2  1  0.98949068  0.48898330  0.49970298  1
  Fe  Fe3  1  0.98949068  0.00029702  0.01101670  1
  O  O4  1  0.81912750  0.15559058  0.34440942  1
  O  O5  1  0.69499568  0.16263003  0.85341723  1
  O  O6  1  0.69499568  0.64658277  0.33736997  1
  O  O7  1  0.30629938  0.83643902  0.14375490  1
  O  O8  1  0.30629938  0.35624510  0.66356098  1
  F  F9  1  0.79824426  0.65458910  0.84541090  1
  F  F10  1  0.19900061  0.34202544  0.15797456  1
  F  F11  1  0.16405341  0.83906931  0.66093069  1
