# generated using pymatgen
data_VF5
_symmetry_space_group_name_H-M   'P 1'
_cell_length_a   6.27629962
_cell_length_b   5.48027019
_cell_length_c   5.48026984
_cell_angle_alpha   76.51958595
_cell_angle_beta   75.16251188
_cell_angle_gamma   75.16251082
_symmetry_Int_Tables_number   1
_chemical_formula_structural   VF5
_chemical_formula_sum   'V2 F10'
_cell_volume   173.28315593
_cell_formula_units_Z   2
loop_
 _symmetry_equiv_pos_site_id
 _symmetry_equiv_pos_as_xyz
  1  'x, y, z'
loop_
 _atom_site_type_symbol
 _atom_site_label
 _atom_site_symmetry_multiplicity
 _atom_site_fract_x
 _atom_site_fract_y
 _atom_site_fract_z
 _atom_site_occupancy
  V  V0  1  0.25000000  0.41019200  0.58980800  1
  V  V1  1  0.75000000  0.58980800  0.41019200  1
  F  F2  1  0.05699721  0.65595556  0.34605742  1
  F  F3  1  0.34661720  0.23179888  0.33817452  1
  F  F4  1  0.25000000  0.15207206  0.84792794  1
  F  F5  1  0.15338280  0.66182548  0.76820112  1
  F  F6  1  0.44300279  0.65394258  0.34404444  1
  F  F7  1  0.55699721  0.34605742  0.65595556  1
  F  F8  1  0.84661720  0.33817452  0.23179888  1
  F  F9  1  0.75000000  0.84792794  0.15207206  1
  F  F10  1  0.65338280  0.76820112  0.66182548  1
  F  F11  1  0.94300279  0.34404444  0.65394258  1
