# generated using pymatgen
data_Re3N5
_symmetry_space_group_name_H-M   'P 1'
_cell_length_a   8.37859243
_cell_length_b   2.86996190
_cell_length_c   5.32974572
_cell_angle_alpha   90.00001212
_cell_angle_beta   71.45452105
_cell_angle_gamma   80.13848148
_symmetry_Int_Tables_number   1
_chemical_formula_structural   Re3N5
_chemical_formula_sum   'Re3 N5'
_cell_volume   119.50614216
_cell_formula_units_Z   1
loop_
 _symmetry_equiv_pos_site_id
 _symmetry_equiv_pos_as_xyz
  1  'x, y, z'
loop_
 _atom_site_type_symbol
 _atom_site_label
 _atom_site_symmetry_multiplicity
 _atom_site_fract_x
 _atom_site_fract_y
 _atom_site_fract_z
 _atom_site_occupancy
  Re  Re0  1  0.00000000  0.00000000  0.26122384  1
  Re  Re1  1  0.62317873  0.68841014  0.16775716  1
  Re  Re2  1  0.37682127  0.31158986  0.79093688  1
  N  N3  1  1.00000000  0.50000000  0.48406992  1
  N  N4  1  0.79698794  0.10150653  0.17217209  1
  N  N5  1  0.20301206  0.89849347  0.96915902  1
  N  N6  1  0.46656011  0.76672044  0.51211098  1
  N  N7  1  0.53343989  0.23327956  0.97867110  1
