# generated using pymatgen
data_Li3Ni(OF)2
_symmetry_space_group_name_H-M   'P 1'
_cell_length_a   4.97563484
_cell_length_b   5.87959038
_cell_length_c   5.01573168
_cell_angle_alpha   90.00000000
_cell_angle_beta   107.51552587
_cell_angle_gamma   90.00000000
_symmetry_Int_Tables_number   1
_chemical_formula_structural   Li3Ni(OF)2
_chemical_formula_sum   'Li6 Ni2 O4 F4'
_cell_volume   139.93045449
_cell_formula_units_Z   2
loop_
 _symmetry_equiv_pos_site_id
 _symmetry_equiv_pos_as_xyz
  1  'x, y, z'
loop_
 _atom_site_type_symbol
 _atom_site_label
 _atom_site_symmetry_multiplicity
 _atom_site_fract_x
 _atom_site_fract_y
 _atom_site_fract_z
 _atom_site_occupancy
  Li  Li0  1  0.25000000  0.11599787  0.50000000  1
  Li  Li1  1  0.25000000  0.63799604  0.50000000  1
  Li  Li2  1  0.25000000  0.36777423  0.00000000  1
  Li  Li3  1  0.75000000  0.36200396  0.50000000  1
  Li  Li4  1  0.75000000  0.88400213  0.50000000  1
  Li  Li5  1  0.75000000  0.63222577  0.00000000  1
  Ni  Ni6  1  0.25000000  0.89100686  0.00000000  1
  Ni  Ni7  1  0.75000000  0.10899314  0.00000000  1
  O  O8  1  0.01505306  0.88748790  0.22757602  1
  O  O9  1  0.48494694  0.88748790  0.77242398  1
  O  O10  1  0.51505306  0.11251210  0.22757602  1
  O  O11  1  0.98494694  0.11251210  0.77242398  1
  F  F12  1  0.00385545  0.62177507  0.74885658  1
  F  F13  1  0.50385545  0.37822493  0.74885658  1
  F  F14  1  0.49614455  0.62177507  0.25114342  1
  F  F15  1  0.99614455  0.37822493  0.25114342  1
