# generated using pymatgen
data_Li3Ti4VO8
_symmetry_space_group_name_H-M   'P 1'
_cell_length_a   5.99918105
_cell_length_b   5.95458946
_cell_length_c   5.95439711
_cell_angle_alpha   59.24392242
_cell_angle_beta   120.44456018
_cell_angle_gamma   120.44676178
_symmetry_Int_Tables_number   1
_chemical_formula_structural   Li3Ti4VO8
_chemical_formula_sum   'Li3 Ti4 V1 O8'
_cell_volume   148.52459563
_cell_formula_units_Z   1
loop_
 _symmetry_equiv_pos_site_id
 _symmetry_equiv_pos_as_xyz
  1  'x, y, z'
loop_
 _atom_site_type_symbol
 _atom_site_label
 _atom_site_symmetry_multiplicity
 _atom_site_fract_x
 _atom_site_fract_y
 _atom_site_fract_z
 _atom_site_occupancy
  Li  Li0  1  0.00000138  0.50000506  0.99999601  1
  Li  Li1  1  0.49999742  0.99999667  0.99999950  1
  Li  Li2  1  0.99999169  0.00000136  0.49999407  1
  Ti  Ti3  1  0.49999990  0.49999373  0.49999632  1
  Ti  Ti4  1  0.00000176  0.00000101  0.00000041  1
  Ti  Ti5  1  0.49999821  0.49999727  0.00000008  1
  Ti  Ti6  1  0.49999907  0.00000345  0.49999852  1
  V  V7  1  0.00000714  0.50000503  0.50001304  1
  O  O8  1  0.75762866  0.75000920  0.74999118  1
  O  O9  1  0.74761681  0.75432120  0.24816091  1
  O  O10  1  0.26712850  0.75062422  0.75061435  1
  O  O11  1  0.25238855  0.75184262  0.24568860  1
  O  O12  1  0.74761577  0.24815847  0.75431098  1
  O  O13  1  0.73287645  0.24938267  0.24938701  1
  O  O14  1  0.25238059  0.24567928  0.75183364  1
  O  O15  1  0.24236309  0.24998975  0.25000139  1
