# generated using pymatgen
data_LiV2F7
_symmetry_space_group_name_H-M   'P 1'
_cell_length_a   11.71866988
_cell_length_b   5.40283351
_cell_length_c   7.45877822
_cell_angle_alpha   90.00000000
_cell_angle_beta   90.00000000
_cell_angle_gamma   90.00000000
_symmetry_Int_Tables_number   1
_chemical_formula_structural   LiV2F7
_chemical_formula_sum   'Li4 V8 F28'
_cell_volume   472.24525070
_cell_formula_units_Z   4
loop_
 _symmetry_equiv_pos_site_id
 _symmetry_equiv_pos_as_xyz
  1  'x, y, z'
loop_
 _atom_site_type_symbol
 _atom_site_label
 _atom_site_symmetry_multiplicity
 _atom_site_fract_x
 _atom_site_fract_y
 _atom_site_fract_z
 _atom_site_occupancy
  Li  Li0  1  0.15021657  0.88445536  0.75150776  1
  Li  Li1  1  0.34978343  0.38445536  0.25150776  1
  Li  Li2  1  0.65021657  0.61554464  0.75150776  1
  Li  Li3  1  0.84978343  0.11554464  0.25150776  1
  V  V4  1  0.12565642  0.37497159  0.52392594  1
  V  V5  1  0.12564691  0.37496744  0.97908699  1
  V  V6  1  0.37435309  0.87496744  0.47908699  1
  V  V7  1  0.37434358  0.87497159  0.02392594  1
  V  V8  1  0.62565642  0.12502841  0.52392594  1
  V  V9  1  0.62564691  0.12503256  0.97908699  1
  V  V10  1  0.87435309  0.62503256  0.47908699  1
  V  V11  1  0.87434358  0.62502841  0.02392594  1
  F  F12  1  0.04210304  0.70425828  0.97745146  1
  F  F13  1  0.04209413  0.70428220  0.52557239  1
  F  F14  1  0.06598002  0.18975941  0.75151495  1
  F  F15  1  0.12585645  0.32609361  0.25155721  1
  F  F16  1  0.18420214  0.53510862  0.75150106  1
  F  F17  1  0.22780724  0.05883637  0.54947322  1
  F  F18  1  0.22775920  0.05881948  0.95354302  1
  F  F19  1  0.27224080  0.55881948  0.45354302  1
  F  F20  1  0.27219276  0.55883637  0.04947322  1
  F  F21  1  0.31579786  0.03510862  0.25150106  1
  F  F22  1  0.37414355  0.82609361  0.75155721  1
  F  F23  1  0.43401998  0.68975941  0.25151495  1
  F  F24  1  0.45790587  0.20428220  0.02557239  1
  F  F25  1  0.45789696  0.20425828  0.47745146  1
  F  F26  1  0.54210304  0.79574172  0.97745146  1
  F  F27  1  0.54209413  0.79571780  0.52557239  1
  F  F28  1  0.56598002  0.31024059  0.75151495  1
  F  F29  1  0.62585645  0.17390639  0.25155721  1
  F  F30  1  0.68420214  0.96489138  0.75150106  1
  F  F31  1  0.72780724  0.44116363  0.54947322  1
  F  F32  1  0.72775920  0.44118052  0.95354302  1
  F  F33  1  0.77224080  0.94118052  0.45354302  1
  F  F34  1  0.77219276  0.94116363  0.04947322  1
  F  F35  1  0.81579786  0.46489138  0.25150106  1
  F  F36  1  0.87414355  0.67390639  0.75155721  1
  F  F37  1  0.93401998  0.81024059  0.25151495  1
  F  F38  1  0.95790587  0.29571780  0.02557239  1
  F  F39  1  0.95789696  0.29574172  0.47745146  1
