# generated using pymatgen
data_Li5Mn6O16
_symmetry_space_group_name_H-M   'P 1'
_cell_length_a   5.81745716
_cell_length_b   5.81531933
_cell_length_c   10.30178369
_cell_angle_alpha   106.37878465
_cell_angle_beta   89.98335822
_cell_angle_gamma   119.99144620
_symmetry_Int_Tables_number   1
_chemical_formula_structural   Li5Mn6O16
_chemical_formula_sum   'Li5 Mn6 O16'
_cell_volume   285.41820614
_cell_formula_units_Z   1
loop_
 _symmetry_equiv_pos_site_id
 _symmetry_equiv_pos_as_xyz
  1  'x, y, z'
loop_
 _atom_site_type_symbol
 _atom_site_label
 _atom_site_symmetry_multiplicity
 _atom_site_fract_x
 _atom_site_fract_y
 _atom_site_fract_z
 _atom_site_occupancy
  Li  Li0  1  0.68745462  0.37618803  0.06395531  1
  Li  Li1  1  0.80961824  0.61946523  0.42924356  1
  Li  Li2  1  0.50001448  0.99987817  0.49985444  1
  Li  Li3  1  0.19033355  0.38043793  0.57055005  1
  Li  Li4  1  0.31243971  0.62469258  0.93665845  1
  Mn  Mn5  1  0.25023143  0.49992476  0.24977406  1
  Mn  Mn6  1  0.75003455  0.99968865  0.24974895  1
  Mn  Mn7  1  0.24997928  0.99987274  0.24976832  1
  Mn  Mn8  1  0.75000586  0.00006171  0.75018220  1
  Mn  Mn9  1  0.24997117  -0.00003632  0.75022371  1
  Mn  Mn10  1  0.75003670  0.49995128  0.75015018  1
  O  O11  1  0.89382353  0.78741547  0.14940021  1
  O  O12  1  0.38124774  0.76223079  0.14321712  1
  O  O13  1  0.89377113  0.25601302  0.14952880  1
  O  O14  1  0.36211538  0.25580415  0.14945003  1
  O  O15  1  0.60393886  0.75060737  0.35458274  1
  O  O16  1  0.14643847  0.75044402  0.35444272  1
  O  O17  1  0.11891471  0.23774855  0.35668983  1
  O  O18  1  0.60394685  0.20802718  0.35450319  1
  O  O19  1  0.39598036  0.79187753  0.64540718  1
  O  O20  1  0.88107663  0.76214132  0.64327161  1
  O  O21  1  0.85362593  0.24955820  0.64547087  1
  O  O22  1  0.39600901  0.24954662  0.64551973  1
  O  O23  1  0.63781283  0.74412507  0.85055287  1
  O  O24  1  0.10617382  0.74400324  0.85051377  1
  O  O25  1  0.61879376  0.23769784  0.85676557  1
  O  O26  1  0.10621040  0.21262789  0.85057457  1
