# generated using pymatgen
data_Fe3(OF)2
_symmetry_space_group_name_H-M   'P 1'
_cell_length_a   8.66004813
_cell_length_b   6.41603593
_cell_length_c   6.46202625
_cell_angle_alpha   90.00064999
_cell_angle_beta   90.00557630
_cell_angle_gamma   89.96551212
_symmetry_Int_Tables_number   1
_chemical_formula_structural   Fe3(OF)2
_chemical_formula_sum   'Fe12 O8 F8'
_cell_volume   359.05066053
_cell_formula_units_Z   4
loop_
 _symmetry_equiv_pos_site_id
 _symmetry_equiv_pos_as_xyz
  1  'x, y, z'
loop_
 _atom_site_type_symbol
 _atom_site_label
 _atom_site_symmetry_multiplicity
 _atom_site_fract_x
 _atom_site_fract_y
 _atom_site_fract_z
 _atom_site_occupancy
  Fe  Fe0  1  0.18306109  0.25005414  0.49999306  1
  Fe  Fe1  1  0.18316076  0.25005972  0.00000771  1
  Fe  Fe2  1  0.22039091  0.75004928  0.75002080  1
  Fe  Fe3  1  0.22031875  0.75020519  0.24999699  1
  Fe  Fe4  1  0.50003382  0.00001235  0.50002607  1
  Fe  Fe5  1  0.49993425  0.49999479  0.49999053  1
  Fe  Fe6  1  0.50009460  0.00001369  0.99998277  1
  Fe  Fe7  1  0.49997369  0.49999619  0.00002469  1
  Fe  Fe8  1  0.77963841  0.24995836  0.25002968  1
  Fe  Fe9  1  0.77964116  0.24993178  0.75000207  1
  Fe  Fe10  1  0.81691783  0.74992232  -0.00000328  1
  Fe  Fe11  1  0.81686463  0.74992446  0.49999693  1
  O  O12  1  0.27129602  0.53227909  0.00041032  1
  O  O13  1  0.27145525  0.96777474  0.99957107  1
  O  O14  1  0.27137210  0.96783091  0.50041699  1
  O  O15  1  0.27121225  0.53223839  0.49961295  1
  O  O16  1  0.72865750  0.03223612  0.49951497  1
  O  O17  1  0.72869026  0.03219004  0.00045380  1
  O  O18  1  0.72864137  0.46775054  0.50046582  1
  O  O19  1  0.72868265  0.46776384  0.99955770  1
  F  F20  1  0.01964091  0.25763232  0.24988987  1
  F  F21  1  0.01965020  0.24243936  0.75004596  1
  F  F22  1  0.49040390  0.25010520  0.74998554  1
  F  F23  1  0.49035598  0.24987736  0.25001802  1
  F  F24  1  0.50961376  0.74990317  0.25002796  1
  F  F25  1  0.50963161  0.75010884  0.74997791  1
  F  F26  1  0.98036292  0.75738711  0.25002689  1
  F  F27  1  0.98030344  0.74236069  0.74995618  1
