# generated using pymatgen
data_Li4Ni3(OF3)2
_symmetry_space_group_name_H-M   'P 1'
_cell_length_a   5.12258604
_cell_length_b   5.87942977
_cell_length_c   5.14405564
_cell_angle_alpha   89.65039995
_cell_angle_beta   79.99940529
_cell_angle_gamma   73.00333547
_symmetry_Int_Tables_number   1
_chemical_formula_structural   Li4Ni3(OF3)2
_chemical_formula_sum   'Li4 Ni3 O2 F6'
_cell_volume   145.74576912
_cell_formula_units_Z   1
loop_
 _symmetry_equiv_pos_site_id
 _symmetry_equiv_pos_as_xyz
  1  'x, y, z'
loop_
 _atom_site_type_symbol
 _atom_site_label
 _atom_site_symmetry_multiplicity
 _atom_site_fract_x
 _atom_site_fract_y
 _atom_site_fract_z
 _atom_site_occupancy
  Li  Li0  1  0.01500525  0.00207691  0.01852266  1
  Li  Li1  1  0.98499475  0.24792309  0.48147734  1
  Li  Li2  1  0.01334865  0.48958710  0.98786283  1
  Li  Li3  1  0.98665135  0.76041290  0.51213717  1
  Ni  Ni4  1  0.50000000  0.12500000  0.75000000  1
  Ni  Ni5  1  0.49788441  0.36409013  0.24885699  1
  Ni  Ni6  1  0.50211559  0.88590987  0.25114301  1
  O  O7  1  0.27027476  0.18278430  0.11012193  1
  O  O8  1  0.72972524  0.06721570  0.38987807  1
  F  F9  1  0.76047898  0.30077159  0.88124033  1
  F  F10  1  0.22456089  0.43287295  0.61489987  1
  F  F11  1  0.24851245  0.68892144  0.15488795  1
  F  F12  1  0.75148755  0.56107856  0.34511205  1
  F  F13  1  0.23952102  0.94922841  0.61875967  1
  F  F14  1  0.77543911  0.81712705  0.88510013  1
