# generated using pymatgen
data_LiSnPO4
_symmetry_space_group_name_H-M   'P 1'
_cell_length_a   10.51321527
_cell_length_b   7.43551597
_cell_length_c   5.39616947
_cell_angle_alpha   90.00000000
_cell_angle_beta   90.00000000
_cell_angle_gamma   90.00000000
_symmetry_Int_Tables_number   1
_chemical_formula_structural   LiSnPO4
_chemical_formula_sum   'Li4 Sn4 P4 O16'
_cell_volume   421.82493514
_cell_formula_units_Z   4
loop_
 _symmetry_equiv_pos_site_id
 _symmetry_equiv_pos_as_xyz
  1  'x, y, z'
loop_
 _atom_site_type_symbol
 _atom_site_label
 _atom_site_symmetry_multiplicity
 _atom_site_fract_x
 _atom_site_fract_y
 _atom_site_fract_z
 _atom_site_occupancy
  Li  Li0  1  0.14564027  0.21236355  0.68549979  1
  Li  Li1  1  0.35435973  0.71236355  0.18549979  1
  Li  Li2  1  0.64564027  0.21236355  0.81450021  1
  Li  Li3  1  0.85435973  0.71236355  0.31450021  1
  Sn  Sn4  1  0.15196788  0.71474208  0.69129041  1
  Sn  Sn5  1  0.34803212  0.21474208  0.19129041  1
  Sn  Sn6  1  0.65196788  0.71474208  0.80870959  1
  Sn  Sn7  1  0.84803212  0.21474208  0.30870959  1
  P  P8  1  0.09625673  0.96200073  0.17698159  1
  P  P9  1  0.40374327  0.46200073  0.67698159  1
  P  P10  1  0.59625673  0.96200073  0.32301841  1
  P  P11  1  0.90374327  0.46200073  0.82301841  1
  O  O12  1  0.04522194  0.42919471  0.75609483  1
  O  O13  1  0.11547069  0.00483649  0.89685930  1
  O  O14  1  0.14510638  0.12851537  0.33055444  1
  O  O15  1  0.17569638  0.79017108  0.23737980  1
  O  O16  1  0.32430362  0.29017108  0.73737980  1
  O  O17  1  0.35489362  0.62851537  0.83055444  1
  O  O18  1  0.38452831  0.50483649  0.39685930  1
  O  O19  1  0.45477806  0.92919471  0.25609483  1
  O  O20  1  0.54522194  0.42919471  0.74390517  1
  O  O21  1  0.61547069  0.00483649  0.60314070  1
  O  O22  1  0.64510638  0.12851537  0.16944556  1
  O  O23  1  0.67569638  0.79017108  0.26262020  1
  O  O24  1  0.82430362  0.29017108  0.76262020  1
  O  O25  1  0.85489362  0.62851537  0.66944556  1
  O  O26  1  0.88452931  0.50483649  0.10314070  1
  O  O27  1  0.95477806  0.92919471  0.24390517  1
