# generated using pymatgen
data_LiCoPO4
_symmetry_space_group_name_H-M   'P 1'
_cell_length_a   4.88154293
_cell_length_b   8.43420168
_cell_length_c   4.88154317
_cell_angle_alpha   106.82142295
_cell_angle_beta   60.00000667
_cell_angle_gamma   106.82142586
_symmetry_Int_Tables_number   1
_chemical_formula_structural   LiCoPO4
_chemical_formula_sum   'Li2 Co2 P2 O8'
_cell_volume   164.05067904
_cell_formula_units_Z   2
loop_
 _symmetry_equiv_pos_site_id
 _symmetry_equiv_pos_as_xyz
  1  'x, y, z'
loop_
 _atom_site_type_symbol
 _atom_site_label
 _atom_site_symmetry_multiplicity
 _atom_site_fract_x
 _atom_site_fract_y
 _atom_site_fract_z
 _atom_site_occupancy
  Li  Li0  1  0.00257219  0.00771558  0.00257219  1
  Li  Li1  1  0.57293524  0.71880572  0.57293524  1
  Co  Co2  1  0.12650222  0.37950565  0.12650222  1
  Co  Co3  1  0.44903366  0.34710199  0.44903366  1
  P  P4  1  0.86212676  0.58638027  0.86212676  1
  P  P5  1  0.71325315  0.13976044  0.71325315  1
  O  O6  1  0.15348365  0.52066993  0.54358038  1
  O  O7  1  0.03195761  0.20583140  0.75198826  1
  O  O8  1  0.42188652  0.20583140  0.03195761  1
  O  O9  1  0.65046453  0.95139359  0.65046453  1
  O  O10  1  0.82360590  0.52066993  0.15348365  1
  O  O11  1  0.54358038  0.52066993  0.82360590  1
  O  O12  1  0.75198826  0.20583140  0.42188652  1
  O  O13  1  0.92513992  0.77542077  0.92513992  1
