# generated using pymatgen
data_Li5Mn3O5F3
_symmetry_space_group_name_H-M   'P 1'
_cell_length_a   5.93328094
_cell_length_b   6.19283918
_cell_length_c   5.80098839
_cell_angle_alpha   61.60747850
_cell_angle_beta   90.93313185
_cell_angle_gamma   119.65635816
_symmetry_Int_Tables_number   1
_chemical_formula_structural   Li5Mn3O5F3
_chemical_formula_sum   'Li5 Mn3 O5 F3'
_cell_volume   156.11958652
_cell_formula_units_Z   1
loop_
 _symmetry_equiv_pos_site_id
 _symmetry_equiv_pos_as_xyz
  1  'x, y, z'
loop_
 _atom_site_type_symbol
 _atom_site_label
 _atom_site_symmetry_multiplicity
 _atom_site_fract_x
 _atom_site_fract_y
 _atom_site_fract_z
 _atom_site_occupancy
  Li  Li0  1  0.12289462  0.24750565  0.12586701  1
  Li  Li1  1  0.61035906  0.74296454  0.13576031  1
  Li  Li2  1  0.12701952  0.73849120  0.13841042  1
  Li  Li3  1  0.13785112  0.28092951  0.60634769  1
  Li  Li4  1  0.12914909  0.74255975  0.61890036  1
  Mn  Mn5  1  0.60686071  0.21511900  0.14183139  1
  Mn  Mn6  1  0.62522841  0.25034879  0.62417662  1
  Mn  Mn7  1  0.61574752  0.74409970  0.62245272  1
  O  O8  1  0.84318557  0.23447900  0.38981592  1
  O  O9  1  0.84534821  0.25110311  0.87556983  1
  O  O10  1  0.40745095  0.25519145  0.37021700  1
  O  O11  1  0.37098364  0.74557245  0.37611040  1
  O  O12  1  0.41202687  0.27076612  0.85993948  1
  F  F13  1  0.90384915  0.78227708  0.34809733  1
  F  F14  1  0.89529808  0.78011911  0.86377418  1
  F  F15  1  0.34674849  0.71847354  0.90273035  1
