# generated using pymatgen
data_LiCoPO4
_symmetry_space_group_name_H-M   'P 1'
_cell_length_a   5.12540853
_cell_length_b   9.54795952
_cell_length_c   6.06341787
_cell_angle_alpha   90.00000000
_cell_angle_beta   90.00000000
_cell_angle_gamma   83.84640491
_symmetry_Int_Tables_number   1
_chemical_formula_structural   LiCoPO4
_chemical_formula_sum   'Li4 Co4 P4 O16'
_cell_volume   295.01694473
_cell_formula_units_Z   4
loop_
 _symmetry_equiv_pos_site_id
 _symmetry_equiv_pos_as_xyz
  1  'x, y, z'
loop_
 _atom_site_type_symbol
 _atom_site_label
 _atom_site_symmetry_multiplicity
 _atom_site_fract_x
 _atom_site_fract_y
 _atom_site_fract_z
 _atom_site_occupancy
  Li  Li0  1  0.15811946  0.92826541  0.63927702  1
  Li  Li1  1  0.34188054  0.57173459  0.13927702  1
  Li  Li2  1  0.65811946  0.42826541  0.86072298  1
  Li  Li3  1  0.84188054  0.07173459  0.36072298  1
  Co  Co4  1  0.20385701  0.34218514  0.61153396  1
  Co  Co5  1  0.29614299  0.15781486  0.11153396  1
  Co  Co6  1  0.70385701  0.84218514  0.88846604  1
  Co  Co7  1  0.79614299  0.65781486  0.38846604  1
  P  P8  1  0.25682519  0.63708721  0.64930149  1
  P  P9  1  0.24317481  0.86291279  0.14930149  1
  P  P10  1  0.75682519  0.13708721  0.85069851  1
  P  P11  1  0.74317481  0.36291279  0.35069851  1
  O  O12  1  0.00550883  0.74523322  0.66517085  1
  O  O13  1  -0.00003299  0.77845547  0.13788106  1
  O  O14  1  0.21749476  0.55318021  0.43321454  1
  O  O15  1  0.28133389  0.52512637  0.83489311  1
  O  O16  1  0.21866611  0.97487363  0.33489311  1
  O  O17  1  0.28250524  0.94681979  0.93321454  1
  O  O18  1  0.50550883  0.24523322  0.83482915  1
  O  O19  1  0.49996701  0.27845547  0.36211894  1
  O  O20  1  0.50003299  0.72154453  0.63788106  1
  O  O21  1  0.49449117  0.75476678  0.16517085  1
  O  O22  1  0.71749476  0.05318021  0.06678546  1
  O  O23  1  0.78133389  0.02512637  0.66510689  1
  O  O24  1  0.71866611  0.47487363  0.16510689  1
  O  O25  1  0.78250524  0.44681979  0.56678546  1
  O  O26  1  0.00003299  0.22154453  0.86211894  1
  O  O27  1  0.99449117  0.25476678  0.33482915  1
