# generated using pymatgen
data_Li10Cr3P6(O4F)6
_symmetry_space_group_name_H-M   'P 1'
_cell_length_a   6.50781859
_cell_length_b   10.16843740
_cell_length_c   10.16668662
_cell_angle_alpha   59.98765225
_cell_angle_beta   89.95387998
_cell_angle_gamma   90.02893067
_symmetry_Int_Tables_number   1
_chemical_formula_structural   Li10Cr3P6(O4F)6
_chemical_formula_sum   'Li10 Cr3 P6 O24 F6'
_cell_volume   582.56621747
_cell_formula_units_Z   1
loop_
 _symmetry_equiv_pos_site_id
 _symmetry_equiv_pos_as_xyz
  1  'x, y, z'
loop_
 _atom_site_type_symbol
 _atom_site_label
 _atom_site_symmetry_multiplicity
 _atom_site_fract_x
 _atom_site_fract_y
 _atom_site_fract_z
 _atom_site_occupancy
  Li  Li0  1  0.58111791  0.99986805  0.99984340  1
  Li  Li1  1  0.47560918  0.20727805  0.16573464  1
  Li  Li2  1  0.47547191  0.16573015  0.62685030  1
  Li  Li3  1  0.28676944  0.33358800  0.33321080  1
  Li  Li4  1  0.47550321  0.62705981  0.20703326  1
  Li  Li5  1  0.74553880  0.30124144  0.87276095  1
  Li  Li6  1  0.74556320  0.82592331  0.30075629  1
  Li  Li7  1  0.83435777  0.66628711  0.66699704  1
  Li  Li8  1  0.35951803  0.66723929  0.66632678  1
  Li  Li9  1  0.74540904  0.87257425  0.82623791  1
  Cr  Cr10  1  0.00174190  0.17115990  0.16249996  1
  Cr  Cr11  1  0.00175309  0.16265345  0.66640420  1
  Cr  Cr12  1  0.00155774  0.66617495  0.17108626  1
  P  P13  1  0.73906861  0.04135957  0.46715379  1
  P  P14  1  0.73919811  0.49157347  0.04148812  1
  P  P15  1  0.73889588  0.46679785  0.49172838  1
  P  P16  1  0.26474934  0.29017948  0.85566715  1
  P  P17  1  0.26409472  0.85414119  0.29014123  1
  P  P18  1  0.26439233  0.85580785  0.85408689  1
  O  O19  1  0.22805589  0.02806712  0.23270859  1
  O  O20  1  0.92712061  0.12091524  0.35895995  1
  O  O21  1  0.54214370  0.12493067  0.38661732  1
  O  O22  1  0.77404768  0.32716162  0.06602233  1
  O  O23  1  0.77425182  0.06597484  0.60697646  1
  O  O24  1  0.54246382  0.48887918  0.12525294  1
  O  O25  1  0.92724065  0.51987698  0.12116813  1
  O  O26  1  0.92726800  0.35904663  0.52004620  1
  O  O27  1  0.22794366  0.23287000  0.73920508  1
  O  O28  1  0.54251552  0.38601309  0.48909272  1
  O  O29  1  0.45709661  0.21287272  0.94916900  1
  O  O30  1  0.06523442  0.23787303  0.95591148  1
  O  O31  1  0.22783985  0.73922858  0.02795068  1
  O  O32  1  0.77403818  0.60686648  0.32713557  1
  O  O33  1  0.73888777  0.51698570  0.61127438  1
  O  O34  1  0.06498136  0.80660189  0.23734193  1
  O  O35  1  0.45710074  0.83766668  0.21296293  1
  O  O36  1  0.73929987  0.61129756  0.87175611  1
  O  O37  1  0.73806393  0.87148276  0.51742250  1
  O  O38  1  0.45707723  0.94928558  0.83755970  1
  O  O39  1  0.06509079  0.95599118  0.80637439  1
  O  O40  1  0.27451056  0.46243644  0.77130672  1
  O  O41  1  0.27302537  0.76610155  0.46222946  1
  O  O42  1  0.27340027  0.77163680  0.76587008  1
  F  F43  1  0.79240860  0.03774404  0.15692613  1
  F  F44  1  0.20983168  0.30050656  0.16819309  1
  F  F45  1  0.20962659  0.16820728  0.53127824  1
  F  F46  1  0.79258374  0.15692315  0.80556109  1
  F  F47  1  0.20964035  0.53151539  0.30054838  1
  F  F48  1  0.79222653  0.80512207  0.03788613  1
