# generated using pymatgen
data_Li9Cr4(BO3)8
_symmetry_space_group_name_H-M   'P 1'
_cell_length_a   6.01728708
_cell_length_b   8.94602698
_cell_length_c   9.47189374
_cell_angle_alpha   113.69107462
_cell_angle_beta   89.88676729
_cell_angle_gamma   89.87131924
_symmetry_Int_Tables_number   1
_chemical_formula_structural   Li9Cr4(BO3)8
_chemical_formula_sum   'Li9 Cr4 B8 O24'
_cell_volume   466.90623734
_cell_formula_units_Z   1
loop_
 _symmetry_equiv_pos_site_id
 _symmetry_equiv_pos_as_xyz
  1  'x, y, z'
loop_
 _atom_site_type_symbol
 _atom_site_label
 _atom_site_symmetry_multiplicity
 _atom_site_fract_x
 _atom_site_fract_y
 _atom_site_fract_z
 _atom_site_occupancy
  Li  Li0  1  0.29051082  0.86990438  0.07042024  1
  Li  Li1  1  0.06808748  0.70871338  0.17657093  1
  Li  Li2  1  0.25224324  0.85402108  0.58355628  1
  Li  Li3  1  0.72518184  0.62093268  0.50141653  1
  Li  Li4  1  0.25159685  0.38555366  0.01163215  1
  Li  Li5  1  0.74383531  0.61860085  0.98398877  1
  Li  Li6  1  0.24195381  0.39020567  0.51255576  1
  Li  Li7  1  0.58686673  0.27521598  0.33840258  1
  Li  Li8  1  0.91192000  0.27381365  0.84146999  1
  Cr  Cr9  1  0.53461675  0.77234126  0.28090944  1
  Cr  Cr10  1  0.03838017  0.23585112  0.22034399  1
  Cr  Cr11  1  0.45771288  0.23199959  0.72001176  1
  Cr  Cr12  1  0.96940044  0.77065252  0.78148995  1
  B  B13  1  0.72041779  0.95044627  0.07557448  1
  B  B14  1  0.78268829  0.94708083  0.57785233  1
  B  B15  1  0.34764244  0.54409090  0.30833507  1
  B  B16  1  0.84199514  0.46122632  0.19371393  1
  B  B17  1  0.15577203  0.54601475  0.81198301  1
  B  B18  1  0.65356168  0.45814451  0.69264644  1
  B  B19  1  0.22216233  0.05110240  0.41658877  1
  B  B20  1  0.27759306  0.05153493  0.91966769  1
  O  O21  1  0.60273107  0.82876158  0.10001241  1
  O  O22  1  0.25769792  0.89699448  0.29646891  1
  O  O23  1  0.72318468  0.91029064  0.42342819  1
  O  O24  1  0.90208646  0.82565237  0.59936482  1
  O  O25  1  0.22701876  0.90344920  0.80270170  1
  O  O26  1  0.78454903  0.60828033  0.18710436  1
  O  O27  1  0.33638820  0.57857104  0.17608633  1
  O  O28  1  0.77974561  0.91202025  0.92198461  1
  O  O29  1  0.43791314  0.67763695  0.43078153  1
  O  O30  1  0.72662003  0.60131254  0.69517688  1
  O  O31  1  0.95574083  0.34203248  0.07248612  1
  O  O32  1  0.15735185  0.57907437  0.68177795  1
  O  O33  1  0.81624769  0.42761920  0.32321631  1
  O  O34  1  0.07113365  0.67883366  0.94228887  1
  O  O35  1  0.29472537  0.39895344  0.31187908  1
  O  O36  1  0.53763388  0.33838511  0.57314162  1
  O  O37  1  0.23605367  0.07553757  0.06917248  1
  O  O38  1  0.67117685  0.41389459  0.81964695  1
  O  O39  1  0.20610275  0.39686214  0.81202461  1
  O  O40  1  0.76846113  0.09813469  0.18591846  1
  O  O41  1  0.12589025  0.17609194  0.39513254  1
  O  O42  1  0.29746395  0.06591088  0.56295570  1
  O  O43  1  0.73124375  0.09633176  0.68796508  1
  O  O44  1  0.36558041  0.17408006  0.88277741  1
