# generated using pymatgen
data_LiV2O3F
_symmetry_space_group_name_H-M   'P 1'
_cell_length_a   6.04654256
_cell_length_b   5.99711190
_cell_length_c   6.01712240
_cell_angle_alpha   119.92590115
_cell_angle_beta   119.15314697
_cell_angle_gamma   90.80002589
_symmetry_Int_Tables_number   1
_chemical_formula_structural   LiV2O3F
_chemical_formula_sum   'Li2 V4 O6 F2'
_cell_volume   155.33447695
_cell_formula_units_Z   2
loop_
 _symmetry_equiv_pos_site_id
 _symmetry_equiv_pos_as_xyz
  1  'x, y, z'
loop_
 _atom_site_type_symbol
 _atom_site_label
 _atom_site_symmetry_multiplicity
 _atom_site_fract_x
 _atom_site_fract_y
 _atom_site_fract_z
 _atom_site_occupancy
  Li  Li0  1  0.98430539  0.49505084  0.98873520  1
  Li  Li1  1  0.39675449  0.62251251  0.75958566  1
  V  V2  1  0.61172588  0.37037486  0.23993837  1
  V  V3  1  0.99079221  0.00795546  0.01076703  1
  V  V4  1  0.50977835  0.01982639  0.50937447  1
  V  V5  1  0.99489154  0.00349869  0.49149823  1
  O  O6  1  0.74961137  0.23712146  0.50262743  1
  O  O7  1  0.79178861  0.77530087  0.03650619  1
  O  O8  1  0.25204232  0.21909277  0.48876908  1
  O  O9  1  0.75265277  0.23338427  0.98587610  1
  O  O10  1  0.74520917  0.77438084  0.51046707  1
  O  O11  1  0.22137354  0.21657675  0.96909077  1
  F  F12  1  0.24709498  0.76338357  0.01723132  1
  F  F13  1  0.25197837  0.76153973  0.48953209  1
