# generated using pymatgen
data_Mn3VCr2(PO4)6
_symmetry_space_group_name_H-M   'P 1'
_cell_length_a   8.48393511
_cell_length_b   8.68619455
_cell_length_c   8.68619457
_cell_angle_alpha   59.99999825
_cell_angle_beta   59.20818060
_cell_angle_gamma   59.20818238
_symmetry_Int_Tables_number   1
_chemical_formula_structural   Mn3VCr2(PO4)6
_chemical_formula_sum   'Mn3 V1 Cr2 P6 O24'
_cell_volume   447.13495981
_cell_formula_units_Z   1
loop_
 _symmetry_equiv_pos_site_id
 _symmetry_equiv_pos_as_xyz
  1  'x, y, z'
loop_
 _atom_site_type_symbol
 _atom_site_label
 _atom_site_symmetry_multiplicity
 _atom_site_fract_x
 _atom_site_fract_y
 _atom_site_fract_z
 _atom_site_occupancy
  Mn  Mn0  1  0.06542821  0.64485693  0.64485693  1
  Mn  Mn1  1  0.43646955  0.85450982  0.85450982  1
  Mn  Mn2  1  0.93523062  0.35492346  0.35492346  1
  V  V3  1  0.56478334  0.14507255  0.14507255  1
  Cr  Cr4  1  0.00007068  -0.00002323  -0.00002323  1
  Cr  Cr5  1  0.50340118  0.49886627  0.49886627  1
  P  P6  1  0.24993237  0.25072998  0.54674105  1
  P  P7  1  0.24993237  0.95259660  0.25072998  1
  P  P8  1  0.24993237  0.54674105  0.95259660  1
  P  P9  1  0.74835439  0.45215942  0.04959716  1
  P  P10  1  0.74835439  0.04959716  0.74988903  1
  P  P11  1  0.74835439  0.74988903  0.45215942  1
  O  O12  1  0.06372117  0.10183118  0.32313825  1
  O  O13  1  0.06372117  0.51130939  0.10183118  1
  O  O14  1  0.06372117  0.32313825  0.51130939  1
  O  O15  1  0.22030975  0.09475774  0.74894216  1
  O  O16  1  0.43110414  0.17102717  0.38949878  1
  O  O17  1  0.29458203  0.40141175  0.55143718  1
  O  O18  1  0.22030975  0.93599035  0.09475774  1
  O  O19  1  0.29458203  0.75256904  0.40141175  1
  O  O20  1  0.56515638  0.60411247  0.00829854  1
  O  O21  1  0.29458203  0.55143718  0.75256904  1
  O  O22  1  0.77297228  0.24663025  0.07062653  1
  O  O23  1  0.56515638  0.00829854  0.82243362  1
  O  O24  1  0.43110414  0.00836991  0.17102717  1
  O  O25  1  0.22030975  0.74894216  0.93599035  1
  O  O26  1  0.71460148  0.43366994  0.25284202  1
  O  O27  1  0.43110414  0.38949878  0.00836991  1
  O  O28  1  0.71460148  0.25284202  0.59888656  1
  O  O29  1  0.77297228  0.07062653  0.90977095  1
  O  O30  1  0.71460148  0.59888656  0.43366994  1
  O  O31  1  0.56515638  0.82243362  0.60411247  1
  O  O32  1  0.77297228  0.90977095  0.24663025  1
  O  O33  1  0.93747181  0.68391633  0.48034965  1
  O  O34  1  0.93747181  0.48034965  0.89826220  1
  O  O35  1  0.93747181  0.89826220  0.68391633  1
