# generated using pymatgen
data_Li2NiP3O10
_symmetry_space_group_name_H-M   'P 1'
_cell_length_a   4.69118509
_cell_length_b   8.55275791
_cell_length_c   9.24148553
_cell_angle_alpha   90.00000000
_cell_angle_beta   98.14347494
_cell_angle_gamma   90.00000000
_symmetry_Int_Tables_number   1
_chemical_formula_structural   Li2NiP3O10
_chemical_formula_sum   'Li4 Ni2 P6 O20'
_cell_volume   367.05325596
_cell_formula_units_Z   2
loop_
 _symmetry_equiv_pos_site_id
 _symmetry_equiv_pos_as_xyz
  1  'x, y, z'
loop_
 _atom_site_type_symbol
 _atom_site_label
 _atom_site_symmetry_multiplicity
 _atom_site_fract_x
 _atom_site_fract_y
 _atom_site_fract_z
 _atom_site_occupancy
  Li  Li0  1  0.02069109  0.07615012  0.34537884  1
  Li  Li1  1  0.02069109  0.42384988  0.34537884  1
  Li  Li2  1  0.97930891  0.57615012  0.65462116  1
  Li  Li3  1  0.97930891  0.92384988  0.65462116  1
  Ni  Ni4  1  0.00000000  0.00000000  0.00000000  1
  Ni  Ni5  1  0.00000000  0.50000000  0.00000000  1
  P  P6  1  0.32155886  0.25000000  0.83013016  1
  P  P7  1  0.41478256  0.75000000  0.45955306  1
  P  P8  1  0.53543051  0.75000000  0.85889999  1
  P  P9  1  0.46456949  0.25000000  0.14110001  1
  P  P10  1  0.58521744  0.25000000  0.54044694  1
  P  P11  1  0.67844114  0.75000000  0.16986984  1
  O  O12  1  0.15016520  0.09910497  0.82776313  1
  O  O13  1  0.15016520  0.40089503  0.82776313  1
  O  O14  1  0.25275331  0.75000000  0.76101426  1
  O  O15  1  0.22986840  0.60428599  0.47101726  1
  O  O16  1  0.22986840  0.89571401  0.47101726  1
  O  O17  1  0.29839746  0.25000000  0.44257684  1
  O  O18  1  0.28157826  0.39884631  0.14640395  1
  O  O19  1  0.28157826  0.10115369  0.14640395  1
  O  O20  1  0.56486102  0.25000000  0.97353783  1
  O  O21  1  0.48045889  0.75000000  0.29094589  1
  O  O22  1  0.51954111  0.25000000  0.70905411  1
  O  O23  1  0.43513898  0.75000000  0.02646217  1
  O  O24  1  0.71842174  0.89884631  0.85359605  1
  O  O25  1  0.71842174  0.60115369  0.85359605  1
  O  O26  1  0.70160254  0.75000000  0.55742316  1
  O  O27  1  0.77013160  0.10428599  0.52898274  1
  O  O28  1  0.77013160  0.39571401  0.52898274  1
  O  O29  1  0.74724669  0.25000000  0.23898574  1
  O  O30  1  0.84983480  0.59910497  0.17223687  1
  O  O31  1  0.84983480  0.90089503  0.17223687  1
