# generated using pymatgen
data_CeSe2
_symmetry_space_group_name_H-M   'P 1'
_cell_length_a   7.48820638
_cell_length_b   7.90428985
_cell_length_c   10.96545862
_cell_angle_alpha   111.12584644
_cell_angle_beta   99.56891773
_cell_angle_gamma   90.00000482
_symmetry_Int_Tables_number   1
_chemical_formula_structural   CeSe2
_chemical_formula_sum   'Ce6 Se12'
_cell_volume   595.72182066
_cell_formula_units_Z   6
loop_
 _symmetry_equiv_pos_site_id
 _symmetry_equiv_pos_as_xyz
  1  'x, y, z'
loop_
 _atom_site_type_symbol
 _atom_site_label
 _atom_site_symmetry_multiplicity
 _atom_site_fract_x
 _atom_site_fract_y
 _atom_site_fract_z
 _atom_site_occupancy
  Ce  Ce0  1  0.67252122  0.69623051  0.67580941  1
  Ce  Ce1  1  0.82747878  0.02042110  0.32419059  1
  Ce  Ce2  1  0.32747878  0.30376949  0.32419059  1
  Ce  Ce3  1  0.17252122  0.97957890  0.67580941  1
  Ce  Ce4  1  0.25000000  0.64012702  1.00000000  1
  Ce  Ce5  1  0.75000000  0.35987298  0.00000000  1
  Se  Se6  1  0.53860508  0.03580298  0.81489210  1
  Se  Se7  1  0.96139492  0.22091087  0.18510790  1
  Se  Se8  1  0.46139492  0.96419702  0.18510790  1
  Se  Se9  1  0.03860508  0.77908913  0.81489210  1
  Se  Se10  1  0.03969448  0.30465638  0.85344382  1
  Se  Se11  1  0.46030552  0.45121255  0.14655618  1
  Se  Se12  1  0.96030552  0.69534362  0.14655618  1
  Se  Se13  1  0.53969448  0.54878745  0.85344382  1
  Se  Se14  1  0.82012999  0.86091232  0.51781632  1
  Se  Se15  1  0.67987001  0.34309600  0.48218368  1
  Se  Se16  1  0.17987001  0.13908768  0.48218368  1
  Se  Se17  1  0.32012999  0.65690400  0.51781632  1
