# generated using pymatgen
data_LiFePO4
_symmetry_space_group_name_H-M   'P 1'
_cell_length_a   8.07826281
_cell_length_b   16.99989414
_cell_length_c   4.87846509
_cell_angle_alpha   90.00000000
_cell_angle_beta   90.00000000
_cell_angle_gamma   90.00000000
_symmetry_Int_Tables_number   1
_chemical_formula_structural   LiFePO4
_chemical_formula_sum   'Li8 Fe8 P8 O32'
_cell_volume   669.95772092
_cell_formula_units_Z   8
loop_
 _symmetry_equiv_pos_site_id
 _symmetry_equiv_pos_as_xyz
  1  'x, y, z'
loop_
 _atom_site_type_symbol
 _atom_site_label
 _atom_site_symmetry_multiplicity
 _atom_site_fract_x
 _atom_site_fract_y
 _atom_site_fract_z
 _atom_site_occupancy
  Li  Li0  1  0.03387617  0.94288565  0.94191627  1
  Li  Li1  1  0.12918566  0.36532707  0.47120991  1
  Li  Li2  1  0.37081434  0.86532707  0.97120991  1
  Li  Li3  1  0.46612383  0.44288665  0.44191627  1
  Li  Li4  1  0.53387617  0.55711435  0.94191627  1
  Li  Li5  1  0.62918566  0.13467293  0.47120991  1
  Li  Li6  1  0.87081434  0.63467293  0.97120991  1
  Li  Li7  1  0.96612383  0.05711335  0.44191627  1
  Fe  Fe8  1  0.06865283  0.78271835  0.60079218  1
  Fe  Fe9  1  0.15416050  0.55609589  0.48228279  1
  Fe  Fe10  1  0.34583950  0.05609589  0.98228279  1
  Fe  Fe11  1  0.43134717  0.28271835  0.10079218  1
  Fe  Fe12  1  0.56865283  0.71728165  0.60079218  1
  Fe  Fe13  1  0.65416050  0.94390411  0.48228279  1
  Fe  Fe14  1  0.84583950  0.44390411  0.98228279  1
  Fe  Fe15  1  0.93134717  0.21728165  0.10079218  1
  P  P16  1  0.24640474  0.67927714  0.94424015  1
  P  P17  1  0.25213343  0.93886546  0.42958655  1
  P  P18  1  0.24786657  0.43886546  0.92958655  1
  P  P19  1  0.25359526  0.17927714  0.44424015  1
  P  P20  1  0.74640474  0.82072286  0.94424015  1
  P  P21  1  0.75213343  0.56113454  0.42958655  1
  P  P22  1  0.74786657  0.06113454  0.92958655  1
  P  P23  1  0.75359526  0.32072286  0.44424015  1
  O  O24  1  0.09285826  0.64810969  0.77430258  1
  O  O25  1  0.12252553  0.98906818  0.27763202  1
  O  O26  1  0.07907315  0.45852589  0.78586069  1
  O  O27  1  0.08814420  0.14969615  0.31665874  1
  O  O28  1  0.23227618  0.65494437  0.24691712  1
  O  O29  1  0.25573847  0.95515087  0.74417269  1
  O  O30  1  0.24386615  0.76952050  0.89953217  1
  O  O31  1  0.28247291  0.35048570  0.87606613  1
  O  O32  1  0.21752709  0.85048570  0.37606613  1
  O  O33  1  0.25613385  0.26952050  0.39953217  1
  O  O34  1  0.24426153  0.45515087  0.24417269  1
  O  O35  1  0.26772382  0.15494437  0.74691712  1
  O  O36  1  0.41185580  0.64969615  0.81665874  1
  O  O37  1  0.42092685  0.95852589  0.28586069  1
  O  O38  1  0.37747447  0.48906818  0.77763202  1
  O  O39  1  0.40714174  0.14810969  0.27430258  1
  O  O40  1  0.59285826  0.85189031  0.77430258  1
  O  O41  1  0.62252553  0.51093182  0.27763202  1
  O  O42  1  0.57907315  0.04147411  0.78586069  1
  O  O43  1  0.58814420  0.35030385  0.31665874  1
  O  O44  1  0.73227618  0.84505563  0.24691712  1
  O  O45  1  0.75573847  0.54484913  0.74417269  1
  O  O46  1  0.74386615  0.73047950  0.89953217  1
  O  O47  1  0.78247291  0.14951430  0.87606613  1
  O  O48  1  0.71752709  0.64951430  0.37606613  1
  O  O49  1  0.75613385  0.23047950  0.39953217  1
  O  O50  1  0.74426153  0.04484913  0.24417269  1
  O  O51  1  0.76772382  0.34505563  0.74691712  1
  O  O52  1  0.91185580  0.85030385  0.81665874  1
  O  O53  1  0.92092685  0.54147411  0.28586069  1
  O  O54  1  0.87747447  0.01093182  0.77763202  1
  O  O55  1  0.90714174  0.35189031  0.27430258  1
