# generated using pymatgen
data_VF5
_symmetry_space_group_name_H-M   'P 1'
_cell_length_a   9.40883811
_cell_length_b   6.33210417
_cell_length_c   6.22254097
_cell_angle_alpha   90.00028750
_cell_angle_beta   90.00038983
_cell_angle_gamma   90.00051079
_symmetry_Int_Tables_number   1
_chemical_formula_structural   VF5
_chemical_formula_sum   'V4 F20'
_cell_volume   370.72494690
_cell_formula_units_Z   4
loop_
 _symmetry_equiv_pos_site_id
 _symmetry_equiv_pos_as_xyz
  1  'x, y, z'
loop_
 _atom_site_type_symbol
 _atom_site_label
 _atom_site_symmetry_multiplicity
 _atom_site_fract_x
 _atom_site_fract_y
 _atom_site_fract_z
 _atom_site_occupancy
  V  V0  1  0.99552773  0.09847450  0.00238931  1
  V  V1  1  0.50446806  0.59848501  0.50239343  1
  V  V2  1  0.49552419  0.40151928  0.00240486  1
  V  V3  1  0.00447658  0.90151934  0.50238479  1
  F  F4  1  0.98305726  0.37416147  0.00240235  1
  F  F5  1  0.01362603  0.83333664  0.19427633  1
  F  F6  1  0.01515927  0.83354172  0.81035768  1
  F  F7  1  0.18592108  0.97297734  0.50088919  1
  F  F8  1  0.18263945  0.08153213  0.00347005  1
  F  F9  1  0.31735611  0.58153653  0.50346607  1
  F  F10  1  0.31406751  0.47297979  0.00088225  1
  F  F11  1  0.48484394  0.33353615  0.31036317  1
  F  F12  1  0.48637583  0.33334089  0.69427983  1
  F  F13  1  0.51694304  0.87417041  0.50240596  1
  F  F14  1  0.48305633  0.12583394  0.00240021  1
  F  F15  1  0.51362204  0.66665901  0.19427943  1
  F  F16  1  0.51515370  0.66646678  0.81036692  1
  F  F17  1  0.68593087  0.52702304  0.50088351  1
  F  F18  1  0.68263782  0.41846554  0.00347078  1
  F  F19  1  0.81737050  0.91846242  0.50347294  1
  F  F20  1  0.81407839  0.02701469  0.00088682  1
  F  F21  1  0.98484734  0.16645567  0.31035877  1
  F  F22  1  0.98637531  0.16666174  0.69427666  1
  F  F23  1  0.01694163  0.62584598  0.50240269  1
