# generated using pymatgen
data_Li2Ni(PO3)5
_symmetry_space_group_name_H-M   'P 1'
_cell_length_a   7.01019277
_cell_length_b   7.01019277
_cell_length_c   13.54942462
_cell_angle_alpha   82.98232278
_cell_angle_beta   97.01767722
_cell_angle_gamma   66.95686829
_symmetry_Int_Tables_number   1
_chemical_formula_structural   Li2Ni(PO3)5
_chemical_formula_sum   'Li4 Ni2 P10 O30'
_cell_volume   597.51061089
_cell_formula_units_Z   2
loop_
 _symmetry_equiv_pos_site_id
 _symmetry_equiv_pos_as_xyz
  1  'x, y, z'
loop_
 _atom_site_type_symbol
 _atom_site_label
 _atom_site_symmetry_multiplicity
 _atom_site_fract_x
 _atom_site_fract_y
 _atom_site_fract_z
 _atom_site_occupancy
  Li  Li0  1  0.25675212  0.25071091  0.71145564  1
  Li  Li1  1  0.74928909  0.74324788  0.21145564  1
  Li  Li2  1  0.79919256  0.37644637  0.61582415  1
  Li  Li3  1  0.62355363  0.20080744  0.11582415  1
  Ni  Ni4  1  0.84375680  0.90024921  0.77437046  1
  Ni  Ni5  1  0.09975079  0.15624320  0.27437046  1
  P  P6  1  0.65270302  0.96270352  0.52990409  1
  P  P7  1  0.28429399  0.61085988  0.54988905  1
  P  P8  1  0.37374682  0.81911489  0.82849423  1
  P  P9  1  0.03729648  0.34729698  0.02990409  1
  P  P10  1  0.38914012  0.71570601  0.04988905  1
  P  P11  1  0.18088511  0.62625318  0.32849423  1
  P  P12  1  0.17666129  0.09268166  0.52219202  1
  P  P13  1  0.90731834  0.82333871  0.02219202  1
  P  P14  1  0.77401825  0.44641087  0.82291054  1
  P  P15  1  0.55358913  0.22598175  0.32291054  1
  O  O16  1  0.15551103  0.83965278  0.79429354  1
  O  O17  1  0.16034722  0.84448897  0.29429354  1
  O  O18  1  0.22789855  0.51392028  0.63972215  1
  O  O19  1  0.48607972  0.77210145  0.13972215  1
  O  O20  1  0.21413664  0.85211634  0.55284950  1
  O  O21  1  0.14788366  0.78586336  0.05284950  1
  O  O22  1  0.40182865  0.84546116  0.94735998  1
  O  O23  1  0.15453884  0.59817135  0.44735998  1
  O  O24  1  0.45258612  0.96688221  0.77457636  1
  O  O25  1  0.03311779  0.54741388  0.27457636  1
  O  O26  1  0.25123192  0.29931912  0.00261341  1
  O  O27  1  0.70068188  0.74876808  0.50261341  1
  O  O28  1  0.82197047  0.92526493  0.91419932  1
  O  O29  1  0.51811902  0.51007599  0.54900273  1
  O  O30  1  0.07473507  0.17802953  0.41419932  1
  O  O31  1  0.53175103  0.57665659  0.83312631  1
  O  O32  1  0.48992401  0.48188098  0.04900273  1
  O  O33  1  0.42334341  0.46824897  0.33312631  1
  O  O34  1  0.07399108  0.20640499  0.60057778  1
  O  O35  1  0.79359501  0.92600892  0.10057778  1
  O  O36  1  0.41234506  0.07871656  0.54168709  1
  O  O37  1  0.92128344  0.58765494  0.04168709  1
  O  O38  1  0.87291786  0.59293066  0.78800562  1
  O  O39  1  0.40706934  0.12708214  0.28800562  1
  O  O40  1  0.87936147  0.32636754  0.93912986  1
  O  O41  1  0.67363246  0.12063853  0.43912986  1
  O  O42  1  0.78040206  0.28258789  0.76010265  1
  O  O43  1  0.71741211  0.21959794  0.26010265  1
  O  O44  1  0.78331609  0.97773455  0.62351251  1
  O  O45  1  0.02226545  0.21668391  0.12351251  1
