# generated using pymatgen
data_LiSi3BiO8
_symmetry_space_group_name_H-M   'P 1'
_cell_length_a   7.74983454
_cell_length_b   7.74983454
_cell_length_c   14.01019892
_cell_angle_alpha   76.49215663
_cell_angle_beta   103.50784337
_cell_angle_gamma   66.93453131
_symmetry_Int_Tables_number   1
_chemical_formula_structural   LiSi3BiO8
_chemical_formula_sum   'Li4 Si12 Bi4 O32'
_cell_volume   701.30744554
_cell_formula_units_Z   4
loop_
 _symmetry_equiv_pos_site_id
 _symmetry_equiv_pos_as_xyz
  1  'x, y, z'
loop_
 _atom_site_type_symbol
 _atom_site_label
 _atom_site_symmetry_multiplicity
 _atom_site_fract_x
 _atom_site_fract_y
 _atom_site_fract_z
 _atom_site_occupancy
  Li  Li0  1  0.41039133  0.81350450  0.82344529  1
  Li  Li1  1  0.18649550  0.58960867  0.32344529  1
  Li  Li2  1  0.82140197  0.81136613  0.62339510  1
  Li  Li3  1  0.18863387  0.17859803  0.12339510  1
  Si  Si4  1  0.21092181  0.55208755  0.83801652  1
  Si  Si5  1  0.81262753  0.79883197  0.87700025  1
  Si  Si6  1  0.17217386  0.15544861  0.89606130  1
  Si  Si7  1  0.44791245  0.78907819  0.33801552  1
  Si  Si8  1  0.15093219  0.17800292  0.59849036  1
  Si  Si9  1  0.20116803  0.18737247  0.37700025  1
  Si  Si10  1  0.84455139  0.82782614  0.39606130  1
  Si  Si11  1  0.79838310  0.41676844  0.67136223  1
  Si  Si12  1  0.54908431  0.18704114  0.66489056  1
  Si  Si13  1  0.82199708  0.84906781  0.09849036  1
  Si  Si14  1  0.81295886  0.45091569  0.16489056  1
  Si  Si15  1  0.58323156  0.20161690  0.17136223  1
  Bi  Bi16  1  0.22734335  0.73321612  0.58402182  1
  Bi  Bi17  1  0.74065149  0.35555547  0.93380935  1
  Bi  Bi18  1  0.26678388  0.77265665  0.08402182  1
  Bi  Bi19  1  0.64444453  0.25934851  0.43380935  1
  O  O20  1  0.03628356  0.70757165  0.87038805  1
  O  O21  1  0.33571208  0.93603917  0.91387165  1
  O  O22  1  0.24123532  0.94360683  0.67189462  1
  O  O23  1  0.13260318  0.62488500  0.70879274  1
  O  O24  1  0.41710148  0.55874507  0.88965198  1
  O  O25  1  0.25254136  0.32122418  0.89052674  1
  O  O26  1  0.71430702  0.65076551  0.87239122  1
  O  O27  1  0.06396083  0.66428692  0.41387165  1
  O  O28  1  0.29242835  0.96371644  0.37038805  1
  O  O29  1  0.37511500  0.86739682  0.20879274  1
  O  O30  1  0.05639317  0.75876468  0.17189462  1
  O  O31  1  0.70353712  0.65171798  0.63677427  1
  O  O32  1  0.30362858  0.27221178  0.63285744  1
  O  O33  1  0.44125493  0.58289852  0.38965198  1
  O  O34  1  0.13118959  0.16946050  0.47998777  1
  O  O35  1  0.88884139  0.89847947  0.49992263  1
  O  O36  1  0.59537268  0.37648572  0.66764896  1
  O  O37  1  0.34923449  0.28569298  0.37239122  1
  O  O38  1  0.67877582  0.74745864  0.39052674  1
  O  O39  1  0.65900722  0.01314833  0.78046206  1
  O  O40  1  0.95178667  0.27172435  0.79524223  1
  O  O41  1  0.92160965  0.31595121  0.59658537  1
  O  O42  1  0.63858992  0.10341613  0.58251051  1
  O  O43  1  0.34828202  0.29646288  0.13677427  1
  O  O44  1  0.72778822  0.69637142  0.13285744  1
  O  O45  1  0.10152053  0.11115861  0.99992263  1
  O  O46  1  0.83053950  0.86881041  0.97998777  1
  O  O47  1  0.62351428  0.40462732  0.16764896  1
  O  O48  1  0.72827565  0.04821333  0.29524223  1
  O  O49  1  0.98685167  0.34099278  0.28046206  1
  O  O50  1  0.89658387  0.36141008  0.08251051  1
  O  O51  1  0.68404879  0.07839035  0.09658537  1
