# generated using pymatgen
data_Li8BiS6
_symmetry_space_group_name_H-M   'P 1'
_cell_length_a   7.11462226
_cell_length_b   7.11463941
_cell_length_c   13.47914273
_cell_angle_alpha   90.00082484
_cell_angle_beta   90.00103983
_cell_angle_gamma   120.00075778
_symmetry_Int_Tables_number   1
_chemical_formula_structural   Li8BiS6
_chemical_formula_sum   'Li16 Bi2 S12'
_cell_volume   590.87324801
_cell_formula_units_Z   2
loop_
 _symmetry_equiv_pos_site_id
 _symmetry_equiv_pos_as_xyz
  1  'x, y, z'
loop_
 _atom_site_type_symbol
 _atom_site_label
 _atom_site_symmetry_multiplicity
 _atom_site_fract_x
 _atom_site_fract_y
 _atom_site_fract_z
 _atom_site_occupancy
  Li  Li0  1  0.99999823  0.67407232  0.76550007  1
  Li  Li1  1  0.99998737  0.61119377  0.13280505  1
  Li  Li2  1  0.00000299  0.38882899  0.63281057  1
  Li  Li3  1  0.99999239  0.32595235  0.26549201  1
  Li  Li4  1  0.33332107  0.66668173  0.39609059  1
  Li  Li5  1  0.33332210  0.66665791  0.89609237  1
  Li  Li6  1  0.32592947  0.32593803  0.76549403  1
  Li  Li7  1  0.38878099  0.38878082  0.13279953  1
  Li  Li8  1  0.61117688  0.61118735  0.63281165  1
  Li  Li9  1  0.32595112  0.99999946  0.26549274  1
  Li  Li10  1  0.67403640  0.67404418  0.26549179  1
  Li  Li11  1  0.38882075  0.00001256  0.63281148  1
  Li  Li12  1  0.66665559  0.33333048  0.89609130  1
  Li  Li13  1  0.66666613  0.33334885  0.39609219  1
  Li  Li14  1  0.61119175  0.99998818  0.13280324  1
  Li  Li15  1  0.67406421  0.00000766  0.76549976  1
  Bi  Bi16  1  0.99998433  0.99999708  0.99220475  1
  Bi  Bi17  1  0.99998707  0.99999987  0.49232567  1
  S  S18  1  0.99999223  0.64643669  0.95027594  1
  S  S19  1  0.00002557  0.35355180  0.45024879  1
  S  S20  1  0.33332528  0.66665074  0.21363253  1
  S  S21  1  0.99998746  0.99999484  0.18818416  1
  S  S22  1  0.99999301  0.00000380  0.68826679  1
  S  S23  1  0.33333755  0.66668911  0.71363502  1
  S  S24  1  0.35354368  0.35353078  0.95025614  1
  S  S25  1  0.35352263  0.99999244  0.45025772  1
  S  S26  1  0.64645145  0.64645724  0.45025318  1
  S  S27  1  0.66667947  0.33335108  0.71363384  1
  S  S28  1  0.66664805  0.33331345  0.21363315  1
  S  S29  1  0.64642078  0.00000445  0.95027296  1
