# generated using pymatgen
data_LiMn2(PO4)2
_symmetry_space_group_name_H-M   'P 1'
_cell_length_a   8.62656629
_cell_length_b   5.40213056
_cell_length_c   8.00503805
_cell_angle_alpha   90.00000000
_cell_angle_beta   103.78452628
_cell_angle_gamma   90.00000000
_symmetry_Int_Tables_number   1
_chemical_formula_structural   LiMn2(PO4)2
_chemical_formula_sum   'Li2 Mn4 P4 O16'
_cell_volume   362.30515801
_cell_formula_units_Z   2
loop_
 _symmetry_equiv_pos_site_id
 _symmetry_equiv_pos_as_xyz
  1  'x, y, z'
loop_
 _atom_site_type_symbol
 _atom_site_label
 _atom_site_symmetry_multiplicity
 _atom_site_fract_x
 _atom_site_fract_y
 _atom_site_fract_z
 _atom_site_occupancy
  Li  Li0  1  0.38315044  0.82543491  0.36126487  1
  Li  Li1  1  0.88315044  0.17456509  0.36126487  1
  Mn  Mn2  1  0.05460897  0.82495115  0.95205856  1
  Mn  Mn3  1  0.26411705  0.33663366  0.49340358  1
  Mn  Mn4  1  0.55460897  0.17504885  0.95205856  1
  Mn  Mn5  1  0.76411705  0.66336634  0.49340358  1
  P  P6  1  0.01183192  0.67618000  0.25202994  1
  P  P7  1  0.33515879  0.83998777  0.74390808  1
  P  P8  1  0.51183192  0.32382000  0.25202994  1
  P  P9  1  0.83515879  0.16001223  0.74390808  1
  O  O10  1  0.99479744  0.16995955  0.88377425  1
  O  O11  1  0.04492164  0.40742813  0.31804573  1
  O  O12  1  0.19714681  0.73441594  0.81749445  1
  O  O13  1  0.16758226  0.79132635  0.21531937  1
  O  O14  1  0.30726947  0.11768312  0.70080339  1
  O  O15  1  0.34283889  0.68588574  0.58318141  1
  O  O16  1  0.49479744  0.83004045  0.88377425  1
  O  O17  1  0.44005043  0.17592486  0.38023032  1
  O  O18  1  0.39815590  0.30299437  0.06731404  1
  O  O19  1  0.54492164  0.59257187  0.31804573  1
  O  O20  1  0.69714681  0.26558406  0.81749445  1
  O  O21  1  0.66758226  0.20867365  0.21531937  1
  O  O22  1  0.80726947  0.88231688  0.70080339  1
  O  O23  1  0.84283889  0.31411426  0.58318141  1
  O  O24  1  0.94005043  0.82407514  0.38023032  1
  O  O25  1  0.89815590  0.69700563  0.06731404  1
