# generated using pymatgen
data_LiFe2(PO4)2
_symmetry_space_group_name_H-M   'P 1'
_cell_length_a   10.73502120
_cell_length_b   6.70026214
_cell_length_c   5.17904813
_cell_angle_alpha   90.00000000
_cell_angle_beta   88.28475175
_cell_angle_gamma   90.00000000
_symmetry_Int_Tables_number   1
_chemical_formula_structural   LiFe2(PO4)2
_chemical_formula_sum   'Li2 Fe4 P4 O16'
_cell_volume   372.34884410
_cell_formula_units_Z   2
loop_
 _symmetry_equiv_pos_site_id
 _symmetry_equiv_pos_as_xyz
  1  'x, y, z'
loop_
 _atom_site_type_symbol
 _atom_site_label
 _atom_site_symmetry_multiplicity
 _atom_site_fract_x
 _atom_site_fract_y
 _atom_site_fract_z
 _atom_site_occupancy
  Li  Li0  1  0.32982620  0.00930221  0.75076892  1
  Li  Li1  1  0.82982620  0.49069779  0.75076892  1
  Fe  Fe2  1  0.08008387  0.78164816  0.75313389  1
  Fe  Fe3  1  0.41005275  0.30205238  0.24694111  1
  Fe  Fe4  1  0.58008387  0.71835184  0.75313389  1
  Fe  Fe5  1  0.91005275  0.19794762  0.24694111  1
  P  P6  1  0.17453604  0.02646127  0.25124558  1
  P  P7  1  0.32262372  0.52788512  0.74762261  1
  P  P8  1  0.67453604  0.47353873  0.25124558  1
  P  P9  1  0.82262372  0.97211488  0.74762261  1
  O  O10  1  0.08505700  0.20631990  0.19773810  1
  O  O11  1  0.13036727  0.84042207  0.11132326  1
  O  O12  1  0.18314305  0.99493723  0.54440997  1
  O  O13  1  0.18661823  0.53928399  0.67748604  1
  O  O14  1  0.30933639  0.08111340  0.13612534  1
  O  O15  1  0.34108573  0.49906443  0.04280363  1
  O  O16  1  0.38444551  0.33800774  0.61117946  1
  O  O17  1  0.39778325  0.72062250  0.67083609  1
  O  O18  1  0.58505700  0.29368010  0.19773810  1
  O  O19  1  0.63036727  0.65957793  0.11132326  1
  O  O20  1  0.68314305  0.50506277  0.54440997  1
  O  O21  1  0.68661823  0.96071601  0.67748604  1
  O  O22  1  0.80933639  0.41888660  0.13612534  1
  O  O23  1  0.84108573  0.00093557  0.04280363  1
  O  O24  1  0.88444551  0.16199226  0.61117946  1
  O  O25  1  0.89778325  0.77937750  0.67083609  1
