# generated using pymatgen
data_Mn2O2F3
_symmetry_space_group_name_H-M   'P 1'
_cell_length_a   5.04870447
_cell_length_b   5.55941880
_cell_length_c   7.51264631
_cell_angle_alpha   99.50684574
_cell_angle_beta   70.44711073
_cell_angle_gamma   62.89812679
_symmetry_Int_Tables_number   1
_chemical_formula_structural   Mn2O2F3
_chemical_formula_sum   'Mn4 O4 F6'
_cell_volume   163.71496154
_cell_formula_units_Z   2
loop_
 _symmetry_equiv_pos_site_id
 _symmetry_equiv_pos_as_xyz
  1  'x, y, z'
loop_
 _atom_site_type_symbol
 _atom_site_label
 _atom_site_symmetry_multiplicity
 _atom_site_fract_x
 _atom_site_fract_y
 _atom_site_fract_z
 _atom_site_occupancy
  Mn  Mn0  1  0.32198787  0.98881330  0.88505640  1
  Mn  Mn1  1  0.80404509  0.49192640  0.38449304  1
  Mn  Mn2  1  0.19347172  0.51346714  0.61878734  1
  Mn  Mn3  1  0.67476035  0.01540467  0.11932511  1
  O  O4  1  0.75926342  0.77307846  0.86486485  1
  O  O5  1  0.39494116  0.72865283  0.64067642  1
  O  O6  1  0.60483045  0.27456950  0.36367696  1
  O  O7  1  0.23741629  0.23178456  0.13855760  1
  F  F8  1  0.97028841  0.71996920  0.46362172  1
  F  F9  1  0.84696998  0.21694796  0.96331233  1
  F  F10  1  0.62482584  0.75487051  0.25311385  1
  F  F11  1  0.36931029  0.24732380  0.75252165  1
  F  F12  1  0.15227595  0.78683402  0.04057281  1
  F  F13  1  0.02782916  0.28459665  0.53637394  1
