# generated using pymatgen
data_Li2MnO2F
_symmetry_space_group_name_H-M   'P 1'
_cell_length_a   5.19465379
_cell_length_b   5.12180587
_cell_length_c   9.84387671
_cell_angle_alpha   86.43847891
_cell_angle_beta   95.91383145
_cell_angle_gamma   60.59262620
_symmetry_Int_Tables_number   1
_chemical_formula_structural   Li2MnO2F
_chemical_formula_sum   'Li8 Mn4 O8 F4'
_cell_volume   225.01747302
_cell_formula_units_Z   4
loop_
 _symmetry_equiv_pos_site_id
 _symmetry_equiv_pos_as_xyz
  1  'x, y, z'
loop_
 _atom_site_type_symbol
 _atom_site_label
 _atom_site_symmetry_multiplicity
 _atom_site_fract_x
 _atom_site_fract_y
 _atom_site_fract_z
 _atom_site_occupancy
  Li  Li0  1  0.33034745  0.86330963  0.00283123  1
  Li  Li1  1  0.15175045  0.68087760  0.50336090  1
  Li  Li2  1  0.00451893  0.50584389  0.00381168  1
  Li  Li3  1  0.23561466  0.23953047  0.74818654  1
  Li  Li4  1  0.72895517  0.78082812  0.24681190  1
  Li  Li5  1  0.50996647  0.96379221  0.50126717  1
  Li  Li6  1  0.81346799  0.36088698  0.49313072  1
  Li  Li7  1  0.68357183  0.14298513  0.99253781  1
  Mn  Mn8  1  0.59537049  0.58575182  0.75179235  1
  Mn  Mn9  1  0.92227782  0.90661493  0.74907254  1
  Mn  Mn10  1  0.08924121  0.06883362  0.25102247  1
  Mn  Mn11  1  0.41832079  0.42284116  0.25012902  1
  O  O12  1  0.22726108  0.91340783  0.64762533  1
  O  O13  1  0.07122851  0.77865304  0.13656337  1
  O  O14  1  0.65349221  0.86301719  0.86481118  1
  O  O15  1  0.45492661  0.69184770  0.36979822  1
  O  O16  1  0.87470091  0.64194281  0.62902512  1
  O  O17  1  0.34594755  0.14595163  0.14205016  1
  O  O18  1  0.92799564  0.21523892  0.85760185  1
  O  O19  1  0.78756542  0.07617989  0.35405196  1
  F  F20  1  0.30933449  0.51599156  0.88633939  1
  F  F21  1  0.12412613  0.35498248  0.38491459  1
  F  F22  1  0.53097122  0.30388442  0.61914188  1
  F  F23  1  0.70904697  0.47680897  0.11412361  1
