# generated using pymatgen
data_Li2MnO2F
_symmetry_space_group_name_H-M   'P 1'
_cell_length_a   5.10070932
_cell_length_b   5.20386469
_cell_length_c   9.89845246
_cell_angle_alpha   84.37755153
_cell_angle_beta   101.85357967
_cell_angle_gamma   119.16814452
_symmetry_Int_Tables_number   1
_chemical_formula_structural   Li2MnO2F
_chemical_formula_sum   'Li8 Mn4 O8 F4'
_cell_volume   224.52859858
_cell_formula_units_Z   4
loop_
 _symmetry_equiv_pos_site_id
 _symmetry_equiv_pos_as_xyz
  1  'x, y, z'
loop_
 _atom_site_type_symbol
 _atom_site_label
 _atom_site_symmetry_multiplicity
 _atom_site_fract_x
 _atom_site_fract_y
 _atom_site_fract_z
 _atom_site_occupancy
  Li  Li0  1  0.13821534  0.82073470  0.49508535  1
  Li  Li1  1  0.00000000  0.50000000  0.00000000  1
  Li  Li2  1  0.30188713  0.13247449  0.00296257  1
  Li  Li3  1  0.05931302  0.14883303  0.25260553  1
  Li  Li4  1  0.50000000  0.50000000  0.50000000  1
  Li  Li5  1  0.94068698  0.85116697  0.74739447  1
  Li  Li6  1  0.69811287  0.86752551  0.99703743  1
  Li  Li7  1  0.86178466  0.17926530  0.50491465  1
  Mn  Mn8  1  0.23568888  0.49432561  0.75231699  1
  Mn  Mn9  1  0.41201356  0.83554064  0.25031917  1
  Mn  Mn10  1  0.58798644  0.16445936  0.74968083  1
  Mn  Mn11  1  0.76431112  0.50567439  0.24768301  1
  O  O12  1  0.06146705  0.82818052  0.12716111  1
  O  O13  1  0.31346586  0.83321220  0.85366259  1
  O  O14  1  0.13045851  0.52523017  0.36243132  1
  O  O15  1  0.23647641  0.20049459  0.64153969  1
  O  O16  1  0.76352359  0.79950541  0.35846031  1
  O  O17  1  0.86954149  0.47476983  0.63756868  1
  O  O18  1  0.68653414  0.16678780  0.14633741  1
  O  O19  1  0.93853295  0.17181948  0.87283889  1
  F  F20  1  0.55523172  0.83340845  0.61215453  1
  F  F21  1  0.61941162  0.51253820  0.88068958  1
  F  F22  1  0.38058838  0.48746180  0.11931042  1
  F  F23  1  0.44476828  0.16659155  0.38784547  1
