# generated using pymatgen
data_Li4Mn2Fe3Ni3O16
_symmetry_space_group_name_H-M   'P 1'
_cell_length_a   5.83231069
_cell_length_b   5.76112453
_cell_length_c   9.37816809
_cell_angle_alpha   89.95188222
_cell_angle_beta   91.51257218
_cell_angle_gamma   119.63556390
_symmetry_Int_Tables_number   1
_chemical_formula_structural   Li4Mn2Fe3Ni3O16
_chemical_formula_sum   'Li4 Mn2 Fe3 Ni3 O16'
_cell_volume   273.76976063
_cell_formula_units_Z   1
loop_
 _symmetry_equiv_pos_site_id
 _symmetry_equiv_pos_as_xyz
  1  'x, y, z'
loop_
 _atom_site_type_symbol
 _atom_site_label
 _atom_site_symmetry_multiplicity
 _atom_site_fract_x
 _atom_site_fract_y
 _atom_site_fract_z
 _atom_site_occupancy
  Li  Li0  1  0.32488094  0.66230413  0.89528348  1
  Li  Li1  1  0.99408426  0.99706665  0.99198371  1
  Li  Li2  1  0.99590039  0.99787774  0.49476421  1
  Li  Li3  1  0.66806490  0.33427634  0.40056671  1
  Mn  Mn4  1  0.34465486  0.67258557  0.48697348  1
  Mn  Mn5  1  0.66492252  0.33222194  0.98422510  1
  Fe  Fe6  1  0.17025898  0.83079913  0.21321225  1
  Fe  Fe7  1  0.17050995  0.33942827  0.21322362  1
  Fe  Fe8  1  0.33905954  0.16956358  0.71367554  1
  Ni  Ni9  1  0.65906766  0.82969975  0.21117294  1
  Ni  Ni10  1  0.82717908  0.65991987  0.71255978  1
  Ni  Ni11  1  0.82711356  0.16724135  0.71256338  1
  O  O12  1  0.18434237  0.84526954  0.59617561  1
  O  O13  1  0.04110587  0.52042252  0.34776165  1
  O  O14  1  0.34399962  0.67216926  0.10571208  1
  O  O15  1  0.98659943  0.99312058  0.30403330  1
  O  O16  1  0.98808486  0.99395861  0.80331524  1
  O  O17  1  0.18449326  0.33908882  0.59598696  1
  O  O18  1  0.48013918  0.96122202  0.34861919  1
  O  O19  1  0.48136061  0.52077736  0.34840415  1
  O  O20  1  0.33957979  0.16985247  0.10000371  1
  O  O21  1  0.67729952  0.83890736  0.59496002  1
  O  O22  1  0.50421864  0.46933552  0.84658742  1
  O  O23  1  0.50390745  0.03475688  0.84662135  1
  O  O24  1  0.67737382  0.33883984  0.61089803  1
  O  O25  1  0.83568864  0.66420450  0.09245434  1
  O  O26  1  0.95125809  0.47538152  0.84340720  1
  O  O27  1  0.83485222  0.17001087  0.09269456  1
