# generated using pymatgen
data_Li2Mn2OF6
_symmetry_space_group_name_H-M   'P 1'
_cell_length_a   5.28011319
_cell_length_b   5.28011319
_cell_length_c   10.94530171
_cell_angle_alpha   78.68117794
_cell_angle_beta   101.31882206
_cell_angle_gamma   78.96795722
_symmetry_Int_Tables_number   1
_chemical_formula_structural   Li2Mn2OF6
_chemical_formula_sum   'Li4 Mn4 O2 F12'
_cell_volume   284.88662501
_cell_formula_units_Z   2
loop_
 _symmetry_equiv_pos_site_id
 _symmetry_equiv_pos_as_xyz
  1  'x, y, z'
loop_
 _atom_site_type_symbol
 _atom_site_label
 _atom_site_symmetry_multiplicity
 _atom_site_fract_x
 _atom_site_fract_y
 _atom_site_fract_z
 _atom_site_occupancy
  Li  Li0  1  0.50234998  0.94923862  0.71031899  1
  Li  Li1  1  0.05076138  0.49765002  0.21031899  1
  Li  Li2  1  0.04869130  0.44855390  0.78770342  1
  Li  Li3  1  0.55144610  0.95130870  0.28770342  1
  Mn  Mn4  1  0.14143539  0.65075021  0.49693152  1
  Mn  Mn5  1  0.62708348  0.36674633  0.93792892  1
  Mn  Mn6  1  0.34924979  0.85856461  0.99693152  1
  Mn  Mn7  1  0.63325367  0.37291652  0.43792892  1
  O  O8  1  0.29907074  0.59536063  0.91080078  1
  O  O9  1  0.40463937  0.70092926  0.41080078  1
  F  F10  1  0.26278426  0.77221514  0.63925635  1
  F  F11  1  0.92811441  0.46594361  0.59268595  1
  F  F12  1  0.73405834  0.63392844  0.81386257  1
  F  F13  1  0.22778486  0.73721574  0.13925635  1
  F  F14  1  0.53405639  0.07188559  0.09268595  1
  F  F15  1  0.41669328  0.11020813  0.84967069  1
  F  F16  1  0.47428133  0.25336124  0.58340006  1
  F  F17  1  0.95579885  0.14405612  0.92744175  1
  F  F18  1  0.36607156  0.26594166  0.31386257  1
  F  F19  1  0.88979187  0.58330672  0.34967069  1
  F  F20  1  0.74663876  0.52571867  0.08340006  1
  F  F21  1  0.85594388  0.04420115  0.42744175  1
