# generated using pymatgen
data_Li2MnO2F
_symmetry_space_group_name_H-M   'P 1'
_cell_length_a   5.17934116
_cell_length_b   5.20670239
_cell_length_c   9.78543704
_cell_angle_alpha   85.32313101
_cell_angle_beta   99.43529116
_cell_angle_gamma   119.82631119
_symmetry_Int_Tables_number   1
_chemical_formula_structural   Li2MnO2F
_chemical_formula_sum   'Li8 Mn4 O8 F4'
_cell_volume   225.83438404
_cell_formula_units_Z   4
loop_
 _symmetry_equiv_pos_site_id
 _symmetry_equiv_pos_as_xyz
  1  'x, y, z'
loop_
 _atom_site_type_symbol
 _atom_site_label
 _atom_site_symmetry_multiplicity
 _atom_site_fract_x
 _atom_site_fract_y
 _atom_site_fract_z
 _atom_site_occupancy
  Li  Li0  1  0.16370784  0.82321087  0.49543753  1
  Li  Li1  1  0.99929459  0.49323869  0.99993791  1
  Li  Li2  1  0.09095200  0.18190401  0.25000000  1
  Li  Li3  1  0.65950303  0.82321087  0.00456247  1
  Li  Li4  1  0.49394510  0.49323869  0.50006209  1
  Li  Li5  1  0.32947360  0.18659170  0.00549629  1
  Li  Li6  1  0.74876074  0.49752247  0.25000000  1
  Li  Li7  1  0.85711710  0.18659170  0.49450371  1
  Mn  Mn8  1  0.25112879  0.50225659  0.75000000  1
  Mn  Mn9  1  0.39546828  0.79093756  0.25000000  1
  Mn  Mn10  1  0.58749679  0.17499258  0.75000000  1
  Mn  Mn11  1  0.92280157  0.84560214  0.75000000  1
  O  O12  1  0.28389314  0.86867661  0.86011738  1
  O  O13  1  0.14517138  0.51401293  0.36897192  1
  O  O14  1  0.23959114  0.15889789  0.63013734  1
  O  O15  1  0.58478347  0.86867661  0.63988262  1
  O  O16  1  0.36884055  0.51401293  0.13102808  1
  O  O17  1  0.63055030  0.48186657  0.86761585  1
  O  O18  1  0.85131627  0.48186657  0.63238415  1
  O  O19  1  0.91930675  0.15889789  0.86986266  1
  F  F20  1  0.02788169  0.83857448  0.12217832  1
  F  F21  1  0.46134205  0.13832310  0.36557363  1
  F  F22  1  0.81069278  0.83857448  0.37782168  1
  F  F23  1  0.67698105  0.13832310  0.13442637  1
