# generated using pymatgen
data_SrLa3MnO8
_symmetry_space_group_name_H-M   'P 1'
_cell_length_a   5.34525858
_cell_length_b   6.93433836
_cell_length_c   10.88673176
_cell_angle_alpha   90.00000000
_cell_angle_beta   90.00000000
_cell_angle_gamma   112.66978635
_symmetry_Int_Tables_number   1
_chemical_formula_structural   SrLa3MnO8
_chemical_formula_sum   'Sr2 La6 Mn2 O16'
_cell_volume   372.34995453
_cell_formula_units_Z   2
loop_
 _symmetry_equiv_pos_site_id
 _symmetry_equiv_pos_as_xyz
  1  'x, y, z'
loop_
 _atom_site_type_symbol
 _atom_site_label
 _atom_site_symmetry_multiplicity
 _atom_site_fract_x
 _atom_site_fract_y
 _atom_site_fract_z
 _atom_site_occupancy
  Sr  Sr0  1  0.63811392  0.27622684  0.00000000  1
  Sr  Sr1  1  0.36188608  0.72377316  0.50000000  1
  La  La2  1  0.86605857  0.73211713  0.25183784  1
  La  La3  1  0.36539455  0.73078910  0.00000000  1
  La  La4  1  0.13394143  0.26788287  0.24816216  1
  La  La5  1  0.63460545  0.26921090  0.50000000  1
  La  La6  1  0.86605857  0.73211713  0.74816216  1
  La  La7  1  0.13394143  0.26788287  0.75183784  1
  Mn  Mn8  1  0.00064608  0.00129216  0.00000000  1
  Mn  Mn9  1  0.99935392  0.99870784  0.50000000  1
  O  O10  1  0.75262517  0.99561989  0.12230389  1
  O  O11  1  0.84119054  0.68238108  0.00000000  1
  O  O12  1  0.69036152  0.38072305  0.26861959  1
  O  O13  1  0.15874557  0.31749014  0.00000000  1
  O  O14  1  0.24299472  0.99561989  0.12230389  1
  O  O15  1  0.75700528  0.00438011  0.37769611  1
  O  O16  1  0.24737483  0.00438011  0.37769611  1
  O  O17  1  0.30963848  0.61927695  0.23138041  1
  O  O18  1  0.84125443  0.68250986  0.50000000  1
  O  O19  1  0.75700528  0.00438011  0.62230389  1
  O  O20  1  0.69036152  0.38072305  0.73138041  1
  O  O21  1  0.15880946  0.31761892  0.50000000  1
  O  O22  1  0.24737483  0.00438011  0.62230389  1
  O  O23  1  0.75262517  0.99561989  0.87769611  1
  O  O24  1  0.30963848  0.61927695  0.76861959  1
  O  O25  1  0.24299472  0.99561989  0.87769611  1
