# generated using pymatgen
data_VSn(PO4)2
_symmetry_space_group_name_H-M   'P 1'
_cell_length_a   10.19616068
_cell_length_b   6.03936990
_cell_length_c   5.00453711
_cell_angle_alpha   90.00000000
_cell_angle_beta   90.64811786
_cell_angle_gamma   90.00000000
_symmetry_Int_Tables_number   1
_chemical_formula_structural   VSn(PO4)2
_chemical_formula_sum   'V2 Sn2 P4 O16'
_cell_volume   308.15160156
_cell_formula_units_Z   2
loop_
 _symmetry_equiv_pos_site_id
 _symmetry_equiv_pos_as_xyz
  1  'x, y, z'
loop_
 _atom_site_type_symbol
 _atom_site_label
 _atom_site_symmetry_multiplicity
 _atom_site_fract_x
 _atom_site_fract_y
 _atom_site_fract_z
 _atom_site_occupancy
  V  V0  1  0.22528037  0.75000000  0.45349353  1
  V  V1  1  0.77471963  0.25000000  0.54650647  1
  Sn  Sn2  1  0.27595931  0.25000000  0.96240191  1
  Sn  Sn3  1  0.72404069  0.75000000  0.03759809  1
  P  P4  1  0.09460245  0.25000000  0.39617510  1
  P  P5  1  0.40431715  0.75000000  0.90544231  1
  P  P6  1  0.59568285  0.25000000  0.09455769  1
  P  P7  1  0.90539755  0.75000000  0.60382490  1
  O  O8  1  0.04946915  0.75000000  0.66525496  1
  O  O9  1  0.11916919  0.25000000  0.70240960  1
  O  O10  1  0.17097215  0.05321360  0.25340970  1
  O  O11  1  0.17097215  0.44678640  0.25340970  1
  O  O12  1  0.33268657  0.95330514  0.76182619  1
  O  O13  1  0.33268657  0.54669486  0.76182619  1
  O  O14  1  0.38719138  0.75000000  0.20212111  1
  O  O15  1  0.44948593  0.25000000  0.17642130  1
  O  O16  1  0.55051407  0.75000000  0.82357870  1
  O  O17  1  0.61280862  0.25000000  0.79787889  1
  O  O18  1  0.66731343  0.04669486  0.23817381  1
  O  O19  1  0.66731343  0.45330514  0.23817381  1
  O  O20  1  0.82902785  0.55321360  0.74659030  1
  O  O21  1  0.82902785  0.94678640  0.74659030  1
  O  O22  1  0.88083081  0.75000000  0.29759040  1
  O  O23  1  0.95053085  0.25000000  0.33474504  1
