# generated using pymatgen
data_Li3CrPCO7
_symmetry_space_group_name_H-M   'P 1'
_cell_length_a   8.57276693
_cell_length_b   4.97935413
_cell_length_c   6.49733695
_cell_angle_alpha   90.00000000
_cell_angle_beta   90.00000000
_cell_angle_gamma   84.94833636
_symmetry_Int_Tables_number   1
_chemical_formula_structural   Li3CrPCO7
_chemical_formula_sum   'Li6 Cr2 P2 C2 O14'
_cell_volume   276.27348627
_cell_formula_units_Z   2
loop_
 _symmetry_equiv_pos_site_id
 _symmetry_equiv_pos_as_xyz
  1  'x, y, z'
loop_
 _atom_site_type_symbol
 _atom_site_label
 _atom_site_symmetry_multiplicity
 _atom_site_fract_x
 _atom_site_fract_y
 _atom_site_fract_z
 _atom_site_occupancy
  Li  Li0  1  0.11093008  0.77158123  0.25927522  1
  Li  Li1  1  0.29651171  0.23452931  0.47939147  1
  Li  Li2  1  0.35710836  0.77483554  0.74303606  1
  Li  Li3  1  0.64289164  0.22516446  0.24303606  1
  Li  Li4  1  0.70348829  0.76547069  0.97939147  1
  Li  Li5  1  0.88906992  0.22841877  0.75927522  1
  Cr  Cr6  1  0.25782131  0.24437206  0.98736877  1
  Cr  Cr7  1  0.74217869  0.75562794  0.48736877  1
  P  P8  1  0.41101538  0.72371867  0.25693808  1
  P  P9  1  0.58898462  0.27628133  0.75693808  1
  C  C10  1  0.03885246  0.70732520  0.75393530  1
  C  C11  1  0.96114754  0.29267480  0.25393530  1
  O  O12  1  0.06179465  0.95715201  0.75582365  1
  O  O13  1  0.10455239  0.36877984  0.22916672  1
  O  O14  1  0.15290456  0.52043539  0.77193814  1
  O  O15  1  0.31748431  0.83532581  0.06399274  1
  O  O16  1  0.31065663  0.83098726  0.44215858  1
  O  O17  1  0.42103281  0.17764830  0.75326419  1
  O  O18  1  0.42541409  0.41088176  0.25371007  1
  O  O19  1  0.57458591  0.58911824  0.75371007  1
  O  O20  1  0.57896719  0.82235170  0.25326419  1
  O  O21  1  0.68934337  0.16901274  0.94215858  1
  O  O22  1  0.68251569  0.16467419  0.56399274  1
  O  O23  1  0.84709544  0.47956461  0.27193814  1
  O  O24  1  0.89544761  0.63122016  0.72916672  1
  O  O25  1  0.93820535  0.04284799  0.25582365  1
