# generated using pymatgen
data_LiCo3Sb(PO4)6
_symmetry_space_group_name_H-M   'P 1'
_cell_length_a   8.75727554
_cell_length_b   8.75727594
_cell_length_c   8.75727534
_cell_angle_alpha   58.53826622
_cell_angle_beta   58.53827030
_cell_angle_gamma   58.53827508
_symmetry_Int_Tables_number   1
_chemical_formula_structural   LiCo3Sb(PO4)6
_chemical_formula_sum   'Li1 Co3 Sb1 P6 O24'
_cell_volume   459.01286968
_cell_formula_units_Z   1
loop_
 _symmetry_equiv_pos_site_id
 _symmetry_equiv_pos_as_xyz
  1  'x, y, z'
loop_
 _atom_site_type_symbol
 _atom_site_label
 _atom_site_symmetry_multiplicity
 _atom_site_fract_x
 _atom_site_fract_y
 _atom_site_fract_z
 _atom_site_occupancy
  Li  Li0  1  0.01011586  0.01011586  0.01011586  1
  Co  Co1  1  0.14780372  0.14780372  0.14780372  1
  Co  Co2  1  0.35627028  0.35627028  0.35627028  1
  Co  Co3  1  0.64401240  0.64401240  0.64401240  1
  Sb  Sb4  1  0.85625159  0.85625159  0.85625159  1
  P  P5  1  0.03216737  0.74928123  0.45901827  1
  P  P6  1  0.45901827  0.03216737  0.74928123  1
  P  P7  1  0.74928123  0.45901827  0.03216737  1
  P  P8  1  0.25627037  0.53853967  0.95949549  1
  P  P9  1  0.53853967  0.95949549  0.25627037  1
  P  P10  1  0.95949549  0.25627037  0.53853967  1
  O  O11  1  0.13623692  0.27876700  0.50953255  1
  O  O12  1  0.27876700  0.50953255  0.13623692  1
  O  O13  1  0.05742307  0.91959431  0.27190099  1
  O  O14  1  0.50953255  0.13623692  0.27876700  1
  O  O15  1  0.21464749  0.57523200  0.43755674  1
  O  O16  1  0.01645889  0.78096163  0.62794264  1
  O  O17  1  0.27190099  0.05742307  0.91959431  1
  O  O18  1  0.43755674  0.21464749  0.57523200  1
  O  O19  1  0.57523200  0.43755674  0.21464749  1
  O  O20  1  0.21052183  0.37735063  0.98740850  1
  O  O21  1  0.07951551  0.73112179  0.94012871  1
  O  O22  1  0.37735063  0.98740850  0.21052183  1
  O  O23  1  0.62794264  0.01645889  0.78096163  1
  O  O24  1  0.91959431  0.27190099  0.05742307  1
  O  O25  1  0.78096163  0.62794264  0.01645889  1
  O  O26  1  0.42846722  0.56230998  0.77644581  1
  O  O27  1  0.56230998  0.77644581  0.42846722  1
  O  O28  1  0.73112179  0.94012871  0.07951551  1
  O  O29  1  0.98740850  0.21052183  0.37735063  1
  O  O30  1  0.77644581  0.42846722  0.56230998  1
  O  O31  1  0.49101608  0.85606542  0.72416702  1
  O  O32  1  0.94012871  0.07951551  0.73112179  1
  O  O33  1  0.72416702  0.49101608  0.85606542  1
  O  O34  1  0.85606542  0.72416702  0.49101608  1
