# generated using pymatgen
data_Li2Si3NiO8
_symmetry_space_group_name_H-M   'P 1'
_cell_length_a   6.64822391
_cell_length_b   6.32859038
_cell_length_c   8.44887589
_cell_angle_alpha   90.00000000
_cell_angle_beta   90.00000000
_cell_angle_gamma   105.53966959
_symmetry_Int_Tables_number   1
_chemical_formula_structural   Li2Si3NiO8
_chemical_formula_sum   'Li4 Si6 Ni2 O16'
_cell_volume   342.48264648
_cell_formula_units_Z   2
loop_
 _symmetry_equiv_pos_site_id
 _symmetry_equiv_pos_as_xyz
  1  'x, y, z'
loop_
 _atom_site_type_symbol
 _atom_site_label
 _atom_site_symmetry_multiplicity
 _atom_site_fract_x
 _atom_site_fract_y
 _atom_site_fract_z
 _atom_site_occupancy
  Li  Li0  1  0.25433616  0.85584644  0.30092000  1
  Li  Li1  1  0.52636069  0.56167839  0.81340412  1
  Li  Li2  1  0.47363931  0.43832161  0.31340412  1
  Li  Li3  1  0.74566384  0.14415356  0.80092000  1
  Si  Si4  1  0.02874001  0.41473168  0.51909058  1
  Si  Si5  1  0.08867087  0.23323696  0.18872179  1
  Si  Si6  1  0.29668903  0.16625324  0.66446797  1
  Si  Si7  1  0.70331097  0.83374676  0.16446797  1
  Si  Si8  1  0.91132913  0.76676304  0.68872179  1
  Si  Si9  1  0.97125999  0.58526832  0.01909058  1
  Ni  Ni10  1  0.37889768  0.02625576  0.98929802  1
  Ni  Ni11  1  0.62110232  0.97374424  0.48929802  1
  O  O12  1  0.08332580  0.99406606  0.74098198  1
  O  O13  1  0.99718756  0.33445916  0.03376649  1
  O  O14  1  0.10837607  0.41043431  0.33456960  1
  O  O15  1  0.17798225  0.76534654  0.06906514  1
  O  O16  1  0.23117070  0.39833083  0.62843007  1
  O  O17  1  0.32083314  0.20706294  0.16437053  1
  O  O18  1  0.36663997  0.07099640  0.50240024  1
  O  O19  1  0.47006174  0.23027233  0.80566346  1
  O  O20  1  0.52993826  0.76972767  0.30566346  1
  O  O21  1  0.63336003  0.92900360  0.00240024  1
  O  O22  1  0.67916686  0.79293706  0.66437053  1
  O  O23  1  0.76882930  0.60166917  0.12843007  1
  O  O24  1  0.82201775  0.23465346  0.56906514  1
  O  O25  1  0.89162393  0.58956569  0.83456960  1
  O  O26  1  0.00281244  0.66554084  0.53376649  1
  O  O27  1  0.91667420  0.00593394  0.24098198  1
