# generated using pymatgen
data_Li5Fe5Si7O24
_symmetry_space_group_name_H-M   'P 1'
_cell_length_a   7.85303252
_cell_length_b   7.95467893
_cell_length_c   9.78001687
_cell_angle_alpha   91.08665411
_cell_angle_beta   88.54049517
_cell_angle_gamma   89.46496113
_symmetry_Int_Tables_number   1
_chemical_formula_structural   Li5Fe5Si7O24
_chemical_formula_sum   'Li5 Fe5 Si7 O24'
_cell_volume   610.60401833
_cell_formula_units_Z   1
loop_
 _symmetry_equiv_pos_site_id
 _symmetry_equiv_pos_as_xyz
  1  'x, y, z'
loop_
 _atom_site_type_symbol
 _atom_site_label
 _atom_site_symmetry_multiplicity
 _atom_site_fract_x
 _atom_site_fract_y
 _atom_site_fract_z
 _atom_site_occupancy
  Li  Li0  1  0.43233611  0.69487206  0.25007882  1
  Li  Li1  1  0.49195720  0.18033164  0.79291866  1
  Li  Li2  1  0.82172745  0.52514621  0.71585753  1
  Li  Li3  1  0.72720332  0.00417684  0.00716245  1
  Li  Li4  1  0.01151870  0.66310602  0.97092129  1
  Fe  Fe5  1  0.12149936  0.33155566  0.76809585  1
  Fe  Fe6  1  0.37561389  0.83078385  0.98356257  1
  Fe  Fe7  1  0.66130942  0.88000382  0.71034784  1
  Fe  Fe8  1  0.83341937  0.37693469  0.02579525  1
  Fe  Fe9  1  0.87157161  0.67544128  0.28600368  1
  Si  Si10  1  0.07860465  0.90378307  0.75747652  1
  Si  Si11  1  0.16208220  0.62671261  0.53056740  1
  Si  Si12  1  0.32999500  0.12524126  0.23279442  1
  Si  Si13  1  0.42133338  0.40579071  0.00605474  1
  Si  Si14  1  0.56492307  0.56919174  0.49693341  1
  Si  Si15  1  0.62030676  0.17529373  0.46055514  1
  Si  Si16  1  0.92709471  0.08407638  0.24801669  1
  O  O17  1  0.05297475  0.64281602  0.39574375  1
  O  O18  1  0.09346298  0.46792674  0.61707122  1
  O  O19  1  0.11145838  0.10151854  0.73648925  1
  O  O20  1  0.15357356  0.80233136  0.62186442  1
  O  O21  1  0.12767011  0.12500405  0.28101722  1
  O  O22  1  0.16823554  0.82693564  0.89478239  1
  O  O23  1  0.32191045  0.35233224  0.86688364  1
  O  O24  1  0.36191992  0.60308982  0.47680042  1
  O  O25  1  0.36003677  0.29077800  0.13685674  1
  O  O26  1  0.40282005  0.60561676  0.05324808  1
  O  O27  1  0.38419743  0.94522110  0.15615151  1
  O  O28  1  0.45548228  0.14095085  0.36453018  1
  O  O29  1  0.54040198  0.94715384  0.87600702  1
  O  O30  1  0.60792340  0.06270971  0.59937290  1
  O  O31  1  0.60961448  0.37004408  0.52083853  1
  O  O32  1  0.63980096  0.65990127  0.63507243  1
  O  O33  1  0.61416337  0.35025317  0.95625011  1
  O  O34  1  0.64403876  0.63913569  0.35371075  1
  O  O35  1  0.80342186  0.15074062  0.37811330  1
  O  O36  1  0.87638689  0.86128884  0.78926127  1
  O  O37  1  0.86679181  0.16776839  0.10443502  1
  O  O38  1  0.88891475  0.88918176  0.21305355  1
  O  O39  1  0.90769454  0.55869937  0.12318451  1
  O  O40  1  0.94580876  0.44685959  0.86431558  1
