# generated using pymatgen
data_LiNi2(PO4)2
_symmetry_space_group_name_H-M   'P 1'
_cell_length_a   10.01811004
_cell_length_b   14.02993068
_cell_length_c   4.97831258
_cell_angle_alpha   90.00000000
_cell_angle_beta   90.00000000
_cell_angle_gamma   90.00000000
_symmetry_Int_Tables_number   1
_chemical_formula_structural   LiNi2(PO4)2
_chemical_formula_sum   'Li4 Ni8 P8 O32'
_cell_volume   699.71870664
_cell_formula_units_Z   4
loop_
 _symmetry_equiv_pos_site_id
 _symmetry_equiv_pos_as_xyz
  1  'x, y, z'
loop_
 _atom_site_type_symbol
 _atom_site_label
 _atom_site_symmetry_multiplicity
 _atom_site_fract_x
 _atom_site_fract_y
 _atom_site_fract_z
 _atom_site_occupancy
  Li  Li0  1  0.22601474  0.75083592  0.54989257  1
  Li  Li1  1  0.27398526  0.25083592  0.54989257  1
  Li  Li2  1  0.72601474  0.75083592  0.45010743  1
  Li  Li3  1  0.77398526  0.25083592  0.45010743  1
  Ni  Ni4  1  0.03570452  0.75200275  0.05795505  1
  Ni  Ni5  1  0.23101815  0.00068385  0.54278092  1
  Ni  Ni6  1  0.26898185  0.50068385  0.54278092  1
  Ni  Ni7  1  0.46429548  0.25200275  0.05795505  1
  Ni  Ni8  1  0.53570452  0.75200275  0.94204495  1
  Ni  Ni9  1  0.73101815  0.00068385  0.45721908  1
  Ni  Ni10  1  0.76898185  0.50068385  0.45721908  1
  Ni  Ni11  1  0.96429548  0.25200275  0.94204495  1
  P  P12  1  0.02502997  0.37594517  0.43818079  1
  P  P13  1  0.21412861  0.12846551  0.05377637  1
  P  P14  1  0.28587139  0.62846551  0.05377637  1
  P  P15  1  0.47497003  0.87594517  0.43818079  1
  P  P16  1  0.52502997  0.37594517  0.56181921  1
  P  P17  1  0.71412861  0.12846551  0.94622363  1
  P  P18  1  0.78587139  0.62846551  0.94622363  1
  P  P19  1  0.97497003  0.87594517  0.56181921  1
  O  O20  1  0.99581482  0.86049673  0.86996049  1
  O  O21  1  0.04100385  0.96956409  0.48459656  1
  O  O22  1  0.04400740  0.78767665  0.42342196  1
  O  O23  1  0.06309196  0.14474924  0.98943346  1
  O  O24  1  0.17540970  0.37452848  0.50644755  1
  O  O25  1  0.20977297  0.71749239  0.93760056  1
  O  O26  1  0.24573505  0.53507810  0.92203478  1
  O  O27  1  0.23920286  0.12752413  0.36009521  1
  O  O28  1  0.26079714  0.62752413  0.36009521  1
  O  O29  1  0.25426495  0.03507810  0.92203478  1
  O  O30  1  0.29022703  0.21749239  0.93760056  1
  O  O31  1  0.32459030  0.87452848  0.50644755  1
  O  O32  1  0.43690804  0.64474924  0.98943346  1
  O  O33  1  0.45599260  0.28767665  0.42342196  1
  O  O34  1  0.45899615  0.46956409  0.48459656  1
  O  O35  1  0.50418518  0.36049673  0.86996049  1
  O  O36  1  0.49581482  0.86049673  0.13003951  1
  O  O37  1  0.54100385  0.96956409  0.51540344  1
  O  O38  1  0.54400740  0.78767665  0.57657804  1
  O  O39  1  0.56309196  0.14474924  0.01056654  1
  O  O40  1  0.67540970  0.37452848  0.49355245  1
  O  O41  1  0.70977297  0.71749239  0.06239944  1
  O  O42  1  0.74573505  0.53507810  0.07796522  1
  O  O43  1  0.73920286  0.12752413  0.63990479  1
  O  O44  1  0.76079714  0.62752413  0.63990479  1
  O  O45  1  0.75426495  0.03507810  0.07796522  1
  O  O46  1  0.79022703  0.21749239  0.06239944  1
  O  O47  1  0.82459030  0.87452848  0.49355245  1
  O  O48  1  0.93690804  0.64474924  0.01056654  1
  O  O49  1  0.95599260  0.28767665  0.57657804  1
  O  O50  1  0.95899615  0.46956409  0.51540344  1
  O  O51  1  0.00418518  0.36049673  0.13003951  1
