# generated using pymatgen
data_Li2Mn3F10
_symmetry_space_group_name_H-M   'P 1'
_cell_length_a   6.11129520
_cell_length_b   9.77442102
_cell_length_c   7.92271924
_cell_angle_alpha   71.34228341
_cell_angle_beta   90.00000000
_cell_angle_gamma   71.78300185
_symmetry_Int_Tables_number   1
_chemical_formula_structural   Li2Mn3F10
_chemical_formula_sum   'Li4 Mn6 F20'
_cell_volume   423.27580677
_cell_formula_units_Z   2
loop_
 _symmetry_equiv_pos_site_id
 _symmetry_equiv_pos_as_xyz
  1  'x, y, z'
loop_
 _atom_site_type_symbol
 _atom_site_label
 _atom_site_symmetry_multiplicity
 _atom_site_fract_x
 _atom_site_fract_y
 _atom_site_fract_z
 _atom_site_occupancy
  Li  Li0  1  0.56518417  0.86963167  0.44243655  1
  Li  Li1  1  0.71472775  0.57054350  0.51072295  1
  Li  Li2  1  0.28527225  0.42945650  0.48927705  1
  Li  Li3  1  0.43481583  0.13036833  0.55756345  1
  Mn  Mn4  1  0.08567710  0.82864680  0.48711537  1
  Mn  Mn5  1  0.81636751  0.36726497  0.99009625  1
  Mn  Mn6  1  0.18363249  0.63273503  0.00990375  1
  Mn  Mn7  1  0.91432290  0.17135320  0.51288463  1
  Mn  Mn8  1  0.24831329  0.00000000  0.00000000  1
  Mn  Mn9  1  0.75168671  0.00000000  0.00000000  1
  F  F10  1  0.51933901  0.96132197  0.17802881  1
  F  F11  1  0.02422338  0.95155325  0.18779449  1
  F  F12  1  0.14008528  0.71982845  0.76164667  1
  F  F13  1  0.41925379  0.71114282  0.46772143  1
  F  F14  1  0.86960238  0.71114282  0.46772143  1
  F  F15  1  0.33754874  0.79610705  0.01487611  1
  F  F16  1  0.86634421  0.79610705  0.01487611  1
  F  F17  1  0.78066018  0.43867964  0.74192866  1
  F  F18  1  0.21933982  0.56132036  0.25807134  1
  F  F19  1  0.13365579  0.20389295  0.98512389  1
  F  F20  1  0.66245126  0.20389295  0.98512389  1
  F  F21  1  0.00000000  0.50000000  0.00000000  1
  F  F22  1  0.50000000  0.50000000  0.00000000  1
  F  F23  1  0.58074621  0.28885718  0.53227857  1
  F  F24  1  0.13039762  0.28885718  0.53227857  1
  F  F25  1  0.85991472  0.28017155  0.23835333  1
  F  F26  1  0.97577662  0.04844675  0.81220551  1
  F  F27  1  0.48066099  0.03867803  0.82197119  1
  F  F28  1  0.75861032  0.00000000  0.50000000  1
  F  F29  1  0.24138968  0.00000000  0.50000000  1
