# generated using pymatgen
data_LiFe2(PO4)2
_symmetry_space_group_name_H-M   'P 1'
_cell_length_a   4.55117549
_cell_length_b   5.20760727
_cell_length_c   7.69783828
_cell_angle_alpha   88.52633560
_cell_angle_beta   77.36864750
_cell_angle_gamma   75.95555998
_symmetry_Int_Tables_number   1
_chemical_formula_structural   LiFe2(PO4)2
_chemical_formula_sum   'Li1 Fe2 P2 O8'
_cell_volume   172.63499389
_cell_formula_units_Z   1
loop_
 _symmetry_equiv_pos_site_id
 _symmetry_equiv_pos_as_xyz
  1  'x, y, z'
loop_
 _atom_site_type_symbol
 _atom_site_label
 _atom_site_symmetry_multiplicity
 _atom_site_fract_x
 _atom_site_fract_y
 _atom_site_fract_z
 _atom_site_occupancy
  Li  Li0  1  0.31234403  0.69045741  0.97602919  1
  Fe  Fe1  1  0.05133557  0.75474486  0.61044006  1
  Fe  Fe2  1  0.94552248  0.23298634  0.41002452  1
  P  P3  1  0.34848716  0.18659451  0.73303579  1
  P  P4  1  0.64199690  0.82253289  0.26481591  1
  O  O5  1  0.15655360  0.35872502  0.60142264  1
  O  O6  1  0.30616691  0.92103776  0.38781497  1
  O  O7  1  0.23540070  0.92982318  0.77662915  1
  O  O8  1  0.33944580  0.35063415  0.89132965  1
  O  O9  1  0.63423139  0.70072889  0.09182807  1
  O  O10  1  0.79567967  0.06001232  0.24035879  1
  O  O11  1  0.69185209  0.09305053  0.61442751  1
  O  O12  1  0.82612169  0.61169512  0.38119774  1
