# generated using pymatgen
data_Li6MnO4F
_symmetry_space_group_name_H-M   'P 1'
_cell_length_a   5.02295201
_cell_length_b   5.24376753
_cell_length_c   9.51179839
_cell_angle_alpha   90.00000000
_cell_angle_beta   90.00000000
_cell_angle_gamma   63.92018981
_symmetry_Int_Tables_number   1
_chemical_formula_structural   Li6MnO4F
_chemical_formula_sum   'Li12 Mn2 O8 F2'
_cell_volume   225.02444889
_cell_formula_units_Z   2
loop_
 _symmetry_equiv_pos_site_id
 _symmetry_equiv_pos_as_xyz
  1  'x, y, z'
loop_
 _atom_site_type_symbol
 _atom_site_label
 _atom_site_symmetry_multiplicity
 _atom_site_fract_x
 _atom_site_fract_y
 _atom_site_fract_z
 _atom_site_occupancy
  Li  Li0  1  0.55338528  0.59539763  0.74756122  1
  Li  Li1  1  0.81551587  0.62417260  0.24212539  1
  Li  Li2  1  0.26704943  0.52259929  0.00102300  1
  Li  Li3  1  0.21759358  0.55275573  0.50417457  1
  Li  Li4  1  0.78240642  0.44724427  0.00417457  1
  Li  Li5  1  0.73295057  0.47740071  0.50102300  1
  Li  Li6  1  0.44661472  0.40460237  0.24756122  1
  Li  Li7  1  0.18448413  0.37582740  0.74212539  1
  Li  Li8  1  0.73455690  0.98255711  0.44866717  1
  Li  Li9  1  0.67122968  0.00199666  0.06134148  1
  Li  Li10  1  0.26544310  0.01744289  0.94866717  1
  Li  Li11  1  0.32877032  0.99800334  0.56134148  1
  Mn  Mn12  1  0.79327720  0.00791557  0.74031968  1
  Mn  Mn13  1  0.20672280  0.99208443  0.24031968  1
  O  O14  1  0.40308445  0.72962354  0.39031125  1
  O  O15  1  0.45761977  0.72196024  0.10064636  1
  O  O16  1  0.85913979  0.70149337  0.61392709  1
  O  O17  1  0.14086021  0.29850663  0.11392709  1
  O  O18  1  0.54238023  0.27803976  0.60064636  1
  O  O19  1  0.59691555  0.27037646  0.89031125  1
  O  O20  1  0.78867522  0.01987931  0.25321629  1
  O  O21  1  0.21132478  0.98012069  0.75321629  1
  F  F22  1  0.90871409  0.67469418  0.89668651  1
  F  F23  1  0.09128591  0.32530582  0.39668651  1
