# generated using pymatgen
data_Li4Si3NiO9
_symmetry_space_group_name_H-M   'P 1'
_cell_length_a   6.25140616
_cell_length_b   9.98509381
_cell_length_c   6.25140616
_cell_angle_alpha   89.10858639
_cell_angle_beta   71.94320410
_cell_angle_gamma   90.89141361
_symmetry_Int_Tables_number   1
_chemical_formula_structural   Li4Si3NiO9
_chemical_formula_sum   'Li8 Si6 Ni2 O18'
_cell_volume   370.86974628
_cell_formula_units_Z   2
loop_
 _symmetry_equiv_pos_site_id
 _symmetry_equiv_pos_as_xyz
  1  'x, y, z'
loop_
 _atom_site_type_symbol
 _atom_site_label
 _atom_site_symmetry_multiplicity
 _atom_site_fract_x
 _atom_site_fract_y
 _atom_site_fract_z
 _atom_site_occupancy
  Li  Li0  1  0.37813626  0.21045579  0.80881467  1
  Li  Li1  1  0.18621627  0.78742220  0.46108178  1
  Li  Li2  1  0.55967515  0.50000000  0.55967515  1
  Li  Li3  1  0.99060156  0.50000000  0.99060156  1
  Li  Li4  1  0.62586036  0.00000000  0.62586036  1
  Li  Li5  1  0.00117703  0.00000000  0.00117703  1
  Li  Li6  1  0.46108178  0.21257780  0.18621627  1
  Li  Li7  1  0.80881467  0.78954421  0.37813626  1
  Si  Si8  1  0.33746193  0.74731271  0.88211504  1
  Si  Si9  1  0.07212923  0.49392874  0.48531283  1
  Si  Si10  1  0.12805503  0.05252169  0.50981306  1
  Si  Si11  1  0.50981306  0.94747831  0.12805503  1
  Si  Si12  1  0.48531283  0.50607126  0.07212923  1
  Si  Si13  1  0.88211504  0.25268729  0.33746193  1
  Ni  Ni14  1  0.81526656  0.24911237  0.83040775  1
  Ni  Ni15  1  0.83040775  0.75088763  0.81526656  1
  O  O16  1  0.13951606  0.79307838  0.79134003  1
  O  O17  1  0.30976471  0.58437113  0.95496171  1
  O  O18  1  0.10536451  0.12004742  0.74789844  1
  O  O19  1  0.03014785  0.40812391  0.71409382  1
  O  O20  1  0.50631077  0.06391481  0.94807091  1
  O  O21  1  0.50332806  0.35783022  0.96937422  1
  O  O22  1  0.12039255  0.17474052  0.32431662  1
  O  O23  1  0.57504868  0.77517500  0.68982711  1
  O  O24  1  0.35494210  0.50000000  0.35494210  1
  O  O25  1  0.39483836  0.00000000  0.39483836  1
  O  O26  1  0.68982711  0.22482500  0.57504868  1
  O  O27  1  0.32431662  0.82525948  0.12039255  1
  O  O28  1  0.96937422  0.64216978  0.50332806  1
  O  O29  1  0.94807091  0.93608519  0.50631077  1
  O  O30  1  0.71409382  0.59187609  0.03014785  1
  O  O31  1  0.74789844  0.87995258  0.10536451  1
  O  O32  1  0.95496171  0.41562887  0.30976471  1
  O  O33  1  0.79134003  0.20692162  0.13951606  1
