# generated using pymatgen
data_Li4Ti2Nb3Co3O16
_symmetry_space_group_name_H-M   'P 1'
_cell_length_a   6.01998529
_cell_length_b   6.09416975
_cell_length_c   9.85171236
_cell_angle_alpha   89.98914565
_cell_angle_beta   89.57271586
_cell_angle_gamma   120.39306136
_symmetry_Int_Tables_number   1
_chemical_formula_structural   Li4Ti2Nb3Co3O16
_chemical_formula_sum   'Li4 Ti2 Nb3 Co3 O16'
_cell_volume   311.74671093
_cell_formula_units_Z   1
loop_
 _symmetry_equiv_pos_site_id
 _symmetry_equiv_pos_as_xyz
  1  'x, y, z'
loop_
 _atom_site_type_symbol
 _atom_site_label
 _atom_site_symmetry_multiplicity
 _atom_site_fract_x
 _atom_site_fract_y
 _atom_site_fract_z
 _atom_site_occupancy
  Li  Li0  1  0.33292709  0.66655228  0.90336401  1
  Li  Li1  1  0.00665013  0.00315950  0.99875181  1
  Li  Li2  1  0.04049003  0.02026700  0.48538599  1
  Li  Li3  1  0.66164510  0.33080212  0.39094104  1
  Ti  Ti4  1  0.27404613  0.63697107  0.48459582  1
  Ti  Ti5  1  0.65384477  0.32702644  0.01090845  1
  Nb  Nb6  1  0.64116488  0.82065172  0.22885794  1
  Nb  Nb7  1  0.80991473  0.65169879  0.71567601  1
  Nb  Nb8  1  0.80983794  0.15827050  0.71569977  1
  Co  Co9  1  0.16810769  0.82614126  0.20858604  1
  Co  Co10  1  0.16801875  0.34196115  0.20853092  1
  Co  Co11  1  0.37545520  0.18772757  0.71140784  1
  O  O12  1  0.15871139  0.81973653  0.59306501  1
  O  O13  1  0.03539048  0.51771330  0.35009391  1
  O  O14  1  0.34982112  0.67497131  0.09965876  1
  O  O15  1  0.99434243  0.99715507  0.30023341  1
  O  O16  1  0.99671327  0.99826916  0.80717167  1
  O  O17  1  0.15875517  0.33888913  0.59304663  1
  O  O18  1  0.49229469  0.96331767  0.35087144  1
  O  O19  1  0.49236195  0.52907613  0.35086092  1
  O  O20  1  0.34054205  0.17035017  0.09290800  1
  O  O21  1  0.67101671  0.83558280  0.60070850  1
  O  O22  1  0.53529306  0.49747710  0.84999976  1
  O  O23  1  0.53525888  0.03784484  0.85002468  1
  O  O24  1  0.69795290  0.34908696  0.58950915  1
  O  O25  1  0.81507165  0.65154461  0.09422265  1
  O  O26  1  0.96937121  0.48459549  0.82856218  1
  O  O27  1  0.81500261  0.16346035  0.09419669  1
