# generated using pymatgen
data_Li3CrPCO7
_symmetry_space_group_name_H-M   'P 1'
_cell_length_a   8.56687904
_cell_length_b   9.97812624
_cell_length_c   6.47441873
_cell_angle_alpha   90.00000000
_cell_angle_beta   90.00000000
_cell_angle_gamma   84.81540833
_symmetry_Int_Tables_number   1
_chemical_formula_structural   Li3CrPCO7
_chemical_formula_sum   'Li12 Cr4 P4 C4 O28'
_cell_volume   551.17810161
_cell_formula_units_Z   4
loop_
 _symmetry_equiv_pos_site_id
 _symmetry_equiv_pos_as_xyz
  1  'x, y, z'
loop_
 _atom_site_type_symbol
 _atom_site_label
 _atom_site_symmetry_multiplicity
 _atom_site_fract_x
 _atom_site_fract_y
 _atom_site_fract_z
 _atom_site_occupancy
  Li  Li0  1  0.10821809  0.38538233  0.24853609  1
  Li  Li1  1  0.10821809  0.88538233  0.25146391  1
  Li  Li2  1  0.28930105  0.11753251  0.48061410  1
  Li  Li3  1  0.28930105  0.61753251  0.01938590  1
  Li  Li4  1  0.35433087  0.38805259  0.75258079  1
  Li  Li5  1  0.35433087  0.88805259  0.74741921  1
  Li  Li6  1  0.64566913  0.11194741  0.24741921  1
  Li  Li7  1  0.64566913  0.61194741  0.25258079  1
  Li  Li8  1  0.71069895  0.38246749  0.51938590  1
  Li  Li9  1  0.71069895  0.88246749  0.98061410  1
  Li  Li10  1  0.89178191  0.11461767  0.75146391  1
  Li  Li11  1  0.89178191  0.61461767  0.74853609  1
  Cr  Cr12  1  0.26194024  0.12523216  0.98590924  1
  Cr  Cr13  1  0.26194024  0.62523216  0.51409076  1
  Cr  Cr14  1  0.73805976  0.37476784  0.01409076  1
  Cr  Cr15  1  0.73805976  0.87476784  0.48590924  1
  P  P16  1  0.41031564  0.36146985  0.24925259  1
  P  P17  1  0.41031564  0.86146985  0.25074741  1
  P  P18  1  0.58968436  0.13853015  0.75074741  1
  P  P19  1  0.58968436  0.63853015  0.74925259  1
  C  C20  1  0.03940020  0.35276940  0.75933665  1
  C  C21  1  0.03940020  0.85276940  0.74066335  1
  C  C22  1  0.96059980  0.14723060  0.24066335  1
  C  C23  1  0.96059980  0.64723060  0.25933665  1
  O  O24  1  0.06419744  0.47621078  0.74797769  1
  O  O25  1  0.10601564  0.18292517  0.22844889  1
  O  O26  1  0.06419744  0.97621078  0.75202231  1
  O  O27  1  0.15291927  0.25736248  0.75525476  1
  O  O28  1  0.10601564  0.68292517  0.27155111  1
  O  O29  1  0.15291927  0.75736248  0.74474524  1
  O  O30  1  0.31144528  0.41197083  0.05987327  1
  O  O31  1  0.31371976  0.41980046  0.43931038  1
  O  O32  1  0.31371976  0.91980046  0.06068962  1
  O  O33  1  0.31144528  0.91197083  0.44012673  1
  O  O34  1  0.42240335  0.08864867  0.75005864  1
  O  O35  1  0.42552724  0.20568859  0.25973600  1
  O  O36  1  0.42240335  0.58864867  0.74994136  1
  O  O37  1  0.42552724  0.70568859  0.24026400  1
  O  O38  1  0.57447276  0.29431141  0.74026400  1
  O  O39  1  0.57759665  0.41135133  0.24994136  1
  O  O40  1  0.57447276  0.79431141  0.75973600  1
  O  O41  1  0.57759665  0.91135133  0.25005864  1
  O  O42  1  0.68855472  0.08802917  0.94012673  1
  O  O43  1  0.68628024  0.08019954  0.56068962  1
  O  O44  1  0.68855472  0.58802917  0.55987327  1
  O  O45  1  0.68628024  0.58019954  0.93931038  1
  O  O46  1  0.84708073  0.24263752  0.24474524  1
  O  O47  1  0.89398436  0.31707483  0.77155111  1
  O  O48  1  0.84708073  0.74263752  0.25525476  1
  O  O49  1  0.93580256  0.02378922  0.25202231  1
  O  O50  1  0.89398436  0.81707483  0.72844889  1
  O  O51  1  0.93580256  0.52378922  0.24797769  1
