# generated using pymatgen
data_Li3CrPCO7
_symmetry_space_group_name_H-M   'P 1'
_cell_length_a   8.55502228
_cell_length_b   9.98871112
_cell_length_c   6.48494146
_cell_angle_alpha   90.00000000
_cell_angle_beta   90.00000000
_cell_angle_gamma   84.91204349
_symmetry_Int_Tables_number   1
_chemical_formula_structural   Li3CrPCO7
_chemical_formula_sum   'Li12 Cr4 P4 C4 O28'
_cell_volume   551.97834529
_cell_formula_units_Z   4
loop_
 _symmetry_equiv_pos_site_id
 _symmetry_equiv_pos_as_xyz
  1  'x, y, z'
loop_
 _atom_site_type_symbol
 _atom_site_label
 _atom_site_symmetry_multiplicity
 _atom_site_fract_x
 _atom_site_fract_y
 _atom_site_fract_z
 _atom_site_occupancy
  Li  Li0  1  0.10688995  0.38496234  0.25368957  1
  Li  Li1  1  0.10688995  0.88496234  0.24631043  1
  Li  Li2  1  0.29251151  0.11641066  0.01945950  1
  Li  Li3  1  0.29251151  0.61641066  0.48054050  1
  Li  Li4  1  0.35429536  0.38887163  0.74177246  1
  Li  Li5  1  0.35429536  0.88887163  0.75822754  1
  Li  Li6  1  0.64570464  0.11112837  0.24177246  1
  Li  Li7  1  0.64570464  0.61112837  0.25822754  1
  Li  Li8  1  0.70748849  0.38358934  0.51945950  1
  Li  Li9  1  0.70748849  0.88358934  0.98054050  1
  Li  Li10  1  0.89311005  0.11503766  0.75368957  1
  Li  Li11  1  0.89311005  0.61503766  0.74631043  1
  Cr  Cr12  1  0.26175077  0.12438013  0.51008028  1
  Cr  Cr13  1  0.26175077  0.62438013  0.98991972  1
  Cr  Cr14  1  0.73824923  0.37561987  0.01008028  1
  Cr  Cr15  1  0.73824923  0.87561987  0.48991972  1
  P  P16  1  0.41045655  0.36099816  0.24656778  1
  P  P17  1  0.41045655  0.86099816  0.25343222  1
  P  P18  1  0.58954345  0.13900184  0.74656778  1
  P  P19  1  0.58954345  0.63900184  0.75343222  1
  C  C20  1  0.03814793  0.35281045  0.74951853  1
  C  C21  1  0.03814793  0.85281045  0.75048147  1
  C  C22  1  0.96185207  0.14718955  0.24951853  1
  C  C23  1  0.96185207  0.64718955  0.25048147  1
  O  O24  1  0.06463598  0.47645756  0.75330674  1
  O  O25  1  0.10761474  0.18225310  0.26592593  1
  O  O26  1  0.06463598  0.97645756  0.74669326  1
  O  O27  1  0.14975885  0.25733964  0.73236353  1
  O  O28  1  0.10761474  0.68225310  0.23407407  1
  O  O29  1  0.14975885  0.75733964  0.76763647  1
  O  O30  1  0.31169300  0.41656800  0.05699743  1
  O  O31  1  0.31406317  0.41361220  0.43598984  1
  O  O32  1  0.31406317  0.91361220  0.06401016  1
  O  O33  1  0.31169300  0.91656800  0.44300257  1
  O  O34  1  0.42172975  0.08885477  0.74824861  1
  O  O35  1  0.42634822  0.20519082  0.23849096  1
  O  O36  1  0.42172975  0.58885477  0.75175139  1
  O  O37  1  0.42634822  0.70519082  0.26150904  1
  O  O38  1  0.57365178  0.29480918  0.73849096  1
  O  O39  1  0.57827025  0.41114523  0.24824861  1
  O  O40  1  0.57365178  0.79480918  0.76150904  1
  O  O41  1  0.57827025  0.91114523  0.25175139  1
  O  O42  1  0.68593683  0.08638780  0.93598984  1
  O  O43  1  0.68830700  0.08343200  0.55699743  1
  O  O44  1  0.68593683  0.58638780  0.56401016  1
  O  O45  1  0.68830700  0.58343200  0.94300257  1
  O  O46  1  0.85024115  0.24266036  0.23236353  1
  O  O47  1  0.89238526  0.31774690  0.76592593  1
  O  O48  1  0.85024115  0.74266036  0.26763647  1
  O  O49  1  0.93536402  0.02354244  0.25330674  1
  O  O50  1  0.89238526  0.81774690  0.73407407  1
  O  O51  1  0.93536402  0.52354244  0.24669326  1
