# generated using pymatgen
data_LiMn2(PO5)2
_symmetry_space_group_name_H-M   'P 1'
_cell_length_a   7.00245142
_cell_length_b   10.30291413
_cell_length_c   4.94836357
_cell_angle_alpha   90.00000000
_cell_angle_beta   107.81472806
_cell_angle_gamma   90.00000000
_symmetry_Int_Tables_number   1
_chemical_formula_structural   LiMn2(PO5)2
_chemical_formula_sum   'Li2 Mn4 P4 O20'
_cell_volume   339.88492227
_cell_formula_units_Z   2
loop_
 _symmetry_equiv_pos_site_id
 _symmetry_equiv_pos_as_xyz
  1  'x, y, z'
loop_
 _atom_site_type_symbol
 _atom_site_label
 _atom_site_symmetry_multiplicity
 _atom_site_fract_x
 _atom_site_fract_y
 _atom_site_fract_z
 _atom_site_occupancy
  Li  Li0  1  0.66556176  0.40073348  0.62793665  1
  Li  Li1  1  0.83443824  0.90073348  0.87206335  1
  Mn  Mn2  1  0.18545850  0.93154250  0.63139724  1
  Mn  Mn3  1  0.31454150  0.43154250  0.86860276  1
  Mn  Mn4  1  0.68167823  0.57187692  0.12753130  1
  Mn  Mn5  1  0.81832177  0.07187692  0.37246870  1
  P  P6  1  0.03000445  0.34712960  0.22348553  1
  P  P7  1  0.52715878  0.15080086  0.72396425  1
  P  P8  1  0.46999555  0.84712960  0.27651447  1
  P  P9  1  0.97284122  0.65080086  0.77603575  1
  O  O10  1  0.02176213  0.78386431  0.67456785  1
  O  O11  1  0.99421549  0.95459544  0.27027656  1
  O  O12  1  0.16458086  0.57589153  0.93775609  1
  O  O13  1  0.16037762  0.42615847  0.47664526  1
  O  O14  1  0.14614080  0.31660225  0.01125286  1
  O  O15  1  0.33541914  0.07589153  0.56224391  1
  O  O16  1  0.35385920  0.81660225  0.48874714  1
  O  O17  1  0.47823787  0.28386431  0.82543215  1
  O  O18  1  0.33962238  0.92615847  0.02335474  1
  O  O19  1  0.49973188  0.54158012  0.76897367  1
  O  O20  1  0.50578451  0.45459544  0.22972344  1
  O  O21  1  0.66088201  0.06752145  0.96849059  1
  O  O22  1  0.53594618  0.72164186  0.17012909  1
  O  O23  1  0.64693784  0.18685061  0.51456954  1
  O  O24  1  0.65993009  0.92740561  0.44357307  1
  O  O25  1  0.85306216  0.68685061  0.98543046  1
  O  O26  1  0.83911799  0.56752145  0.53150941  1
  O  O27  1  0.84006991  0.42740561  0.05642693  1
  O  O28  1  0.00026812  0.04158012  0.73102633  1
  O  O29  1  0.96405382  0.22164186  0.32987091  1
