# generated using pymatgen
data_Li3CrPCO7
_symmetry_space_group_name_H-M   'P 1'
_cell_length_a   9.51209929
_cell_length_b   9.98235451
_cell_length_c   6.47610899
_cell_angle_alpha   90.00000000
_cell_angle_beta   90.00000000
_cell_angle_gamma   63.71185479
_symmetry_Int_Tables_number   1
_chemical_formula_structural   Li3CrPCO7
_chemical_formula_sum   'Li12 Cr4 P4 C4 O28'
_cell_volume   551.33000970
_cell_formula_units_Z   4
loop_
 _symmetry_equiv_pos_site_id
 _symmetry_equiv_pos_as_xyz
  1  'x, y, z'
loop_
 _atom_site_type_symbol
 _atom_site_label
 _atom_site_symmetry_multiplicity
 _atom_site_fract_x
 _atom_site_fract_y
 _atom_site_fract_z
 _atom_site_occupancy
  Li  Li0  1  0.89002467  0.44116966  0.75777295  1
  Li  Li1  1  0.89002467  0.94116966  0.74222705  1
  Li  Li2  1  0.70524640  0.26344127  0.52155567  1
  Li  Li3  1  0.70524640  0.76344127  0.97844433  1
  Li  Li4  1  0.64389911  0.06607346  0.25557512  1
  Li  Li5  1  0.64389911  0.56607346  0.24442488  1
  Li  Li6  1  0.35610089  0.43392654  0.75557512  1
  Li  Li7  1  0.35610089  0.93392654  0.74442488  1
  Li  Li8  1  0.29475360  0.23655873  0.02155667  1
  Li  Li9  1  0.29475360  0.73655873  0.47844433  1
  Li  Li10  1  0.10997533  0.05883034  0.25777295  1
  Li  Li11  1  0.10997533  0.55883034  0.24222705  1
  Cr  Cr12  1  0.74098862  0.25345794  0.01429633  1
  Cr  Cr13  1  0.74098862  0.75345794  0.48570367  1
  Cr  Cr14  1  0.25901138  0.24654206  0.51429633  1
  Cr  Cr15  1  0.25901138  0.74654206  0.98570367  1
  P  P16  1  0.58868796  0.06730112  0.75072756  1
  P  P17  1  0.58868796  0.56730112  0.74927244  1
  P  P18  1  0.41131204  0.43269888  0.25072756  1
  P  P19  1  0.41131204  0.93269888  0.24927244  1
  C  C20  1  0.96165116  0.37216250  0.25268817  1
  C  C21  1  0.96165116  0.87216250  0.24731183  1
  C  C22  1  0.03834884  0.12783750  0.75268817  1
  C  C23  1  0.03834884  0.62783750  0.74731183  1
  O  O24  1  0.93749002  0.00852417  0.24338513  1
  O  O25  1  0.93749002  0.50852417  0.25661487  1
  O  O26  1  0.89380375  0.23704467  0.77031153  1
  O  O27  1  0.84801599  0.33496886  0.23450779  1
  O  O28  1  0.89380375  0.73704467  0.72968847  1
  O  O29  1  0.84801599  0.83496886  0.26549221  1
  O  O30  1  0.68483175  0.07735136  0.94087467  1
  O  O31  1  0.68698494  0.06973963  0.56165788  1
  O  O32  1  0.68698494  0.56973963  0.93834212  1
  O  O33  1  0.68483175  0.57735136  0.55912533  1
  O  O34  1  0.57925805  0.29946952  0.25115532  1
  O  O35  1  0.57404783  0.41877487  0.73946178  1
  O  O36  1  0.57925805  0.79946952  0.24884468  1
  O  O37  1  0.57404783  0.91877487  0.76053822  1
  O  O38  1  0.42595217  0.08122513  0.23946178  1
  O  O39  1  0.42074195  0.20053048  0.75115532  1
  O  O40  1  0.42595217  0.58122513  0.26053822  1
  O  O41  1  0.42074195  0.70053048  0.74884468  1
  O  O42  1  0.31301506  0.43026037  0.06165788  1
  O  O43  1  0.31516825  0.42264864  0.44087467  1
  O  O44  1  0.31516825  0.92264864  0.05912533  1
  O  O45  1  0.31301506  0.93026037  0.43834212  1
  O  O46  1  0.15198401  0.16503114  0.73450779  1
  O  O47  1  0.10619625  0.26295533  0.27031153  1
  O  O48  1  0.15198401  0.66503114  0.76549221  1
  O  O49  1  0.10619625  0.76295533  0.22968847  1
  O  O50  1  0.06250998  0.49147583  0.74338513  1
  O  O51  1  0.06250998  0.99147583  0.75661487  1
