# generated using pymatgen
data_Li3Mn4(PO4)6
_symmetry_space_group_name_H-M   'P 1'
_cell_length_a   8.61139363
_cell_length_b   8.61139403
_cell_length_c   6.23925497
_cell_angle_alpha   74.98447564
_cell_angle_beta   105.01553011
_cell_angle_gamma   85.24762733
_symmetry_Int_Tables_number   1
_chemical_formula_structural   Li3Mn4(PO4)6
_chemical_formula_sum   'Li3 Mn4 P6 O24'
_cell_volume   426.00839775
_cell_formula_units_Z   1
loop_
 _symmetry_equiv_pos_site_id
 _symmetry_equiv_pos_as_xyz
  1  'x, y, z'
loop_
 _atom_site_type_symbol
 _atom_site_label
 _atom_site_symmetry_multiplicity
 _atom_site_fract_x
 _atom_site_fract_y
 _atom_site_fract_z
 _atom_site_occupancy
  Li  Li0  1  0.50017212  0.49977754  0.49911051  1
  Li  Li1  1  0.49977754  0.50017212  0.00088949  1
  Li  Li2  1  0.00671219  0.00671219  0.25000000  1
  Mn  Mn3  1  0.05763561  0.62220237  0.63458752  1
  Mn  Mn4  1  0.37487062  0.94181496  0.13256585  1
  Mn  Mn5  1  0.62220237  0.05763561  0.86541248  1
  Mn  Mn6  1  0.94181496  0.37487062  0.36743415  1
  P  P7  1  0.27686473  0.27686473  0.75000000  1
  P  P8  1  0.15143153  0.65821457  0.13997182  1
  P  P9  1  0.34213988  0.84705413  0.63667631  1
  P  P10  1  0.65821457  0.15143153  0.36002818  1
  P  P11  1  0.84705413  0.34213988  0.86332369  1
  P  P12  1  0.72223014  0.72223014  0.25000000  1
  O  O13  1  0.02843633  0.65006551  0.91371218  1
  O  O14  1  0.05963062  0.59524368  0.32944697  1
  O  O15  1  0.25563575  0.16011800  0.97242799  1
  O  O16  1  0.16011800  0.25563575  0.52757201  1
  O  O17  1  0.15739875  0.83251835  0.59221930  1
  O  O18  1  0.25352741  0.45383142  0.77079776  1
  O  O19  1  0.16448364  0.84073957  0.11982527  1
  O  O20  1  0.31606685  0.55746089  0.20138063  1
  O  O21  1  0.45383142  0.25352741  0.72920224  1
  O  O22  1  0.39964030  0.93840100  0.82786308  1
  O  O23  1  0.35046538  0.97491609  0.41313675  1
  O  O24  1  0.44583603  0.68393922  0.70329991  1
  O  O25  1  0.55746089  0.31606685  0.29861937  1
  O  O26  1  0.65006551  0.02843633  0.58628782  1
  O  O27  1  0.59524368  0.05963062  0.17055303  1
  O  O28  1  0.54562055  0.74580040  0.27102092  1
  O  O29  1  0.68393922  0.44583603  0.79670009  1
  O  O30  1  0.83251835  0.15739875  0.90778070  1
  O  O31  1  0.74580040  0.54562055  0.22897908  1
  O  O32  1  0.84073957  0.16448364  0.38017473  1
  O  O33  1  0.84151951  0.74530936  0.46951144  1
  O  O34  1  0.74530936  0.84151951  0.03048856  1
  O  O35  1  0.93840100  0.39964030  0.67213692  1
  O  O36  1  0.97491609  0.35046538  0.08686325  1
