# generated using pymatgen
data_Li3VPCO7
_symmetry_space_group_name_H-M   'P 1'
_cell_length_a   8.50891993
_cell_length_b   9.97820876
_cell_length_c   6.61646607
_cell_angle_alpha   90.57103611
_cell_angle_beta   90.92960341
_cell_angle_gamma   85.09826767
_symmetry_Int_Tables_number   1
_chemical_formula_structural   Li3VPCO7
_chemical_formula_sum   'Li12 V4 P4 C4 O28'
_cell_volume   559.61402426
_cell_formula_units_Z   4
loop_
 _symmetry_equiv_pos_site_id
 _symmetry_equiv_pos_as_xyz
  1  'x, y, z'
loop_
 _atom_site_type_symbol
 _atom_site_label
 _atom_site_symmetry_multiplicity
 _atom_site_fract_x
 _atom_site_fract_y
 _atom_site_fract_z
 _atom_site_occupancy
  Li  Li0  1  0.09951351  0.39060260  0.25637074  1
  Li  Li1  1  0.09828599  0.88249917  0.25830759  1
  Li  Li2  1  0.28103878  0.10810554  0.48601196  1
  Li  Li3  1  0.27843242  0.63918312  0.01782935  1
  Li  Li4  1  0.28040417  0.63872216  0.47847165  1
  Li  Li5  1  0.34738834  0.87706156  0.74023830  1
  Li  Li6  1  0.71694364  0.37715438  0.52960926  1
  Li  Li7  1  0.71719096  0.37785416  0.97035013  1
  Li  Li8  1  0.71653179  0.87294668  0.53449217  1
  Li  Li9  1  0.71912861  0.87320463  0.96650435  1
  Li  Li10  1  0.89177082  0.10803413  0.74876773  1
  Li  Li11  1  0.90764243  0.62280268  0.74683246  1
  V  V12  1  0.25910316  0.11220836  0.99100304  1
  V  V13  1  0.32918559  0.40102735  0.74750021  1
  V  V14  1  0.66939605  0.10325017  0.25073869  1
  V  V15  1  0.67120669  0.60330941  0.25047141  1
  P  P16  1  0.40779881  0.36021651  0.24421004  1
  P  P17  1  0.41195028  0.85931635  0.25426717  1
  P  P18  1  0.58652754  0.14032447  0.75008167  1
  P  P19  1  0.59181548  0.63978976  0.74949687  1
  C  C20  1  0.03452184  0.34785279  0.75406269  1
  C  C21  1  0.04259385  0.85581768  0.75911282  1
  C  C22  1  0.96252394  0.15277226  0.25178002  1
  C  C23  1  0.96489321  0.65280330  0.24981310  1
  O  O24  1  0.07051159  0.47058013  0.74569066  1
  O  O25  1  0.10955614  0.18152062  0.24516320  1
  O  O26  1  0.07594350  0.98134506  0.77274378  1
  O  O27  1  0.15327013  0.25376892  0.75992616  1
  O  O28  1  0.11078140  0.68029076  0.24920662  1
  O  O29  1  0.15225388  0.75862192  0.75208804  1
  O  O30  1  0.30435928  0.41714574  0.06457172  1
  O  O31  1  0.30789360  0.40741263  0.42974089  1
  O  O32  1  0.31447498  0.90782792  0.06348100  1
  O  O33  1  0.30885766  0.90829326  0.43607108  1
  O  O34  1  0.42152962  0.08586370  0.74410748  1
  O  O35  1  0.42596324  0.20129735  0.22896014  1
  O  O36  1  0.42371810  0.59108414  0.74583843  1
  O  O37  1  0.43298715  0.70206341  0.24942614  1
  O  O38  1  0.56722944  0.29782528  0.75106134  1
  O  O39  1  0.57586002  0.40818722  0.25013625  1
  O  O40  1  0.57507986  0.79545446  0.75008549  1
  O  O41  1  0.57848249  0.91119394  0.25714823  1
  O  O42  1  0.68982029  0.08824816  0.93340468  1
  O  O43  1  0.68849650  0.08841172  0.56837192  1
  O  O44  1  0.69360932  0.58357586  0.56837412  1
  O  O45  1  0.69339681  0.58387027  0.93309082  1
  O  O46  1  0.85046542  0.24909224  0.25645363  1
  O  O47  1  0.89146068  0.31420525  0.75335437  1
  O  O48  1  0.85115603  0.74895643  0.24961803  1
  O  O49  1  0.92677091  0.02939215  0.25355217  1
  O  O50  1  0.89413002  0.82826011  0.75074143  1
  O  O51  1  0.92615305  0.52935310  0.25127074  1
