# generated using pymatgen
data_Li34(Sb3S2)3
_symmetry_space_group_name_H-M   'P 1'
_cell_length_a   9.90315371
_cell_length_b   11.70385752
_cell_length_c   9.89433851
_cell_angle_alpha   65.00010273
_cell_angle_beta   89.94741952
_cell_angle_gamma   114.98373780
_symmetry_Int_Tables_number   1
_chemical_formula_structural   Li34(Sb3S2)3
_chemical_formula_sum   'Li34 Sb9 S6'
_cell_volume   919.36082418
_cell_formula_units_Z   1
loop_
 _symmetry_equiv_pos_site_id
 _symmetry_equiv_pos_as_xyz
  1  'x, y, z'
loop_
 _atom_site_type_symbol
 _atom_site_label
 _atom_site_symmetry_multiplicity
 _atom_site_fract_x
 _atom_site_fract_y
 _atom_site_fract_z
 _atom_site_occupancy
  Li  Li0  1  0.71764650  0.99996477  0.14938062  1
  Li  Li1  1  0.05479058  0.25249709  0.09018267  1
  Li  Li2  1  0.14865382  0.00229943  0.27984320  1
  Li  Li3  1  0.48710172  0.15316835  0.20236987  1
  Li  Li4  1  0.65602760  0.48051327  0.06656121  1
  Li  Li5  1  0.92842692  0.47965166  0.17541681  1
  Li  Li6  1  0.79615231  0.15468048  0.33411983  1
  Li  Li7  1  0.65794502  0.75012499  0.05611912  1
  Li  Li8  1  0.07439186  0.14878499  0.42414602  1
  Li  Li9  1  0.24923375  0.50117775  0.24946871  1
  Li  Li10  1  0.42655983  0.85236010  0.07453069  1
  Li  Li11  1  0.09273986  0.74760848  0.19598016  1
  Li  Li12  1  0.35888836  0.15535747  0.50925162  1
  Li  Li13  1  0.55027225  0.47862315  0.34510913  1
  Li  Li14  1  0.82312323  0.47751976  0.45292985  1
  Li  Li15  1  0.80507899  0.74796195  0.34602501  1
  Li  Li16  1  0.66542335  0.15201942  0.64370051  1
  Li  Li17  1  0.85033102  0.99827321  0.71736372  1
  Li  Li18  1  0.33300148  0.84384899  0.35681268  1
  Li  Li19  1  0.19885655  0.25259244  0.65450008  1
  Li  Li20  1  0.17476139  0.52112719  0.54826709  1
  Li  Li21  1  0.28333994  0.00049177  0.84907654  1
  Li  Li22  1  0.45208793  0.52005034  0.65663627  1
  Li  Li23  1  0.64496322  0.84603253  0.48775517  1
  Li  Li24  1  0.90810783  0.25154080  0.80100505  1
  Li  Li25  1  0.74842497  0.49968262  0.74872964  1
  Li  Li26  1  0.92767232  0.85496574  0.57313144  1
  Li  Li27  1  0.57220217  0.14481311  0.92797770  1
  Li  Li28  1  0.34178507  0.24897283  0.94334898  1
  Li  Li29  1  0.20188124  0.84639180  0.66444202  1
  Li  Li30  1  0.07045523  0.52226412  0.82411756  1
  Li  Li31  1  0.34634432  0.52134334  0.93205009  1
  Li  Li32  1  0.51106397  0.84488746  0.79781872  1
  Li  Li33  1  0.94664192  0.75205911  0.90737964  1
  Sb  Sb34  1  0.78559883  0.31517146  0.03042505  1
  Sb  Sb35  1  0.34786648  0.31632871  0.21254990  1
  Sb  Sb36  1  0.49908650  0.99799391  0.49987599  1
  Sb  Sb37  1  0.96814764  0.31529612  0.47050030  1
  Sb  Sb38  1  0.47148134  0.68344775  0.34807903  1
  Sb  Sb39  1  0.52843684  0.31333085  0.65433693  1
  Sb  Sb40  1  0.03015532  0.68476189  0.52874109  1
  Sb  Sb41  1  0.65452497  0.68591978  0.78581438  1
  Sb  Sb42  1  0.21325310  0.68584298  0.96808230  1
  S  S43  1  0.31418013  0.99903594  0.09930606  1
  S  S44  1  0.90107703  0.00144861  0.31469619  1
  S  S45  1  0.81734908  0.63411078  0.18321480  1
  S  S46  1  0.10072696  0.00225782  0.68229276  1
  S  S47  1  0.68461381  0.99913562  0.90153305  1
  S  S48  1  0.18342043  0.36679527  0.81596277  1
