# generated using pymatgen
data_Zn2Ga2S5
_symmetry_space_group_name_H-M   'P 1'
_cell_length_a   3.69354154
_cell_length_b   3.69354147
_cell_length_c   15.25387939
_cell_angle_alpha   83.04620287
_cell_angle_beta   83.04620177
_cell_angle_gamma   60.00000053
_symmetry_Int_Tables_number   1
_chemical_formula_structural   Zn2Ga2S5
_chemical_formula_sum   'Zn2 Ga2 S5'
_cell_volume   178.44774166
_cell_formula_units_Z   1
loop_
 _symmetry_equiv_pos_site_id
 _symmetry_equiv_pos_as_xyz
  1  'x, y, z'
loop_
 _atom_site_type_symbol
 _atom_site_label
 _atom_site_symmetry_multiplicity
 _atom_site_fract_x
 _atom_site_fract_y
 _atom_site_fract_z
 _atom_site_occupancy
  Zn  Zn0  1  0.86663731  0.86663731  0.40008808  1
  Zn  Zn1  1  0.13336269  0.13336269  0.59991192  1
  Ga  Ga2  1  0.72376904  0.72376904  0.82869287  1
  Ga  Ga3  1  0.27623096  0.27623096  0.17130713  1
  S  S4  1  0.50000000  0.50000000  0.50000000  1
  S  S5  1  0.77245997  0.77245997  0.68262009  1
  S  S6  1  0.22754003  0.22754003  0.31737991  1
  S  S7  1  0.63206741  0.63206741  0.10379778  1
  S  S8  1  0.36793259  0.36793259  0.89620222  1
