# generated using pymatgen
data_Ba6SrI14
_symmetry_space_group_name_H-M   'P 1'
_cell_length_a   15.86017645
_cell_length_b   15.86017645
_cell_length_c   8.83508934
_cell_angle_alpha   90.00000000
_cell_angle_beta   90.00000000
_cell_angle_gamma   99.03611670
_symmetry_Int_Tables_number   1
_chemical_formula_structural   Ba6SrI14
_chemical_formula_sum   'Ba12 Sr2 I28'
_cell_volume   2194.84296897
_cell_formula_units_Z   2
loop_
 _symmetry_equiv_pos_site_id
 _symmetry_equiv_pos_as_xyz
  1  'x, y, z'
loop_
 _atom_site_type_symbol
 _atom_site_label
 _atom_site_symmetry_multiplicity
 _atom_site_fract_x
 _atom_site_fract_y
 _atom_site_fract_z
 _atom_site_occupancy
  Ba  Ba0  1  0.05171418  0.75147675  0.32848137  1
  Ba  Ba1  1  0.24852325  0.94828582  0.67151863  1
  Ba  Ba2  1  0.25147675  0.55171418  0.17151863  1
  Ba  Ba3  1  0.44828582  0.74852325  0.82848137  1
  Ba  Ba4  1  0.69793376  0.69793376  0.24521453  1
  Ba  Ba5  1  0.19793376  0.19793376  0.25478547  1
  Ba  Ba6  1  0.30206624  0.30206624  0.75478547  1
  Ba  Ba7  1  0.80206624  0.80206624  0.74521453  1
  Ba  Ba8  1  0.74852325  0.44828582  0.82848137  1
  Ba  Ba9  1  0.55171418  0.25147675  0.17151863  1
  Ba  Ba10  1  0.75147675  0.05171418  0.32848137  1
  Ba  Ba11  1  0.94828582  0.24852325  0.67151863  1
  Sr  Sr12  1  0.00000000  0.00000000  0.00000000  1
  Sr  Sr13  1  0.50000000  0.50000000  0.50000000  1
  I  I14  1  0.15566760  0.96652483  0.23253626  1
  I  I15  1  0.03347517  0.84433240  0.76746374  1
  I  I16  1  0.25234301  0.74765699  0.00000000  1
  I  I17  1  0.45369552  0.95369552  0.75000000  1
  I  I18  1  0.04630448  0.54630448  0.25000000  1
  I  I19  1  0.24765699  0.75234301  0.50000000  1
  I  I20  1  0.15716907  0.35794927  0.00963448  1
  I  I21  1  0.14205073  0.34283093  0.50963448  1
  I  I22  1  0.64205073  0.84283093  0.99036552  1
  I  I23  1  0.65716907  0.85794927  0.49036552  1
  I  I24  1  0.46652483  0.65566760  0.26746374  1
  I  I25  1  0.34433240  0.53347517  0.73253626  1
  I  I26  1  0.12188188  0.12188188  0.77312873  1
  I  I27  1  0.37811812  0.37811812  0.27312873  1
  I  I28  1  0.62188188  0.62188188  0.72687127  1
  I  I29  1  0.87811812  0.87811812  0.22687127  1
  I  I30  1  0.53347517  0.34433240  0.73253626  1
  I  I31  1  0.65566760  0.46652483  0.26746374  1
  I  I32  1  0.84283093  0.64205073  0.99036552  1
  I  I33  1  0.34283093  0.14205073  0.50963448  1
  I  I34  1  0.35794927  0.15716907  0.00963448  1
  I  I35  1  0.85794927  0.65716907  0.49036552  1
  I  I36  1  0.75234301  0.24765699  0.50000000  1
  I  I37  1  0.54630448  0.04630448  0.25000000  1
  I  I38  1  0.95369552  0.45369552  0.75000000  1
  I  I39  1  0.74765699  0.25234301  0.00000000  1
  I  I40  1  0.96652483  0.15566760  0.23253626  1
  I  I41  1  0.84433240  0.03347517  0.76746374  1
