# generated using pymatgen
data_Na5Bi2As(CO4)4
_symmetry_space_group_name_H-M   'P 1'
_cell_length_a   10.53529296
_cell_length_b   10.34294388
_cell_length_c   10.53529296
_cell_angle_alpha   60.45453067
_cell_angle_beta   89.03029221
_cell_angle_gamma   119.54546933
_symmetry_Int_Tables_number   1
_chemical_formula_structural   Na5Bi2As(CO4)4
_chemical_formula_sum   'Na10 Bi4 As2 C8 O32'
_cell_volume   815.92816543
_cell_formula_units_Z   2
loop_
 _symmetry_equiv_pos_site_id
 _symmetry_equiv_pos_as_xyz
  1  'x, y, z'
loop_
 _atom_site_type_symbol
 _atom_site_label
 _atom_site_symmetry_multiplicity
 _atom_site_fract_x
 _atom_site_fract_y
 _atom_site_fract_z
 _atom_site_occupancy
  Na  Na0  1  0.92488879  0.24070803  0.32590208  1
  Na  Na1  1  0.67379437  0.35784735  0.07505995  1
  Na  Na2  1  0.67409792  0.74070803  0.07511121  1
  Na  Na3  1  0.93187087  0.25000000  0.93187087  1
  Na  Na4  1  0.92494005  0.85784735  0.32620563  1
  Na  Na5  1  0.06812913  0.75000000  0.06812913  1
  Na  Na6  1  0.07505995  0.14215265  0.67379437  1
  Na  Na7  1  0.32590208  0.25929197  0.92488879  1
  Na  Na8  1  0.32620563  0.64215265  0.92494005  1
  Na  Na9  1  0.07511121  0.75929197  0.67409792  1
  Bi  Bi10  1  0.50000000  0.00000000  0.00000000  1
  Bi  Bi11  1  0.50000000  0.00000000  0.50000000  1
  Bi  Bi12  1  0.50000000  0.50000000  0.50000000  1
  Bi  Bi13  1  0.00000000  0.50000000  0.50000000  1
  As  As14  1  0.12610165  0.25000000  0.12610165  1
  As  As15  1  0.87389835  0.75000000  0.87389835  1
  C  C16  1  0.71904883  0.05889363  0.72205580  1
  C  C17  1  0.72756869  0.44648860  0.33605698  1
  C  C18  1  0.33605698  0.05351140  0.72756869  1
  C  C19  1  0.72205580  0.44110637  0.71904883  1
  C  C20  1  0.66394302  0.94648860  0.27243131  1
  C  C21  1  0.27794420  0.55889363  0.28095117  1
  C  C22  1  0.28095117  0.94110637  0.27794420  1
  C  C23  1  0.27243131  0.55351140  0.66394302  1
  O  O24  1  0.66775584  0.06546227  0.14001482  1
  O  O25  1  0.85062757  0.18478939  0.60521860  1
  O  O26  1  0.71365024  0.31370686  0.33653054  1
  O  O27  1  0.40304555  0.04985246  0.28996700  1
  O  O28  1  0.85998518  0.56546227  0.33224416  1
  O  O29  1  0.32489934  0.38946678  0.04521436  1
  O  O30  1  0.05726850  0.11284635  0.05842903  1
  O  O31  1  0.61426857  0.46334388  0.33589016  1
  O  O32  1  0.71216349  0.04459572  0.85319545  1
  O  O33  1  0.33589016  0.03665612  0.61426857  1
  O  O34  1  0.85319545  0.45540428  0.71216349  1
  O  O35  1  0.05842903  0.38715365  0.05726850  1
  O  O36  1  0.04521436  0.11053322  0.32489934  1
  O  O37  1  0.66346946  0.81370686  0.28634976  1
  O  O38  1  0.39478140  0.68478939  0.14937243  1
  O  O39  1  0.71003300  0.54985246  0.59695445  1
  O  O40  1  0.28996700  0.45014754  0.40304555  1
  O  O41  1  0.60521860  0.31521061  0.85062757  1
  O  O42  1  0.33653054  0.18629314  0.71365024  1
  O  O43  1  0.94157097  0.61284635  0.94273150  1
  O  O44  1  0.95478564  0.88946678  0.67510066  1
  O  O45  1  0.14680455  0.54459572  0.28783651  1
  O  O46  1  0.66410984  0.96334388  0.38573143  1
  O  O47  1  0.28783651  0.95540428  0.14680455  1
  O  O48  1  0.38573143  0.53665612  0.66410984  1
  O  O49  1  0.94273150  0.88715365  0.94157097  1
  O  O50  1  0.67510066  0.61053322  0.95478564  1
  O  O51  1  0.14001482  0.43453773  0.66775584  1
  O  O52  1  0.59695445  0.95014754  0.71003300  1
  O  O53  1  0.28634976  0.68629314  0.66346946  1
  O  O54  1  0.14937243  0.81521061  0.39478140  1
  O  O55  1  0.33224416  0.93453773  0.85998518  1
