# generated using pymatgen
data_Li2Si3NiO8
_symmetry_space_group_name_H-M   'P 1'
_cell_length_a   7.93531872
_cell_length_b   7.93529861
_cell_length_c   7.93516997
_cell_angle_alpha   89.99997336
_cell_angle_beta   89.99999126
_cell_angle_gamma   90.00006123
_symmetry_Int_Tables_number   1
_chemical_formula_structural   Li2Si3NiO8
_chemical_formula_sum   'Li8 Si12 Ni4 O32'
_cell_volume   499.67069870
_cell_formula_units_Z   4
loop_
 _symmetry_equiv_pos_site_id
 _symmetry_equiv_pos_as_xyz
  1  'x, y, z'
loop_
 _atom_site_type_symbol
 _atom_site_label
 _atom_site_symmetry_multiplicity
 _atom_site_fract_x
 _atom_site_fract_y
 _atom_site_fract_z
 _atom_site_occupancy
  Li  Li0  1  0.00783094  0.00783327  0.00782692  1
  Li  Li1  1  0.24215835  0.24216179  0.24216563  1
  Li  Li2  1  0.25784060  0.75784276  0.74216387  1
  Li  Li3  1  0.49217186  0.99217001  0.50782776  1
  Li  Li4  1  0.50782897  0.49217103  0.99217612  1
  Li  Li5  1  0.74215941  0.25784297  0.75783885  1
  Li  Li6  1  0.75784140  0.74216477  0.25784181  1
  Li  Li7  1  0.99217138  0.50783278  0.49217451  1
  Si  Si8  1  0.11493878  0.13504688  0.62501202  1
  Si  Si9  1  0.12501612  0.38507864  0.86495037  1
  Si  Si10  1  0.13505027  0.62501157  0.11493073  1
  Si  Si11  1  0.36494916  0.37499679  0.61492989  1
  Si  Si12  1  0.37498669  0.61492998  0.36494524  1
  Si  Si13  1  0.38505720  0.86495860  0.12501266  1
  Si  Si14  1  0.61494172  0.36496129  0.37498982  1
  Si  Si15  1  0.62501568  0.11493005  0.13505564  1
  Si  Si16  1  0.63505474  0.87499199  0.88507361  1
  Si  Si17  1  0.86494593  0.12501183  0.38507428  1
  Si  Si18  1  0.87498454  0.88507345  0.63506199  1
  Si  Si19  1  0.88505936  0.63504367  0.87499458  1
  Ni  Ni20  1  0.12499148  0.87500416  0.37500763  1
  Ni  Ni21  1  0.37500136  0.12500039  0.87500433  1
  Ni  Ni22  1  0.62499536  0.62499921  0.62499909  1
  Ni  Ni23  1  0.87500527  0.37499731  0.12499889  1
  O  O24  1  0.08740994  0.13385489  0.39885485  1
  O  O25  1  0.10113863  0.91259117  0.63385856  1
  O  O26  1  0.11859573  0.61860228  0.88140548  1
  O  O27  1  0.11616118  0.16259474  0.85117997  1
  O  O28  1  0.13385042  0.39885960  0.08741130  1
  O  O29  1  0.13141907  0.36858855  0.63141925  1
  O  O30  1  0.14883025  0.61616096  0.33741019  1
  O  O31  1  0.16258497  0.85117028  0.11616208  1
  O  O32  1  0.33741336  0.14883771  0.61615917  1
  O  O33  1  0.35117206  0.38384528  0.83740997  1
  O  O34  1  0.36858136  0.63141977  0.13141563  1
  O  O35  1  0.36615161  0.60114601  0.58740853  1
  O  O36  1  0.38383919  0.83741110  0.35117749  1
  O  O37  1  0.38140440  0.38140459  0.38140077  1
  O  O38  1  0.39886041  0.08741597  0.13385390  1
  O  O39  1  0.41258835  0.86615144  0.89885215  1
  O  O40  1  0.58741258  0.36615224  0.60114945  1
  O  O41  1  0.60114113  0.58741681  0.36614701  1
  O  O42  1  0.61859579  0.88140254  0.11860221  1
  O  O43  1  0.61616100  0.33741003  0.14882349  1
  O  O44  1  0.63385070  0.10114388  0.91259373  1
  O  O45  1  0.63141853  0.13142027  0.36858703  1
  O  O46  1  0.64883093  0.88384401  0.66259663  1
  O  O47  1  0.66258452  0.64883381  0.88384453  1
  O  O48  1  0.83741557  0.35116971  0.38384061  1
  O  O49  1  0.85117036  0.11615686  0.16259536  1
  O  O50  1  0.86858129  0.86858415  0.86859062  1
  O  O51  1  0.86614811  0.89886090  0.41259758  1
  O  O52  1  0.88384046  0.66259280  0.64882743  1
  O  O53  1  0.88140364  0.11860414  0.61860376  1
  O  O54  1  0.89886143  0.41258644  0.86615121  1
  O  O55  1  0.91258646  0.63385188  0.10115477  1
