# generated using pymatgen
data_LiV(CO3)2
_symmetry_space_group_name_H-M   'P 1'
_cell_length_a   7.21061408
_cell_length_b   4.62407499
_cell_length_c   6.17762195
_cell_angle_alpha   90.00000000
_cell_angle_beta   101.95264853
_cell_angle_gamma   90.00000000
_symmetry_Int_Tables_number   1
_chemical_formula_structural   LiV(CO3)2
_chemical_formula_sum   'Li2 V2 C4 O12'
_cell_volume   201.51110164
_cell_formula_units_Z   2
loop_
 _symmetry_equiv_pos_site_id
 _symmetry_equiv_pos_as_xyz
  1  'x, y, z'
loop_
 _atom_site_type_symbol
 _atom_site_label
 _atom_site_symmetry_multiplicity
 _atom_site_fract_x
 _atom_site_fract_y
 _atom_site_fract_z
 _atom_site_occupancy
  Li  Li0  1  0.43914240  0.70612282  0.82158012  1
  Li  Li1  1  0.56085760  0.20612282  0.17841988  1
  V  V2  1  0.09071676  0.23952487  0.27068205  1
  V  V3  1  0.90928324  0.73952487  0.72931795  1
  C  C4  1  0.11789077  0.21980429  0.77017255  1
  C  C5  1  0.36359833  0.73296262  0.26410056  1
  C  C6  1  0.63640167  0.23296262  0.73589944  1
  C  C7  1  0.88210923  0.71980429  0.22982745  1
  O  O8  1  0.06750450  0.07656125  0.93147311  1
  O  O9  1  0.16029402  0.48742861  0.78654175  1
  O  O10  1  0.10794439  0.06533346  0.59243890  1
  O  O11  1  0.26664317  0.57311784  0.37185586  1
  O  O12  1  0.34128719  0.01614902  0.27326584  1
  O  O13  1  0.48102048  0.62999521  0.15577534  1
  O  O14  1  0.51897952  0.12999521  0.84422466  1
  O  O15  1  0.65871281  0.51614902  0.72673416  1
  O  O16  1  0.73335683  0.07311784  0.62814414  1
  O  O17  1  0.89205561  0.56533346  0.40756110  1
  O  O18  1  0.83970598  0.98742861  0.21345825  1
  O  O19  1  0.93249550  0.57656125  0.06852689  1
