# generated using pymatgen
data_DyNbO4
_symmetry_space_group_name_H-M   'P 1'
_cell_length_a   6.17901252
_cell_length_b   6.17901252
_cell_length_c   6.17901252
_cell_angle_alpha   107.22993660
_cell_angle_beta   107.22993660
_cell_angle_gamma   114.05326407
_symmetry_Int_Tables_number   1
_chemical_formula_structural   DyNbO4
_chemical_formula_sum   'Dy2 Nb2 O8'
_cell_volume   180.72982936
_cell_formula_units_Z   2
loop_
 _symmetry_equiv_pos_site_id
 _symmetry_equiv_pos_as_xyz
  1  'x, y, z'
loop_
 _atom_site_type_symbol
 _atom_site_label
 _atom_site_symmetry_multiplicity
 _atom_site_fract_x
 _atom_site_fract_y
 _atom_site_fract_z
 _atom_site_occupancy
  Dy  Dy0  1  0.62500000  0.37500000  0.25000000  1
  Dy  Dy1  1  0.37500000  0.62500000  0.75000000  1
  Nb  Nb2  1  0.87500000  0.12500000  0.75000000  1
  Nb  Nb3  1  0.12500000  0.87500000  0.25000000  1
  O  O4  1  0.69282557  0.13592702  0.94310146  1
  O  O5  1  0.25027589  0.30717443  0.94310146  1
  O  O6  1  0.86407298  0.30717443  0.55689854  1
  O  O7  1  0.69282557  0.74972411  0.55689854  1
  O  O8  1  0.30717443  0.25027589  0.44310146  1
  O  O9  1  0.74972411  0.69282557  0.05689854  1
  O  O10  1  0.13592702  0.69282557  0.44310146  1
  O  O11  1  0.30717443  0.86407298  0.05689854  1
