# generated using pymatgen
data_Zn2Ga2S5
_symmetry_space_group_name_H-M   'P 1'
_cell_length_a   3.69911158
_cell_length_b   3.69911158
_cell_length_c   30.26071643
_cell_angle_alpha   90.00000000
_cell_angle_beta   90.00000000
_cell_angle_gamma   119.99762452
_symmetry_Int_Tables_number   1
_chemical_formula_structural   Zn2Ga2S5
_chemical_formula_sum   'Zn4 Ga4 S10'
_cell_volume   358.60397271
_cell_formula_units_Z   2
loop_
 _symmetry_equiv_pos_site_id
 _symmetry_equiv_pos_as_xyz
  1  'x, y, z'
loop_
 _atom_site_type_symbol
 _atom_site_label
 _atom_site_symmetry_multiplicity
 _atom_site_fract_x
 _atom_site_fract_y
 _atom_site_fract_z
 _atom_site_occupancy
  Zn  Zn0  1  0.00000727  0.99999273  0.20058365  1
  Zn  Zn1  1  0.99999273  0.00000727  0.79941635  1
  Zn  Zn2  1  0.99999273  0.00000727  0.70058365  1
  Zn  Zn3  1  0.00000727  0.99999273  0.29941635  1
  Ga  Ga4  1  0.66667437  0.33332563  0.08633313  1
  Ga  Ga5  1  0.33332563  0.66667437  0.91366687  1
  Ga  Ga6  1  0.33332563  0.66667437  0.58633313  1
  Ga  Ga7  1  0.66667437  0.33332563  0.41366687  1
  S  S8  1  0.66669108  0.33330892  0.75000000  1
  S  S9  1  0.33330892  0.66669108  0.25000000  1
  S  S10  1  0.66668321  0.33331679  0.15952900  1
  S  S11  1  0.33331679  0.66668321  0.84047100  1
  S  S12  1  0.33331679  0.66668321  0.65952900  1
  S  S13  1  0.66668321  0.33331679  0.34047100  1
  S  S14  1  0.33333091  0.66666909  0.05270167  1
  S  S15  1  0.66666909  0.33333091  0.94729833  1
  S  S16  1  0.66666909  0.33333091  0.55270167  1
  S  S17  1  0.33333091  0.66666909  0.44729833  1
