# generated using pymatgen
data_Sn2(SO4)3
_symmetry_space_group_name_H-M   'P 1'
_cell_length_a   9.19060735
_cell_length_b   9.19060735
_cell_length_c   9.19060756
_cell_angle_alpha   59.99873536
_cell_angle_beta   59.99873536
_cell_angle_gamma   59.99873762
_symmetry_Int_Tables_number   1
_chemical_formula_structural   Sn2(SO4)3
_chemical_formula_sum   'Sn4 S6 O24'
_cell_volume   548.91513184
_cell_formula_units_Z   2
loop_
 _symmetry_equiv_pos_site_id
 _symmetry_equiv_pos_as_xyz
  1  'x, y, z'
loop_
 _atom_site_type_symbol
 _atom_site_label
 _atom_site_symmetry_multiplicity
 _atom_site_fract_x
 _atom_site_fract_y
 _atom_site_fract_z
 _atom_site_occupancy
  Sn  Sn0  1  0.35987008  0.35987008  0.35987008  1
  Sn  Sn1  1  0.14012992  0.14012992  0.14012992  1
  Sn  Sn2  1  0.64012992  0.64012992  0.64012992  1
  Sn  Sn3  1  0.85987008  0.85987008  0.85987008  1
  S  S4  1  0.04595671  0.75000000  0.45404329  1
  S  S5  1  0.54595671  0.95404329  0.25000000  1
  S  S6  1  0.25000000  0.54595671  0.95404329  1
  S  S7  1  0.75000000  0.45404329  0.04595671  1
  S  S8  1  0.45404329  0.04595671  0.75000000  1
  S  S9  1  0.95404329  0.25000000  0.54595671  1
  O  O10  1  0.05851639  0.90038650  0.28020645  1
  O  O11  1  0.09961350  0.71979355  0.94148361  1
  O  O12  1  0.48928420  0.90195772  0.69392639  1
  O  O13  1  0.59804228  0.01071580  0.80607361  1
  O  O14  1  0.21979355  0.59961350  0.44148361  1
  O  O15  1  0.55851639  0.78020645  0.40038650  1
  O  O16  1  0.71979355  0.94148361  0.09961350  1
  O  O17  1  0.98928420  0.19392639  0.40195772  1
  O  O18  1  0.30607361  0.51071580  0.09804228  1
  O  O19  1  0.09804228  0.30607361  0.51071580  1
  O  O20  1  0.19392639  0.40195772  0.98928420  1
  O  O21  1  0.40038650  0.55851639  0.78020645  1
  O  O22  1  0.59961350  0.44148361  0.21979355  1
  O  O23  1  0.90195772  0.69392639  0.48928420  1
  O  O24  1  0.80607361  0.59804228  0.01071580  1
  O  O25  1  0.01071580  0.80607361  0.59804228  1
  O  O26  1  0.69392639  0.48928420  0.90195772  1
  O  O27  1  0.28020645  0.05851639  0.90038650  1
  O  O28  1  0.44148361  0.21979355  0.59961350  1
  O  O29  1  0.78020645  0.40038650  0.55851639  1
  O  O30  1  0.51071580  0.09804228  0.30607361  1
  O  O31  1  0.40195772  0.98928420  0.19392639  1
  O  O32  1  0.90038650  0.28020645  0.05851639  1
  O  O33  1  0.94148361  0.09961350  0.71979355  1
