# generated using pymatgen
data_Ti2(SO4)3
_symmetry_space_group_name_H-M   'P 1'
_cell_length_a   8.58491435
_cell_length_b   8.58491435
_cell_length_c   8.99881017
_cell_angle_alpha   61.51016891
_cell_angle_beta   61.51016889
_cell_angle_gamma   59.99999343
_symmetry_Int_Tables_number   1
_chemical_formula_structural   Ti2(SO4)3
_chemical_formula_sum   'Ti4 S6 O24'
_cell_volume   479.38781855
_cell_formula_units_Z   2
loop_
 _symmetry_equiv_pos_site_id
 _symmetry_equiv_pos_as_xyz
  1  'x, y, z'
loop_
 _atom_site_type_symbol
 _atom_site_label
 _atom_site_symmetry_multiplicity
 _atom_site_fract_x
 _atom_site_fract_y
 _atom_site_fract_z
 _atom_site_occupancy
  Ti  Ti0  1  0.14451869  0.14451869  0.56644394  1
  Ti  Ti1  1  0.85548131  0.85548131  0.43355606  1
  Ti  Ti2  1  0.35150182  0.35150182  0.94549453  1
  Ti  Ti3  1  0.64849818  0.64849818  0.05450547  1
  S  S4  1  0.24933319  0.96288839  0.24962527  1
  S  S5  1  0.96288839  0.53815315  0.24962527  1
  S  S6  1  0.53815315  0.24933319  0.24962527  1
  S  S7  1  0.75066681  0.03711161  0.75037473  1
  S  S8  1  0.03711161  0.46184685  0.75037473  1
  S  S9  1  0.46184685  0.75066681  0.75037473  1
  O  O10  1  0.20970730  0.99011192  0.41672893  1
  O  O11  1  0.99011192  0.38345186  0.41672893  1
  O  O12  1  0.38345186  0.20970730  0.41672893  1
  O  O13  1  0.79029270  0.00988808  0.58327107  1
  O  O14  1  0.00988808  0.61654814  0.58327107  1
  O  O15  1  0.61654814  0.79029270  0.58327107  1
  O  O16  1  0.24006173  0.14426958  0.10099150  1
  O  O17  1  0.14426958  0.51467720  0.10099150  1
  O  O18  1  0.51467720  0.24006173  0.10099150  1
  O  O19  1  0.75993827  0.85573042  0.89900850  1
  O  O20  1  0.85573042  0.48532280  0.89900850  1
  O  O21  1  0.48532280  0.75993827  0.89900850  1
  O  O22  1  0.10571411  0.90080564  0.27051419  1
  O  O23  1  0.90080564  0.72296606  0.27051419  1
  O  O24  1  0.72296606  0.10571411  0.27051419  1
  O  O25  1  0.89428589  0.09919436  0.72948581  1
  O  O26  1  0.09919436  0.27703394  0.72948581  1
  O  O27  1  0.27703394  0.89428589  0.72948581  1
  O  O28  1  0.43995627  0.81714941  0.21033345  1
  O  O29  1  0.81714941  0.53256087  0.21033345  1
  O  O30  1  0.53256087  0.43995627  0.21033345  1
  O  O31  1  0.56004373  0.18285059  0.78966655  1
  O  O32  1  0.18285059  0.46743913  0.78966655  1
  O  O33  1  0.46743913  0.56004373  0.78966655  1
