# generated using pymatgen
data_Li3CaPCO7
_symmetry_space_group_name_H-M   'P 1'
_cell_length_a   8.92130834
_cell_length_b   6.95336513
_cell_length_c   4.92766941
_cell_angle_alpha   90.00000000
_cell_angle_beta   85.90884342
_cell_angle_gamma   90.00000000
_symmetry_Int_Tables_number   1
_chemical_formula_structural   Li3CaPCO7
_chemical_formula_sum   'Li6 Ca2 P2 C2 O14'
_cell_volume   304.89975150
_cell_formula_units_Z   2
loop_
 _symmetry_equiv_pos_site_id
 _symmetry_equiv_pos_as_xyz
  1  'x, y, z'
loop_
 _atom_site_type_symbol
 _atom_site_label
 _atom_site_symmetry_multiplicity
 _atom_site_fract_x
 _atom_site_fract_y
 _atom_site_fract_z
 _atom_site_occupancy
  Li  Li0  1  0.07801002  0.25000000  0.74442723  1
  Li  Li1  1  0.26218807  0.04962089  0.23196671  1
  Li  Li2  1  0.26218807  0.45037911  0.23196671  1
  Li  Li3  1  0.73781193  0.54962089  0.76803329  1
  Li  Li4  1  0.73781193  0.95037911  0.76803329  1
  Li  Li5  1  0.92198998  0.75000000  0.25557277  1
  Ca  Ca6  1  0.34927719  0.75000000  0.76207059  1
  Ca  Ca7  1  0.65072281  0.25000000  0.23792941  1
  P  P8  1  0.40033831  0.25000000  0.71269136  1
  P  P9  1  0.59966169  0.75000000  0.28730864  1
  C  C10  1  0.03653513  0.75000000  0.71599552  1
  C  C11  1  0.96346487  0.25000000  0.28400448  1
  O  O12  1  0.07810018  0.75000000  0.96196287  1
  O  O13  1  0.10639564  0.25000000  0.33165034  1
  O  O14  1  0.13504366  0.75000000  0.50901732  1
  O  O15  1  0.31221787  0.07223982  0.83059829  1
  O  O16  1  0.31221787  0.42776018  0.83059829  1
  O  O17  1  0.39869493  0.25000000  0.39543092  1
  O  O18  1  0.43053318  0.75000000  0.22368073  1
  O  O19  1  0.56946682  0.25000000  0.77631927  1
  O  O20  1  0.60130507  0.75000000  0.60456908  1
  O  O21  1  0.68778213  0.57223982  0.16940171  1
  O  O22  1  0.68778213  0.92776018  0.16940171  1
  O  O23  1  0.86495634  0.25000000  0.49098268  1
  O  O24  1  0.89360436  0.75000000  0.66834966  1
  O  O25  1  0.92189982  0.25000000  0.03803713  1
