# generated using pymatgen
data_LiLa8V8O32
_symmetry_space_group_name_H-M   'P 1'
_cell_length_a   7.19310226
_cell_length_b   7.37184821
_cell_length_c   13.75985504
_cell_angle_alpha   88.58314393
_cell_angle_beta   106.04496934
_cell_angle_gamma   91.84071141
_symmetry_Int_Tables_number   1
_chemical_formula_structural   LiLa8V8O32
_chemical_formula_sum   'Li1 La8 V8 O32'
_cell_volume   700.75620093
_cell_formula_units_Z   1
loop_
 _symmetry_equiv_pos_site_id
 _symmetry_equiv_pos_as_xyz
  1  'x, y, z'
loop_
 _atom_site_type_symbol
 _atom_site_label
 _atom_site_symmetry_multiplicity
 _atom_site_fract_x
 _atom_site_fract_y
 _atom_site_fract_z
 _atom_site_occupancy
  Li  Li0  1  0.85713077  0.69792606  0.86240331  1
  La  La1  1  0.22079699  0.65446472  0.70360968  1
  La  La2  1  0.27548330  0.15540347  0.54812742  1
  La  La3  1  0.21988738  0.65501623  0.19832738  1
  La  La4  1  0.27141070  0.16108835  0.04943600  1
  La  La5  1  0.69847473  0.88115372  0.97248685  1
  La  La6  1  0.78590266  0.32663359  0.79644140  1
  La  La7  1  0.71637865  0.84497542  0.45211038  1
  La  La8  1  0.77974588  0.34605469  0.30023581  1
  V  V9  1  0.22004174  0.66178037  0.94655885  1
  V  V10  1  0.29448804  0.16599386  0.80522689  1
  V  V11  1  0.19538790  0.66600053  0.44273867  1
  V  V12  1  0.29850465  0.16341361  0.30657520  1
  V  V13  1  0.69429802  0.83539394  0.68908267  1
  V  V14  1  0.79869106  0.33229615  0.55569128  1
  V  V15  1  0.69611748  0.83651781  0.20328933  1
  V  V16  1  0.80266492  0.35402067  0.05477489  1
  O  O17  1  0.04224189  0.58156192  0.82922000  1
  O  O18  1  0.11041650  0.21030781  0.86099773  1
  O  O19  1  0.01448427  0.60273063  0.33629615  1
  O  O20  1  0.10967131  0.84468915  0.49884735  1
  O  O21  1  0.24661791  0.99964691  0.71197699  1
  O  O22  1  0.11758099  0.22048966  0.36234229  1
  O  O23  1  0.39871799  0.73052176  0.88341067  1
  O  O24  1  0.25054188  0.49693874  0.53745695  1
  O  O25  1  0.38077967  0.34801484  0.74703136  1
  O  O26  1  0.47654062  0.12149399  0.91605229  1
  O  O27  1  0.08529377  0.83570951  0.99050356  1
  O  O28  1  0.24083729  0.99834460  0.21171913  1
  O  O29  1  0.37960429  0.72160134  0.38637097  1
  O  O30  1  0.50892819  0.89488348  0.58502697  1
  O  O31  1  0.26039489  0.49293049  0.04832946  1
  O  O32  1  0.62665552  0.63870843  0.74384564  1
  O  O33  1  0.38832230  0.34467994  0.24825221  1
  O  O34  1  0.76092911  0.52359745  0.95838378  1
  O  O35  1  0.48127799  0.10457081  0.41285529  1
  O  O36  1  0.61805498  0.27071347  0.61502830  1
  O  O37  1  0.75519294  0.98349857  0.79347746  1
  O  O38  1  0.88629605  0.17230081  0.99927647  1
  O  O39  1  0.50935778  0.89675428  0.09703416  1
  O  O40  1  0.61095926  0.65140210  0.25938147  1
  O  O41  1  0.74629497  0.50242228  0.46198604  1
  O  O42  1  0.62075342  0.28671089  0.11006655  1
  O  O43  1  0.87840806  0.78936845  0.63431112  1
  O  O44  1  0.75307389  0.00357988  0.29488126  1
  O  O45  1  0.88819414  0.15607097  0.50073966  1
  O  O46  1  0.97947729  0.39483905  0.66162057  1
  O  O47  1  0.87482572  0.78992073  0.14488510  1
  O  O48  1  0.97996125  0.40615385  0.16432204  1
