# generated using pymatgen
data_Zn2Ga2S5
_symmetry_space_group_name_H-M   'P 1'
_cell_length_a   3.74621367
_cell_length_b   3.74621428
_cell_length_c   15.40965401
_cell_angle_alpha   83.01819547
_cell_angle_beta   83.01819484
_cell_angle_gamma   59.99999461
_symmetry_Int_Tables_number   1
_chemical_formula_structural   Zn2Ga2S5
_chemical_formula_sum   'Zn2 Ga2 S5'
_cell_volume   185.43343185
_cell_formula_units_Z   1
loop_
 _symmetry_equiv_pos_site_id
 _symmetry_equiv_pos_as_xyz
  1  'x, y, z'
loop_
 _atom_site_type_symbol
 _atom_site_label
 _atom_site_symmetry_multiplicity
 _atom_site_fract_x
 _atom_site_fract_y
 _atom_site_fract_z
 _atom_site_occupancy
  Zn  Zn0  1  0.31063161  0.31063161  0.06810516  1
  Zn  Zn1  1  0.48282154  0.48282154  0.55153538  1
  Ga  Ga2  1  0.89534480  0.89534480  0.31396559  1
  Ga  Ga3  1  0.07832393  0.07832393  0.76502821  1
  S  S4  1  0.99345791  0.99345791  0.01962627  1
  S  S5  1  0.53178351  0.53178351  0.40464948  1
  S  S6  1  0.39230438  0.39230438  0.82308687  1
  S  S7  1  0.25471442  0.25471442  0.23585675  1
  S  S8  1  0.12861790  0.12861790  0.61414629  1
