# generated using pymatgen
data_Li4Ti4V(Fe2O9)2
_symmetry_space_group_name_H-M   'P 1'
_cell_length_a   9.23969415
_cell_length_b   25.46873206
_cell_length_c   2.95209579
_cell_angle_alpha   89.99996434
_cell_angle_beta   90.00001588
_cell_angle_gamma   90.01964835
_symmetry_Int_Tables_number   1
_chemical_formula_structural   Li4Ti4V(Fe2O9)2
_chemical_formula_sum   'Li8 Ti8 V2 Fe8 O36'
_cell_volume   694.69686630
_cell_formula_units_Z   2
loop_
 _symmetry_equiv_pos_site_id
 _symmetry_equiv_pos_as_xyz
  1  'x, y, z'
loop_
 _atom_site_type_symbol
 _atom_site_label
 _atom_site_symmetry_multiplicity
 _atom_site_fract_x
 _atom_site_fract_y
 _atom_site_fract_z
 _atom_site_occupancy
  Li  Li0  1  0.19772602  0.98867031  0.99999784  1
  Li  Li1  1  0.19616551  0.18401706  0.00000013  1
  Li  Li2  1  0.30374308  0.68396015  0.99999935  1
  Li  Li3  1  0.30224923  0.48858296  0.99999973  1
  Li  Li4  1  0.69776228  0.51136675  0.00000124  1
  Li  Li5  1  0.69612802  0.31592537  0.00000244  1
  Li  Li6  1  0.80422949  0.81583245  -0.00000026  1
  Li  Li7  1  0.80218707  0.01146060  0.00000062  1
  Ti  Ti8  1  0.99911596  0.09967461  0.00000178  1
  Ti  Ti9  1  0.15830142  0.80975480  0.49999952  1
  Ti  Ti10  1  0.34183336  0.30972909  0.50000204  1
  Ti  Ti11  1  0.50084459  0.59962238  0.99999763  1
  Ti  Ti12  1  0.49918417  0.40036170  0.99999637  1
  Ti  Ti13  1  0.65814928  0.69028401  0.50000048  1
  Ti  Ti14  1  0.84173744  0.19029213  0.50000051  1
  Ti  Ti15  1  0.00080051  0.90037078  0.99999691  1
  V  V16  1  0.00002753  0.49995958  -0.00000002  1
  V  V17  1  0.50002995  0.00003168  0.00000002  1
  Fe  Fe18  1  0.99919503  0.30563263  0.00000380  1
  Fe  Fe19  1  0.15150492  0.58609876  0.49999870  1
  Fe  Fe20  1  0.34843978  0.08613304  0.49999770  1
  Fe  Fe21  1  0.50089231  0.80561600  0.99999827  1
  Fe  Fe22  1  0.49911536  0.19439122  0.00000050  1
  Fe  Fe23  1  0.65156667  0.91386363  0.49999754  1
  Fe  Fe24  1  0.84854467  0.41383169  0.49999837  1
  Fe  Fe25  1  0.00078804  0.69439114  -0.00000143  1
  O  O26  1  0.99290519  0.42552342  0.99999822  1
  O  O27  1  0.00713531  0.57436967  0.00000042  1
  O  O28  1  0.06159478  0.94319995  0.49999851  1
  O  O29  1  0.04334642  0.15587244  0.49999932  1
  O  O30  1  0.12741848  0.66488598  0.49999900  1
  O  O31  1  0.10224378  0.76138780  0.99999936  1
  O  O32  1  0.14795134  0.50323953  0.49999850  1
  O  O33  1  0.13918019  0.29141327  0.50000374  1
  O  O34  1  0.18701720  0.85847498  0.99999926  1
  O  O35  1  0.19893086  0.08264201  0.00000191  1
  O  O36  1  0.30098189  0.58259974  -0.00000030  1
  O  O37  1  0.31300086  0.35845859  0.00000254  1
  O  O38  1  0.36084509  0.79140892  0.50000075  1
  O  O39  1  0.35204789  0.00330247  0.49999998  1
  O  O40  1  0.39778083  0.26138819  -0.00000006  1
  O  O41  1  0.37239651  0.16493796  0.50000042  1
  O  O42  1  0.45658634  0.65583147  0.49999789  1
  O  O43  1  0.43842788  0.44318735  0.50000070  1
  O  O44  1  0.49286642  0.07447773  0.00000158  1
  O  O45  1  0.50716254  0.92561152  0.00000092  1
  O  O46  1  0.56163363  0.55681481  0.49999821  1
  O  O47  1  0.54335107  0.34415044  0.50000423  1
  O  O48  1  0.62762191  0.83507941  0.49999782  1
  O  O49  1  0.60217284  0.73860751  0.99999820  1
  O  O50  1  0.64796521  0.99675969  0.50000018  1
  O  O51  1  0.63918437  0.20863332  0.50000012  1
  O  O52  1  0.68697527  0.64155874  0.99999823  1
  O  O53  1  0.69901613  0.41735917  0.00000248  1
  O  O54  1  0.80103129  0.91739566  0.00000033  1
  O  O55  1  0.81295600  0.14155441  0.00000167  1
  O  O56  1  0.86078706  0.70864454  0.50000051  1
  O  O57  1  0.85210157  0.49668057  0.50000135  1
  O  O58  1  0.89771721  0.23864045  0.00000124  1
  O  O59  1  0.87243013  0.33506247  0.49999964  1
  O  O60  1  0.95664849  0.84415389  0.50000190  1
  O  O61  1  0.93832633  0.05683740  0.50000142  1
