# generated using pymatgen
data_Li4Ti4Mn(Fe2O9)2
_symmetry_space_group_name_H-M   'P 1'
_cell_length_a   9.19941521
_cell_length_b   25.44672031
_cell_length_c   2.94089755
_cell_angle_alpha   89.99982886
_cell_angle_beta   90.00030415
_cell_angle_gamma   90.00320150
_symmetry_Int_Tables_number   1
_chemical_formula_structural   Li4Ti4Mn(Fe2O9)2
_chemical_formula_sum   'Li8 Ti8 Mn2 Fe8 O36'
_cell_volume   688.44925195
_cell_formula_units_Z   2
loop_
 _symmetry_equiv_pos_site_id
 _symmetry_equiv_pos_as_xyz
  1  'x, y, z'
loop_
 _atom_site_type_symbol
 _atom_site_label
 _atom_site_symmetry_multiplicity
 _atom_site_fract_x
 _atom_site_fract_y
 _atom_site_fract_z
 _atom_site_occupancy
  Li  Li0  1  0.19374701  0.98933665  0.00000158  1
  Li  Li1  1  0.19592904  0.19085617  0.99999935  1
  Li  Li2  1  0.30401587  0.69084369  0.99999764  1
  Li  Li3  1  0.30620363  0.48935369  0.00000243  1
  Li  Li4  1  0.69377783  0.51071731  0.99999785  1
  Li  Li5  1  0.69571855  0.30909446  0.00000256  1
  Li  Li6  1  0.80426984  0.80907319  0.99999856  1
  Li  Li7  1  0.80619695  0.01073417  0.00000181  1
  Ti  Ti8  1  0.00553945  0.09978908  0.99999149  1
  Ti  Ti9  1  0.15247371  0.80960989  0.50000857  1
  Ti  Ti10  1  0.34753077  0.30961132  0.50000093  1
  Ti  Ti11  1  0.49451399  0.59979366  0.00000515  1
  Ti  Ti12  1  0.50552100  0.40023661  0.99998236  1
  Ti  Ti13  1  0.65242216  0.69043490  0.50000414  1
  Ti  Ti14  1  0.84754724  0.19042426  0.49999894  1
  Ti  Ti15  1  0.99447571  0.90022974  0.99999678  1
  Mn  Mn16  1  -0.00007043  0.49996229  -0.00001300  1
  Mn  Mn17  1  0.50005509  -0.00008097  0.00003767  1
  Fe  Fe18  1  0.00613427  0.30537359  0.99998970  1
  Fe  Fe19  1  0.14389490  0.58769343  0.49999426  1
  Fe  Fe20  1  0.35608979  0.08766936  0.50000101  1
  Fe  Fe21  1  0.49385856  0.80537708  0.00000069  1
  Fe  Fe22  1  0.50615187  0.19463408  0.00000351  1
  Fe  Fe23  1  0.64394143  0.91226810  0.50000412  1
  Fe  Fe24  1  0.85604965  0.41228707  0.49999643  1
  Fe  Fe25  1  0.99382505  0.69463271  -0.00000170  1
  O  O26  1  0.99724998  0.42432356  -0.00000553  1
  O  O27  1  0.00270460  0.57562809  -0.00001139  1
  O  O28  1  0.05888650  0.94289482  0.50000844  1
  O  O29  1  0.04924925  0.15603535  0.49999699  1
  O  O30  1  0.12086941  0.66588446  0.50000263  1
  O  O31  1  0.09637457  0.76121505  0.00000971  1
  O  O32  1  0.14105548  0.50397890  0.49999305  1
  O  O33  1  0.14556240  0.28877142  0.49999315  1
  O  O34  1  0.18350053  0.85760173  0.00001140  1
  O  O35  1  0.20243884  0.08094369  -0.00000005  1
  O  O36  1  0.29756713  0.58095682  -0.00000191  1
  O  O37  1  0.31650430  0.35759832  0.00000299  1
  O  O38  1  0.35444265  0.78877581  0.50000710  1
  O  O39  1  0.35892809  0.00397220  0.49999851  1
  O  O40  1  0.40366133  0.26121783  0.00000547  1
  O  O41  1  0.37914868  0.16586164  0.50000462  1
  O  O42  1  0.45078119  0.65604417  0.49999783  1
  O  O43  1  0.44111202  0.44289346  0.49999619  1
  O  O44  1  0.49730248  0.07561983  -0.00000074  1
  O  O45  1  0.50274875  0.92430768  0.00000512  1
  O  O46  1  0.55895164  0.55713947  0.50000440  1
  O  O47  1  0.54920232  0.34397355  0.50001384  1
  O  O48  1  0.62098779  0.83409229  0.49999921  1
  O  O49  1  0.59633610  0.73881825  0.00000052  1
  O  O50  1  0.64111122  0.99599341  0.50000050  1
  O  O51  1  0.64556821  0.21125810  0.49999904  1
  O  O52  1  0.68346433  0.64244576  0.00000199  1
  O  O53  1  0.70242905  0.41905501  -0.00000583  1
  O  O54  1  0.79756799  0.91904842  0.00000537  1
  O  O55  1  0.81652777  0.14243225  0.99999305  1
  O  O56  1  0.85444148  0.71125692  0.49999553  1
  O  O57  1  0.85887143  0.49599274  0.49999075  1
  O  O58  1  0.90369847  0.23880012  0.99998423  1
  O  O59  1  0.87907259  0.33411190  0.49998342  1
  O  O60  1  0.95079739  0.84396548  0.50001999  1
  O  O61  1  0.94107215  0.05713593  0.49999758  1
