# generated using pymatgen
data_Li2Nb6NiO18
_symmetry_space_group_name_H-M   'P 1'
_cell_length_a   11.18404368
_cell_length_b   8.96129859
_cell_length_c   7.65656919
_cell_angle_alpha   113.42358240
_cell_angle_beta   96.51629847
_cell_angle_gamma   104.79273935
_symmetry_Int_Tables_number   1
_chemical_formula_structural   Li2Nb6NiO18
_chemical_formula_sum   'Li4 Nb12 Ni2 O36'
_cell_volume   660.50215724
_cell_formula_units_Z   2
loop_
 _symmetry_equiv_pos_site_id
 _symmetry_equiv_pos_as_xyz
  1  'x, y, z'
loop_
 _atom_site_type_symbol
 _atom_site_label
 _atom_site_symmetry_multiplicity
 _atom_site_fract_x
 _atom_site_fract_y
 _atom_site_fract_z
 _atom_site_occupancy
  Li  Li0  1  0.04794161  0.32665625  0.95313839  1
  Li  Li1  1  0.55113921  0.32868847  0.45505290  1
  Li  Li2  1  0.87715437  0.65427463  0.11018540  1
  Li  Li3  1  0.38421563  0.65823720  0.61596401  1
  Nb  Nb4  1  0.84150942  0.35485006  0.66596300  1
  Nb  Nb5  1  0.49275219  0.98728084  0.49473814  1
  Nb  Nb6  1  0.66734864  0.66945905  0.84157628  1
  Nb  Nb7  1  0.34436559  0.33080339  0.67860280  1
  Nb  Nb8  1  0.49506338  0.99368598  0.97430558  1
  Nb  Nb9  1  0.00573294  0.02262103  0.48899483  1
  Nb  Nb10  1  0.82760454  0.31669378  0.15114893  1
  Nb  Nb11  1  0.67959916  0.65732580  0.34400095  1
  Nb  Nb12  1  0.17099573  0.64533424  0.81984649  1
  Nb  Nb13  1  0.34318767  0.35176851  0.18572589  1
  Nb  Nb14  1  0.99722760  0.99083030  0.00085942  1
  Nb  Nb15  1  0.15511233  0.67341142  0.32997702  1
  Ni  Ni16  1  0.69618844  0.00272324  0.30546860  1
  Ni  Ni17  1  0.19470331  0.00162781  0.80311994  1
  O  O18  1  0.90466027  0.13683587  0.98841244  1
  O  O19  1  0.97970642  0.21828001  0.66079295  1
  O  O20  1  0.86500839  0.40585341  0.93427964  1
  O  O21  1  0.37261510  0.10722304  0.95739796  1
  O  O22  1  0.70927124  0.11675218  0.57022537  1
  O  O23  1  0.99523098  0.53176230  0.68106742  1
  O  O24  1  0.81536922  0.21940262  0.34430593  1
  O  O25  1  0.47745913  0.20815684  0.63143123  1
  O  O26  1  0.55466830  0.07747268  0.27436412  1
  O  O27  1  0.37291422  0.41090706  0.94336246  1
  O  O28  1  0.71909796  0.46134823  0.65151239  1
  O  O29  1  0.20720543  0.11193699  0.62886507  1
  O  O30  1  0.87319060  0.78677097  0.94685143  1
  O  O31  1  0.65853718  0.20302034  0.02280493  1
  O  O32  1  0.49460524  0.54203853  0.69780144  1
  O  O33  1  0.34219806  0.26122573  0.36539767  1
  O  O34  1  0.65126518  0.89111814  0.01990570  1
  O  O35  1  0.80972816  0.54212181  0.30325030  1
  O  O36  1  0.04876827  0.08604326  0.28237988  1
  O  O37  1  0.70416167  0.74335847  0.61169519  1
  O  O38  1  0.23547103  0.46905228  0.65328339  1
  O  O39  1  0.53601600  0.45811542  0.27554939  1
  O  O40  1  0.37025844  0.78965289  0.92321304  1
  O  O41  1  0.16933851  0.19270148  0.99881934  1
  O  O42  1  0.82221112  0.89526758  0.35634185  1
  O  O43  1  0.67702135  0.59634406  0.03461751  1
  O  O44  1  0.49986086  0.90342287  0.69168425  1
  O  O45  1  0.29811035  0.54234008  0.32511707  1
  O  O46  1  0.15114397  0.88826010  0.95539161  1
  O  O47  1  0.20400542  0.78023494  0.62399085  1
  O  O48  1  0.58023091  0.81707860  0.31437185  1
  O  O49  1  0.03383364  0.46144930  0.26105131  1
  O  O50  1  0.32837424  0.86391539  0.35695401  1
  O  O51  1  0.02061026  0.93228001  0.70214492  1
  O  O52  1  0.15538806  0.59069777  0.02853892  1
  O  O53  1  0.04242406  0.79128474  0.31235860  1
