# generated using pymatgen
data_Li7CuAs4ClO14
_symmetry_space_group_name_H-M   'P 1'
_cell_length_a   6.65671660
_cell_length_b   6.65671660
_cell_length_c   15.15804100
_cell_angle_alpha   85.74469447
_cell_angle_beta   94.25530553
_cell_angle_gamma   100.71693398
_symmetry_Int_Tables_number   1
_chemical_formula_structural   Li7CuAs4ClO14
_chemical_formula_sum   'Li14 Cu2 As8 Cl2 O28'
_cell_volume   656.89467292
_cell_formula_units_Z   2
loop_
 _symmetry_equiv_pos_site_id
 _symmetry_equiv_pos_as_xyz
  1  'x, y, z'
loop_
 _atom_site_type_symbol
 _atom_site_label
 _atom_site_symmetry_multiplicity
 _atom_site_fract_x
 _atom_site_fract_y
 _atom_site_fract_z
 _atom_site_occupancy
  Li  Li0  1  0.00611098  0.41376425  0.81938288  1
  Li  Li1  1  0.61734151  0.80039393  0.82256133  1
  Li  Li2  1  0.58623575  0.99388902  0.31938288  1
  Li  Li3  1  0.19960607  0.38265849  0.32256133  1
  Li  Li4  1  0.88926385  0.96056397  0.49536682  1
  Li  Li5  1  0.51582014  0.36549291  0.80864081  1
  Li  Li6  1  0.03943603  0.11073615  0.99536682  1
  Li  Li7  1  0.88019921  0.58154649  0.97353863  1
  Li  Li8  1  0.63450709  0.48417986  0.30864081  1
  Li  Li9  1  0.41845351  0.11980079  0.47353863  1
  Li  Li10  1  0.49582571  0.02349643  0.00432038  1
  Li  Li11  1  0.97650357  0.50417429  0.50432038  1
  Li  Li12  1  0.68962538  0.13158624  0.65837742  1
  Li  Li13  1  0.86841376  0.31037462  0.15837742  1
  Cu  Cu14  1  0.28784042  0.72082311  0.65991625  1
  Cu  Cu15  1  0.27917689  0.71215958  0.15991625  1
  As  As16  1  0.12987169  0.90164752  0.82983772  1
  As  As17  1  0.09835248  0.87012831  0.32983772  1
  As  As18  1  0.37200424  0.51945209  0.98294712  1
  As  As19  1  0.48054791  0.62799576  0.48294712  1
  As  As20  1  0.16937007  0.20278202  0.65508275  1
  As  As21  1  0.79721798  0.83062993  0.15508275  1
  As  As22  1  0.76241108  0.62078322  0.65716559  1
  As  As23  1  0.37921678  0.23758892  0.15716559  1
  Cl  Cl24  1  0.72451835  0.12659083  0.88462497  1
  Cl  Cl25  1  0.87340817  0.27548165  0.38462497  1
  O  O26  1  0.31227690  0.80043604  0.78221821  1
  O  O27  1  0.19956396  0.68772310  0.28221821  1
  O  O28  1  0.12042947  0.41677929  0.95954501  1
  O  O29  1  0.26888024  0.60767970  0.54251834  1
  O  O30  1  0.58322071  0.87957053  0.45954501  1
  O  O31  1  0.39231930  0.73111976  0.04251834  1
  O  O32  1  0.61228472  0.79166032  0.68132857  1
  O  O33  1  0.27036545  0.40059988  0.72124147  1
  O  O34  1  0.54193905  0.55626007  0.90341379  1
  O  O35  1  0.02241970  0.04707404  0.74109222  1
  O  O36  1  0.20833968  0.38771528  0.18132857  1
  O  O37  1  0.59940012  0.72963455  0.22124147  1
  O  O38  1  0.44373993  0.45806095  0.40341379  1
  O  O39  1  0.95292596  0.97758030  0.24109222  1
  O  O40  1  0.92515421  0.71714010  0.85536664  1
  O  O41  1  0.23615091  0.04997196  0.91290841  1
  O  O42  1  0.65706139  0.50798207  0.55501929  1
  O  O43  1  0.99161027  0.74108643  0.61934138  1
  O  O44  1  0.28285990  0.07484579  0.35536664  1
  O  O45  1  0.35374304  0.09963274  0.61029910  1
  O  O46  1  0.95002804  0.76384909  0.41290841  1
  O  O47  1  0.49201793  0.34293861  0.05501929  1
  O  O48  1  0.75518511  0.41006903  0.72816235  1
  O  O49  1  0.25891357  0.00838973  0.11934138  1
  O  O50  1  0.90036726  0.64625696  0.11029910  1
  O  O51  1  0.58993097  0.24481489  0.22816235  1
  O  O52  1  0.96182394  0.21929936  0.58321753  1
  O  O53  1  0.78070064  0.03817606  0.08321753  1
