# generated using pymatgen
data_Li11Fe(WO4)7
_symmetry_space_group_name_H-M   'P 1'
_cell_length_a   8.30213610
_cell_length_b   8.54673286
_cell_length_c   8.54673286
_cell_angle_alpha   89.80798132
_cell_angle_beta   90.44676613
_cell_angle_gamma   90.44676613
_symmetry_Int_Tables_number   1
_chemical_formula_structural   Li11Fe(WO4)7
_chemical_formula_sum   'Li11 Fe1 W7 O28'
_cell_volume   606.40301350
_cell_formula_units_Z   1
loop_
 _symmetry_equiv_pos_site_id
 _symmetry_equiv_pos_as_xyz
  1  'x, y, z'
loop_
 _atom_site_type_symbol
 _atom_site_label
 _atom_site_symmetry_multiplicity
 _atom_site_fract_x
 _atom_site_fract_y
 _atom_site_fract_z
 _atom_site_occupancy
  Li  Li0  1  0.10034534  0.34829466  0.64320447  1
  Li  Li1  1  0.10034534  0.64320447  0.34829466  1
  Li  Li2  1  0.35386457  0.08873174  0.64852284  1
  Li  Li3  1  0.35710526  0.34815057  0.91114493  1
  Li  Li4  1  0.35386457  0.64852284  0.08873174  1
  Li  Li5  1  0.35710526  0.91114493  0.34815057  1
  Li  Li6  1  0.64234280  0.09296636  0.34963293  1
  Li  Li7  1  0.64234280  0.34963293  0.09296636  1
  Li  Li8  1  0.63959746  0.64923450  0.90583052  1
  Li  Li9  1  0.63959746  0.90583052  0.64923450  1
  Li  Li10  1  0.90578074  0.35182917  0.35182917  1
  Fe  Fe11  1  0.87782762  0.63020532  0.63020532  1
  W  W12  1  -0.00043542  0.99237119  0.50047995  1
  W  W13  1  -0.00043542  0.50047995  0.99237119  1
  W  W14  1  0.36118161  0.35495813  0.35495813  1
  W  W15  1  0.34714327  0.64443655  0.64443655  1
  W  W16  1  0.50058133  0.99894218  0.99894218  1
  W  W17  1  0.63670866  0.35699959  0.64710201  1
  W  W18  1  0.63670866  0.64710201  0.35699959  1
  O  O19  1  0.14740684  0.38768319  0.38768319  1
  O  O20  1  0.12802609  0.62184778  0.62184778  1
  O  O21  1  0.12229919  0.11826510  0.62118391  1
  O  O22  1  0.12229919  0.62118391  0.11826510  1
  O  O23  1  0.12477434  0.37502669  0.87838923  1
  O  O24  1  0.12477434  0.87838923  0.37502669  1
  O  O25  1  0.37701645  0.12196714  0.87425297  1
  O  O26  1  0.37701645  0.87425297  0.12196714  1
  O  O27  1  0.39458335  0.39804787  0.61201345  1
  O  O28  1  0.39458335  0.61201345  0.39804787  1
  O  O29  1  0.38496079  0.14646842  0.38513116  1
  O  O30  1  0.38496079  0.38513116  0.14646842  1
  O  O31  1  0.38225372  0.61849056  0.85159336  1
  O  O32  1  0.38225372  0.85159336  0.61849056  1
  O  O33  1  0.62732075  0.14821998  0.61963285  1
  O  O34  1  0.62732075  0.61963285  0.14821998  1
  O  O35  1  0.61577521  0.38355735  0.85562111  1
  O  O36  1  0.61577521  0.85562111  0.38355735  1
  O  O37  1  0.61104497  0.39530757  0.39530757  1
  O  O38  1  0.62969621  0.61467173  0.61467173  1
  O  O39  1  0.62419789  0.12305906  0.12305906  1
  O  O40  1  0.62519045  0.87719200  0.87719200  1
  O  O41  1  0.87473815  0.11991539  0.38422787  1
  O  O42  1  0.87473815  0.38422787  0.11991539  1
  O  O43  1  0.87863419  0.62358906  0.85600745  1
  O  O44  1  0.87863419  0.85600745  0.62358906  1
  O  O45  1  0.85907619  0.40387411  0.62172301  1
  O  O46  1  0.85907619  0.62172301  0.40387411  1
