# generated using pymatgen
data_Li(Bi3O5)4
_symmetry_space_group_name_H-M   'P 1'
_cell_length_a   8.80141134
_cell_length_b   8.80141134
_cell_length_c   8.80141134
_cell_angle_alpha   109.46843294
_cell_angle_beta   109.47333596
_cell_angle_gamma   109.47189304
_symmetry_Int_Tables_number   1
_chemical_formula_structural   Li(Bi3O5)4
_chemical_formula_sum   'Li1 Bi12 O20'
_cell_volume   524.84983433
_cell_formula_units_Z   1
loop_
 _symmetry_equiv_pos_site_id
 _symmetry_equiv_pos_as_xyz
  1  'x, y, z'
loop_
 _atom_site_type_symbol
 _atom_site_label
 _atom_site_symmetry_multiplicity
 _atom_site_fract_x
 _atom_site_fract_y
 _atom_site_fract_z
 _atom_site_occupancy
  Li  Li0  1  0.00000000  0.00000000  0.00000000  1
  Bi  Bi1  1  0.82213486  0.13925746  0.30886018  1
  Bi  Bi2  1  0.86074736  0.68288542  0.16960144  1
  Bi  Bi3  1  0.48671603  0.31711458  0.17786194  1
  Bi  Bi4  1  0.31710624  0.17786708  0.48671020  1
  Bi  Bi5  1  0.68289376  0.16960395  0.86076084  1
  Bi  Bi6  1  0.83039728  0.51327468  0.69113982  1
  Bi  Bi7  1  0.17786514  0.48672532  0.31712260  1
  Bi  Bi8  1  0.69115688  0.83039605  0.51328980  1
  Bi  Bi9  1  0.30884312  0.82213292  0.13923916  1
  Bi  Bi10  1  0.13925264  0.30885409  0.82213806  1
  Bi  Bi11  1  0.51328397  0.69114591  0.83039856  1
  Bi  Bi12  1  0.16960272  0.86074254  0.68287740  1
  O  O13  1  0.62205735  0.00000037  0.00000409  1
  O  O14  1  0.75817808  0.38034579  0.11884986  1
  O  O15  1  0.23852445  0.99999285  0.00000458  1
  O  O16  1  0.62215740  0.24181852  0.36066205  1
  O  O17  1  0.88115547  0.26149534  0.63933795  1
  O  O18  1  0.99998827  0.23851888  0.99999542  1
  O  O19  1  0.00001173  0.00000715  0.23853060  1
  O  O20  1  0.73850507  0.61965421  0.37783229  1
  O  O21  1  0.37794265  0.37794675  0.37794302  1
  O  O22  1  0.36066699  0.62217279  0.24183924  1
  O  O23  1  0.63933301  0.88117225  0.26150580  1
  O  O24  1  0.38033355  0.11882775  0.75816076  1
  O  O25  1  0.61966645  0.37782721  0.73849420  1
  O  O26  1  -0.00000372  0.62205325  0.99999591  1
  O  O27  1  0.00000372  -0.00000037  0.62205698  1
  O  O28  1  0.24182192  0.36067178  0.62216771  1
  O  O29  1  0.76147555  0.76148112  0.76146940  1
  O  O30  1  0.37784260  0.73850466  0.61966113  1
  O  O31  1  0.11884453  0.75818148  0.38033887  1
  O  O32  1  0.26149493  0.63932822  0.88115014  1
