# generated using pymatgen
data_Li2Cu(HO)4
_symmetry_space_group_name_H-M   'P 1'
_cell_length_a   6.35210458
_cell_length_b   6.39473187
_cell_length_c   8.45973283
_cell_angle_alpha   90.00000000
_cell_angle_beta   90.00000000
_cell_angle_gamma   90.00000000
_symmetry_Int_Tables_number   1
_chemical_formula_structural   Li2Cu(HO)4
_chemical_formula_sum   'Li8 Cu4 H16 O16'
_cell_volume   343.63439492
_cell_formula_units_Z   4
loop_
 _symmetry_equiv_pos_site_id
 _symmetry_equiv_pos_as_xyz
  1  'x, y, z'
loop_
 _atom_site_type_symbol
 _atom_site_label
 _atom_site_symmetry_multiplicity
 _atom_site_fract_x
 _atom_site_fract_y
 _atom_site_fract_z
 _atom_site_occupancy
  Li  Li0  1  0.01188678  0.79994948  0.74907564  1
  Li  Li1  1  0.24757941  0.50760455  0.99744707  1
  Li  Li2  1  0.25242059  0.00760455  0.49744707  1
  Li  Li3  1  0.48811322  0.29994948  0.24907464  1
  Li  Li4  1  0.51188678  0.70005052  0.74907564  1
  Li  Li5  1  0.74757941  0.99239545  0.99744707  1
  Li  Li6  1  0.75242059  0.49239545  0.49744707  1
  Li  Li7  1  0.98811322  0.20005052  0.24907464  1
  Cu  Cu8  1  0.24084051  0.50598504  0.50015401  1
  Cu  Cu9  1  0.25916049  0.00598504  0.00015401  1
  Cu  Cu10  1  0.74084051  0.99401496  0.50015401  1
  Cu  Cu11  1  0.75916049  0.49401496  0.00015401  1
  H  H12  1  0.00298620  0.23464036  0.59470551  1
  H  H13  1  0.99701380  0.76535964  0.09470551  1
  H  H14  1  0.00788749  0.23934121  0.90528958  1
  H  H15  1  0.08585546  0.52509096  0.24818020  1
  H  H16  1  0.25284440  0.83266744  0.24819630  1
  H  H17  1  0.24715560  0.33266744  0.74819630  1
  H  H18  1  0.41414354  0.02509096  0.74818120  1
  H  H19  1  0.49211251  0.73934221  0.40528958  1
  H  H20  1  0.50298620  0.26535964  0.59470551  1
  H  H21  1  0.49701380  0.73464036  0.09470551  1
  H  H22  1  0.50788749  0.26065879  0.90528958  1
  H  H23  1  0.58585546  0.97490904  0.24818020  1
  H  H24  1  0.75284440  0.66733256  0.24819630  1
  H  H25  1  0.74715560  0.16733256  0.74819630  1
  H  H26  1  0.91414354  0.47490904  0.74818120  1
  H  H27  1  0.99211251  0.76065779  0.40528958  1
  O  O28  1  0.02726207  0.72555954  0.51381692  1
  O  O29  1  0.04251441  0.78770562  0.98661408  1
  O  O30  1  0.22497866  0.48481672  0.73774126  1
  O  O31  1  0.24008251  0.51873305  0.26110044  1
  O  O32  1  0.25991749  0.01873305  0.76110044  1
  O  O33  1  0.27502134  0.98481672  0.23774126  1
  O  O34  1  0.45748559  0.28770562  0.48661308  1
  O  O35  1  0.47273793  0.22555954  0.01381692  1
  O  O36  1  0.52726207  0.77444046  0.51381692  1
  O  O37  1  0.54251441  0.71229438  0.98661408  1
  O  O38  1  0.72497866  0.01518328  0.73774126  1
  O  O39  1  0.74008251  0.98126695  0.26110044  1
  O  O40  1  0.75991749  0.48126695  0.76110044  1
  O  O41  1  0.77502134  0.51518328  0.23774126  1
  O  O42  1  0.95748559  0.21229438  0.48661308  1
  O  O43  1  0.97273793  0.27444046  0.01381692  1
