# generated using pymatgen
data_BaLaCl5
_symmetry_space_group_name_H-M   'P 1'
_cell_length_a   19.13588157
_cell_length_b   7.31273858
_cell_length_c   5.94825499
_cell_angle_alpha   90.00000000
_cell_angle_beta   90.00000000
_cell_angle_gamma   90.00000000
_symmetry_Int_Tables_number   1
_chemical_formula_structural   BaLaCl5
_chemical_formula_sum   'Ba4 La4 Cl20'
_cell_volume   832.37322235
_cell_formula_units_Z   4
loop_
 _symmetry_equiv_pos_site_id
 _symmetry_equiv_pos_as_xyz
  1  'x, y, z'
loop_
 _atom_site_type_symbol
 _atom_site_label
 _atom_site_symmetry_multiplicity
 _atom_site_fract_x
 _atom_site_fract_y
 _atom_site_fract_z
 _atom_site_occupancy
  Ba  Ba0  1  0.05643708  0.25000000  0.78168489  1
  Ba  Ba1  1  0.44356292  0.75000000  0.28168489  1
  Ba  Ba2  1  0.55643708  0.25000000  0.71831511  1
  Ba  Ba3  1  0.94356292  0.75000000  0.21831511  1
  La  La4  1  0.17868647  0.75000000  0.43323842  1
  La  La5  1  0.32131353  0.25000000  0.93323842  1
  La  La6  1  0.67868647  0.75000000  0.06676158  1
  La  La7  1  0.82131353  0.25000000  0.56676158  1
  Cl  Cl8  1  0.06297771  0.75000000  0.72296150  1
  Cl  Cl9  1  0.08597230  0.49359312  0.24299325  1
  Cl  Cl10  1  0.08597230  0.00640688  0.24299325  1
  Cl  Cl11  1  0.20735204  0.47736562  0.76350820  1
  Cl  Cl12  1  0.20735204  0.02263438  0.76350820  1
  Cl  Cl13  1  0.29264796  0.97736562  0.26350820  1
  Cl  Cl14  1  0.29264796  0.52263438  0.26350820  1
  Cl  Cl15  1  0.41402770  0.99359312  0.74299325  1
  Cl  Cl16  1  0.41402770  0.50640688  0.74299325  1
  Cl  Cl17  1  0.43702229  0.25000000  0.22296150  1
  Cl  Cl18  1  0.56297771  0.75000000  0.77703850  1
  Cl  Cl19  1  0.58597230  0.49359312  0.25700675  1
  Cl  Cl20  1  0.58597230  0.00640688  0.25700675  1
  Cl  Cl21  1  0.70735204  0.47736562  0.73649180  1
  Cl  Cl22  1  0.70735204  0.02263438  0.73649180  1
  Cl  Cl23  1  0.79264796  0.97736562  0.23649180  1
  Cl  Cl24  1  0.79264796  0.52263438  0.23649180  1
  Cl  Cl25  1  0.91402770  0.99359312  0.75700675  1
  Cl  Cl26  1  0.91402770  0.50640688  0.75700675  1
  Cl  Cl27  1  0.93702229  0.25000000  0.27703850  1
