# generated using pymatgen
data_Ba2Y5Cl19
_symmetry_space_group_name_H-M   'P 1'
_cell_length_a   9.19651587
_cell_length_b   7.43742783
_cell_length_c   29.75729041
_cell_angle_alpha   90.00000000
_cell_angle_beta   95.99613479
_cell_angle_gamma   90.00000000
_symmetry_Int_Tables_number   1
_chemical_formula_structural   Ba2Y5Cl19
_chemical_formula_sum   'Ba4 Y10 Cl38'
_cell_volume   2024.21621752
_cell_formula_units_Z   2
loop_
 _symmetry_equiv_pos_site_id
 _symmetry_equiv_pos_as_xyz
  1  'x, y, z'
loop_
 _atom_site_type_symbol
 _atom_site_label
 _atom_site_symmetry_multiplicity
 _atom_site_fract_x
 _atom_site_fract_y
 _atom_site_fract_z
 _atom_site_occupancy
  Ba  Ba0  1  0.22785259  0.78562647  0.74282725  1
  Ba  Ba1  1  0.24453630  0.70985103  0.17450794  1
  Ba  Ba2  1  0.75546370  0.20985103  0.82549206  1
  Ba  Ba3  1  0.77214741  0.28562647  0.25717275  1
  Y  Y4  1  0.16539184  0.23750171  0.97009105  1
  Y  Y5  1  0.17696903  0.25657200  0.53909262  1
  Y  Y6  1  0.14688690  0.76505230  0.32650191  1
  Y  Y7  1  0.43209389  0.72941653  0.89591238  1
  Y  Y8  1  0.53963562  0.74987226  0.60351435  1
  Y  Y9  1  0.46036438  0.24987226  0.39648565  1
  Y  Y10  1  0.56790611  0.22941653  0.10408762  1
  Y  Y11  1  0.85311310  0.26505230  0.67349809  1
  Y  Y12  1  0.82303097  0.75657200  0.46090738  1
  Y  Y13  1  0.83460816  0.73750171  0.02990895  1
  Cl  Cl14  1  0.03668567  0.93533580  0.99327664  1
  Cl  Cl15  1  0.96952902  0.56582849  0.70704624  1
  Cl  Cl16  1  0.06074316  0.23994913  0.61693845  1
  Cl  Cl17  1  0.02244441  0.10438701  0.74147550  1
  Cl  Cl18  1  0.02862485  0.97377614  0.50217452  1
  Cl  Cl19  1  0.30238547  0.54619346  0.95655762  1
  Cl  Cl20  1  0.97883527  0.75573117  0.10992231  1
  Cl  Cl21  1  0.36973374  0.04459581  0.93409709  1
  Cl  Cl22  1  0.19028080  0.73059460  0.84014689  1
  Cl  Cl23  1  0.30677619  0.55406346  0.57365762  1
  Cl  Cl24  1  0.35234917  0.77001721  0.27172913  1
  Cl  Cl25  1  0.23315696  0.44904607  0.36304274  1
  Cl  Cl26  1  0.47222384  0.73052643  0.68643429  1
  Cl  Cl27  1  0.35945528  0.27826826  0.47703449  1
  Cl  Cl28  1  0.37529767  0.03866080  0.58343026  1
  Cl  Cl29  1  0.31232533  0.94197498  0.38961168  1
  Cl  Cl30  1  0.43983118  0.38636630  0.17163383  1
  Cl  Cl31  1  0.68637405  0.74050414  0.94791090  1
  Cl  Cl32  1  0.52066411  0.42817245  0.86107345  1
  Cl  Cl33  1  0.47933589  0.92817245  0.13892655  1
  Cl  Cl34  1  0.31362595  0.24050414  0.05208910  1
  Cl  Cl35  1  0.56016882  0.88636630  0.82836617  1
  Cl  Cl36  1  0.68767467  0.44197498  0.61038832  1
  Cl  Cl37  1  0.62470233  0.53866080  0.41656974  1
  Cl  Cl38  1  0.64054472  0.77826826  0.52296551  1
  Cl  Cl39  1  0.52777616  0.23052643  0.31356571  1
  Cl  Cl40  1  0.76684304  0.94904607  0.63695726  1
  Cl  Cl41  1  0.64765083  0.27001721  0.72827087  1
  Cl  Cl42  1  0.69322381  0.05406346  0.42634238  1
  Cl  Cl43  1  0.80971920  0.23059460  0.15985311  1
  Cl  Cl44  1  0.63026626  0.54459581  0.06590291  1
  Cl  Cl45  1  0.02116473  0.25573117  0.89007769  1
  Cl  Cl46  1  0.69761453  0.04619346  0.04344238  1
  Cl  Cl47  1  0.97137515  0.47377614  0.49782548  1
  Cl  Cl48  1  0.97755559  0.60438701  0.25852450  1
  Cl  Cl49  1  0.93925684  0.73994913  0.38306155  1
  Cl  Cl50  1  0.03047098  0.06582849  0.29295376  1
  Cl  Cl51  1  0.96331433  0.43533580  0.00672336  1
