# generated using pymatgen
data_Li3Mn2(SiO4)2
_symmetry_space_group_name_H-M   'P 1'
_cell_length_a   6.68814822
_cell_length_b   10.61572756
_cell_length_c   5.10222667
_cell_angle_alpha   90.00000000
_cell_angle_beta   90.16442506
_cell_angle_gamma   90.00000000
_symmetry_Int_Tables_number   1
_chemical_formula_structural   Li3Mn2(SiO4)2
_chemical_formula_sum   'Li6 Mn4 Si4 O16'
_cell_volume   362.25435398
_cell_formula_units_Z   2
loop_
 _symmetry_equiv_pos_site_id
 _symmetry_equiv_pos_as_xyz
  1  'x, y, z'
loop_
 _atom_site_type_symbol
 _atom_site_label
 _atom_site_symmetry_multiplicity
 _atom_site_fract_x
 _atom_site_fract_y
 _atom_site_fract_z
 _atom_site_occupancy
  Li  Li0  1  0.00603326  0.84090714  0.68503297  1
  Li  Li1  1  0.49396674  0.34090714  0.81496703  1
  Li  Li2  1  0.49773403  0.65878642  0.18428026  1
  Li  Li3  1  0.73401149  0.42322313  0.20523131  1
  Li  Li4  1  0.76598851  0.92322313  0.29476869  1
  Li  Li5  1  0.00226597  0.15878642  0.31571974  1
  Mn  Mn6  1  0.00316068  0.34053173  0.80229738  1
  Mn  Mn7  1  0.49683932  0.84053173  0.69770262  1
  Mn  Mn8  1  0.48778511  0.15739015  0.32060256  1
  Mn  Mn9  1  0.01221489  0.65739015  0.17939744  1
  Si  Si10  1  0.24532778  0.91078748  0.18287679  1
  Si  Si11  1  0.25467222  0.41078748  0.31712321  1
  Si  Si12  1  0.75146253  0.59134615  0.68893973  1
  Si  Si13  1  0.74853747  0.09134615  0.81106027  1
  O  O14  1  0.04417496  0.34611043  0.20184140  1
  O  O15  1  0.04090758  0.84186229  0.29726438  1
  O  O16  1  0.24642657  0.88883269  0.86337730  1
  O  O17  1  0.24001118  0.05989978  0.25475140  1
  O  O18  1  0.25357343  0.38883269  0.63662270  1
  O  O19  1  0.25998882  0.55989978  0.24524860  1
  O  O20  1  0.45909242  0.34186229  0.20273562  1
  O  O21  1  0.45582504  0.84611043  0.29815860  1
  O  O22  1  0.54923453  0.16587449  0.70341533  1
  O  O23  1  0.55534617  0.66580190  0.80368427  1
  O  O24  1  0.74878527  0.44393294  0.80154154  1
  O  O25  1  0.75377084  0.59145427  0.36407906  1
  O  O26  1  0.75121473  0.94393294  0.69845846  1
  O  O27  1  0.74622916  0.09145427  0.13592094  1
  O  O28  1  0.94465383  0.16580190  0.69631573  1
  O  O29  1  0.95076547  0.66587449  0.79658467  1
