# generated using pymatgen
data_ZrCoO3
_symmetry_space_group_name_H-M   'P 1'
_cell_length_a   5.02803624
_cell_length_b   5.40887548
_cell_length_c   8.39737126
_cell_angle_alpha   89.99787731
_cell_angle_beta   89.94485251
_cell_angle_gamma   90.00101565
_symmetry_Int_Tables_number   1
_chemical_formula_structural   ZrCoO3
_chemical_formula_sum   'Zr4 Co4 O12'
_cell_volume   228.37498725
_cell_formula_units_Z   4
loop_
 _symmetry_equiv_pos_site_id
 _symmetry_equiv_pos_as_xyz
  1  'x, y, z'
loop_
 _atom_site_type_symbol
 _atom_site_label
 _atom_site_symmetry_multiplicity
 _atom_site_fract_x
 _atom_site_fract_y
 _atom_site_fract_z
 _atom_site_occupancy
  Zr  Zr0  1  0.04292342  0.93086786  0.75010009  1
  Zr  Zr1  1  0.45705910  0.43087272  0.74992220  1
  Zr  Zr2  1  0.54294068  0.56912600  0.25007777  1
  Zr  Zr3  1  0.95707661  0.06913236  0.24989999  1
  Co  Co4  1  -0.00000018  0.50000006  -0.00000011  1
  Co  Co5  1  -0.00000034  0.49999993  0.50000019  1
  Co  Co6  1  0.50000019  0.00000011  -0.00000003  1
  Co  Co7  1  0.49999948  0.00000003  0.49999958  1
  O  O8  1  0.16881934  0.41415122  0.24931942  1
  O  O9  1  0.19507395  0.19952229  0.59076981  1
  O  O10  1  0.19637896  0.19909222  0.90903620  1
  O  O11  1  0.30495684  0.69948657  0.90924205  1
  O  O12  1  0.30358456  0.69913244  0.59098095  1
  O  O13  1  0.33119074  0.91414697  0.25065674  1
  O  O14  1  0.66881005  0.08585352  0.74934354  1
  O  O15  1  0.69641590  0.30086745  0.40901899  1
  O  O16  1  0.69504305  0.30051376  0.09075799  1
  O  O17  1  0.80362159  0.80090788  0.09096366  1
  O  O18  1  0.80492564  0.80047746  0.40923013  1
  O  O19  1  0.83118042  0.58584916  0.75068085  1
