# generated using pymatgen
data_Zn2Ga2S5
_symmetry_space_group_name_H-M   'P 1'
_cell_length_a   3.74325437
_cell_length_b   3.74325437
_cell_length_c   30.38681412
_cell_angle_alpha   90.00000000
_cell_angle_beta   90.00000000
_cell_angle_gamma   119.99707076
_symmetry_Int_Tables_number   1
_chemical_formula_structural   Zn2Ga2S5
_chemical_formula_sum   'Zn4 Ga4 S10'
_cell_volume   368.74598391
_cell_formula_units_Z   2
loop_
 _symmetry_equiv_pos_site_id
 _symmetry_equiv_pos_as_xyz
  1  'x, y, z'
loop_
 _atom_site_type_symbol
 _atom_site_label
 _atom_site_symmetry_multiplicity
 _atom_site_fract_x
 _atom_site_fract_y
 _atom_site_fract_z
 _atom_site_occupancy
  Zn  Zn0  1  0.66667138  0.33332862  0.43252023  1
  Zn  Zn1  1  0.33332862  0.66667138  0.93252023  1
  Zn  Zn2  1  0.33333197  0.66666803  0.19075917  1
  Zn  Zn3  1  0.66666803  0.33333197  0.69075917  1
  Ga  Ga4  1  0.00000716  0.99999284  0.30985404  1
  Ga  Ga5  1  0.99999284  0.00000716  0.80985404  1
  Ga  Ga6  1  0.66666897  0.33333103  0.08396090  1
  Ga  Ga7  1  0.33333103  0.66666897  0.58396090  1
  S  S8  1  0.33333383  0.66666617  0.45692114  1
  S  S9  1  0.66666617  0.33333383  0.95692114  1
  S  S10  1  0.66668964  0.33331036  0.34913278  1
  S  S11  1  0.33331036  0.66668964  0.84913278  1
  S  S12  1  0.33332336  0.66667664  0.26430351  1
  S  S13  1  0.66667664  0.33332336  0.76430351  1
  S  S14  1  0.66667322  0.33332678  0.15960404  1
  S  S15  1  0.33332678  0.66667322  0.65960404  1
  S  S16  1  0.33333266  0.66666734  0.05494418  1
  S  S17  1  0.66666734  0.33333266  0.55494418  1
