# generated using pymatgen
data_BaLi2NiO3
_symmetry_space_group_name_H-M   'P 1'
_cell_length_a   7.96304778
_cell_length_b   6.90096531
_cell_length_c   7.26070681
_cell_angle_alpha   90.00000000
_cell_angle_beta   90.00000000
_cell_angle_gamma   90.00000000
_symmetry_Int_Tables_number   1
_chemical_formula_structural   BaLi2NiO3
_chemical_formula_sum   'Ba4 Li8 Ni4 O12'
_cell_volume   398.99556286
_cell_formula_units_Z   4
loop_
 _symmetry_equiv_pos_site_id
 _symmetry_equiv_pos_as_xyz
  1  'x, y, z'
loop_
 _atom_site_type_symbol
 _atom_site_label
 _atom_site_symmetry_multiplicity
 _atom_site_fract_x
 _atom_site_fract_y
 _atom_site_fract_z
 _atom_site_occupancy
  Ba  Ba0  1  0.00959154  0.25000000  0.65944310  1
  Ba  Ba1  1  0.49040846  0.75000000  0.15944310  1
  Ba  Ba2  1  0.50959154  0.25000000  0.84055690  1
  Ba  Ba3  1  0.99040846  0.75000000  0.34055690  1
  Li  Li4  1  0.14537241  0.03230462  0.03112517  1
  Li  Li5  1  0.14537241  0.46769538  0.03112517  1
  Li  Li6  1  0.35462759  0.96769538  0.53112517  1
  Li  Li7  1  0.35462759  0.53230462  0.53112517  1
  Li  Li8  1  0.64537241  0.03230462  0.46887483  1
  Li  Li9  1  0.64537241  0.46769538  0.46887483  1
  Li  Li10  1  0.85462759  0.53230462  0.96887483  1
  Li  Li11  1  0.85462759  0.96769538  0.96887483  1
  Ni  Ni12  1  0.17140069  0.75000000  0.80206110  1
  Ni  Ni13  1  0.32859931  0.25000000  0.30206110  1
  Ni  Ni14  1  0.67140069  0.75000000  0.69793890  1
  Ni  Ni15  1  0.82859931  0.25000000  0.19793890  1
  O  O16  1  0.01316568  0.75000000  0.99559385  1
  O  O17  1  0.24892067  0.49946339  0.77436285  1
  O  O18  1  0.24892067  0.00053661  0.77436285  1
  O  O19  1  0.25107933  0.99946339  0.27436285  1
  O  O20  1  0.25107933  0.50053661  0.27436285  1
  O  O21  1  0.48683432  0.25000000  0.49559385  1
  O  O22  1  0.51316568  0.75000000  0.50440615  1
  O  O23  1  0.74892067  0.49946339  0.72563715  1
  O  O24  1  0.74892067  0.00053661  0.72563715  1
  O  O25  1  0.75107933  0.99946339  0.22563715  1
  O  O26  1  0.75107933  0.50053661  0.22563715  1
  O  O27  1  0.98683432  0.25000000  0.00440615  1
