# generated using pymatgen
data_V3(PO4)2
_symmetry_space_group_name_H-M   'P 1'
_cell_length_a   8.31538482
_cell_length_b   9.74217229
_cell_length_c   8.69434876
_cell_angle_alpha   90.00000000
_cell_angle_beta   70.04744435
_cell_angle_gamma   90.00000000
_symmetry_Int_Tables_number   1
_chemical_formula_structural   V3(PO4)2
_chemical_formula_sum   'V12 P8 O32'
_cell_volume   662.05147050
_cell_formula_units_Z   4
loop_
 _symmetry_equiv_pos_site_id
 _symmetry_equiv_pos_as_xyz
  1  'x, y, z'
loop_
 _atom_site_type_symbol
 _atom_site_label
 _atom_site_symmetry_multiplicity
 _atom_site_fract_x
 _atom_site_fract_y
 _atom_site_fract_z
 _atom_site_occupancy
  V  V0  1  0.30444202  0.60724743  0.91592203  1
  V  V1  1  0.99974130  0.62716523  0.62782227  1
  V  V2  1  0.40884894  0.24063170  0.98335715  1
  V  V3  1  0.30444202  0.89275257  0.41592203  1
  V  V4  1  0.99974130  0.87283477  0.12782227  1
  V  V5  1  0.40884894  0.25936830  0.48335715  1
  V  V6  1  0.59115106  0.74063170  0.51664285  1
  V  V7  1  0.00025870  0.12716523  0.87217773  1
  V  V8  1  0.69555798  0.10724743  0.58407797  1
  V  V9  1  0.59115106  0.75936830  0.01664285  1
  V  V10  1  0.00025870  0.37283477  0.37217773  1
  V  V11  1  0.69555798  0.39275257  0.08407797  1
  P  P12  1  0.12858615  0.38950209  0.82584222  1
  P  P13  1  0.35231776  0.93568775  0.80856965  1
  P  P14  1  0.12858615  0.11049791  0.32584222  1
  P  P15  1  0.64768224  0.43568775  0.69143035  1
  P  P16  1  0.35231776  0.56431225  0.30856965  1
  P  P17  1  0.87141385  0.88950209  0.67415778  1
  P  P18  1  0.64768224  0.06431225  0.19143035  1
  P  P19  1  0.87141385  0.61049791  0.17415678  1
  O  O20  1  0.15824263  0.96386961  0.89893060  1
  O  O21  1  0.24818223  0.39129706  0.92989700  1
  O  O22  1  0.14199819  0.53728721  0.75880892  1
  O  O23  1  0.40593960  0.82122414  0.90553037  1
  O  O24  1  0.05543265  0.84049558  0.57447248  1
  O  O25  1  0.18771717  0.27479306  0.69394918  1
  O  O26  1  0.45518507  0.07194611  0.79826886  1
  O  O27  1  0.61667261  0.38066723  0.86690786  1
  O  O28  1  0.38332739  0.88066723  0.63309214  1
  O  O29  1  0.15824263  0.53613039  0.39893060  1
  O  O30  1  0.54481493  0.57194611  0.70173114  1
  O  O31  1  0.24818223  0.10870294  0.42989700  1
  O  O32  1  0.81228283  0.77479306  0.80605082  1
  O  O33  1  0.14199819  0.96271279  0.25880892  1
  O  O34  1  0.94456735  0.34049558  0.92552752  1
  O  O35  1  0.40593960  0.67877586  0.40553037  1
  O  O36  1  0.59406040  0.32122414  0.59446963  1
  O  O37  1  0.05543265  0.65950442  0.07447248  1
  O  O38  1  0.85800181  0.03728721  0.74119108  1
  O  O39  1  0.18771717  0.22520694  0.19394918  1
  O  O40  1  0.75181777  0.89129706  0.57010300  1
  O  O41  1  0.45518507  0.42805389  0.29826886  1
  O  O42  1  0.84175737  0.46386961  0.60106940  1
  O  O43  1  0.61667261  0.11933277  0.36690786  1
  O  O44  1  0.38332739  0.61933277  0.13309214  1
  O  O45  1  0.54481493  0.92805389  0.20173114  1
  O  O46  1  0.81228283  0.72520694  0.30605082  1
  O  O47  1  0.94456735  0.15950442  0.42552752  1
  O  O48  1  0.59406040  0.17877586  0.09446963  1
  O  O49  1  0.85800181  0.46271279  0.24119108  1
  O  O50  1  0.75181777  0.60870294  0.07010300  1
  O  O51  1  0.84175737  0.03613039  0.10106940  1
