# generated using pymatgen
data_LiMnNbO4
_symmetry_space_group_name_H-M   'P 1'
_cell_length_a   6.22612346
_cell_length_b   6.32382407
_cell_length_c   6.32382361
_cell_angle_alpha   59.02261228
_cell_angle_beta   60.50976404
_cell_angle_gamma   60.50976642
_symmetry_Int_Tables_number   1
_chemical_formula_structural   LiMnNbO4
_chemical_formula_sum   'Li2 Mn2 Nb2 O8'
_cell_volume   176.03841340
_cell_formula_units_Z   2
loop_
 _symmetry_equiv_pos_site_id
 _symmetry_equiv_pos_as_xyz
  1  'x, y, z'
loop_
 _atom_site_type_symbol
 _atom_site_label
 _atom_site_symmetry_multiplicity
 _atom_site_fract_x
 _atom_site_fract_y
 _atom_site_fract_z
 _atom_site_occupancy
  Li  Li0  1  0.10391297  0.14608703  0.14608703  1
  Li  Li1  1  0.89608703  0.85391297  0.85391297  1
  Mn  Mn2  1  0.50000000  0.00000000  0.50000000  1
  Mn  Mn3  1  0.50000000  0.50000000  0.00000000  1
  Nb  Nb4  1  0.00000000  0.50000000  0.50000000  1
  Nb  Nb5  1  0.50000000  0.50000000  0.50000000  1
  O  O6  1  0.23287912  0.28170517  0.28170517  1
  O  O7  1  0.24668071  0.28535373  0.72128486  1
  O  O8  1  0.24668071  0.72128486  0.28535373  1
  O  O9  1  0.70371053  0.28170517  0.28170517  1
  O  O10  1  0.29628947  0.71829483  0.71829483  1
  O  O11  1  0.75331929  0.71464627  0.27871514  1
  O  O12  1  0.75331929  0.27871514  0.71464627  1
  O  O13  1  0.76712088  0.71829483  0.71829483  1
