# generated using pymatgen
data_Li4V2Cr3Ni3O16
_symmetry_space_group_name_H-M   'P 1'
_cell_length_a   5.87500411
_cell_length_b   5.86821348
_cell_length_c   9.44594789
_cell_angle_alpha   89.98366784
_cell_angle_beta   90.20562815
_cell_angle_gamma   119.97817362
_symmetry_Int_Tables_number   1
_chemical_formula_structural   Li4V2Cr3Ni3O16
_chemical_formula_sum   'Li4 V2 Cr3 Ni3 O16'
_cell_volume   282.08648344
_cell_formula_units_Z   1
loop_
 _symmetry_equiv_pos_site_id
 _symmetry_equiv_pos_as_xyz
  1  'x, y, z'
loop_
 _atom_site_type_symbol
 _atom_site_label
 _atom_site_symmetry_multiplicity
 _atom_site_fract_x
 _atom_site_fract_y
 _atom_site_fract_z
 _atom_site_occupancy
  Li  Li0  1  0.32456356  0.66252862  0.89811046  1
  Li  Li1  1  0.00848051  0.00420001  0.98742228  1
  Li  Li2  1  0.00033256  0.00031807  0.49556937  1
  Li  Li3  1  0.67237518  0.33587858  0.39956879  1
  V  V4  1  0.32989713  0.66530826  0.50254688  1
  V  V5  1  0.69569863  0.34775332  0.99306704  1
  Cr  Cr6  1  0.18993931  0.84052275  0.21978234  1
  Cr  Cr7  1  0.19099975  0.34976797  0.22018552  1
  Cr  Cr8  1  0.35492724  0.17793253  0.72962046  1
  Ni  Ni9  1  0.66102830  0.83074434  0.20818433  1
  Ni  Ni10  1  0.82143689  0.65447892  0.71042237  1
  Ni  Ni11  1  0.82154222  0.16698032  0.71050601  1
  O  O12  1  0.17857423  0.82766717  0.58918998  1
  O  O13  1  0.04570076  0.52254378  0.34279817  1
  O  O14  1  0.30527537  0.65183967  0.10477330  1
  O  O15  1  0.01393651  0.00765941  0.30131433  1
  O  O16  1  0.01190429  0.00584795  0.79456953  1
  O  O17  1  0.17864985  0.35105337  0.58915256  1
  O  O18  1  0.47148514  0.95863759  0.34245668  1
  O  O19  1  0.47135833  0.51213731  0.34233919  1
  O  O20  1  0.34662322  0.17349721  0.09878383  1
  O  O21  1  0.64928590  0.82447017  0.58156213  1
  O  O22  1  0.50298118  0.46625911  0.85223452  1
  O  O23  1  0.50320590  0.03723645  0.85244687  1
  O  O24  1  0.63499155  0.31732535  0.60436032  1
  O  O25  1  0.83372190  0.65787342  0.09092899  1
  O  O26  1  0.94730659  0.47387604  0.85504488  1
  O  O27  1  0.83377801  0.17596132  0.09089985  1
