# generated using pymatgen
data_Li4Mn3V2Cu3O16
_symmetry_space_group_name_H-M   'P 1'
_cell_length_a   5.87527723
_cell_length_b   5.81907633
_cell_length_c   9.60741371
_cell_angle_alpha   89.97842459
_cell_angle_beta   88.52570538
_cell_angle_gamma   119.64935882
_symmetry_Int_Tables_number   1
_chemical_formula_structural   Li4Mn3V2Cu3O16
_chemical_formula_sum   'Li4 Mn3 V2 Cu3 O16'
_cell_volume   285.33169500
_cell_formula_units_Z   1
loop_
 _symmetry_equiv_pos_site_id
 _symmetry_equiv_pos_as_xyz
  1  'x, y, z'
loop_
 _atom_site_type_symbol
 _atom_site_label
 _atom_site_symmetry_multiplicity
 _atom_site_fract_x
 _atom_site_fract_y
 _atom_site_fract_z
 _atom_site_occupancy
  Li  Li0  1  0.34358165  0.67189108  0.90172981  1
  Li  Li1  1  0.99534844  0.99766234  0.99466567  1
  Li  Li2  1  0.00132317  0.00067279  0.48698930  1
  Li  Li3  1  0.64864765  0.32429135  0.40541536  1
  Mn  Mn4  1  0.64899739  0.82444278  0.21877619  1
  Mn  Mn5  1  0.83209627  0.66428156  0.71712055  1
  Mn  Mn6  1  0.83211953  0.16784203  0.71711262  1
  V  V7  1  0.27805809  0.63902299  0.48062187  1
  V  V8  1  0.66765684  0.33409680  0.99318827  1
  Cu  Cu9  1  0.16187468  0.82700700  0.20740933  1
  Cu  Cu10  1  0.16183774  0.33482327  0.20738397  1
  Cu  Cu11  1  0.34220661  0.17114196  0.71292764  1
  O  O12  1  0.16425862  0.82118495  0.58959377  1
  O  O13  1  0.02051312  0.51007543  0.37093465  1
  O  O14  1  0.33509508  0.66749449  0.11378895  1
  O  O15  1  0.99241415  0.99624908  0.29626303  1
  O  O16  1  0.00507875  0.00243072  0.80602357  1
  O  O17  1  0.16460077  0.34278930  0.58973748  1
  O  O18  1  0.48733182  0.95653124  0.34656611  1
  O  O19  1  0.48744909  0.53080057  0.34656356  1
  O  O20  1  0.35622178  0.17823427  0.06380151  1
  O  O21  1  0.68703762  0.84360805  0.60879127  1
  O  O22  1  0.55285462  0.50695720  0.84909350  1
  O  O23  1  0.55229125  0.04610930  0.84878298  1
  O  O24  1  0.67556514  0.33793297  0.61567269  1
  O  O25  1  0.81685425  0.65476592  0.09291578  1
  O  O26  1  0.97188134  0.48586762  0.83319695  1
  O  O27  1  0.81680354  0.16209494  0.09277266  1
