# generated using pymatgen
data_Cd6(CoO3)5
_symmetry_space_group_name_H-M   'P 1'
_cell_length_a   6.73869271
_cell_length_b   6.73869271
_cell_length_c   6.73869251
_cell_angle_alpha   87.11446471
_cell_angle_beta   87.11446471
_cell_angle_gamma   87.11446807
_symmetry_Int_Tables_number   1
_chemical_formula_structural   Cd6(CoO3)5
_chemical_formula_sum   'Cd6 Co5 O15'
_cell_volume   304.87764328
_cell_formula_units_Z   1
loop_
 _symmetry_equiv_pos_site_id
 _symmetry_equiv_pos_as_xyz
  1  'x, y, z'
loop_
 _atom_site_type_symbol
 _atom_site_label
 _atom_site_symmetry_multiplicity
 _atom_site_fract_x
 _atom_site_fract_y
 _atom_site_fract_z
 _atom_site_occupancy
  Cd  Cd0  1  0.16323224  0.83676776  0.50000000  1
  Cd  Cd1  1  0.31118608  0.68881392  0.00000000  1
  Cd  Cd2  1  0.00000000  0.31118608  0.68881392  1
  Cd  Cd3  1  0.50000000  0.16323224  0.83676776  1
  Cd  Cd4  1  0.83676776  0.50000000  0.16323224  1
  Cd  Cd5  1  0.68881392  1.00000000  0.31118608  1
  Co  Co6  1  0.50000000  0.50000000  0.50000000  1
  Co  Co7  1  0.30172387  0.30172387  0.30172387  1
  Co  Co8  1  0.10199646  0.10199646  0.10199646  1
  Co  Co9  1  0.69827613  0.69827613  0.69827613  1
  Co  Co10  1  0.89800354  0.89800354  0.89800354  1
  O  O11  1  0.00000000  0.84352614  0.15647386  1
  O  O12  1  0.29991191  0.57742112  0.32006665  1
  O  O13  1  0.42257888  0.70008809  0.67993335  1
  O  O14  1  0.73877682  0.97513502  0.67030614  1
  O  O15  1  0.02486498  0.26122318  0.32969386  1
  O  O16  1  0.26122318  0.32969386  0.02486498  1
  O  O17  1  0.67030614  0.73877682  0.97513502  1
  O  O18  1  0.32006665  0.29991191  0.57742112  1
  O  O19  1  0.70008809  0.67993335  0.42257888  1
  O  O20  1  0.15647386  1.00000000  0.84352614  1
  O  O21  1  0.57742112  0.32006665  0.29991191  1
  O  O22  1  0.67993335  0.42257888  0.70008809  1
  O  O23  1  0.32969386  0.02486498  0.26122318  1
  O  O24  1  0.97513502  0.67030614  0.73877682  1
  O  O25  1  0.84352614  0.15647386  0.00000000  1
