# generated using pymatgen
data_MnV2O4
_symmetry_space_group_name_H-M   'P 1'
_cell_length_a   10.70964738
_cell_length_b   9.26250968
_cell_length_c   3.00654415
_cell_angle_alpha   89.99997847
_cell_angle_beta   89.99954955
_cell_angle_gamma   90.11184691
_symmetry_Int_Tables_number   1
_chemical_formula_structural   MnV2O4
_chemical_formula_sum   'Mn4 V8 O16'
_cell_volume   298.24323731
_cell_formula_units_Z   4
loop_
 _symmetry_equiv_pos_site_id
 _symmetry_equiv_pos_as_xyz
  1  'x, y, z'
loop_
 _atom_site_type_symbol
 _atom_site_label
 _atom_site_symmetry_multiplicity
 _atom_site_fract_x
 _atom_site_fract_y
 _atom_site_fract_z
 _atom_site_occupancy
  Mn  Mn0  1  0.14907041  0.74849957  0.24999763  1
  Mn  Mn1  1  0.34998515  0.24832409  0.25000132  1
  Mn  Mn2  1  0.64953115  0.75199685  0.75000483  1
  Mn  Mn3  1  0.85029295  0.25137186  0.74999685  1
  V  V4  1  0.11737136  0.06650596  0.25000109  1
  V  V5  1  0.10364076  0.41604124  0.75000762  1
  V  V6  1  0.38254798  0.56661122  0.25000113  1
  V  V7  1  0.39625313  0.91613894  0.74999954  1
  V  V8  1  0.60361527  0.08366875  0.25000175  1
  V  V9  1  0.61731849  0.43307415  0.74999358  1
  V  V10  1  0.89534751  0.58422832  0.25000008  1
  V  V11  1  0.88277717  0.93331888  0.74999892  1
  O  O12  1  0.97230015  0.37728753  0.25001529  1
  O  O13  1  0.02898337  0.62321351  0.75001811  1
  O  O14  1  0.07188461  0.91391690  0.75000122  1
  O  O15  1  0.17505701  0.20806066  0.74999676  1
  O  O16  1  0.21599792  0.47444907  0.24998076  1
  O  O17  1  0.28406252  0.97471778  0.24999453  1
  O  O18  1  0.32570269  0.70832310  0.74999621  1
  O  O19  1  0.42790032  0.41349973  0.74999985  1
  O  O20  1  0.47210930  0.12329340  0.75000065  1
  O  O21  1  0.52809995  0.87655453  0.25000542  1
  O  O22  1  0.57240002  0.58629965  0.24999574  1
  O  O23  1  0.67462436  0.29158674  0.24999957  1
  O  O24  1  0.71608991  0.02522873  0.75000199  1
  O  O25  1  0.78443393  0.52576102  0.74998910  1
  O  O26  1  0.82480072  0.79132771  0.24999864  1
  O  O27  1  0.92780188  0.08670010  0.25000182  1
