# generated using pymatgen
data_YHfMg6
_symmetry_space_group_name_H-M   'P 1'
_cell_length_a   6.54065824
_cell_length_b   6.54065769
_cell_length_c   5.18651780
_cell_angle_alpha   90.00000000
_cell_angle_beta   90.00000000
_cell_angle_gamma   120.13560450
_symmetry_Int_Tables_number   1
_chemical_formula_structural   YHfMg6
_chemical_formula_sum   'Y1 Hf1 Mg6'
_cell_volume   191.89087400
_cell_formula_units_Z   1
loop_
 _symmetry_equiv_pos_site_id
 _symmetry_equiv_pos_as_xyz
  1  'x, y, z'
loop_
 _atom_site_type_symbol
 _atom_site_label
 _atom_site_symmetry_multiplicity
 _atom_site_fract_x
 _atom_site_fract_y
 _atom_site_fract_z
 _atom_site_occupancy
  Y  Y0  1  0.16834862  0.33165138  0.25000000  1
  Hf  Hf1  1  0.33606079  0.16393921  0.75000000  1
  Mg  Mg2  1  0.17252627  0.84230759  0.25000000  1
  Mg  Mg3  1  0.65769241  0.32747373  0.25000000  1
  Mg  Mg4  1  0.66496456  0.83503544  0.25000000  1
  Mg  Mg5  1  0.33477224  0.66946404  0.75000000  1
  Mg  Mg6  1  0.83053596  0.16522776  0.75000000  1
  Mg  Mg7  1  0.83509915  0.66490085  0.75000000  1
