# generated using pymatgen
data_Li3AlNiO4
_symmetry_space_group_name_H-M   'P 1'
_cell_length_a   9.99287846
_cell_length_b   9.99287846
_cell_length_c   9.99287846
_cell_angle_alpha   118.87515755
_cell_angle_beta   118.87515755
_cell_angle_gamma   91.95958234
_symmetry_Int_Tables_number   1
_chemical_formula_structural   Li3AlNiO4
_chemical_formula_sum   'Li24 Al8 Ni8 O32'
_cell_volume   717.13988767
_cell_formula_units_Z   8
loop_
 _symmetry_equiv_pos_site_id
 _symmetry_equiv_pos_as_xyz
  1  'x, y, z'
loop_
 _atom_site_type_symbol
 _atom_site_label
 _atom_site_symmetry_multiplicity
 _atom_site_fract_x
 _atom_site_fract_y
 _atom_site_fract_z
 _atom_site_occupancy
  Li  Li0  1  0.93796637  0.11025352  0.16500066  1
  Li  Li1  1  0.81203363  0.13974648  0.33499934  1
  Li  Li2  1  0.88974648  0.05474614  0.82771284  1
  Li  Li3  1  0.52296571  0.18796637  0.32771284  1
  Li  Li4  1  0.44382765  0.28639121  0.12756162  1
  Li  Li5  1  0.71763866  0.55470289  0.13048668  1
  Li  Li6  1  0.86025352  0.19525386  0.67228716  1
  Li  Li7  1  0.22703429  0.06203363  0.17228716  1
  Li  Li8  1  0.71360879  0.84117041  0.15743644  1
  Li  Li9  1  0.44529711  0.57578379  0.16293577  1
  Li  Li10  1  0.80474614  0.47703429  0.66500066  1
  Li  Li11  1  0.94525386  0.77296571  0.83499934  1
  Li  Li12  1  0.41284802  0.28236134  0.83706423  1
  Li  Li13  1  0.30470289  0.67421621  0.33706423  1
  Li  Li14  1  0.03639121  0.40882959  0.34256356  1
  Li  Li15  1  0.68373397  0.55617235  0.84256356  1
  Li  Li16  1  0.03236134  0.69529711  0.36951332  1
  Li  Li17  1  0.42421621  0.58715198  0.86951332  1
  Li  Li18  1  0.59117041  0.93373397  0.62756162  1
  Li  Li19  1  0.15882959  0.31626603  0.87243838  1
  Li  Li20  1  0.30617235  0.96360879  0.37243838  1
  Li  Li21  1  0.32578379  0.66284802  0.63048668  1
  Li  Li22  1  0.06626603  0.69382765  0.65743644  1
  Li  Li23  1  0.33715198  0.96763866  0.66293577  1
  Al  Al24  1  0.74786093  0.42415973  0.30996078  1
  Al  Al25  1  0.56210085  0.25213907  0.67629879  1
  Al  Al26  1  0.17415973  0.36419895  0.17629879  1
  Al  Al27  1  0.57584027  0.88580105  0.32370121  1
  Al  Al28  1  0.63580105  0.81210085  0.80996078  1
  Al  Al29  1  0.00213907  0.82584027  0.19003922  1
  Al  Al30  1  0.11419895  0.43789915  0.69003922  1
  Al  Al31  1  0.18789915  0.99786093  0.82370121  1
  Ni  Ni32  1  0.44205348  0.92507934  0.99253341  1
  Ni  Ni33  1  0.67507934  0.18254493  0.98302485  1
  Ni  Ni34  1  0.55047993  0.55794652  0.48302485  1
  Ni  Ni35  1  0.81745507  0.80047993  0.49253341  1
  Ni  Ni36  1  0.30794652  0.32492066  0.50746659  1
  Ni  Ni37  1  0.07492066  0.06745507  0.51697515  1
  Ni  Ni38  1  0.19952007  0.69205348  0.01697515  1
  Ni  Ni39  1  0.93254493  0.44952007  0.00746659  1
  O  O40  1  0.83072108  0.26841948  0.24381025  1
  O  O41  1  0.33691083  0.08072108  0.06230160  1
  O  O42  1  0.59345031  0.35430774  0.07583479  1
  O  O43  1  0.86630737  0.63655065  0.09029704  1
  O  O44  1  0.88369263  0.61344935  0.40970296  1
  O  O45  1  0.64712301  0.39906209  0.40367098  1
  O  O46  1  0.41308917  0.16927892  0.43769840  1
  O  O47  1  0.36344935  0.45374638  0.22975571  1
  O  O48  1  0.52601033  0.11630737  0.72975571  1
  O  O49  1  0.91927892  0.98158052  0.25618975  1
  O  O50  1  0.14906209  0.24539111  0.25193908  1
  O  O51  1  0.75654797  0.35287699  0.75193908  1
  O  O52  1  0.64569226  0.72152605  0.23914257  1
  O  O53  1  0.10430774  0.52847395  0.26085743  1
  O  O54  1  0.48238348  0.40654969  0.76085743  1
  O  O55  1  0.60093791  0.00460889  0.24806092  1
  O  O56  1  0.72539076  0.66308917  0.74381025  1
  O  O57  1  0.38655065  0.79625362  0.27024429  1
  O  O58  1  0.22398967  0.13369263  0.77024429  1
  O  O59  1  0.73158052  0.97539076  0.56230160  1
  O  O60  1  0.47152605  0.73238348  0.57583479  1
  O  O61  1  0.10287699  0.85093791  0.09632902  1
  O  O62  1  0.99539111  0.24345203  0.59632902  1
  O  O63  1  0.20374638  0.47398967  0.59029704  1
  O  O64  1  0.54625362  0.77601033  0.90970296  1
  O  O65  1  0.75460889  0.00654797  0.90367098  1
  O  O66  1  0.27847395  0.51761652  0.92416521  1
  O  O67  1  0.15654969  0.89569226  0.42416521  1
  O  O68  1  0.01841948  0.27460924  0.93769840  1
  O  O69  1  0.02460924  0.58691083  0.75618975  1
  O  O70  1  0.26761652  0.84345031  0.73914257  1
  O  O71  1  0.99345203  0.89712301  0.74806092  1
