# generated using pymatgen
data_HoLuO3
_symmetry_space_group_name_H-M   'P 1'
_cell_length_a   5.57601775
_cell_length_b   5.84943113
_cell_length_c   8.25877054
_cell_angle_alpha   90.00000000
_cell_angle_beta   90.00000000
_cell_angle_gamma   90.00000000
_symmetry_Int_Tables_number   1
_chemical_formula_structural   HoLuO3
_chemical_formula_sum   'Ho4 Lu4 O12'
_cell_volume   269.37245202
_cell_formula_units_Z   4
loop_
 _symmetry_equiv_pos_site_id
 _symmetry_equiv_pos_as_xyz
  1  'x, y, z'
loop_
 _atom_site_type_symbol
 _atom_site_label
 _atom_site_symmetry_multiplicity
 _atom_site_fract_x
 _atom_site_fract_y
 _atom_site_fract_z
 _atom_site_occupancy
  Ho  Ho0  1  0.01884161  0.94326985  0.75000000  1
  Ho  Ho1  1  0.48115839  0.44326985  0.75000000  1
  Ho  Ho2  1  0.51884161  0.55673015  0.25000000  1
  Ho  Ho3  1  0.98115839  0.05673015  0.25000000  1
  Lu  Lu4  1  0.00000000  0.50000000  0.00000000  1
  Lu  Lu5  1  0.00000000  0.50000000  0.50000000  1
  Lu  Lu6  1  0.50000000  0.00000000  0.00000000  1
  Lu  Lu7  1  0.50000000  0.00000000  0.50000000  1
  O  O8  1  0.14460241  0.43017240  0.25000000  1
  O  O9  1  0.18378824  0.18697289  0.57654944  1
  O  O10  1  0.18378824  0.18697289  0.92345056  1
  O  O11  1  0.31621176  0.68697289  0.92345056  1
  O  O12  1  0.31621176  0.68697289  0.57654944  1
  O  O13  1  0.35539759  0.93017240  0.25000000  1
  O  O14  1  0.64460241  0.06982760  0.75000000  1
  O  O15  1  0.68378824  0.31302711  0.07654944  1
  O  O16  1  0.68378824  0.31302711  0.42345056  1
  O  O17  1  0.81621176  0.81302711  0.07654944  1
  O  O18  1  0.81621176  0.81302711  0.42345056  1
  O  O19  1  0.85539759  0.56982760  0.75000000  1
