# generated using pymatgen
data_LiNi3P3O13
_symmetry_space_group_name_H-M   'P 1'
_cell_length_a   6.27679808
_cell_length_b   7.40503517
_cell_length_c   10.28082571
_cell_angle_alpha   99.54788643
_cell_angle_beta   90.00000000
_cell_angle_gamma   90.00000000
_symmetry_Int_Tables_number   1
_chemical_formula_structural   LiNi3P3O13
_chemical_formula_sum   'Li2 Ni6 P6 O26'
_cell_volume   471.23232754
_cell_formula_units_Z   2
loop_
 _symmetry_equiv_pos_site_id
 _symmetry_equiv_pos_as_xyz
  1  'x, y, z'
loop_
 _atom_site_type_symbol
 _atom_site_label
 _atom_site_symmetry_multiplicity
 _atom_site_fract_x
 _atom_site_fract_y
 _atom_site_fract_z
 _atom_site_occupancy
  Li  Li0  1  0.75000000  0.62475892  0.16539729  1
  Li  Li1  1  0.25000000  0.37524108  0.83460271  1
  Ni  Ni2  1  0.25000000  0.36255691  0.20004316  1
  Ni  Ni3  1  0.75000000  0.63744309  0.79995684  1
  Ni  Ni4  1  0.25000000  0.76142796  0.43719502  1
  Ni  Ni5  1  0.50000000  -0.00000000  -0.00000000  1
  Ni  Ni6  1  0.75000000  0.23857204  0.56280498  1
  Ni  Ni7  1  -0.00000000  -0.00000000  -0.00000000  1
  P  P8  1  0.25000000  0.21170607  0.48691968  1
  P  P9  1  0.75000000  0.78829393  0.51308032  1
  P  P10  1  0.25000000  0.74108264  0.76192519  1
  P  P11  1  0.75000000  0.25891736  0.23807481  1
  P  P12  1  0.75000000  0.31383354  0.88819457  1
  P  P13  1  0.25000000  0.68616646  0.11180543  1
  O  O14  1  0.75000000  0.36515219  0.74643187  1
  O  O15  1  0.55940579  0.75097334  0.41669246  1
  O  O16  1  0.25000000  0.80712325  0.62936397  1
  O  O17  1  0.54297378  0.20947622  0.90645863  1
  O  O18  1  0.75000000  0.64240789  0.60511865  1
  O  O19  1  0.75000000  0.87795532  0.90473124  1
  O  O20  1  0.25000000  0.35759211  0.39488135  1
  O  O21  1  0.04297378  0.79052378  0.09354137  1
  O  O22  1  0.25000000  0.02015462  0.40418568  1
  O  O23  1  0.75000000  0.97984538  0.59581432  1
  O  O24  1  0.06176860  0.61403619  0.78477794  1
  O  O25  1  0.25000000  0.12204468  0.09526876  1
  O  O26  1  0.56176860  0.38596381  0.21522206  1
  O  O27  1  0.75000000  0.51039680  0.96988903  1
  O  O28  1  0.75000000  0.19287675  0.37063603  1
  O  O29  1  0.45702622  0.79052378  0.09354137  1
  O  O30  1  0.94059421  0.75097334  0.41669246  1
  O  O31  1  0.44059421  0.24902666  0.58330754  1
  O  O32  1  0.43823140  0.61403619  0.78477794  1
  O  O33  1  0.25000000  0.63484781  0.25356813  1
  O  O34  1  0.75000000  0.08574779  0.12879935  1
  O  O35  1  0.25000000  0.91425221  0.87120065  1
  O  O36  1  0.93823140  0.38596381  0.21522206  1
  O  O37  1  0.95702622  0.20947622  0.90645863  1
  O  O38  1  0.05940579  0.24902666  0.58330754  1
  O  O39  1  0.25000000  0.48960320  0.03011097  1
