# generated using pymatgen
data_La2Ti3O9
_symmetry_space_group_name_H-M   'P 1'
_cell_length_a   8.02750887
_cell_length_b   6.05326272
_cell_length_c   8.76397234
_cell_angle_alpha   90.00000000
_cell_angle_beta   110.75615733
_cell_angle_gamma   90.00000000
_symmetry_Int_Tables_number   1
_chemical_formula_structural   La2Ti3O9
_chemical_formula_sum   'La4 Ti6 O18'
_cell_volume   398.22455870
_cell_formula_units_Z   2
loop_
 _symmetry_equiv_pos_site_id
 _symmetry_equiv_pos_as_xyz
  1  'x, y, z'
loop_
 _atom_site_type_symbol
 _atom_site_label
 _atom_site_symmetry_multiplicity
 _atom_site_fract_x
 _atom_site_fract_y
 _atom_site_fract_z
 _atom_site_occupancy
  La  La0  1  0.21186357  0.75084003  0.74791903  1
  La  La1  1  0.19441867  0.24997658  0.10745734  1
  La  La2  1  0.80558133  0.74997658  0.89254266  1
  La  La3  1  0.78813643  0.25084003  0.25208097  1
  Ti  Ti4  1  0.07575967  0.74968489  0.31238472  1
  Ti  Ti5  1  0.50833705  0.24970794  0.82926864  1
  Ti  Ti6  1  0.48514440  0.47877185  0.49301205  1
  Ti  Ti7  1  0.51485560  0.97877185  0.50698795  1
  Ti  Ti8  1  0.49166295  0.74970794  0.17073136  1
  Ti  Ti9  1  0.92424033  0.24968489  0.68761528  1
  O  O10  1  0.99978995  0.24606117  0.52200461  1
  O  O11  1  0.99831254  0.99483535  0.18342717  1
  O  O12  1  0.99567761  0.50783356  0.17938341  1
  O  O13  1  0.36888928  0.25037929  0.94815551  1
  O  O14  1  0.32870786  0.74708468  0.41462547  1
  O  O15  1  0.32964572  0.25749489  0.41780711  1
  O  O16  1  0.46040862  0.98512067  0.71045270  1
  O  O17  1  0.46634661  0.51587239  0.71213510  1
  O  O18  1  0.26494973  0.74569872  0.03580863  1
  O  O19  1  0.73505027  0.24569872  0.96419137  1
  O  O20  1  0.53365339  0.01587239  0.28786490  1
  O  O21  1  0.53959138  0.48512067  0.28954730  1
  O  O22  1  0.67035428  0.75749489  0.58219289  1
  O  O23  1  0.67129214  0.24708468  0.58537453  1
  O  O24  1  0.63111072  0.75037929  0.05184449  1
  O  O25  1  0.00432239  0.00783356  0.82061659  1
  O  O26  1  0.00168746  0.49483535  0.81657283  1
  O  O27  1  0.00021005  0.74606117  0.47799539  1
