# generated using pymatgen
data_AlCrO4
_symmetry_space_group_name_H-M   'P 1'
_cell_length_a   4.46680885
_cell_length_b   5.32722695
_cell_length_c   4.46669148
_cell_angle_alpha   88.86081184
_cell_angle_beta   91.36062983
_cell_angle_gamma   146.97417591
_symmetry_Int_Tables_number   1
_chemical_formula_structural   AlCrO4
_chemical_formula_sum   'Al1 Cr1 O4'
_cell_volume   57.91246968
_cell_formula_units_Z   1
loop_
 _symmetry_equiv_pos_site_id
 _symmetry_equiv_pos_as_xyz
  1  'x, y, z'
loop_
 _atom_site_type_symbol
 _atom_site_label
 _atom_site_symmetry_multiplicity
 _atom_site_fract_x
 _atom_site_fract_y
 _atom_site_fract_z
 _atom_site_occupancy
  Al  Al0  1  0.50044731  0.99814560  0.50051176  1
  Cr  Cr1  1  0.50344490  0.50126557  0.00041402  1
  O  O2  1  0.20052663  0.99997670  0.80367224  1
  O  O3  1  0.19789841  0.49828466  0.69793475  1
  O  O4  1  0.80542661  0.99987076  0.19887813  1
  O  O5  1  0.80399215  0.49835571  0.30377310  1
