# generated using pymatgen
data_Li4V2Si(PO6)2
_symmetry_space_group_name_H-M   'P 1'
_cell_length_a   9.00271473
_cell_length_b   9.00271473
_cell_length_c   8.51281855
_cell_angle_alpha   57.93901355
_cell_angle_beta   122.06098645
_cell_angle_gamma   120.02288817
_symmetry_Int_Tables_number   1
_chemical_formula_structural   Li4V2Si(PO6)2
_chemical_formula_sum   'Li8 V4 Si2 P4 O24'
_cell_volume   472.04036780
_cell_formula_units_Z   2
loop_
 _symmetry_equiv_pos_site_id
 _symmetry_equiv_pos_as_xyz
  1  'x, y, z'
loop_
 _atom_site_type_symbol
 _atom_site_label
 _atom_site_symmetry_multiplicity
 _atom_site_fract_x
 _atom_site_fract_y
 _atom_site_fract_z
 _atom_site_occupancy
  Li  Li0  1  0.26467255  0.83217644  0.77123697  1
  Li  Li1  1  0.16782356  0.73532745  0.27123697  1
  Li  Li2  1  0.01603901  0.51263957  0.99757701  1
  Li  Li3  1  0.64741096  0.66830732  0.72351377  1
  Li  Li4  1  0.33169268  0.35258904  0.22351377  1
  Li  Li5  1  0.84411937  0.25752288  0.74778276  1
  Li  Li6  1  0.48736043  0.98396099  0.49757701  1
  Li  Li7  1  0.74247712  0.15588063  0.24778276  1
  V  V8  1  0.63925384  0.85665864  0.92526515  1
  V  V9  1  0.14334136  0.36074616  0.42526515  1
  V  V10  1  0.85899052  0.64507683  0.57554129  1
  V  V11  1  0.35492317  0.14100948  0.07554129  1
  Si  Si12  1  0.25032613  0.54756132  0.74686836  1
  Si  Si13  1  0.45243868  0.74967387  0.24686836  1
  P  P14  1  0.95460152  0.95391559  0.75251193  1
  P  P15  1  0.55019843  0.25170138  0.75245040  1
  P  P16  1  0.04608441  0.04539848  0.25251193  1
  P  P17  1  0.74829862  0.44980157  0.25245040  1
  O  O18  1  0.11271494  0.98641082  0.94143097  1
  O  O19  1  0.01358918  0.88728506  0.44143097  1
  O  O20  1  0.09194793  0.57288720  0.76801745  1
  O  O21  1  0.41406117  0.74862542  0.72366420  1
  O  O22  1  0.30546340  0.37408289  0.94871585  1
  O  O23  1  0.18701994  0.51710636  0.54487153  1
  O  O24  1  0.76437766  0.93715458  0.73370146  1
  O  O25  1  0.42711280  0.90805207  0.26801745  1
  O  O26  1  0.25137458  0.58593883  0.22366420  1
  O  O27  1  0.62591711  0.69453660  0.44871585  1
  O  O28  1  0.48289364  0.81298006  0.04487153  1
  O  O29  1  0.93378448  0.76135509  0.77460695  1
  O  O30  1  0.06284542  0.23562234  0.23370046  1
  O  O31  1  0.52036286  0.18790267  0.94359640  1
  O  O32  1  0.39033569  0.31284462  0.56388630  1
  O  O33  1  0.74092273  0.40689967  0.77108119  1
  O  O34  1  0.57498041  0.10341877  0.73156187  1
  O  O35  1  0.23864491  0.06621552  0.27460695  1
  O  O36  1  0.81209733  0.47963714  0.44359640  1
  O  O37  1  0.68715538  0.60966431  0.06388630  1
  O  O38  1  0.59310033  0.25907727  0.27108119  1
  O  O39  1  0.89658123  0.42501959  0.23156187  1
  O  O40  1  0.98483076  0.11216526  0.56211718  1
  O  O41  1  0.88783474  0.01516924  0.06211718  1
