# generated using pymatgen
data_Li5MnO4
_symmetry_space_group_name_H-M   'P 1'
_cell_length_a   9.92618898
_cell_length_b   5.36011184
_cell_length_c   15.35609742
_cell_angle_alpha   90.00000000
_cell_angle_beta   90.00000000
_cell_angle_gamma   90.00000000
_symmetry_Int_Tables_number   1
_chemical_formula_structural   Li5MnO4
_chemical_formula_sum   'Li40 Mn8 O32'
_cell_volume   817.02858142
_cell_formula_units_Z   8
loop_
 _symmetry_equiv_pos_site_id
 _symmetry_equiv_pos_as_xyz
  1  'x, y, z'
loop_
 _atom_site_type_symbol
 _atom_site_label
 _atom_site_symmetry_multiplicity
 _atom_site_fract_x
 _atom_site_fract_y
 _atom_site_fract_z
 _atom_site_occupancy
  Li  Li0  1  0.04175350  0.07675480  0.43073214  1
  Li  Li1  1  0.04175350  0.42324520  0.93073214  1
  Li  Li2  1  0.12270766  0.59991540  0.75733799  1
  Li  Li3  1  0.12270766  0.90008460  0.25733799  1
  Li  Li4  1  0.21073529  0.70753580  0.99346070  1
  Li  Li5  1  0.21073529  0.79246420  0.49346070  1
  Li  Li6  1  0.16310941  0.10630896  0.82604536  1
  Li  Li7  1  0.16310941  0.39369104  0.32604536  1
  Li  Li8  1  0.17305149  0.56252994  0.15603347  1
  Li  Li9  1  0.17305149  0.93747006  0.65603347  1
  Li  Li10  1  0.32694851  0.06252994  0.15603347  1
  Li  Li11  1  0.32694851  0.43747006  0.65603347  1
  Li  Li12  1  0.33689059  0.60630896  0.82604536  1
  Li  Li13  1  0.33689059  0.89369104  0.32604536  1
  Li  Li14  1  0.28926471  0.20753580  0.99346070  1
  Li  Li15  1  0.28926471  0.29246420  0.49346070  1
  Li  Li16  1  0.37729234  0.40008460  0.25733799  1
  Li  Li17  1  0.37729234  0.09991540  0.75733799  1
  Li  Li18  1  0.45824650  0.92324520  0.93073214  1
  Li  Li19  1  0.45824650  0.57675480  0.43073214  1
  Li  Li20  1  0.54175350  0.07675480  0.06926786  1
  Li  Li21  1  0.54175350  0.42324520  0.56926786  1
  Li  Li22  1  0.62270766  0.90008460  0.24266201  1
  Li  Li23  1  0.62270766  0.59991540  0.74266201  1
  Li  Li24  1  0.71073529  0.79246420  0.00653930  1
  Li  Li25  1  0.71073529  0.70753580  0.50653930  1
  Li  Li26  1  0.66310941  0.39369104  0.17395464  1
  Li  Li27  1  0.66310941  0.10630896  0.67395464  1
  Li  Li28  1  0.67305149  0.56252994  0.34396653  1
  Li  Li29  1  0.67305149  0.93747006  0.84396653  1
  Li  Li30  1  0.82694851  0.06252994  0.34396653  1
  Li  Li31  1  0.82694851  0.43747006  0.84396653  1
  Li  Li32  1  0.83689059  0.60630896  0.67395464  1
  Li  Li33  1  0.83689059  0.89369104  0.17395464  1
  Li  Li34  1  0.78926471  0.20753580  0.50653930  1
  Li  Li35  1  0.78926471  0.29246420  0.00653930  1
  Li  Li36  1  0.87729234  0.09991540  0.74266201  1
  Li  Li37  1  0.87729234  0.40008460  0.24266201  1
  Li  Li38  1  0.95824650  0.92324520  0.56926786  1
  Li  Li39  1  0.95824650  0.57675480  0.06926786  1
  Mn  Mn40  1  0.05596208  0.14995786  0.12007315  1
  Mn  Mn41  1  0.05596208  0.35004214  0.62007315  1
  Mn  Mn42  1  0.44403792  0.64995786  0.12007315  1
  Mn  Mn43  1  0.44403792  0.85004214  0.62007315  1
  Mn  Mn44  1  0.55596208  0.14995786  0.37992685  1
  Mn  Mn45  1  0.55596208  0.35004214  0.87992685  1
  Mn  Mn46  1  0.94403792  0.64995786  0.37992685  1
  Mn  Mn47  1  0.94403792  0.85004214  0.87992685  1
  O  O48  1  0.02514030  0.81557913  0.14907912  1
  O  O49  1  0.02514030  0.68442087  0.64907912  1
  O  O50  1  0.18121266  0.22540489  0.21200280  1
  O  O51  1  0.18121266  0.27459511  0.71200280  1
  O  O52  1  0.13448266  0.39217156  0.04078331  1
  O  O53  1  0.13448266  0.10782844  0.54078331  1
  O  O54  1  0.13296594  0.76134520  0.37881239  1
  O  O55  1  0.13296594  0.73865480  0.87881239  1
  O  O56  1  0.36703406  0.26134520  0.37881239  1
  O  O57  1  0.36703406  0.23865480  0.87881239  1
  O  O58  1  0.36551734  0.89217156  0.04078331  1
  O  O59  1  0.36551734  0.60782844  0.54078331  1
  O  O60  1  0.31878734  0.77459511  0.71200280  1
  O  O61  1  0.31878734  0.72540489  0.21200280  1
  O  O62  1  0.47485970  0.31557913  0.14907912  1
  O  O63  1  0.47485970  0.18442087  0.64907912  1
  O  O64  1  0.52514030  0.81557913  0.35092088  1
  O  O65  1  0.52514030  0.68442087  0.85092088  1
  O  O66  1  0.68121266  0.27459511  0.78799720  1
  O  O67  1  0.68121266  0.22540489  0.28799720  1
  O  O68  1  0.63448266  0.10782844  0.95921669  1
  O  O69  1  0.63448266  0.39217156  0.45921669  1
  O  O70  1  0.63296594  0.76134520  0.12118761  1
  O  O71  1  0.63296594  0.73865480  0.62118761  1
  O  O72  1  0.86703406  0.23865480  0.62118761  1
  O  O73  1  0.86703406  0.26134520  0.12118761  1
  O  O74  1  0.86551734  0.89217156  0.45921669  1
  O  O75  1  0.86551734  0.60782844  0.95921669  1
  O  O76  1  0.81878734  0.77459511  0.78799720  1
  O  O77  1  0.81878734  0.72540489  0.28799720  1
  O  O78  1  0.97485970  0.31557913  0.35092088  1
  O  O79  1  0.97485970  0.18442087  0.85092088  1
