# generated using pymatgen
data_Li2AlNiO4
_symmetry_space_group_name_H-M   'P 1'
_cell_length_a   5.27373743
_cell_length_b   5.27373743
_cell_length_c   6.35826032
_cell_angle_alpha   90.00000000
_cell_angle_beta   90.00000000
_cell_angle_gamma   89.66196568
_symmetry_Int_Tables_number   1
_chemical_formula_structural   Li2AlNiO4
_chemical_formula_sum   'Li4 Al2 Ni2 O8'
_cell_volume   176.83480716
_cell_formula_units_Z   2
loop_
 _symmetry_equiv_pos_site_id
 _symmetry_equiv_pos_as_xyz
  1  'x, y, z'
loop_
 _atom_site_type_symbol
 _atom_site_label
 _atom_site_symmetry_multiplicity
 _atom_site_fract_x
 _atom_site_fract_y
 _atom_site_fract_z
 _atom_site_occupancy
  Li  Li0  1  0.31289688  0.68710312  0.50000000  1
  Li  Li1  1  0.18236394  0.18236394  0.75000000  1
  Li  Li2  1  0.81763606  0.81763606  0.25000000  1
  Li  Li3  1  0.68710312  0.31289688  0.00000000  1
  Al  Al4  1  0.32314336  0.67685664  0.00000000  1
  Al  Al5  1  0.67685664  0.32314336  0.50000000  1
  Ni  Ni6  1  0.17702990  0.17702990  0.25000000  1
  Ni  Ni7  1  0.82297010  0.82297010  0.75000000  1
  O  O8  1  0.20113205  0.82289638  0.22950804  1
  O  O9  1  0.17710362  0.79886795  0.77049196  1
  O  O10  1  0.29585304  0.33954643  0.01368143  1
  O  O11  1  0.66045357  0.70414696  0.98631857  1
  O  O12  1  0.33954643  0.29585304  0.48631857  1
  O  O13  1  0.70414696  0.66045357  0.51368143  1
  O  O14  1  0.82289638  0.20113205  0.27049196  1
  O  O15  1  0.79886795  0.17710362  0.72950804  1
