# generated using pymatgen
data_Li6Fe2C4SO16
_symmetry_space_group_name_H-M   'P 1'
_cell_length_a   9.44081113
_cell_length_b   9.44081113
_cell_length_c   9.44081113
_cell_angle_alpha   60.00000000
_cell_angle_beta   60.00000000
_cell_angle_gamma   60.00000000
_symmetry_Int_Tables_number   1
_chemical_formula_structural   Li6Fe2C4SO16
_chemical_formula_sum   'Li12 Fe4 C8 S2 O32'
_cell_volume   594.99447127
_cell_formula_units_Z   2
loop_
 _symmetry_equiv_pos_site_id
 _symmetry_equiv_pos_as_xyz
  1  'x, y, z'
loop_
 _atom_site_type_symbol
 _atom_site_label
 _atom_site_symmetry_multiplicity
 _atom_site_fract_x
 _atom_site_fract_y
 _atom_site_fract_z
 _atom_site_occupancy
  Li  Li0  1  0.65647034  0.09352966  0.09352966  1
  Li  Li1  1  0.90647034  0.34352966  0.34352966  1
  Li  Li2  1  0.09352966  0.65647034  0.09352966  1
  Li  Li3  1  0.09352966  0.09352966  0.65647034  1
  Li  Li4  1  0.65647034  0.09352966  0.65647034  1
  Li  Li5  1  0.65647034  0.65647034  0.09352966  1
  Li  Li6  1  0.34352966  0.34352966  0.90647034  1
  Li  Li7  1  0.34352966  0.90647034  0.34352966  1
  Li  Li8  1  0.90647034  0.34352966  0.90647034  1
  Li  Li9  1  0.90647034  0.90647034  0.34352966  1
  Li  Li10  1  0.09352966  0.65647034  0.65647034  1
  Li  Li11  1  0.34352966  0.90647034  0.90647034  1
  Fe  Fe12  1  0.50000000  0.50000000  0.00000000  1
  Fe  Fe13  1  0.50000000  0.00000000  0.50000000  1
  Fe  Fe14  1  0.00000000  0.50000000  0.50000000  1
  Fe  Fe15  1  0.50000000  0.50000000  0.50000000  1
  C  C16  1  0.67596455  0.27467815  0.27467815  1
  C  C17  1  0.27467815  0.27467815  0.27467815  1
  C  C18  1  0.27467815  0.27467815  0.67596455  1
  C  C19  1  0.27467815  0.67596455  0.27467815  1
  C  C20  1  0.72532185  0.32403545  0.72532185  1
  C  C21  1  0.72532185  0.72532185  0.32403545  1
  C  C22  1  0.32403545  0.72532185  0.72532185  1
  C  C23  1  0.72532185  0.72532185  0.72532185  1
  S  S24  1  0.12500000  0.12500000  0.12500000  1
  S  S25  1  0.87500000  0.87500000  0.87500000  1
  O  O26  1  0.31897731  0.06034123  0.06034123  1
  O  O27  1  0.06034123  0.06034123  0.06034123  1
  O  O28  1  0.06034123  0.31897731  0.06034123  1
  O  O29  1  0.06034123  0.06034123  0.31897731  1
  O  O30  1  0.67564732  0.13299191  0.28366724  1
  O  O31  1  0.40769353  0.28366724  0.13299191  1
  O  O32  1  0.67564732  0.40769353  0.13299191  1
  O  O33  1  0.28366724  0.13299191  0.40769353  1
  O  O34  1  0.13299191  0.40769353  0.28366724  1
  O  O35  1  0.67564732  0.28366724  0.40769353  1
  O  O36  1  0.28366724  0.67564732  0.13299191  1
  O  O37  1  0.40769353  0.13299191  0.67564732  1
  O  O38  1  0.86700809  0.32435268  0.59230647  1
  O  O39  1  0.71633276  0.59230647  0.32435268  1
  O  O40  1  0.40769353  0.67564732  0.28366724  1
  O  O41  1  0.13299191  0.28366724  0.67564732  1
  O  O42  1  0.59230647  0.32435268  0.71633276  1
  O  O43  1  0.86700809  0.71633276  0.32435268  1
  O  O44  1  0.13299191  0.67564732  0.40769353  1
  O  O45  1  0.28366724  0.40769353  0.67564732  1
  O  O46  1  0.71633276  0.32435268  0.86700809  1
  O  O47  1  0.59230647  0.86700809  0.32435268  1
  O  O48  1  0.32435268  0.71633276  0.59230647  1
  O  O49  1  0.86700809  0.59230647  0.71633276  1
  O  O50  1  0.32435268  0.59230647  0.86700809  1
  O  O51  1  0.71633276  0.86700809  0.59230647  1
  O  O52  1  0.59230647  0.71633276  0.86700809  1
  O  O53  1  0.32435268  0.86700809  0.71633276  1
  O  O54  1  0.93965877  0.93965877  0.68102269  1
  O  O55  1  0.93965877  0.68102269  0.93965877  1
  O  O56  1  0.93965877  0.93965877  0.93965877  1
  O  O57  1  0.68102269  0.93965877  0.93965877  1
