# generated using pymatgen
data_Li4Mn2Fe3P6WO24
_symmetry_space_group_name_H-M   'P 1'
_cell_length_a   8.58273293
_cell_length_b   9.09724114
_cell_length_c   9.08488579
_cell_angle_alpha   59.98931876
_cell_angle_beta   58.46173419
_cell_angle_gamma   58.85312239
_symmetry_Int_Tables_number   1
_chemical_formula_structural   Li4Mn2Fe3P6WO24
_chemical_formula_sum   'Li4 Mn2 Fe3 P6 W1 O24'
_cell_volume   491.10934294
_cell_formula_units_Z   1
loop_
 _symmetry_equiv_pos_site_id
 _symmetry_equiv_pos_as_xyz
  1  'x, y, z'
loop_
 _atom_site_type_symbol
 _atom_site_label
 _atom_site_symmetry_multiplicity
 _atom_site_fract_x
 _atom_site_fract_y
 _atom_site_fract_z
 _atom_site_occupancy
  Li  Li0  1  0.24800073  0.84796382  0.64957843  1
  Li  Li1  1  0.78727028  0.15541885  0.35545933  1
  Li  Li2  1  0.78344857  0.70722219  0.15356453  1
  Li  Li3  1  0.78155765  0.36370256  0.70198477  1
  Mn  Mn4  1  0.02877250  0.99015591  0.00243606  1
  Mn  Mn5  1  0.48904141  0.49568340  0.50150742  1
  Fe  Fe6  1  0.05271382  0.64571444  0.65027740  1
  Fe  Fe7  1  0.44841695  0.84974108  0.85122375  1
  Fe  Fe8  1  0.96259779  0.34791993  0.34341299  1
  P  P9  1  0.24060332  0.25277263  0.55694401  1
  P  P10  1  0.24358431  0.94612522  0.25574347  1
  P  P11  1  0.24313921  0.55652426  0.94634442  1
  P  P12  1  0.74464982  0.45487085  0.04827138  1
  P  P13  1  0.75595015  0.05112456  0.74860080  1
  P  P14  1  0.73650669  0.75385388  0.45273407  1
  W  W15  1  0.55779699  0.14993838  0.14658781  1
  O  O16  1  0.05535944  0.10052030  0.31536762  1
  O  O17  1  0.05272052  0.52813257  0.09846799  1
  O  O18  1  0.04948239  0.32355622  0.52756463  1
  O  O19  1  0.22976308  0.08817263  0.73401455  1
  O  O20  1  0.41825253  0.18794647  0.39161755  1
  O  O21  1  0.27553592  0.39729039  0.56565850  1
  O  O22  1  0.23841684  0.92275759  0.10210014  1
  O  O23  1  0.27063558  0.76730759  0.41594757  1
  O  O24  1  0.56303944  0.59981859  0.00997703  1
  O  O25  1  0.27362616  0.57259546  0.75455381  1
  O  O26  1  0.76227632  0.25399355  0.08135466  1
  O  O27  1  0.58281299  0.00156099  0.81266445  1
  O  O28  1  0.42619382  0.99435757  0.19043725  1
  O  O29  1  0.22769049  0.74532126  0.92320419  1
  O  O30  1  0.72586448  0.43199209  0.24077561  1
  O  O31  1  0.42231605  0.39786653  0.99114018  1
  O  O32  1  0.73494724  0.24039433  0.59315304  1
  O  O33  1  0.75807538  0.09181305  0.90188231  1
  O  O34  1  0.73052513  0.59718816  0.42801736  1
  O  O35  1  0.54039941  0.82139295  0.59529459  1
  O  O36  1  0.76381610  0.90244443  0.25158173  1
  O  O37  1  0.91019129  0.70454340  0.49413513  1
  O  O38  1  0.93163202  0.48105656  0.89605369  1
  O  O39  1  0.95237520  0.90224739  0.69736677  1
