# generated using pymatgen
data_Fe(SbO3)4
_symmetry_space_group_name_H-M   'P 1'
_cell_length_a   5.48162710
_cell_length_b   10.99549778
_cell_length_c   9.70315689
_cell_angle_alpha   27.98398013
_cell_angle_beta   51.05676150
_cell_angle_gamma   56.27661887
_symmetry_Int_Tables_number   1
_chemical_formula_structural   Fe(SbO3)4
_chemical_formula_sum   'Fe1 Sb4 O12'
_cell_volume   213.43660250
_cell_formula_units_Z   1
loop_
 _symmetry_equiv_pos_site_id
 _symmetry_equiv_pos_as_xyz
  1  'x, y, z'
loop_
 _atom_site_type_symbol
 _atom_site_label
 _atom_site_symmetry_multiplicity
 _atom_site_fract_x
 _atom_site_fract_y
 _atom_site_fract_z
 _atom_site_occupancy
  Fe  Fe0  1  0.29946052  -0.00342965  0.28529879  1
  Sb  Sb1  1  0.01347152  0.00607487  0.96932910  1
  Sb  Sb2  1  0.96372100  0.49668441  0.00800027  1
  Sb  Sb3  1  0.49050478  0.99258719  0.50581373  1
  Sb  Sb4  1  0.48439107  0.50312854  0.48208604  1
  O  O5  1  0.34931307  0.28370770  0.13016353  1
  O  O6  1  0.24245283  0.14382281  0.59065150  1
  O  O7  1  0.10450009  0.31851791  0.73658061  1
  O  O8  1  0.88719116  0.17877830  0.23197051  1
  O  O9  1  0.37849147  0.81894990  0.09930591  1
  O  O10  1  0.73779105  0.35896459  0.38401694  1
  O  O11  1  0.22137792  0.64256659  0.59998252  1
  O  O12  1  0.60061712  0.18504055  0.87148216  1
  O  O13  1  0.12462976  0.82702847  0.69866972  1
  O  O14  1  0.86503347  0.68984621  0.23345297  1
  O  O15  1  0.70184420  0.89146753  0.34538940  1
  O  O16  1  0.59450996  0.66626408  0.88710530  1
