# generated using pymatgen
data_Li2FeBO4
_symmetry_space_group_name_H-M   'P 1'
_cell_length_a   5.86078608
_cell_length_b   10.54072648
_cell_length_c   5.00108218
_cell_angle_alpha   90.00000000
_cell_angle_beta   90.00000000
_cell_angle_gamma   90.00000000
_symmetry_Int_Tables_number   1
_chemical_formula_structural   Li2FeBO4
_chemical_formula_sum   'Li8 Fe4 B4 O16'
_cell_volume   308.95156891
_cell_formula_units_Z   4
loop_
 _symmetry_equiv_pos_site_id
 _symmetry_equiv_pos_as_xyz
  1  'x, y, z'
loop_
 _atom_site_type_symbol
 _atom_site_label
 _atom_site_symmetry_multiplicity
 _atom_site_fract_x
 _atom_site_fract_y
 _atom_site_fract_z
 _atom_site_occupancy
  Li  Li0  1  0.00446781  0.33149811  0.17614825  1
  Li  Li1  1  0.00446781  0.83149811  0.32385175  1
  Li  Li2  1  0.49553219  0.33149811  0.17614825  1
  Li  Li3  1  0.49553219  0.83149811  0.32385175  1
  Li  Li4  1  0.50446781  0.16850189  0.67614825  1
  Li  Li5  1  0.50446781  0.66850189  0.82385175  1
  Li  Li6  1  0.99553219  0.66850189  0.82385175  1
  Li  Li7  1  0.99553219  0.16850189  0.67614825  1
  Fe  Fe8  1  0.25000000  0.42367761  0.67866879  1
  Fe  Fe9  1  0.25000000  0.92367761  0.82133121  1
  Fe  Fe10  1  0.75000000  0.07632239  0.17866879  1
  Fe  Fe11  1  0.75000000  0.57632239  0.32133121  1
  B  B12  1  0.25000000  0.08860942  0.17135157  1
  B  B13  1  0.25000000  0.58860942  0.32864843  1
  B  B14  1  0.75000000  0.41139058  0.67135157  1
  B  B15  1  0.75000000  0.91139058  0.82864843  1
  O  O16  1  0.03907553  0.14848116  0.28399816  1
  O  O17  1  0.03907553  0.64848116  0.21600184  1
  O  O18  1  0.25000000  0.10298428  0.86928208  1
  O  O19  1  0.25000000  0.44541880  0.28906591  1
  O  O20  1  0.25000000  0.94541880  0.21093409  1
  O  O21  1  0.25000000  0.60298428  0.63071792  1
  O  O22  1  0.46092447  0.14848116  0.28399816  1
  O  O23  1  0.46092447  0.64848116  0.21600184  1
  O  O24  1  0.53907553  0.85151884  0.71600184  1
  O  O25  1  0.53907553  0.35151884  0.78399816  1
  O  O26  1  0.75000000  0.05458120  0.78906591  1
  O  O27  1  0.75000000  0.39701572  0.36928208  1
  O  O28  1  0.75000000  0.55458120  0.71093409  1
  O  O29  1  0.75000000  0.89701572  0.13071792  1
  O  O30  1  0.96092447  0.35151884  0.78399816  1
  O  O31  1  0.96092447  0.85151884  0.71600184  1
