# generated using pymatgen
data_CuTeO4
_symmetry_space_group_name_H-M   'P 1'
_cell_length_a   6.01668292
_cell_length_b   6.35564918
_cell_length_c   6.35564965
_cell_angle_alpha   53.92074414
_cell_angle_beta   61.74910470
_cell_angle_gamma   61.74910243
_symmetry_Int_Tables_number   1
_chemical_formula_structural   CuTeO4
_chemical_formula_sum   'Cu2 Te2 O8'
_cell_volume   166.43945317
_cell_formula_units_Z   2
loop_
 _symmetry_equiv_pos_site_id
 _symmetry_equiv_pos_as_xyz
  1  'x, y, z'
loop_
 _atom_site_type_symbol
 _atom_site_label
 _atom_site_symmetry_multiplicity
 _atom_site_fract_x
 _atom_site_fract_y
 _atom_site_fract_z
 _atom_site_occupancy
  Cu  Cu0  1  0.50000000  0.00000000  0.50000000  1
  Cu  Cu1  1  0.50000000  0.50000000  0.00000000  1
  Te  Te2  1  0.00000000  0.50000000  0.50000000  1
  Te  Te3  1  0.50000000  0.50000000  0.50000000  1
  O  O4  1  0.23387126  0.29762696  0.29762696  1
  O  O5  1  0.23845910  0.28212008  0.74096173  1
  O  O6  1  0.23845910  0.74096173  0.28212008  1
  O  O7  1  0.67087482  0.29762696  0.29762696  1
  O  O8  1  0.32912518  0.70237304  0.70237304  1
  O  O9  1  0.76154090  0.71788092  0.25903827  1
  O  O10  1  0.76154090  0.25903827  0.71788092  1
  O  O11  1  0.76612874  0.70237304  0.70237304  1
