# generated using pymatgen
data_LaMg2
_symmetry_space_group_name_H-M   'P 1'
_cell_length_a   10.10621980
_cell_length_b   6.07115913
_cell_length_c   5.53897288
_cell_angle_alpha   90.00000000
_cell_angle_beta   90.00000000
_cell_angle_gamma   90.00000000
_symmetry_Int_Tables_number   1
_chemical_formula_structural   LaMg2
_chemical_formula_sum   'La4 Mg8'
_cell_volume   339.85181564
_cell_formula_units_Z   4
loop_
 _symmetry_equiv_pos_site_id
 _symmetry_equiv_pos_as_xyz
  1  'x, y, z'
loop_
 _atom_site_type_symbol
 _atom_site_label
 _atom_site_symmetry_multiplicity
 _atom_site_fract_x
 _atom_site_fract_y
 _atom_site_fract_z
 _atom_site_occupancy
  La  La0  1  -0.00000000  0.68089056  0.75000000  1
  La  La1  1  -0.00000000  0.31910944  0.25000000  1
  La  La2  1  0.50000000  0.18089056  0.75000000  1
  La  La3  1  0.50000000  0.81910944  0.25000000  1
  Mg  Mg4  1  0.16818852  0.15747263  0.75000000  1
  Mg  Mg5  1  0.33181148  0.65747263  0.75000000  1
  Mg  Mg6  1  0.16818852  0.84252737  0.25000000  1
  Mg  Mg7  1  0.33181148  0.34252737  0.25000000  1
  Mg  Mg8  1  0.66818852  0.65747263  0.75000000  1
  Mg  Mg9  1  0.83181148  0.15747263  0.75000000  1
  Mg  Mg10  1  0.66818852  0.34252737  0.25000000  1
  Mg  Mg11  1  0.83181148  0.84252737  0.25000000  1
