# generated using pymatgen
data_Na2CuBSO7
_symmetry_space_group_name_H-M   'P 1'
_cell_length_a   8.76142487
_cell_length_b   7.33987978
_cell_length_c   5.06973203
_cell_angle_alpha   90.00000000
_cell_angle_beta   88.63371356
_cell_angle_gamma   90.00000000
_symmetry_Int_Tables_number   1
_chemical_formula_structural   Na2CuBSO7
_chemical_formula_sum   'Na4 Cu2 B2 S2 O14'
_cell_volume   325.93064950
_cell_formula_units_Z   2
loop_
 _symmetry_equiv_pos_site_id
 _symmetry_equiv_pos_as_xyz
  1  'x, y, z'
loop_
 _atom_site_type_symbol
 _atom_site_label
 _atom_site_symmetry_multiplicity
 _atom_site_fract_x
 _atom_site_fract_y
 _atom_site_fract_z
 _atom_site_occupancy
  Na  Na0  1  0.23049712  0.49814271  0.23195761  1
  Na  Na1  1  0.23049712  0.00185729  0.23195761  1
  Na  Na2  1  0.76950288  0.50185729  0.76804239  1
  Na  Na3  1  0.76950288  0.99814271  0.76804239  1
  Cu  Cu4  1  0.34459534  0.75000000  0.77404314  1
  Cu  Cu5  1  0.65540466  0.25000000  0.22595686  1
  B  B6  1  0.07421879  0.75000000  0.72598209  1
  B  B7  1  0.92578121  0.25000000  0.27401791  1
  S  S8  1  0.42089579  0.25000000  0.72173099  1
  S  S9  1  0.57910421  0.75000000  0.27826901  1
  O  O10  1  0.07579326  0.25000000  0.28785358  1
  O  O11  1  0.15763748  0.75000000  0.95761901  1
  O  O12  1  0.18653043  0.75000000  0.52373797  1
  O  O13  1  0.33413341  0.08397333  0.78502395  1
  O  O14  1  0.33413341  0.41602667  0.78502395  1
  O  O15  1  0.42820292  0.75000000  0.13993696  1
  O  O16  1  0.46072192  0.25000000  0.42600977  1
  O  O17  1  0.53927808  0.75000000  0.57399023  1
  O  O18  1  0.57179708  0.25000000  0.86006304  1
  O  O19  1  0.66586659  0.58397333  0.21497605  1
  O  O20  1  0.66586659  0.91602667  0.21497605  1
  O  O21  1  0.81346957  0.25000000  0.47626203  1
  O  O22  1  0.84236252  0.25000000  0.04238099  1
  O  O23  1  0.92420674  0.75000000  0.71214642  1
