# generated using pymatgen
data_Mn3Cr3(SnO8)2
_symmetry_space_group_name_H-M   'P 1'
_cell_length_a   5.85123912
_cell_length_b   5.83526318
_cell_length_c   9.51162972
_cell_angle_alpha   90.10984502
_cell_angle_beta   90.06271602
_cell_angle_gamma   119.94016823
_symmetry_Int_Tables_number   1
_chemical_formula_structural   Mn3Cr3(SnO8)2
_chemical_formula_sum   'Mn3 Cr3 Sn2 O16'
_cell_volume   281.41896988
_cell_formula_units_Z   1
loop_
 _symmetry_equiv_pos_site_id
 _symmetry_equiv_pos_as_xyz
  1  'x, y, z'
loop_
 _atom_site_type_symbol
 _atom_site_label
 _atom_site_symmetry_multiplicity
 _atom_site_fract_x
 _atom_site_fract_y
 _atom_site_fract_z
 _atom_site_occupancy
  Mn  Mn0  1  0.65811056  0.82947306  0.21463772  1
  Mn  Mn1  1  0.82883975  0.66212727  0.71431021  1
  Mn  Mn2  1  0.82864971  0.16680260  0.71426763  1
  Cr  Cr3  1  0.15990544  0.82724901  0.21380295  1
  Cr  Cr4  1  0.16362956  0.32973398  0.20789429  1
  Cr  Cr5  1  0.32952030  0.16494685  0.70838614  1
  Sn  Sn6  1  0.33901970  0.66882669  0.49167676  1
  Sn  Sn7  1  0.66680612  0.33490198  0.98964562  1
  O  O8  1  0.16525254  0.84023457  0.60904878  1
  O  O9  1  0.04604406  0.52249811  0.32810675  1
  O  O10  1  0.33785202  0.67084592  0.10696199  1
  O  O11  1  0.99226306  0.99503013  0.31170989  1
  O  O12  1  0.99252831  0.99686643  0.81254172  1
  O  O13  1  0.16495153  0.32401476  0.60868762  1
  O  O14  1  0.48208786  0.96342297  0.33084051  1
  O  O15  1  0.47947161  0.51760144  0.32891887  1
  O  O16  1  0.32876398  0.16424476  0.11048952  1
  O  O17  1  0.68236210  0.84063636  0.60508071  1
  O  O18  1  0.51815600  0.48084886  0.82819195  1
  O  O19  1  0.51852985  0.03856001  0.82851869  1
  O  O20  1  0.67405813  0.33686228  0.60777686  1
  O  O21  1  0.83881459  0.67767973  0.10690176  1
  O  O22  1  0.96407448  0.48238547  0.82989466  1
  O  O23  1  0.84031172  0.16440575  0.10742741  1
