# generated using pymatgen
data_Li6Fe2B4SO16
_symmetry_space_group_name_H-M   'P 1'
_cell_length_a   9.49151292
_cell_length_b   9.49151348
_cell_length_c   9.49151291
_cell_angle_alpha   90.00000049
_cell_angle_beta   59.99999997
_cell_angle_gamma   60.00000193
_symmetry_Int_Tables_number   1
_chemical_formula_structural   Li6Fe2B4SO16
_chemical_formula_sum   'Li12 Fe4 B8 S2 O32'
_cell_volume   604.63233306
_cell_formula_units_Z   2
loop_
 _symmetry_equiv_pos_site_id
 _symmetry_equiv_pos_as_xyz
  1  'x, y, z'
loop_
 _atom_site_type_symbol
 _atom_site_label
 _atom_site_symmetry_multiplicity
 _atom_site_fract_x
 _atom_site_fract_y
 _atom_site_fract_z
 _atom_site_occupancy
  Li  Li0  1  0.75000000  0.65555040  0.90555040  1
  Li  Li1  1  0.68890021  0.90555040  0.65555040  1
  Li  Li2  1  0.75000000  0.09444960  0.90555040  1
  Li  Li3  1  0.75000000  0.65555040  0.34444960  1
  Li  Li4  1  0.81109979  0.34444960  0.09444960  1
  Li  Li5  1  0.25000000  0.90555040  0.65555040  1
  Li  Li6  1  0.75000000  0.09444960  0.34444960  1
  Li  Li7  1  0.18890021  0.65555040  0.90555040  1
  Li  Li8  1  0.25000000  0.34444960  0.65555040  1
  Li  Li9  1  0.25000000  0.90555040  0.09444960  1
  Li  Li10  1  0.31109979  0.09444960  0.34444960  1
  Li  Li11  1  0.25000000  0.34444960  0.09444960  1
  Fe  Fe12  1  0.50000000  0.50000000  0.50000000  1
  Fe  Fe13  1  0.50000000  0.50000000  0.00000000  1
  Fe  Fe14  1  0.00000000  0.50000000  0.50000000  1
  Fe  Fe15  1  0.00000000  0.00000000  0.50000000  1
  B  B16  1  0.93667735  0.28166083  0.71833917  1
  B  B17  1  0.56332265  0.65501652  0.71833917  1
  B  B18  1  0.93667735  0.28166083  0.34498348  1
  B  B19  1  0.56332265  0.28166083  0.71833917  1
  B  B20  1  0.43667735  0.71833917  0.28166083  1
  B  B21  1  0.06332265  0.71833917  0.65501652  1
  B  B22  1  0.43667735  0.34498348  0.28166083  1
  B  B23  1  0.06332265  0.71833917  0.28166083  1
  S  S24  1  0.75000000  0.87500000  0.12500000  1
  S  S25  1  0.25000000  0.12500000  0.87500000  1
  O  O26  1  0.92462464  0.87017777  0.65672914  1
  O  O27  1  0.92462464  0.70519860  0.41864622  1
  O  O28  1  0.78655138  0.41864622  0.87017777  1
  O  O29  1  0.71344862  0.65672914  0.70519860  1
  O  O30  1  0.95153154  0.12982223  0.70519860  1
  O  O31  1  0.87866333  0.93933116  0.06066784  1
  O  O32  1  0.95153154  0.41864622  0.34327086  1
  O  O33  1  0.62133667  0.93933116  0.31799549  1
  O  O34  1  0.87866333  0.68200451  0.06066784  1
  O  O35  1  0.42462464  0.65672914  0.87017777  1
  O  O36  1  0.54846846  0.65672914  0.58135378  1
  O  O37  1  0.62133667  0.93933116  0.06066784  1
  O  O38  1  0.54846846  0.29480140  0.87017777  1
  O  O39  1  0.78655138  0.29480140  0.34327086  1
  O  O40  1  0.71344862  0.12982223  0.58135378  1
  O  O41  1  0.57537536  0.58135378  0.29480140  1
  O  O42  1  0.42462464  0.41864622  0.70519860  1
  O  O43  1  0.28655138  0.87017777  0.41864622  1
  O  O44  1  0.21344862  0.70519860  0.65672914  1
  O  O45  1  0.45153154  0.70519860  0.12982223  1
  O  O46  1  0.37866333  0.06066784  0.93933116  1
  O  O47  1  0.45153154  0.34327086  0.41864622  1
  O  O48  1  0.57537536  0.34327086  0.12982223  1
  O  O49  1  0.12133667  0.31799549  0.93933116  1
  O  O50  1  0.37866333  0.06066784  0.68200451  1
  O  O51  1  0.04846846  0.58135378  0.65672914  1
  O  O52  1  0.12133667  0.06066784  0.93933116  1
  O  O53  1  0.04846846  0.87017777  0.29480140  1
  O  O54  1  0.28655138  0.34327086  0.29480140  1
  O  O55  1  0.21344862  0.58135378  0.12982223  1
  O  O56  1  0.07537536  0.29480140  0.58135378  1
  O  O57  1  0.07537536  0.12982223  0.34327086  1
