# generated using pymatgen
data_Li4ZrO4
_symmetry_space_group_name_H-M   'P 1'
_cell_length_a   5.57670511
_cell_length_b   14.71317929
_cell_length_c   5.53179315
_cell_angle_alpha   90.00000000
_cell_angle_beta   116.71928728
_cell_angle_gamma   90.00000000
_symmetry_Int_Tables_number   1
_chemical_formula_structural   Li4ZrO4
_chemical_formula_sum   'Li16 Zr4 O16'
_cell_volume   405.42322072
_cell_formula_units_Z   4
loop_
 _symmetry_equiv_pos_site_id
 _symmetry_equiv_pos_as_xyz
  1  'x, y, z'
loop_
 _atom_site_type_symbol
 _atom_site_label
 _atom_site_symmetry_multiplicity
 _atom_site_fract_x
 _atom_site_fract_y
 _atom_site_fract_z
 _atom_site_occupancy
  Li  Li0  1  0.25354593  0.20936813  0.70705744  1
  Li  Li1  1  0.23677378  0.99834007  0.70379241  1
  Li  Li2  1  0.27928863  0.77195849  0.85547136  1
  Li  Li3  1  0.33502352  0.61198730  0.74776150  1
  Li  Li4  1  0.25354593  0.29063187  0.20705744  1
  Li  Li5  1  0.23677378  0.50165993  0.20379241  1
  Li  Li6  1  0.27928863  0.72804151  0.35547136  1
  Li  Li7  1  0.33502352  0.88801270  0.24776150  1
  Li  Li8  1  0.66497648  0.11198730  0.75223850  1
  Li  Li9  1  0.72071137  0.27195849  0.64452864  1
  Li  Li10  1  0.76322622  0.49834007  0.79620759  1
  Li  Li11  1  0.74645407  0.70936813  0.79294256  1
  Li  Li12  1  0.66497648  0.38801270  0.25223850  1
  Li  Li13  1  0.72071137  0.22804151  0.14452864  1
  Li  Li14  1  0.76322622  0.00165993  0.29620759  1
  Li  Li15  1  0.74645407  0.79063187  0.29294256  1
  Zr  Zr16  1  0.21481370  0.39679480  0.64427962  1
  Zr  Zr17  1  0.21481370  0.10320520  0.14427962  1
  Zr  Zr18  1  0.78518630  0.89679480  0.85572038  1
  Zr  Zr19  1  0.78518630  0.60320520  0.35572038  1
  O  O20  1  0.94445571  0.30022524  0.46515872  1
  O  O21  1  0.11947992  0.51117394  0.79619523  1
  O  O22  1  0.94445571  0.19977476  0.96515872  1
  O  O23  1  0.11947992  0.98882606  0.29619523  1
  O  O24  1  0.42509679  0.31622502  0.95857906  1
  O  O25  1  0.45938886  0.40168561  0.46782731  1
  O  O26  1  0.54061114  0.90168561  0.03217269  1
  O  O27  1  0.42509679  0.18377498  0.45857906  1
  O  O28  1  0.57490321  0.81622502  0.54142094  1
  O  O29  1  0.45938886  0.09831439  0.96782731  1
  O  O30  1  0.54061114  0.59831439  0.53217269  1
  O  O31  1  0.57490321  0.68377498  0.04142094  1
  O  O32  1  0.88052008  0.01117394  0.70380477  1
  O  O33  1  0.05554429  0.80022524  0.03484128  1
  O  O34  1  0.88052008  0.48882606  0.20380477  1
  O  O35  1  0.05554429  0.69977476  0.53484128  1
