# generated using pymatgen
data_Li6CrSn3(PO4)6
_symmetry_space_group_name_H-M   'P 1'
_cell_length_a   8.66443544
_cell_length_b   8.51566619
_cell_length_c   8.63150597
_cell_angle_alpha   64.52298123
_cell_angle_beta   63.69448373
_cell_angle_gamma   65.25680341
_symmetry_Int_Tables_number   1
_chemical_formula_structural   Li6CrSn3(PO4)6
_chemical_formula_sum   'Li6 Cr1 Sn3 P6 O24'
_cell_volume   494.53054399
_cell_formula_units_Z   1
loop_
 _symmetry_equiv_pos_site_id
 _symmetry_equiv_pos_as_xyz
  1  'x, y, z'
loop_
 _atom_site_type_symbol
 _atom_site_label
 _atom_site_symmetry_multiplicity
 _atom_site_fract_x
 _atom_site_fract_y
 _atom_site_fract_z
 _atom_site_occupancy
  Li  Li0  1  0.02834906  0.98945211  0.97801485  1
  Li  Li1  1  0.74285576  0.15951728  0.37262201  1
  Li  Li2  1  0.47066139  0.53533858  0.51587197  1
  Li  Li3  1  0.22853389  0.86059618  0.68349177  1
  Li  Li4  1  0.67438100  0.21321045  0.86575487  1
  Li  Li5  1  0.86530838  0.68195215  0.21128068  1
  Cr  Cr6  1  0.84654995  0.84633550  0.83613649  1
  Sn  Sn7  1  0.14462975  0.14847332  0.14668442  1
  Sn  Sn8  1  0.36274808  0.35999114  0.35296431  1
  Sn  Sn9  1  0.66791676  0.65667616  0.66586797  1
  P  P10  1  0.06970052  0.74148904  0.41871219  1
  P  P11  1  0.41365489  0.07864564  0.74535896  1
  P  P12  1  0.75265852  0.42585548  0.06246679  1
  P  P13  1  0.24856852  0.55534378  0.96139160  1
  P  P14  1  0.55828301  0.96086308  0.24290187  1
  P  P15  1  0.95392660  0.23745360  0.55265237  1
  O  O16  1  0.12323777  0.29613470  0.49083362  1
  O  O17  1  0.34003917  0.50531325  0.10201851  1
  O  O18  1  0.09036541  0.90626626  0.24116125  1
  O  O19  1  0.55217595  0.10838346  0.31155822  1
  O  O20  1  0.25978896  0.60245179  0.41302656  1
  O  O21  1  0.00261162  0.79769532  0.58915672  1
  O  O22  1  0.23059831  0.10774086  0.90275310  1
  O  O23  1  0.41876533  0.26691652  0.59103773  1
  O  O24  1  0.60673561  0.41978157  0.25695276  1
  O  O25  1  0.15948828  0.40530671  0.02237904  1
  O  O26  1  0.10083559  0.73806124  0.95940894  1
  O  O27  1  0.38170383  0.03302880  0.19815170  1
  O  O28  1  0.57599843  0.02645417  0.80218400  1
  O  O29  1  0.89905643  0.23979937  0.10377297  1
  O  O30  1  0.81026742  0.59525387  0.00047325  1
  O  O31  1  0.38573213  0.57351272  0.76679279  1
  O  O32  1  0.57748671  0.76964545  0.38116372  1
  O  O33  1  0.72757661  0.95154870  0.07093518  1
  O  O34  1  0.96368155  0.18100903  0.39763348  1
  O  O35  1  0.77091952  0.38052568  0.59458664  1
  O  O36  1  0.40352361  0.94449526  0.67841500  1
  O  O37  1  0.95623198  0.07173755  0.72753621  1
  O  O38  1  0.69108760  0.41061080  0.92964783  1
  O  O39  1  0.94336610  0.66613145  0.40724965  1
