# generated using pymatgen
data_Li4Mn3V2Ni3O16
_symmetry_space_group_name_H-M   'P 1'
_cell_length_a   5.87368308
_cell_length_b   5.79557923
_cell_length_c   9.41674730
_cell_angle_alpha   90.01195891
_cell_angle_beta   91.20277890
_cell_angle_gamma   119.55647833
_symmetry_Int_Tables_number   1
_chemical_formula_structural   Li4Mn3V2Ni3O16
_chemical_formula_sum   'Li4 Mn3 V2 Ni3 O16'
_cell_volume   278.76280543
_cell_formula_units_Z   1
loop_
 _symmetry_equiv_pos_site_id
 _symmetry_equiv_pos_as_xyz
  1  'x, y, z'
loop_
 _atom_site_type_symbol
 _atom_site_label
 _atom_site_symmetry_multiplicity
 _atom_site_fract_x
 _atom_site_fract_y
 _atom_site_fract_z
 _atom_site_occupancy
  Li  Li0  1  0.33585900  0.66787367  0.90187793  1
  Li  Li1  1  0.99819304  0.99917099  0.98867948  1
  Li  Li2  1  0.00567840  0.00288674  0.49651599  1
  Li  Li3  1  0.65782685  0.32902472  0.40160843  1
  Mn  Mn4  1  0.17517697  0.83476887  0.21647486  1
  Mn  Mn5  1  0.17514017  0.34059556  0.21642613  1
  Mn  Mn6  1  0.35135018  0.17549990  0.71952334  1
  V  V7  1  0.33860718  0.66920378  0.49798449  1
  V  V8  1  0.70966358  0.35493061  0.98168826  1
  Ni  Ni9  1  0.65683890  0.82860701  0.21374960  1
  Ni  Ni10  1  0.83037072  0.66153719  0.71080716  1
  Ni  Ni11  1  0.83040882  0.16863399  0.71080639  1
  O  O12  1  0.18681794  0.83490682  0.59144650  1
  O  O13  1  0.03794345  0.51908487  0.33558601  1
  O  O14  1  0.31205688  0.65609013  0.10823713  1
  O  O15  1  0.00992925  0.00513763  0.30712991  1
  O  O16  1  0.01841798  0.00911772  0.80069499  1
  O  O17  1  0.18677964  0.35192020  0.59149284  1
  O  O18  1  0.46020345  0.95541054  0.34490877  1
  O  O19  1  0.46021242  0.50505546  0.34487674  1
  O  O20  1  0.31977016  0.15990691  0.10480051  1
  O  O21  1  0.65132036  0.82546821  0.57764137  1
  O  O22  1  0.50876800  0.46717753  0.84882880  1
  O  O23  1  0.50885885  0.04136051  0.84875796  1
  O  O24  1  0.65064563  0.32518026  0.60794988  1
  O  O25  1  0.83009619  0.65413355  0.09039878  1
  O  O26  1  0.96289750  0.48145749  0.85856616  1
  O  O27  1  0.83016644  0.17615914  0.09038257  1
