# generated using pymatgen
data_Li4Mn3Ni3(PO4)6
_symmetry_space_group_name_H-M   'P 1'
_cell_length_a   8.45770997
_cell_length_b   8.85936663
_cell_length_c   8.85181185
_cell_angle_alpha   60.01165121
_cell_angle_beta   59.14923351
_cell_angle_gamma   59.18609224
_symmetry_Int_Tables_number   1
_chemical_formula_structural   Li4Mn3Ni3(PO4)6
_chemical_formula_sum   'Li4 Mn3 Ni3 P6 O24'
_cell_volume   463.05212954
_cell_formula_units_Z   1
loop_
 _symmetry_equiv_pos_site_id
 _symmetry_equiv_pos_as_xyz
  1  'x, y, z'
loop_
 _atom_site_type_symbol
 _atom_site_label
 _atom_site_symmetry_multiplicity
 _atom_site_fract_x
 _atom_site_fract_y
 _atom_site_fract_z
 _atom_site_occupancy
  Li  Li0  1  0.25232666  0.85125705  0.64574257  1
  Li  Li1  1  0.77443869  0.14582953  0.35368758  1
  Li  Li2  1  0.77512596  0.72577806  0.14356669  1
  Li  Li3  1  0.77748649  0.35500765  0.72287875  1
  Mn  Mn4  1  0.01905450  0.99662788  0.00111352  1
  Mn  Mn5  1  0.55539643  0.15186179  0.14714673  1
  Mn  Mn6  1  0.49322142  0.49511917  0.49928998  1
  Ni  Ni7  1  0.06605704  0.64378328  0.64708103  1
  Ni  Ni8  1  0.43697116  0.85232455  0.85369711  1
  Ni  Ni9  1  0.94064411  0.35373794  0.34999501  1
  P  P10  1  0.24323342  0.25507412  0.54875523  1
  P  P11  1  0.24463421  0.95404034  0.25238912  1
  P  P12  1  0.24401946  0.55000674  0.95282733  1
  P  P13  1  0.74523037  0.45585531  0.04413534  1
  P  P14  1  0.75612789  0.04309542  0.75285706  1
  P  P15  1  0.73652062  0.75551493  0.45628583  1
  O  O16  1  0.05248418  0.10654392  0.31457816  1
  O  O17  1  0.05282949  0.52360267  0.10379534  1
  O  O18  1  0.05211430  0.32397126  0.51804631  1
  O  O19  1  0.23016592  0.08579463  0.73146635  1
  O  O20  1  0.43240840  0.19426735  0.38439287  1
  O  O21  1  0.27137261  0.40377767  0.56632582  1
  O  O22  1  0.23665440  0.92858477  0.09643226  1
  O  O23  1  0.27487276  0.76854151  0.41585784  1
  O  O24  1  0.56066217  0.60649435  0.01064755  1
  O  O25  1  0.27650129  0.56745727  0.75536043  1
  O  O26  1  0.76400945  0.25321148  0.06981543  1
  O  O27  1  0.58266429  0.99382789  0.81287031  1
  O  O28  1  0.43186781  0.99868945  0.18629121  1
  O  O29  1  0.22830108  0.74403009  0.92857321  1
  O  O30  1  0.72816027  0.42809988  0.24211384  1
  O  O31  1  0.43254732  0.38724355  0.99016912  1
  O  O32  1  0.73207287  0.24017002  0.59904943  1
  O  O33  1  0.76600075  0.07265142  0.91339305  1
  O  O34  1  0.72913683  0.60074626  0.42285229  1
  O  O35  1  0.53962257  0.81635757  0.60359758  1
  O  O36  1  0.76147436  0.91616595  0.25561361  1
  O  O37  1  0.91351008  0.70588561  0.49604081  1
  O  O38  1  0.93454237  0.47840819  0.88924099  1
  O  O39  1  0.95553699  0.89356248  0.69902430  1
