# generated using pymatgen
data_Li3Mn4VO8
_symmetry_space_group_name_H-M   'P 1'
_cell_length_a   6.15186499
_cell_length_b   6.15186500
_cell_length_c   6.10991885
_cell_angle_alpha   88.02855674
_cell_angle_beta   58.76847584
_cell_angle_gamma   58.72108770
_symmetry_Int_Tables_number   1
_chemical_formula_structural   Li3Mn4VO8
_chemical_formula_sum   'Li3 Mn4 V1 O8'
_cell_volume   160.02323432
_cell_formula_units_Z   1
loop_
 _symmetry_equiv_pos_site_id
 _symmetry_equiv_pos_as_xyz
  1  'x, y, z'
loop_
 _atom_site_type_symbol
 _atom_site_label
 _atom_site_symmetry_multiplicity
 _atom_site_fract_x
 _atom_site_fract_y
 _atom_site_fract_z
 _atom_site_occupancy
  Li  Li0  1  0.00000000  0.00000000  0.50000000  1
  Li  Li1  1  0.50000000  0.00000000  0.50000000  1
  Li  Li2  1  0.50000000  0.50000000  0.50000000  1
  Mn  Mn3  1  0.00000000  0.50000000  0.50000000  1
  Mn  Mn4  1  0.00000000  0.00000000  0.00000000  1
  Mn  Mn5  1  0.50000000  0.00000000  0.00000000  1
  Mn  Mn6  1  0.00000000  0.50000000  0.00000000  1
  V  V7  1  0.50000000  0.50000000  0.00000000  1
  O  O8  1  0.48367727  0.27358092  0.78990365  1
  O  O9  1  0.98813183  0.25020307  0.74941260  1
  O  O10  1  0.50079047  0.73754443  0.74941260  1
  O  O11  1  0.98353735  0.75089148  0.76735314  1
  O  O12  1  0.01646265  0.24910852  0.23264686  1
  O  O13  1  0.49920953  0.26245557  0.25058740  1
  O  O14  1  0.01186817  0.74979793  0.25058740  1
  O  O15  1  0.51632273  0.72641908  0.21009635  1
