# generated using pymatgen
data_Li5Co2Cu5O12
_symmetry_space_group_name_H-M   'P 1'
_cell_length_a   4.99617290
_cell_length_b   4.99617268
_cell_length_c   9.52181751
_cell_angle_alpha   88.24514992
_cell_angle_beta   91.75485497
_cell_angle_gamma   64.67015616
_symmetry_Int_Tables_number   1
_chemical_formula_structural   Li5Co2Cu5O12
_chemical_formula_sum   'Li5 Co2 Cu5 O12'
_cell_volume   214.47805773
_cell_formula_units_Z   1
loop_
 _symmetry_equiv_pos_site_id
 _symmetry_equiv_pos_as_xyz
  1  'x, y, z'
loop_
 _atom_site_type_symbol
 _atom_site_label
 _atom_site_symmetry_multiplicity
 _atom_site_fract_x
 _atom_site_fract_y
 _atom_site_fract_z
 _atom_site_occupancy
  Li  Li0  1  0.16669143  0.65990692  0.50766555  1
  Li  Li1  1  0.32517017  0.84817921  0.99512386  1
  Li  Li2  1  0.65990692  0.16669143  0.99233445  1
  Li  Li3  1  0.84817921  0.32517017  0.50487614  1
  Li  Li4  1  0.91651164  0.91651164  0.75000000  1
  Co  Co5  1  0.24648285  0.24648285  0.75000000  1
  Co  Co6  1  0.75006725  0.75006725  0.25000000  1
  Cu  Cu7  1  0.08010544  0.08010544  0.25000000  1
  Cu  Cu8  1  0.99458872  0.51091920  0.99841989  1
  Cu  Cu9  1  0.51091920  0.99458872  0.50158011  1
  Cu  Cu10  1  0.41970937  0.41970937  0.25000000  1
  Cu  Cu11  1  0.58248801  0.58248801  0.75000000  1
  O  O12  1  0.98404586  0.21474354  0.87967181  1
  O  O13  1  0.21474354  0.98404586  0.62032819  1
  O  O14  1  0.07724876  0.42450149  0.34633031  1
  O  O15  1  0.42450149  0.07724876  0.15366969  1
  O  O16  1  0.30050757  0.51703740  0.87204159  1
  O  O17  1  0.51703740  0.30050757  0.62795841  1
  O  O18  1  0.48222554  0.69972449  0.37565922  1
  O  O19  1  0.69972449  0.48222554  0.12434078  1
  O  O20  1  0.56681482  0.91933302  0.84918233  1
  O  O21  1  0.91933302  0.56681482  0.65081767  1
  O  O22  1  0.80405977  0.00893651  0.38017789  1
  O  O23  1  0.00893651  0.80405977  0.11982211  1
