# generated using pymatgen
data_Ti2Mn3Cr3O16
_symmetry_space_group_name_H-M   'P 1'
_cell_length_a   5.82969317
_cell_length_b   5.81008716
_cell_length_c   9.02069537
_cell_angle_alpha   89.84887896
_cell_angle_beta   90.12716124
_cell_angle_gamma   120.02750992
_symmetry_Int_Tables_number   1
_chemical_formula_structural   Ti2Mn3Cr3O16
_chemical_formula_sum   'Ti2 Mn3 Cr3 O16'
_cell_volume   264.53113317
_cell_formula_units_Z   1
loop_
 _symmetry_equiv_pos_site_id
 _symmetry_equiv_pos_as_xyz
  1  'x, y, z'
loop_
 _atom_site_type_symbol
 _atom_site_label
 _atom_site_symmetry_multiplicity
 _atom_site_fract_x
 _atom_site_fract_y
 _atom_site_fract_z
 _atom_site_occupancy
  Ti  Ti0  1  0.34002151  0.67182591  0.49503470  1
  Ti  Ti1  1  0.66486477  0.32807348  0.99389471  1
  Mn  Mn2  1  0.65948861  0.82995883  0.21206033  1
  Mn  Mn3  1  0.83076613  0.66256829  0.71277912  1
  Mn  Mn4  1  0.83067120  0.16845873  0.71302532  1
  Cr  Cr5  1  0.16337240  0.83025524  0.20875915  1
  Cr  Cr6  1  0.16422074  0.33467607  0.21574745  1
  Cr  Cr7  1  0.33269766  0.16756189  0.71038683  1
  O  O8  1  0.17175628  0.83765664  0.60265213  1
  O  O9  1  0.04594160  0.52350477  0.33424820  1
  O  O10  1  0.33735537  0.66486370  0.10139593  1
  O  O11  1  0.99369752  0.99932120  0.31392280  1
  O  O12  1  0.99319689  0.99650943  0.81622461  1
  O  O13  1  0.17094699  0.33459424  0.60256133  1
  O  O14  1  0.47708628  0.95547091  0.33444688  1
  O  O15  1  0.47898033  0.52282204  0.33697584  1
  O  O16  1  0.33711084  0.16632955  0.10350632  1
  O  O17  1  0.66440319  0.83278586  0.60020020  1
  O  O18  1  0.52184682  0.47846576  0.83382213  1
  O  O19  1  0.52176648  0.04276550  0.83453736  1
  O  O20  1  0.67412301  0.33726842  0.60193896  1
  O  O21  1  0.83621848  0.66575095  0.10152209  1
  O  O22  1  0.95762788  0.47905368  0.83556077  1
  O  O23  1  0.83183904  0.16965591  0.10051783  1
