# generated using pymatgen
data_LiCo3O4
_symmetry_space_group_name_H-M   'P 1'
_cell_length_a   5.99301763
_cell_length_b   2.99422178
_cell_length_c   6.00620937
_cell_angle_alpha   60.21717699
_cell_angle_beta   91.20919527
_cell_angle_gamma   120.85137171
_symmetry_Int_Tables_number   1
_chemical_formula_structural   LiCo3O4
_chemical_formula_sum   'Li1 Co3 O4'
_cell_volume   76.25653368
_cell_formula_units_Z   1
loop_
 _symmetry_equiv_pos_site_id
 _symmetry_equiv_pos_as_xyz
  1  'x, y, z'
loop_
 _atom_site_type_symbol
 _atom_site_label
 _atom_site_symmetry_multiplicity
 _atom_site_fract_x
 _atom_site_fract_y
 _atom_site_fract_z
 _atom_site_occupancy
  Li  Li0  1  0.00006124  0.99945913  0.50030285  1
  Co  Co1  1  0.00003705  0.99936397  0.00032235  1
  Co  Co2  1  0.50004116  0.99937455  0.00032346  1
  Co  Co3  1  0.50003918  0.99936706  0.50032459  1
  O  O4  1  0.26742273  0.04029515  0.23451291  1
  O  O5  1  0.74387626  -0.00383792  0.24151217  1
  O  O6  1  0.25619114  0.00252901  0.75914549  1
  O  O7  1  0.73264824  0.95842505  0.76613718  1
