# generated using pymatgen
data_Li5Nb2Co3O10
_symmetry_space_group_name_H-M   'P 1'
_cell_length_a   5.20987043
_cell_length_b   5.30628852
_cell_length_c   7.97362076
_cell_angle_alpha   110.30302417
_cell_angle_beta   102.47841819
_cell_angle_gamma   99.92394658
_symmetry_Int_Tables_number   1
_chemical_formula_structural   Li5Nb2Co3O10
_chemical_formula_sum   'Li5 Nb2 Co3 O10'
_cell_volume   194.35131388
_cell_formula_units_Z   1
loop_
 _symmetry_equiv_pos_site_id
 _symmetry_equiv_pos_as_xyz
  1  'x, y, z'
loop_
 _atom_site_type_symbol
 _atom_site_label
 _atom_site_symmetry_multiplicity
 _atom_site_fract_x
 _atom_site_fract_y
 _atom_site_fract_z
 _atom_site_occupancy
  Li  Li0  1  0.22561501  0.90158365  0.40372512  1
  Li  Li1  1  0.42407821  0.30986514  0.79828356  1
  Li  Li2  1  0.50000000  0.50000000  0.50000000  1
  Li  Li3  1  0.57592179  0.69013486  0.20171644  1
  Li  Li4  1  0.77438499  0.09841635  0.59627488  1
  Nb  Nb5  1  0.11178857  0.72331489  0.71150458  1
  Nb  Nb6  1  0.88821143  0.27668511  0.28849542  1
  Co  Co7  1  0.00000000  0.50000000  0.00000000  1
  Co  Co8  1  0.72683921  0.90591361  0.91099252  1
  Co  Co9  1  0.27316079  0.09408639  0.08900748  1
  O  O10  1  0.04587645  0.10274128  0.83541701  1
  O  O11  1  0.34727813  0.69673097  0.93911281  1
  O  O12  1  0.13812016  0.32744814  0.54296460  1
  O  O13  1  0.22479477  0.49215104  0.24776976  1
  O  O14  1  0.43404014  0.89383110  0.65810628  1
  O  O15  1  0.56595986  0.10616890  0.34189372  1
  O  O16  1  0.77520523  0.50784896  0.75223024  1
  O  O17  1  0.86187984  0.67255186  0.45703540  1
  O  O18  1  0.65272187  0.30326903  0.06088719  1
  O  O19  1  0.95412355  0.89725872  0.16458299  1
