# generated using pymatgen
data_Mg2Sn
_symmetry_space_group_name_H-M   'P 1'
_cell_length_a   11.78967464
_cell_length_b   3.29047549
_cell_length_c   7.65864785
_cell_angle_alpha   90.00000000
_cell_angle_beta   104.45376836
_cell_angle_gamma   90.00000000
_symmetry_Int_Tables_number   1
_chemical_formula_structural   Mg2Sn
_chemical_formula_sum   'Mg8 Sn4'
_cell_volume   287.70317137
_cell_formula_units_Z   4
loop_
 _symmetry_equiv_pos_site_id
 _symmetry_equiv_pos_as_xyz
  1  'x, y, z'
loop_
 _atom_site_type_symbol
 _atom_site_label
 _atom_site_symmetry_multiplicity
 _atom_site_fract_x
 _atom_site_fract_y
 _atom_site_fract_z
 _atom_site_occupancy
  Mg  Mg0  1  0.50009277  0.50000000  0.00026058  1
  Mg  Mg1  1  0.66570735  -0.00000000  0.33244306  1
  Mg  Mg2  1  0.83409593  0.50000000  0.66686764  1
  Mg  Mg3  1  0.72185293  -0.00000000  0.94406159  1
  Mg  Mg4  1  0.00009277  -0.00000000  0.00026058  1
  Mg  Mg5  1  0.16570735  0.50000000  0.33244306  1
  Mg  Mg6  1  0.33409593  0.00000000  0.66686764  1
  Mg  Mg7  1  0.22185293  0.50000000  0.94406159  1
  Sn  Sn8  1  0.88619934  0.50000000  0.27229825  1
  Sn  Sn9  1  0.55871868  0.50000000  0.61740188  1
  Sn  Sn10  1  0.38619934  0.00000000  0.27229825  1
  Sn  Sn11  1  0.05871868  -0.00000000  0.61740188  1
