# generated using pymatgen
data_V3NiO8
_symmetry_space_group_name_H-M   'P 1'
_cell_length_a   5.65172085
_cell_length_b   7.09847990
_cell_length_c   5.39242859
_cell_angle_alpha   90.74227981
_cell_angle_beta   90.13599230
_cell_angle_gamma   88.89919615
_symmetry_Int_Tables_number   1
_chemical_formula_structural   V3NiO8
_chemical_formula_sum   'V3 Ni1 O8'
_cell_volume   216.27826431
_cell_formula_units_Z   1
loop_
 _symmetry_equiv_pos_site_id
 _symmetry_equiv_pos_as_xyz
  1  'x, y, z'
loop_
 _atom_site_type_symbol
 _atom_site_label
 _atom_site_symmetry_multiplicity
 _atom_site_fract_x
 _atom_site_fract_y
 _atom_site_fract_z
 _atom_site_occupancy
  V  V0  1  0.07617936  0.12201405  0.00846379  1
  V  V1  1  0.42349530  0.62818333  0.50001981  1
  V  V2  1  0.57244463  0.37133214  0.99745933  1
  Ni  Ni3  1  0.91442460  0.87563733  0.49752792  1
  O  O4  1  0.05317590  0.08083392  0.31582585  1
  O  O5  1  0.13359899  0.66633642  0.43557005  1
  O  O6  1  0.37704858  0.18073628  0.92454657  1
  O  O7  1  0.46530689  0.57088981  0.82262980  1
  O  O8  1  0.53702549  0.42894035  0.32352111  1
  O  O9  1  0.58151694  0.82267139  0.43775011  1
  O  O10  1  0.88204320  0.32010082  0.93964514  1
  O  O11  1  0.98374012  0.93232214  0.84543952  1
