# generated using pymatgen
data_Li3FeBPO7
_symmetry_space_group_name_H-M   'P 1'
_cell_length_a   8.42058535
_cell_length_b   6.44885575
_cell_length_c   5.02020819
_cell_angle_alpha   90.00000000
_cell_angle_beta   86.39198879
_cell_angle_gamma   90.00000000
_symmetry_Int_Tables_number   1
_chemical_formula_structural   Li3FeBPO7
_chemical_formula_sum   'Li6 Fe2 B2 P2 O14'
_cell_volume   272.07273341
_cell_formula_units_Z   2
loop_
 _symmetry_equiv_pos_site_id
 _symmetry_equiv_pos_as_xyz
  1  'x, y, z'
loop_
 _atom_site_type_symbol
 _atom_site_label
 _atom_site_symmetry_multiplicity
 _atom_site_fract_x
 _atom_site_fract_y
 _atom_site_fract_z
 _atom_site_occupancy
  Li  Li0  1  0.08348954  0.25000000  0.73706239  1
  Li  Li1  1  0.23114399  0.99000453  0.24623840  1
  Li  Li2  1  0.23114399  0.50999547  0.24623840  1
  Li  Li3  1  0.76885601  0.49000453  0.75376160  1
  Li  Li4  1  0.76885601  0.00999547  0.75376160  1
  Li  Li5  1  0.91651046  0.75000000  0.26293761  1
  Fe  Fe6  1  0.33261202  0.75000000  0.78304726  1
  Fe  Fe7  1  0.66738798  0.25000000  0.21695274  1
  B  B8  1  0.04314804  0.75000000  0.72876219  1
  B  B9  1  0.95685196  0.25000000  0.27123781  1
  P  P10  1  0.41937638  0.25000000  0.71920458  1
  P  P11  1  0.58062362  0.75000000  0.28079542  1
  O  O12  1  0.11123770  0.25000000  0.33324220  1
  O  O13  1  0.09902134  0.75000000  0.98573942  1
  O  O14  1  0.16638666  0.75000000  0.52343899  1
  O  O15  1  0.31386772  0.06204246  0.80840069  1
  O  O16  1  0.31386772  0.43795754  0.80840069  1
  O  O17  1  0.45255024  0.25000000  0.41032447  1
  O  O18  1  0.41745237  0.75000000  0.15486391  1
  O  O19  1  0.58254763  0.25000000  0.84513609  1
  O  O20  1  0.54744976  0.75000000  0.58967553  1
  O  O21  1  0.68613228  0.56204246  0.19159931  1
  O  O22  1  0.68613228  0.93795754  0.19159931  1
  O  O23  1  0.83361334  0.25000000  0.47656101  1
  O  O24  1  0.90097866  0.25000000  0.01426058  1
  O  O25  1  0.88876230  0.75000000  0.66675780  1
