# generated using pymatgen
data_CaPbI6
_symmetry_space_group_name_H-M   'P 1'
_cell_length_a   13.91268546
_cell_length_b   12.69845001
_cell_length_c   12.69845001
_cell_angle_alpha   118.41587647
_cell_angle_beta   76.16101914
_cell_angle_gamma   76.16101914
_symmetry_Int_Tables_number   1
_chemical_formula_structural   CaPbI6
_chemical_formula_sum   'Ca4 Pb4 I24'
_cell_volume   1744.50198177
_cell_formula_units_Z   4
loop_
 _symmetry_equiv_pos_site_id
 _symmetry_equiv_pos_as_xyz
  1  'x, y, z'
loop_
 _atom_site_type_symbol
 _atom_site_label
 _atom_site_symmetry_multiplicity
 _atom_site_fract_x
 _atom_site_fract_y
 _atom_site_fract_z
 _atom_site_occupancy
  Ca  Ca0  1  0.82296182  0.86338271  0.93978655  1
  Ca  Ca1  1  0.32296182  0.68978655  0.11338271  1
  Ca  Ca2  1  0.67703818  0.43634453  0.01274837  1
  Ca  Ca3  1  0.17703818  0.76274837  0.68634453  1
  Pb  Pb4  1  0.73585128  0.93278386  0.69758785  1
  Pb  Pb5  1  0.23585128  0.44758785  0.18278386  1
  Pb  Pb6  1  0.76414872  0.41863614  0.68343912  1
  Pb  Pb7  1  0.26414872  0.43343912  0.66863614  1
  I  I8  1  0.74870309  0.84416179  0.17375518  1
  I  I9  1  0.43434067  0.54831595  0.22037891  1
  I  I10  1  0.10078040  0.73011708  0.30444845  1
  I  I11  1  0.65615478  0.62195694  0.38652539  1
  I  I12  1  0.04858087  0.35692597  0.14895934  1
  I  I13  1  0.81763998  0.66054172  0.68257840  1
  I  I14  1  0.24870309  0.92375518  0.09416179  1
  I  I15  1  0.75129691  0.34286488  0.17245827  1
  I  I16  1  0.18236002  0.50021838  0.47818170  1
  I  I17  1  0.06565933  0.73265663  0.90471958  1
  I  I18  1  0.39921960  0.58089748  0.65522985  1
  I  I19  1  0.95141913  0.19754021  0.40550684  1
  I  I20  1  0.34384522  0.04268018  0.27811273  1
  I  I21  1  0.84384522  0.02811273  0.29268018  1
  I  I22  1  0.45141913  0.15550684  0.44754021  1
  I  I23  1  0.89921960  0.40522985  0.83089748  1
  I  I24  1  0.56565933  0.65471958  0.98265663  1
  I  I25  1  0.68236002  0.22818170  0.75021838  1
  I  I26  1  0.25129691  0.92245827  0.59286488  1
  I  I27  1  0.31763998  0.43257840  0.91054172  1
  I  I28  1  0.54858087  0.89895934  0.60692597  1
  I  I29  1  0.15615478  0.13652539  0.87195694  1
  I  I30  1  0.60078040  0.05444845  0.98011708  1
  I  I31  1  0.93434067  0.97037891  0.79831595  1
