# generated using pymatgen
data_Sb2P4H3O16
_symmetry_space_group_name_H-M   'P 1'
_cell_length_a   5.00506103
_cell_length_b   8.10931439
_cell_length_c   7.65471452
_cell_angle_alpha   88.71346942
_cell_angle_beta   102.49542479
_cell_angle_gamma   88.07487614
_symmetry_Int_Tables_number   1
_chemical_formula_structural   Sb2P4H3O16
_chemical_formula_sum   'Sb2 P4 H3 O16'
_cell_volume   303.01558762
_cell_formula_units_Z   1
loop_
 _symmetry_equiv_pos_site_id
 _symmetry_equiv_pos_as_xyz
  1  'x, y, z'
loop_
 _atom_site_type_symbol
 _atom_site_label
 _atom_site_symmetry_multiplicity
 _atom_site_fract_x
 _atom_site_fract_y
 _atom_site_fract_z
 _atom_site_occupancy
  Sb  Sb0  1  0.99923418  0.99578355  0.49692354  1
  Sb  Sb1  1  0.50241196  0.50130547  0.00401928  1
  P  P2  1  0.12058193  0.32954267  0.25567415  1
  P  P3  1  0.38391497  0.84792645  0.24062117  1
  P  P4  1  0.60985800  0.15256486  0.75140892  1
  P  P5  1  0.88313058  0.66941657  0.74861286  1
  H  H6  1  0.93939804  0.01282568  0.97120268  1
  H  H7  1  0.44066879  0.44538220  0.42082989  1
  H  H8  1  0.54303265  0.58991350  0.56816711  1
  O  O9  1  0.11786502  0.55017935  0.83405388  1
  O  O10  1  0.00883011  0.16229713  0.30132030  1
  O  O11  1  0.21381131  0.82737893  0.39652924  1
  O  O12  1  0.26710194  0.40490163  0.43983368  1
  O  O13  1  0.34448407  0.07268983  0.65538261  1
  O  O14  1  0.55668949  0.33140298  0.80015849  1
  O  O15  1  0.23194199  0.94304431  0.07874181  1
  O  O16  1  0.33601347  0.30667222  0.14045253  1
  O  O17  1  0.66527345  0.69325589  0.86182224  1
  O  O18  1  0.73757196  0.04489781  0.91956509  1
  O  O19  1  0.45401400  0.66299134  0.20863175  1
  O  O20  1  0.65440636  0.93049124  0.33649334  1
  O  O21  1  0.73722531  0.59055625  0.56573886  1
  O  O22  1  0.80476741  0.16487513  0.61437383  1
  O  O23  1  0.98917586  0.83874953  0.70174352  1
  O  O24  1  0.88747714  0.45085550  0.16959722  1
