# generated using pymatgen
data_Li3MnBPO7
_symmetry_space_group_name_H-M   'P 1'
_cell_length_a   8.31563672
_cell_length_b   6.68594635
_cell_length_c   4.99578552
_cell_angle_alpha   90.00000000
_cell_angle_beta   84.58781084
_cell_angle_gamma   90.00000000
_symmetry_Int_Tables_number   1
_chemical_formula_structural   Li3MnBPO7
_chemical_formula_sum   'Li6 Mn2 B2 P2 O14'
_cell_volume   276.51693429
_cell_formula_units_Z   2
loop_
 _symmetry_equiv_pos_site_id
 _symmetry_equiv_pos_as_xyz
  1  'x, y, z'
loop_
 _atom_site_type_symbol
 _atom_site_label
 _atom_site_symmetry_multiplicity
 _atom_site_fract_x
 _atom_site_fract_y
 _atom_site_fract_z
 _atom_site_occupancy
  Li  Li0  1  0.09824302  0.25000000  0.75845290  1
  Li  Li1  1  0.23985728  0.00319045  0.24916653  1
  Li  Li2  1  0.23985728  0.49680955  0.24916653  1
  Li  Li3  1  0.76014272  0.50319045  0.75083347  1
  Li  Li4  1  0.76014272  0.99680955  0.75083347  1
  Li  Li5  1  0.90175698  0.75000000  0.24154710  1
  Mn  Mn6  1  0.32709979  0.75000000  0.78860121  1
  Mn  Mn7  1  0.67290021  0.25000000  0.21139879  1
  B  B8  1  0.04356909  0.75000000  0.71432109  1
  B  B9  1  0.95643091  0.25000000  0.28567891  1
  P  P10  1  0.41415898  0.25000000  0.73995785  1
  P  P11  1  0.58584102  0.75000000  0.26004215  1
  O  O12  1  0.10879565  0.25000000  0.35648289  1
  O  O13  1  0.09250747  0.75000000  0.97385674  1
  O  O14  1  0.17792170  0.75000000  0.51750549  1
  O  O15  1  0.30652465  0.06896253  0.82807593  1
  O  O16  1  0.30652465  0.43103747  0.82807593  1
  O  O17  1  0.45700708  0.25000000  0.42970231  1
  O  O18  1  0.42212583  0.75000000  0.13333417  1
  O  O19  1  0.57787417  0.25000000  0.86666583  1
  O  O20  1  0.54299292  0.75000000  0.57029769  1
  O  O21  1  0.69347535  0.56896253  0.17192407  1
  O  O22  1  0.69347535  0.93103747  0.17192407  1
  O  O23  1  0.82207830  0.25000000  0.48249451  1
  O  O24  1  0.90749253  0.25000000  0.02614326  1
  O  O25  1  0.89120435  0.75000000  0.64351711  1
