# generated using pymatgen
data_LiTiVO5
_symmetry_space_group_name_H-M   'P 1'
_cell_length_a   6.66497300
_cell_length_b   6.66497300
_cell_length_c   4.60066529
_cell_angle_alpha   90.00000000
_cell_angle_beta   90.00000000
_cell_angle_gamma   88.33262052
_symmetry_Int_Tables_number   1
_chemical_formula_structural   LiTiVO5
_chemical_formula_sum   'Li2 Ti2 V2 O10'
_cell_volume   204.28360038
_cell_formula_units_Z   2
loop_
 _symmetry_equiv_pos_site_id
 _symmetry_equiv_pos_as_xyz
  1  'x, y, z'
loop_
 _atom_site_type_symbol
 _atom_site_label
 _atom_site_symmetry_multiplicity
 _atom_site_fract_x
 _atom_site_fract_y
 _atom_site_fract_z
 _atom_site_occupancy
  Li  Li0  1  0.00000000  0.50000000  0.00000000  1
  Li  Li1  1  0.50000000  0.00000000  0.00000000  1
  Ti  Ti2  1  0.25000000  0.75000000  0.50000000  1
  Ti  Ti3  1  0.75000000  0.25000000  0.50000000  1
  V  V4  1  0.25000000  0.25000000  0.62190006  1
  V  V5  1  0.75000000  0.75000000  0.37809994  1
  O  O6  1  0.02499370  0.74233211  0.27199424  1
  O  O7  1  0.25000000  0.25000000  0.26478365  1
  O  O8  1  0.24233211  0.52499370  0.72800576  1
  O  O9  1  0.25766789  0.97500630  0.72800576  1
  O  O10  1  0.47500630  0.75766789  0.27199424  1
  O  O11  1  0.52499370  0.24233211  0.72800576  1
  O  O12  1  0.74233211  0.02499370  0.27199424  1
  O  O13  1  0.75766789  0.47500630  0.27199424  1
  O  O14  1  0.75000000  0.75000000  0.73521635  1
  O  O15  1  0.97500630  0.25766789  0.72800576  1
