# generated using pymatgen
data_Ca3Pb3I14
_symmetry_space_group_name_H-M   'P 1'
_cell_length_a   17.03386793
_cell_length_b   4.50978068
_cell_length_c   24.30752097
_cell_angle_alpha   90.00000000
_cell_angle_beta   103.91104376
_cell_angle_gamma   90.00000000
_symmetry_Int_Tables_number   1
_chemical_formula_structural   Ca3Pb3I14
_chemical_formula_sum   'Ca6 Pb6 I28'
_cell_volume   1812.51264573
_cell_formula_units_Z   2
loop_
 _symmetry_equiv_pos_site_id
 _symmetry_equiv_pos_as_xyz
  1  'x, y, z'
loop_
 _atom_site_type_symbol
 _atom_site_label
 _atom_site_symmetry_multiplicity
 _atom_site_fract_x
 _atom_site_fract_y
 _atom_site_fract_z
 _atom_site_occupancy
  Ca  Ca0  1  0.05617452  0.75000000  0.81305740  1
  Ca  Ca1  1  0.29555835  0.25000000  0.54196996  1
  Ca  Ca2  1  0.59901587  0.25000000  0.86647076  1
  Ca  Ca3  1  0.40098413  0.75000000  0.13352924  1
  Ca  Ca4  1  0.70444165  0.75000000  0.45803004  1
  Ca  Ca5  1  0.94382548  0.25000000  0.18694260  1
  Pb  Pb6  1  0.24342911  0.25000000  0.97845565  1
  Pb  Pb7  1  0.12552558  0.75000000  0.36411535  1
  Pb  Pb8  1  0.46584286  0.75000000  0.70730134  1
  Pb  Pb9  1  0.53415714  0.25000000  0.29269866  1
  Pb  Pb10  1  0.87447442  0.25000000  0.63588465  1
  Pb  Pb11  1  0.75657089  0.75000000  0.02154435  1
  I  I12  1  0.10791590  0.75000000  0.96376147  1
  I  I13  1  0.05422848  0.25000000  0.70855205  1
  I  I14  1  0.20446145  0.25000000  0.84239479  1
  I  I15  1  0.09565488  0.25000000  0.44963635  1
  I  I16  1  0.18819589  0.75000000  0.57747998  1
  I  I17  1  0.04723389  0.75000000  0.14843059  1
  I  I18  1  0.15532994  0.25000000  0.27948788  1
  I  I19  1  0.32957241  0.25000000  0.68770694  1
  I  I20  1  0.46502125  0.75000000  0.84146470  1
  I  I21  1  0.30377707  0.75000000  0.43977193  1
  I  I22  1  0.26776320  0.25000000  0.11533859  1
  I  I23  1  0.44581198  0.75000000  0.57420211  1
  I  I24  1  0.61049317  0.25000000  0.99786984  1
  I  I25  1  0.39185160  0.75000000  0.26295060  1
  I  I26  1  0.60814840  0.25000000  0.73704940  1
  I  I27  1  0.38950683  0.75000000  0.00213016  1
  I  I28  1  0.55418802  0.25000000  0.42579789  1
  I  I29  1  0.73223680  0.75000000  0.88466141  1
  I  I30  1  0.69622293  0.25000000  0.56022807  1
  I  I31  1  0.53497875  0.25000000  0.15853530  1
  I  I32  1  0.67042759  0.75000000  0.31229306  1
  I  I33  1  0.84467006  0.75000000  0.72051212  1
  I  I34  1  0.95276611  0.25000000  0.85156941  1
  I  I35  1  0.81180411  0.25000000  0.42252002  1
  I  I36  1  0.90434512  0.75000000  0.55036365  1
  I  I37  1  0.79553855  0.75000000  0.15760521  1
  I  I38  1  0.94577152  0.75000000  0.29144795  1
  I  I39  1  0.89208410  0.25000000  0.03623853  1
