# generated using pymatgen
data_CuPO3
_symmetry_space_group_name_H-M   'P 1'
_cell_length_a   12.47116701
_cell_length_b   5.57196590
_cell_length_c   7.61075206
_cell_angle_alpha   90.00000000
_cell_angle_beta   85.45204993
_cell_angle_gamma   90.00000000
_symmetry_Int_Tables_number   1
_chemical_formula_structural   CuPO3
_chemical_formula_sum   'Cu8 P8 O24'
_cell_volume   527.19770176
_cell_formula_units_Z   8
loop_
 _symmetry_equiv_pos_site_id
 _symmetry_equiv_pos_as_xyz
  1  'x, y, z'
loop_
 _atom_site_type_symbol
 _atom_site_label
 _atom_site_symmetry_multiplicity
 _atom_site_fract_x
 _atom_site_fract_y
 _atom_site_fract_z
 _atom_site_occupancy
  Cu  Cu0  1  0.98604099  0.37584973  0.78604847  1
  Cu  Cu1  1  0.14703981  0.86010247  0.60007969  1
  Cu  Cu2  1  0.35296019  0.36010247  0.89992031  1
  Cu  Cu3  1  0.51395901  0.87584973  0.71395153  1
  Cu  Cu4  1  0.48604099  0.12415027  0.28604847  1
  Cu  Cu5  1  0.64703981  0.63989753  0.10007969  1
  Cu  Cu6  1  0.85296019  0.13989753  0.39992031  1
  Cu  Cu7  1  0.01395901  0.62415027  0.21395153  1
  P  P8  1  0.10581951  0.12416991  0.18801337  1
  P  P9  1  0.20802045  0.35499196  0.49319786  1
  P  P10  1  0.29197955  0.85499196  0.00680214  1
  P  P11  1  0.39418049  0.62416991  0.31198663  1
  P  P12  1  0.60581951  0.37583009  0.68801337  1
  P  P13  1  0.70802045  0.14500804  0.99319786  1
  P  P14  1  0.79197955  0.64500804  0.50680214  1
  P  P15  1  0.89418049  0.87583009  0.81198663  1
  O  O16  1  0.04560258  0.32042412  0.10233803  1
  O  O17  1  0.04017173  0.94318857  0.29883397  1
  O  O18  1  0.12063737  0.54094165  0.52869340  1
  O  O19  1  0.17603996  0.98424528  0.03261308  1
  O  O20  1  0.19926863  0.23877811  0.29888372  1
  O  O21  1  0.21568552  0.16060858  0.62864741  1
  O  O22  1  0.28431448  0.66060858  0.87135259  1
  O  O23  1  0.30073137  0.73877811  0.20111628  1
  O  O24  1  0.32396004  0.48424528  0.46738692  1
  O  O25  1  0.37936263  0.04094165  0.97130660  1
  O  O26  1  0.45982827  0.44318857  0.20116603  1
  O  O27  1  0.45439742  0.82042412  0.39766197  1
  O  O28  1  0.54560258  0.17957588  0.60233803  1
  O  O29  1  0.54017173  0.55681143  0.79883397  1
  O  O30  1  0.62063737  0.95905835  0.02869340  1
  O  O31  1  0.67603996  0.51575472  0.53261308  1
  O  O32  1  0.69926863  0.26122189  0.79888372  1
  O  O33  1  0.71568552  0.33939142  0.12864741  1
  O  O34  1  0.78431448  0.83939142  0.37135259  1
  O  O35  1  0.80073137  0.76122189  0.70111628  1
  O  O36  1  0.82396004  0.01575472  0.96738692  1
  O  O37  1  0.87936263  0.45905835  0.47130660  1
  O  O38  1  0.95982827  0.05681143  0.70116603  1
  O  O39  1  0.95439742  0.67957588  0.89766197  1
