# generated using pymatgen
data_LiNb5O8
_symmetry_space_group_name_H-M   'P 1'
_cell_length_a   8.20879601
_cell_length_b   9.76951933
_cell_length_c   10.30486306
_cell_angle_alpha   90.00000000
_cell_angle_beta   109.82301014
_cell_angle_gamma   90.00000000
_symmetry_Int_Tables_number   1
_chemical_formula_structural   LiNb5O8
_chemical_formula_sum   'Li4 Nb20 O32'
_cell_volume   777.43957463
_cell_formula_units_Z   4
loop_
 _symmetry_equiv_pos_site_id
 _symmetry_equiv_pos_as_xyz
  1  'x, y, z'
loop_
 _atom_site_type_symbol
 _atom_site_label
 _atom_site_symmetry_multiplicity
 _atom_site_fract_x
 _atom_site_fract_y
 _atom_site_fract_z
 _atom_site_occupancy
  Li  Li0  1  0.38376211  0.56877042  0.51979547  1
  Li  Li1  1  0.38376211  0.93122958  0.01979547  1
  Li  Li2  1  0.61623789  0.06877042  0.98020453  1
  Li  Li3  1  0.61623789  0.43122958  0.48020453  1
  Nb  Nb4  1  0.99293359  0.35364757  0.90041569  1
  Nb  Nb5  1  0.20634503  0.61186579  0.89467255  1
  Nb  Nb6  1  0.99293359  0.14635243  0.40041569  1
  Nb  Nb7  1  0.20913403  0.12053657  0.70648026  1
  Nb  Nb8  1  0.20634503  0.88813421  0.39467255  1
  Nb  Nb9  1  0.39678414  0.88088756  0.68933366  1
  Nb  Nb10  1  0.20913403  0.37946343  0.20648026  1
  Nb  Nb11  1  0.37740086  0.13255101  0.51679548  1
  Nb  Nb12  1  0.62259914  0.63255101  0.98320452  1
  Nb  Nb13  1  0.60321586  0.38088756  0.81066634  1
  Nb  Nb14  1  0.39678414  0.61911244  0.18933366  1
  Nb  Nb15  1  0.37740086  0.36744899  0.01679548  1
  Nb  Nb16  1  0.62259914  0.86744899  0.48320452  1
  Nb  Nb17  1  0.79086597  0.62053657  0.79351974  1
  Nb  Nb18  1  0.60321586  0.11911244  0.31066634  1
  Nb  Nb19  1  0.79365497  0.11186579  0.60532745  1
  Nb  Nb20  1  0.79086597  0.87946343  0.29351974  1
  Nb  Nb21  1  0.00706641  0.85364757  0.59958431  1
  Nb  Nb22  1  0.79365497  0.38813421  0.10532745  1
  Nb  Nb23  1  0.00706641  0.64635243  0.09958431  1
  O  O24  1  0.01075702  0.73025167  0.92192383  1
  O  O25  1  0.00690514  0.00538249  0.73452894  1
  O  O26  1  0.01075702  0.76974833  0.42192383  1
  O  O27  1  0.20085556  0.24910432  0.87231207  1
  O  O28  1  0.21776432  0.74361307  0.72934824  1
  O  O29  1  0.00690514  0.49461751  0.23452894  1
  O  O30  1  0.40776713  0.49992829  0.85618196  1
  O  O31  1  0.39568122  0.00332344  0.84833884  1
  O  O32  1  0.20085556  0.25089568  0.37231207  1
  O  O33  1  0.39407468  0.25303558  0.68146829  1
  O  O34  1  0.21776432  0.75638693  0.22934824  1
  O  O35  1  0.60187334  0.26169562  0.98083859  1
  O  O36  1  0.39812666  0.76169562  0.51916141  1
  O  O37  1  0.40776713  0.00007171  0.35618196  1
  O  O38  1  0.60592532  0.75303558  0.81853171  1
  O  O39  1  0.39568122  0.49667656  0.34833884  1
  O  O40  1  0.60431878  0.50332344  0.65166116  1
  O  O41  1  0.39407468  0.24696442  0.18146829  1
  O  O42  1  0.59223287  0.99992829  0.64381804  1
  O  O43  1  0.60187334  0.23830438  0.48083859  1
  O  O44  1  0.39812666  0.73830438  0.01916141  1
  O  O45  1  0.78223568  0.24361307  0.77065176  1
  O  O46  1  0.60592532  0.74696442  0.31853171  1
  O  O47  1  0.79914444  0.74910432  0.62768793  1
  O  O48  1  0.60431878  0.99667656  0.15166116  1
  O  O49  1  0.59223287  0.50007171  0.14381804  1
  O  O50  1  0.99309486  0.50538249  0.76547106  1
  O  O51  1  0.78223568  0.25638693  0.27065176  1
  O  O52  1  0.79914444  0.75089568  0.12768793  1
  O  O53  1  0.98924298  0.23025167  0.57807617  1
  O  O54  1  0.99309486  0.99461751  0.26547106  1
  O  O55  1  0.98924298  0.26974833  0.07807617  1
