# generated using pymatgen
data_Be(Bi3O5)4
_symmetry_space_group_name_H-M   'P 1'
_cell_length_a   8.75957972
_cell_length_b   8.75957951
_cell_length_c   8.75957994
_cell_angle_alpha   109.47121685
_cell_angle_beta   109.47122244
_cell_angle_gamma   109.47122343
_symmetry_Int_Tables_number   1
_chemical_formula_structural   Be(Bi3O5)4
_chemical_formula_sum   'Be1 Bi12 O20'
_cell_volume   517.40177414
_cell_formula_units_Z   1
loop_
 _symmetry_equiv_pos_site_id
 _symmetry_equiv_pos_as_xyz
  1  'x, y, z'
loop_
 _atom_site_type_symbol
 _atom_site_label
 _atom_site_symmetry_multiplicity
 _atom_site_fract_x
 _atom_site_fract_y
 _atom_site_fract_z
 _atom_site_occupancy
  Be  Be0  1  0.00000000  0.00000000  0.00000000  1
  Bi  Bi1  1  0.16304938  0.85896074  0.67604729  1
  Bi  Bi2  1  0.14103926  0.30408865  0.81708756  1
  Bi  Bi3  1  0.18291244  0.48700109  0.32395271  1
  Bi  Bi4  1  0.30408865  0.81708756  0.14103926  1
  Bi  Bi5  1  0.51299891  0.69591135  0.83695062  1
  Bi  Bi6  1  0.32395271  0.18291244  0.48700109  1
  Bi  Bi7  1  0.69591135  0.83695062  0.51299891  1
  Bi  Bi8  1  0.48700109  0.32395271  0.18291244  1
  Bi  Bi9  1  0.67604729  0.16304938  0.85896074  1
  Bi  Bi10  1  0.83695062  0.51299891  0.69591135  1
  Bi  Bi11  1  0.85896074  0.67604729  0.16304938  1
  Bi  Bi12  1  0.81708756  0.14103926  0.30408865  1
  O  O13  1  0.12074532  0.76079784  0.38082309  1
  O  O14  1  0.26007777  0.64005252  0.87925468  1
  O  O15  1  0.00000000  0.59967868  0.00000000  1
  O  O16  1  0.00000000  0.00000000  0.59967868  1
  O  O17  1  0.23920216  0.35994748  0.62002525  1
  O  O18  1  0.37997475  0.73992223  0.61917691  1
  O  O19  1  0.00000000  0.19469595  0.00000000  1
  O  O20  1  0.00000000  0.00000000  0.19469595  1
  O  O21  1  0.35994748  0.62002525  0.23920216  1
  O  O22  1  0.38082309  0.12074532  0.76079784  1
  O  O23  1  0.40032132  0.40032132  0.40032132  1
  O  O24  1  0.19469595  0.00000000  0.00000000  1
  O  O25  1  0.61917691  0.37997475  0.73992223  1
  O  O26  1  0.64005252  0.87925468  0.26007777  1
  O  O27  1  0.80530405  0.80530405  0.80530405  1
  O  O28  1  0.73992223  0.61917691  0.37997475  1
  O  O29  1  0.62002525  0.23920216  0.35994748  1
  O  O30  1  0.87925468  0.26007777  0.64005252  1
  O  O31  1  0.76079784  0.38082309  0.12074532  1
  O  O32  1  0.59967868  0.00000000  0.00000000  1
