# generated using pymatgen
data_BeCrO4
_symmetry_space_group_name_H-M   'P 1'
_cell_length_a   8.76945153
_cell_length_b   5.27925606
_cell_length_c   8.51696297
_cell_angle_alpha   90.00000000
_cell_angle_beta   119.91496312
_cell_angle_gamma   90.00000000
_symmetry_Int_Tables_number   1
_chemical_formula_structural   BeCrO4
_chemical_formula_sum   'Be4 Cr4 O16'
_cell_volume   341.76851706
_cell_formula_units_Z   4
loop_
 _symmetry_equiv_pos_site_id
 _symmetry_equiv_pos_as_xyz
  1  'x, y, z'
loop_
 _atom_site_type_symbol
 _atom_site_label
 _atom_site_symmetry_multiplicity
 _atom_site_fract_x
 _atom_site_fract_y
 _atom_site_fract_z
 _atom_site_occupancy
  Be  Be0  1  0.21207683  0.08455954  0.41694247  1
  Be  Be1  1  0.28792317  0.58455954  0.08305753  1
  Be  Be2  1  0.71207683  0.41544046  0.91694247  1
  Be  Be3  1  0.78792317  0.91544046  0.58305753  1
  Cr  Cr4  1  0.16967944  0.09580966  0.89241801  1
  Cr  Cr5  1  0.33032056  0.59580966  0.60758199  1
  Cr  Cr6  1  0.66967944  0.40419034  0.39241801  1
  Cr  Cr7  1  0.83032056  0.90419034  0.10758199  1
  O  O8  1  0.97382763  0.01490234  0.71593494  1
  O  O9  1  0.19021313  0.62736344  0.67333906  1
  O  O10  1  0.14976768  0.37333060  0.98013295  1
  O  O11  1  0.26085643  0.36823592  0.44585003  1
  O  O12  1  0.30978687  0.12736344  0.82666094  1
  O  O13  1  0.23914357  0.86823592  0.05414997  1
  O  O14  1  0.35023232  0.87333060  0.51986705  1
  O  O15  1  0.52617237  0.51490234  0.78406506  1
  O  O16  1  0.47382763  0.48509766  0.21593494  1
  O  O17  1  0.64976768  0.12666940  0.48013295  1
  O  O18  1  0.76085643  0.13176408  0.94585003  1
  O  O19  1  0.69021313  0.87263656  0.17333906  1
  O  O20  1  0.73914357  0.63176408  0.55414997  1
  O  O21  1  0.85023232  0.62666940  0.01986705  1
  O  O22  1  0.80978687  0.37263656  0.32666094  1
  O  O23  1  0.02617237  0.98509766  0.28406506  1
