# generated using pymatgen
data_Ca3W2O9
_symmetry_space_group_name_H-M   'P 1'
_cell_length_a   8.68227858
_cell_length_b   15.84669434
_cell_length_c   7.83319048
_cell_angle_alpha   90.00000000
_cell_angle_beta   90.00000000
_cell_angle_gamma   90.00000000
_symmetry_Int_Tables_number   1
_chemical_formula_structural   Ca3W2O9
_chemical_formula_sum   'Ca12 W8 O36'
_cell_volume   1077.73276165
_cell_formula_units_Z   4
loop_
 _symmetry_equiv_pos_site_id
 _symmetry_equiv_pos_as_xyz
  1  'x, y, z'
loop_
 _atom_site_type_symbol
 _atom_site_label
 _atom_site_symmetry_multiplicity
 _atom_site_fract_x
 _atom_site_fract_y
 _atom_site_fract_z
 _atom_site_occupancy
  Ca  Ca0  1  0.00033711  0.00167468  0.74612773  1
  Ca  Ca1  1  0.21208680  0.13942203  0.99942457  1
  Ca  Ca2  1  0.19130059  0.42153859  0.49496750  1
  Ca  Ca3  1  0.30869941  0.92153859  0.99496750  1
  Ca  Ca4  1  0.28791320  0.63942203  0.49942457  1
  Ca  Ca5  1  0.49966289  0.50167468  0.24612773  1
  Ca  Ca6  1  0.50033711  0.49832532  0.74612773  1
  Ca  Ca7  1  0.71208680  0.36057797  0.99942457  1
  Ca  Ca8  1  0.69130059  0.07846141  0.49496750  1
  Ca  Ca9  1  0.80869941  0.57846141  0.99496750  1
  Ca  Ca10  1  0.78791320  0.86057797  0.49942457  1
  Ca  Ca11  1  0.99966289  0.99832532  0.24612773  1
  W  W12  1  0.15609900  0.39460699  0.99606772  1
  W  W13  1  0.25556882  0.66727740  0.99654445  1
  W  W14  1  0.24443118  0.16727740  0.49654445  1
  W  W15  1  0.34390100  0.89460699  0.49606772  1
  W  W16  1  0.65609900  0.10539301  0.99606772  1
  W  W17  1  0.75556882  0.83272260  0.99654445  1
  W  W18  1  0.74443118  0.33272260  0.49654445  1
  W  W19  1  0.84390100  0.60539301  0.49606772  1
  O  O20  1  0.06732448  0.61813099  0.99455201  1
  O  O21  1  0.04884121  0.57958619  0.49468406  1
  O  O22  1  0.11310751  0.01362729  0.99666834  1
  O  O23  1  0.14098308  0.13281747  0.30438476  1
  O  O24  1  0.14508516  0.13450412  0.69251534  1
  O  O25  1  0.17897939  0.28212991  0.00130044  1
  O  O26  1  0.23188889  0.78016732  0.99407381  1
  O  O27  1  0.24791778  0.43700569  0.18664693  1
  O  O28  1  0.25196250  0.93391680  0.30278334  1
  O  O29  1  0.24803750  0.43391680  0.80278334  1
  O  O30  1  0.25208222  0.93700569  0.68664693  1
  O  O31  1  0.26811111  0.28016732  0.49407381  1
  O  O32  1  0.32102061  0.78212991  0.50130044  1
  O  O33  1  0.35491484  0.63450412  0.19251534  1
  O  O34  1  0.35901692  0.63281747  0.80438476  1
  O  O35  1  0.38689249  0.51362729  0.49666834  1
  O  O36  1  0.45115879  0.07958619  0.99468406  1
  O  O37  1  0.43267552  0.11813099  0.49455201  1
  O  O38  1  0.56732448  0.88186901  0.99455201  1
  O  O39  1  0.54884121  0.92041381  0.49468406  1
  O  O40  1  0.61310751  0.48637271  0.99666834  1
  O  O41  1  0.64098308  0.36718253  0.30438476  1
  O  O42  1  0.64508516  0.36549588  0.69251534  1
  O  O43  1  0.67897939  0.21787009  0.00130044  1
  O  O44  1  0.73188889  0.71983268  0.99407381  1
  O  O45  1  0.74791778  0.06299431  0.18664693  1
  O  O46  1  0.75196250  0.56608320  0.30278334  1
  O  O47  1  0.74803750  0.06608320  0.80278334  1
  O  O48  1  0.75208222  0.56299431  0.68664693  1
  O  O49  1  0.76811111  0.21983268  0.49407381  1
  O  O50  1  0.82102061  0.71787009  0.50130044  1
  O  O51  1  0.85491484  0.86549588  0.19251534  1
  O  O52  1  0.85901692  0.86718253  0.80438476  1
  O  O53  1  0.88689249  0.98637271  0.49666834  1
  O  O54  1  0.95115879  0.42041381  0.99468406  1
  O  O55  1  0.93267552  0.38186901  0.49455201  1
