# generated using pymatgen
data_Li2Cr5B3O13
_symmetry_space_group_name_H-M   'P 1'
_cell_length_a   9.51532535
_cell_length_b   3.10342015
_cell_length_c   16.12019447
_cell_angle_alpha   90.00000000
_cell_angle_beta   108.94233889
_cell_angle_gamma   90.00000000
_symmetry_Int_Tables_number   1
_chemical_formula_structural   Li2Cr5B3O13
_chemical_formula_sum   'Li4 Cr10 B6 O26'
_cell_volume   450.25112584
_cell_formula_units_Z   2
loop_
 _symmetry_equiv_pos_site_id
 _symmetry_equiv_pos_as_xyz
  1  'x, y, z'
loop_
 _atom_site_type_symbol
 _atom_site_label
 _atom_site_symmetry_multiplicity
 _atom_site_fract_x
 _atom_site_fract_y
 _atom_site_fract_z
 _atom_site_occupancy
  Li  Li0  1  0.27966563  0.25000000  0.76183853  1
  Li  Li1  1  0.38433053  0.75000000  0.94924230  1
  Li  Li2  1  0.61566947  0.25000000  0.05075770  1
  Li  Li3  1  0.72033437  0.75000000  0.23816147  1
  Cr  Cr4  1  0.13401240  0.25000000  0.98541811  1
  Cr  Cr5  1  0.04336810  0.25000000  0.37740472  1
  Cr  Cr6  1  0.20454722  0.75000000  0.18309184  1
  Cr  Cr7  1  0.34903107  0.75000000  0.45453797  1
  Cr  Cr8  1  0.49159859  0.75000000  0.68685263  1
  Cr  Cr9  1  0.50840141  0.25000000  0.31314737  1
  Cr  Cr10  1  0.65096893  0.25000000  0.54546203  1
  Cr  Cr11  1  0.79545278  0.25000000  0.81690816  1
  Cr  Cr12  1  0.95663190  0.75000000  0.62259528  1
  Cr  Cr13  1  0.86598760  0.75000000  0.01458189  1
  B  B14  1  0.06610462  0.75000000  0.81269236  1
  B  B15  1  0.20848236  0.25000000  0.57836514  1
  B  B16  1  0.57765640  0.75000000  0.88099478  1
  B  B17  1  0.42234360  0.25000000  0.11900522  1
  B  B18  1  0.79151764  0.75000000  0.42163486  1
  B  B19  1  0.93389538  0.25000000  0.18730764  1
  O  O20  1  0.16136486  0.75000000  0.90218495  1
  O  O21  1  0.06921767  0.25000000  0.58403780  1
  O  O22  1  0.12144923  0.75000000  0.74503024  1
  O  O23  1  0.08450075  0.25000000  0.20295261  1
  O  O24  1  0.15725029  0.75000000  0.35792580  1
  O  O25  1  0.22987063  0.25000000  0.49571312  1
  O  O26  1  0.33352327  0.25000000  0.65250548  1
  O  O27  1  0.08692266  0.75000000  0.05349022  1
  O  O28  1  0.43964241  0.75000000  0.82009424  1
  O  O29  1  0.61547983  0.75000000  0.97216679  1
  O  O30  1  0.29918355  0.25000000  0.14646314  1
  O  O31  1  0.37880583  0.75000000  0.28714404  1
  O  O32  1  0.53130411  0.75000000  0.56971592  1
  O  O33  1  0.46869589  0.25000000  0.43028408  1
  O  O34  1  0.62119417  0.25000000  0.71285596  1
  O  O35  1  0.70081645  0.75000000  0.85353686  1
  O  O36  1  0.38452017  0.25000000  0.02783321  1
  O  O37  1  0.56035759  0.25000000  0.17990576  1
  O  O38  1  0.91307734  0.25000000  0.94650978  1
  O  O39  1  0.66647673  0.75000000  0.34749452  1
  O  O40  1  0.77012937  0.75000000  0.50428688  1
  O  O41  1  0.84274971  0.25000000  0.64207420  1
  O  O42  1  0.91549925  0.75000000  0.79704739  1
  O  O43  1  0.87855077  0.25000000  0.25496976  1
  O  O44  1  0.93078233  0.75000000  0.41596220  1
  O  O45  1  0.83863514  0.25000000  0.09781505  1
