# generated using pymatgen
data_SrMg5
_symmetry_space_group_name_H-M   'P 1'
_cell_length_a   5.31571393
_cell_length_b   3.50697769
_cell_length_c   17.90852988
_cell_angle_alpha   90.00000000
_cell_angle_beta   90.00000000
_cell_angle_gamma   90.00000000
_symmetry_Int_Tables_number   1
_chemical_formula_structural   SrMg5
_chemical_formula_sum   'Sr2 Mg10'
_cell_volume   333.85242864
_cell_formula_units_Z   2
loop_
 _symmetry_equiv_pos_site_id
 _symmetry_equiv_pos_as_xyz
  1  'x, y, z'
loop_
 _atom_site_type_symbol
 _atom_site_label
 _atom_site_symmetry_multiplicity
 _atom_site_fract_x
 _atom_site_fract_y
 _atom_site_fract_z
 _atom_site_occupancy
  Sr  Sr0  1  0.00000000  0.50000000  0.72087531  1
  Sr  Sr1  1  0.00000000  -0.00000000  0.22087531  1
  Mg  Mg2  1  0.50000000  0.00000000  0.00217870  1
  Mg  Mg3  1  0.50000000  -0.00000000  0.64468545  1
  Mg  Mg4  1  0.50000000  0.50000000  0.85382993  1
  Mg  Mg5  1  -0.00000000  0.00000000  0.90009830  1
  Mg  Mg6  1  0.00000000  0.00000000  0.54499930  1
  Mg  Mg7  1  0.50000000  0.50000000  0.50217870  1
  Mg  Mg8  1  0.50000000  0.50000000  0.14468545  1
  Mg  Mg9  1  0.50000000  -0.00000000  0.35382993  1
  Mg  Mg10  1  0.00000000  0.50000000  0.40009830  1
  Mg  Mg11  1  0.00000000  0.50000000  0.04499930  1
