# generated using pymatgen
data_K3BePCO7
_symmetry_space_group_name_H-M   'P 1'
_cell_length_a   9.26091195
_cell_length_b   8.36307681
_cell_length_c   5.25007247
_cell_angle_alpha   90.00000000
_cell_angle_beta   86.12449640
_cell_angle_gamma   90.00000000
_symmetry_Int_Tables_number   1
_chemical_formula_structural   K3BePCO7
_chemical_formula_sum   'K6 Be2 P2 C2 O14'
_cell_volume   405.68680836
_cell_formula_units_Z   2
loop_
 _symmetry_equiv_pos_site_id
 _symmetry_equiv_pos_as_xyz
  1  'x, y, z'
loop_
 _atom_site_type_symbol
 _atom_site_label
 _atom_site_symmetry_multiplicity
 _atom_site_fract_x
 _atom_site_fract_y
 _atom_site_fract_z
 _atom_site_occupancy
  K  K0  1  0.08755567  0.25000000  0.75014106  1
  K  K1  1  0.29161883  0.00442157  0.24919536  1
  K  K2  1  0.29161883  0.49557843  0.24919536  1
  K  K3  1  0.70838117  0.50442157  0.75080464  1
  K  K4  1  0.70838117  0.99557843  0.75080464  1
  K  K5  1  0.91244433  0.75000000  0.24985894  1
  Be  Be6  1  0.37850995  0.75000000  0.78885059  1
  Be  Be7  1  0.62149005  0.25000000  0.21114941  1
  P  P8  1  0.43689900  0.25000000  0.73070223  1
  P  P9  1  0.56310100  0.75000000  0.26929777  1
  C  C10  1  0.10887561  0.75000000  0.69272221  1
  C  C11  1  0.89112439  0.25000000  0.30727779  1
  O  O12  1  0.02674997  0.25000000  0.23056446  1
  O  O13  1  0.20861434  0.75000000  0.86601137  1
  O  O14  1  0.15187789  0.75000000  0.45706438  1
  O  O15  1  0.34545909  0.09683957  0.74448143  1
  O  O16  1  0.34545909  0.40316043  0.74448143  1
  O  O17  1  0.53589531  0.25000000  0.47475156  1
  O  O18  1  0.46096706  0.75000000  0.03994350  1
  O  O19  1  0.53903294  0.25000000  0.96005650  1
  O  O20  1  0.46410469  0.75000000  0.52524844  1
  O  O21  1  0.65454091  0.59683957  0.25551857  1
  O  O22  1  0.65454091  0.90316043  0.25551857  1
  O  O23  1  0.84812211  0.25000000  0.54293562  1
  O  O24  1  0.79138566  0.25000000  0.13398863  1
  O  O25  1  0.97325003  0.75000000  0.76943554  1
