# generated using pymatgen
data_Li3YbPCO7
_symmetry_space_group_name_H-M   'P 1'
_cell_length_a   8.61319275
_cell_length_b   5.03366051
_cell_length_c   6.61229381
_cell_angle_alpha   90.00000000
_cell_angle_beta   90.00000000
_cell_angle_gamma   90.23384735
_symmetry_Int_Tables_number   1
_chemical_formula_structural   Li3YbPCO7
_chemical_formula_sum   'Li6 Yb2 P2 C2 O14'
_cell_volume   286.67948365
_cell_formula_units_Z   2
loop_
 _symmetry_equiv_pos_site_id
 _symmetry_equiv_pos_as_xyz
  1  'x, y, z'
loop_
 _atom_site_type_symbol
 _atom_site_label
 _atom_site_symmetry_multiplicity
 _atom_site_fract_x
 _atom_site_fract_y
 _atom_site_fract_z
 _atom_site_occupancy
  Yb  Yb0  1  0.30462122  0.97099372  0.77030828  1
  Yb  Yb1  1  0.69537878  0.02900628  0.27030828  1
  Li  Li2  1  0.01044351  0.01590189  0.48866370  1
  Li  Li3  1  0.14950988  0.49715750  0.18876071  1
  Li  Li4  1  0.47796216  0.46863420  0.50971661  1
  Li  Li5  1  0.52203784  0.53136580  0.00971661  1
  Li  Li6  1  0.85049012  0.50284250  0.68876071  1
  Li  Li7  1  0.98955649  0.98409811  0.98866370  1
  P  P8  1  0.31517510  0.01538416  0.23425443  1
  P  P9  1  0.68482490  0.98461584  0.73425443  1
  C  C10  1  0.14237342  0.47816402  0.73941470  1
  C  C11  1  0.85762658  0.52183598  0.23941470  1
  O  O12  1  0.04799793  0.27980929  0.71327683  1
  O  O13  1  0.08541617  0.70686242  0.79439873  1
  O  O14  1  0.19813350  0.13977978  0.08080172  1
  O  O15  1  0.23578380  0.95595340  0.43862907  1
  O  O16  1  0.29086625  0.45270100  0.71493164  1
  O  O17  1  0.37422811  0.75395671  0.13925369  1
  O  O18  1  0.45165165  0.21479038  0.26219089  1
  O  O19  1  0.54834835  0.78520962  0.76219089  1
  O  O20  1  0.62577189  0.24604329  0.63925369  1
  O  O21  1  0.70913375  0.54729900  0.21493164  1
  O  O22  1  0.76421620  0.04404660  0.93862907  1
  O  O23  1  0.80186650  0.86022022  0.58080172  1
  O  O24  1  0.91458383  0.29313758  0.29439873  1
  O  O25  1  0.95200207  0.72019071  0.21327683  1
