# generated using pymatgen
data_La4MnO8
_symmetry_space_group_name_H-M   'P 1'
_cell_length_a   5.38409678
_cell_length_b   6.89397940
_cell_length_c   5.40897175
_cell_angle_alpha   90.00103096
_cell_angle_beta   90.00063796
_cell_angle_gamma   112.98198127
_symmetry_Int_Tables_number   1
_chemical_formula_structural   La4MnO8
_chemical_formula_sum   'La4 Mn1 O8'
_cell_volume   184.83388156
_cell_formula_units_Z   1
loop_
 _symmetry_equiv_pos_site_id
 _symmetry_equiv_pos_as_xyz
  1  'x, y, z'
loop_
 _atom_site_type_symbol
 _atom_site_label
 _atom_site_symmetry_multiplicity
 _atom_site_fract_x
 _atom_site_fract_y
 _atom_site_fract_z
 _atom_site_occupancy
  La  La0  1  0.13524303  0.27032728  0.50001070  1
  La  La1  1  0.63336115  0.26671937  0.00001178  1
  La  La2  1  0.36661620  0.73328535  0.00000323  1
  La  La3  1  0.86480240  0.72966594  0.49996956  1
  Mn  Mn4  1  -0.00000163  0.00000684  0.00000497  1
  O  O5  1  0.24929210  0.99997847  0.23882977  1
  O  O6  1  0.24929087  0.99997179  0.76115388  1
  O  O7  1  0.75070245  0.00003039  0.23883420  1
  O  O8  1  0.75070125  0.00002788  0.76116118  1
  O  O9  1  0.16273951  0.32546868  0.00000900  1
  O  O10  1  0.68876972  0.37763211  0.49999328  1
  O  O11  1  0.31121946  0.62234756  0.50001962  1
  O  O12  1  0.83726250  0.67454034  -0.00000017  1
