# generated using pymatgen
data_CrNi5(PO4)6
_symmetry_space_group_name_H-M   'P 1'
_cell_length_a   8.46275220
_cell_length_b   8.60917354
_cell_length_c   8.60917380
_cell_angle_alpha   60.00000121
_cell_angle_beta   59.42598747
_cell_angle_gamma   59.42598878
_symmetry_Int_Tables_number   1
_chemical_formula_structural   CrNi5(PO4)6
_chemical_formula_sum   'Cr1 Ni5 P6 O24'
_cell_volume   439.63934277
_cell_formula_units_Z   1
loop_
 _symmetry_equiv_pos_site_id
 _symmetry_equiv_pos_as_xyz
  1  'x, y, z'
loop_
 _atom_site_type_symbol
 _atom_site_label
 _atom_site_symmetry_multiplicity
 _atom_site_fract_x
 _atom_site_fract_y
 _atom_site_fract_z
 _atom_site_occupancy
  Cr  Cr0  1  0.57509558  0.14163447  0.14163447  1
  Ni  Ni1  1  0.00387383  0.99870872  0.99870872  1
  Ni  Ni2  1  0.07816534  0.64061189  0.64061189  1
  Ni  Ni3  1  0.50108705  0.49963798  0.49963798  1
  Ni  Ni4  1  0.42631063  0.85789612  0.85789612  1
  Ni  Ni5  1  0.92468086  0.35843971  0.35843971  1
  P  P6  1  0.24990542  0.25027746  0.54431312  1
  P  P7  1  0.24990542  0.95550300  0.25027746  1
  P  P8  1  0.24990542  0.54431312  0.95550300  1
  P  P9  1  0.75014354  0.45347202  0.04662363  1
  P  P10  1  0.75014354  0.04662363  0.74976082  1
  P  P11  1  0.75014354  0.74976082  0.45347202  1
  O  O12  1  0.06233349  0.10644354  0.32433224  1
  O  O13  1  0.06233349  0.50689173  0.10644354  1
  O  O14  1  0.06233349  0.32433224  0.50689173  1
  O  O15  1  0.22200184  0.09229223  0.74278638  1
  O  O16  1  0.43370292  0.17420679  0.38603653  1
  O  O17  1  0.28805413  0.40519431  0.54929886  1
  O  O18  1  0.22200184  0.94291955  0.09229223  1
  O  O19  1  0.28805413  0.75745370  0.40519431  1
  O  O20  1  0.56209681  0.60654319  0.01172591  1
  O  O21  1  0.28805413  0.54929886  0.75745370  1
  O  O22  1  0.77086437  0.25086599  0.06729011  1
  O  O23  1  0.56209681  0.01172591  0.81963408  1
  O  O24  1  0.43370292  0.00605375  0.17420679  1
  O  O25  1  0.22200184  0.74278638  0.94291955  1
  O  O26  1  0.72029907  0.43744715  0.24753920  1
  O  O27  1  0.43370292  0.38603653  0.00605375  1
  O  O28  1  0.72029907  0.24753920  0.59471358  1
  O  O29  1  0.77086437  0.06729011  0.91097953  1
  O  O30  1  0.72029907  0.59471358  0.43744715  1
  O  O31  1  0.56209681  0.81963408  0.60654319  1
  O  O32  1  0.77086437  0.91097953  0.25086599  1
  O  O33  1  0.93752732  0.68529067  0.48519976  1
  O  O34  1  0.93752732  0.48519976  0.89198224  1
  O  O35  1  0.93752732  0.89198224  0.68529067  1
