# generated using pymatgen
data_Li3ZrO3
_symmetry_space_group_name_H-M   'P 1'
_cell_length_a   9.64391588
_cell_length_b   9.64391588
_cell_length_c   3.49961367
_cell_angle_alpha   90.00000000
_cell_angle_beta   90.00000000
_cell_angle_gamma   90.00000000
_symmetry_Int_Tables_number   1
_chemical_formula_structural   Li3ZrO3
_chemical_formula_sum   'Li12 Zr4 O12'
_cell_volume   325.48196659
_cell_formula_units_Z   4
loop_
 _symmetry_equiv_pos_site_id
 _symmetry_equiv_pos_as_xyz
  1  'x, y, z'
loop_
 _atom_site_type_symbol
 _atom_site_label
 _atom_site_symmetry_multiplicity
 _atom_site_fract_x
 _atom_site_fract_y
 _atom_site_fract_z
 _atom_site_occupancy
  Li  Li0  1  0.08614133  0.35422020  0.50000000  1
  Li  Li1  1  0.14577980  0.58614133  0.00000000  1
  Li  Li2  1  0.17337284  0.17337284  0.00000000  1
  Li  Li3  1  0.32662716  0.67337284  0.50000000  1
  Li  Li4  1  0.35422020  0.08614133  0.50000000  1
  Li  Li5  1  0.41385867  0.85422020  0.00000000  1
  Li  Li6  1  0.58614133  0.14577980  0.00000000  1
  Li  Li7  1  0.64577980  0.91385867  0.50000000  1
  Li  Li8  1  0.67337284  0.32662716  0.50000000  1
  Li  Li9  1  0.82662716  0.82662716  0.00000000  1
  Li  Li10  1  0.85422020  0.41385867  0.00000000  1
  Li  Li11  1  0.91385867  0.64577980  0.50000000  1
  Zr  Zr12  1  0.11935239  0.88064761  0.50000000  1
  Zr  Zr13  1  0.38064761  0.38064761  0.00000000  1
  Zr  Zr14  1  0.61935239  0.61935239  0.00000000  1
  Zr  Zr15  1  0.88064761  0.11935239  0.50000000  1
  O  O16  1  0.10550003  0.10550003  0.50000000  1
  O  O17  1  0.11571109  0.67076515  0.50000000  1
  O  O18  1  0.17076515  0.38428891  0.00000000  1
  O  O19  1  0.32923485  0.88428891  0.50000000  1
  O  O20  1  0.38428891  0.17076515  0.00000000  1
  O  O21  1  0.39449997  0.60550003  0.00000000  1
  O  O22  1  0.60550003  0.39449997  0.00000000  1
  O  O23  1  0.61571109  0.82923485  0.00000000  1
  O  O24  1  0.67076515  0.11571109  0.50000000  1
  O  O25  1  0.82923485  0.61571109  0.00000000  1
  O  O26  1  0.88428891  0.32923485  0.50000000  1
  O  O27  1  0.89449997  0.89449997  0.50000000  1
