# generated using pymatgen
data_Li8Ti7Nb6O30
_symmetry_space_group_name_H-M   'P 1'
_cell_length_a   5.19576128
_cell_length_b   5.19586128
_cell_length_c   24.34257307
_cell_angle_alpha   90.00264581
_cell_angle_beta   89.99788119
_cell_angle_gamma   119.99964895
_symmetry_Int_Tables_number   1
_chemical_formula_structural   Li8Ti7Nb6O30
_chemical_formula_sum   'Li8 Ti7 Nb6 O30'
_cell_volume   569.12201650
_cell_formula_units_Z   1
loop_
 _symmetry_equiv_pos_site_id
 _symmetry_equiv_pos_as_xyz
  1  'x, y, z'
loop_
 _atom_site_type_symbol
 _atom_site_label
 _atom_site_symmetry_multiplicity
 _atom_site_fract_x
 _atom_site_fract_y
 _atom_site_fract_z
 _atom_site_occupancy
  Li  Li0  1  0.99998664  0.99998931  0.07750977  1
  Li  Li1  1  0.99997311  0.99997614  0.37126596  1
  Li  Li2  1  0.00001063  0.00003936  0.63088268  1
  Li  Li3  1  0.99997489  0.99998857  0.92169855  1
  Li  Li4  1  0.33334993  0.66665231  0.79440721  1
  Li  Li5  1  0.33336718  0.66667664  0.52783173  1
  Li  Li6  1  0.66666318  0.33333688  0.20752545  1
  Li  Li7  1  0.66666755  0.33335076  0.47245771  1
  Ti  Ti8  1  0.33331126  0.66664861  0.29057051  1
  Ti  Ti9  1  0.33332058  0.66667063  0.89425208  1
  Ti  Ti10  1  0.33330887  0.66665012  0.01100443  1
  Ti  Ti11  1  0.33335808  0.66671738  0.69039533  1
  Ti  Ti12  1  0.66663247  0.33332103  0.98308825  1
  Ti  Ti13  1  0.66668628  0.33335528  0.71207766  1
  Ti  Ti14  1  0.66664321  0.33331858  0.31048707  1
  Nb  Nb15  1  0.33334796  0.66665068  0.40462185  1
  Nb  Nb16  1  0.99999026  0.99998518  0.20377029  1
  Nb  Nb17  1  0.00001614  0.00000818  0.50017267  1
  Nb  Nb18  1  -0.00000333  0.00001192  0.80133078  1
  Nb  Nb19  1  0.66666899  0.33332731  0.10506469  1
  Nb  Nb20  1  0.66665883  0.33335015  0.59566371  1
  O  O21  1  0.92149150  0.67043938  0.15188056  1
  O  O22  1  0.00850681  0.63422756  0.34780186  1
  O  O23  1  0.01033127  0.66716981  0.74601562  1
  O  O24  1  0.29311750  0.95933298  0.45084744  1
  O  O25  1  0.98217939  0.36271242  0.04551614  1
  O  O26  1  0.38052550  0.01780784  0.04551463  1
  O  O27  1  0.04065417  0.33378662  0.45085215  1
  O  O28  1  0.33285666  0.34312827  0.74601337  1
  O  O29  1  0.62569857  0.99146795  0.34779805  1
  O  O30  1  0.32955927  0.25103776  0.15188412  1
  O  O31  1  0.65688761  0.98970043  0.74601568  1
  O  O32  1  0.36574759  0.37427764  0.34779566  1
  O  O33  1  0.33484694  0.29328932  0.54929502  1
  O  O34  1  0.74895740  0.07850731  0.15187962  1
  O  O35  1  0.36445103  0.38336584  0.95131441  1
  O  O36  1  0.63724440  0.61943781  0.04551573  1
  O  O37  1  0.24974982  0.91558273  0.84831537  1
  O  O38  1  0.66620271  0.70688399  0.45085117  1
  O  O39  1  0.63097536  0.62194636  0.65266203  1
  O  O40  1  0.34352079  0.01257549  0.25432395  1
  O  O41  1  0.66582067  0.75024407  0.84831711  1
  O  O42  1  0.37807620  0.00904155  0.65265329  1
  O  O43  1  0.66902889  0.65645185  0.25432581  1
  O  O44  1  0.95849705  0.66522201  0.54929786  1
  O  O45  1  0.61661006  0.98108090  0.95131600  1
  O  O46  1  0.01887568  0.63552348  0.95131922  1
  O  O47  1  0.70678073  0.04156844  0.54930403  1
  O  O48  1  0.98739427  0.33093612  0.25432472  1
  O  O49  1  0.99097486  0.36905927  0.65265707  1
  O  O50  1  0.08441058  0.33417179  0.84831393  1
