# generated using pymatgen
data_Li6V2B4SO16
_symmetry_space_group_name_H-M   'P 1'
_cell_length_a   9.46056286
_cell_length_b   9.46056231
_cell_length_c   9.46056207
_cell_angle_alpha   90.00000009
_cell_angle_beta   60.00000075
_cell_angle_gamma   60.00000159
_symmetry_Int_Tables_number   1
_chemical_formula_structural   Li6V2B4SO16
_chemical_formula_sum   'Li12 V4 B8 S2 O32'
_cell_volume   598.73670522
_cell_formula_units_Z   2
loop_
 _symmetry_equiv_pos_site_id
 _symmetry_equiv_pos_as_xyz
  1  'x, y, z'
loop_
 _atom_site_type_symbol
 _atom_site_label
 _atom_site_symmetry_multiplicity
 _atom_site_fract_x
 _atom_site_fract_y
 _atom_site_fract_z
 _atom_site_occupancy
  Li  Li0  1  0.75000000  0.90451638  0.65451638  1
  Li  Li1  1  0.69096824  0.65451638  0.90451638  1
  Li  Li2  1  0.75000000  0.34548362  0.65451638  1
  Li  Li3  1  0.75000000  0.90451638  0.09548362  1
  Li  Li4  1  0.25000000  0.65451638  0.90451638  1
  Li  Li5  1  0.80903176  0.09548362  0.34548362  1
  Li  Li6  1  0.75000000  0.34548362  0.09548362  1
  Li  Li7  1  0.19096824  0.90451638  0.65451638  1
  Li  Li8  1  0.25000000  0.65451638  0.34548362  1
  Li  Li9  1  0.25000000  0.09548362  0.90451638  1
  Li  Li10  1  0.30903176  0.34548362  0.09548362  1
  Li  Li11  1  0.25000000  0.09548362  0.34548362  1
  V  V12  1  0.50000000  0.50000000  0.50000000  1
  V  V13  1  0.50000000  0.00000000  0.50000000  1
  V  V14  1  0.00000000  0.50000000  0.50000000  1
  V  V15  1  0.00000000  0.50000000  0.00000000  1
  B  B16  1  0.93507256  0.71753678  0.28246322  1
  B  B17  1  0.56492744  0.71753678  0.65260934  1
  B  B18  1  0.93507256  0.34739066  0.28246322  1
  B  B19  1  0.56492744  0.71753678  0.28246322  1
  B  B20  1  0.43507256  0.28246322  0.71753678  1
  B  B21  1  0.43507256  0.28246322  0.34739066  1
  B  B22  1  0.06492744  0.65260934  0.71753678  1
  B  B23  1  0.06492744  0.28246322  0.71753678  1
  S  S24  1  0.75000000  0.12500000  0.87500000  1
  S  S25  1  0.25000000  0.87500000  0.12500000  1
  O  O26  1  0.92895889  0.65405034  0.69839368  1
  O  O27  1  0.92895889  0.41699076  0.87264743  1
  O  O28  1  0.95565666  0.69839368  0.41699076  1
  O  O29  1  0.78140192  0.87264743  0.30160632  1
  O  O30  1  0.87924127  0.06037987  0.93962013  1
  O  O31  1  0.71859808  0.58300924  0.65405034  1
  O  O32  1  0.54434334  0.87264743  0.65405034  1
  O  O33  1  0.87924127  0.06037987  0.68113860  1
  O  O34  1  0.62075873  0.31886140  0.93962013  1
  O  O35  1  0.95565666  0.34594966  0.12735257  1
  O  O36  1  0.78140192  0.34594966  0.41699076  1
  O  O37  1  0.62075873  0.06037987  0.93962013  1
  O  O38  1  0.71859808  0.69839368  0.12735257  1
  O  O39  1  0.42895889  0.69839368  0.65405034  1
  O  O40  1  0.42895889  0.87264743  0.41699076  1
  O  O41  1  0.45565666  0.41699076  0.69839368  1
  O  O42  1  0.54434334  0.58300924  0.30160632  1
  O  O43  1  0.57104111  0.12735257  0.58300924  1
  O  O44  1  0.57104111  0.30160632  0.34594966  1
  O  O45  1  0.28140192  0.30160632  0.87264743  1
  O  O46  1  0.37924127  0.93962013  0.06037987  1
  O  O47  1  0.21859808  0.65405034  0.58300924  1
  O  O48  1  0.04434334  0.65405034  0.87264743  1
  O  O49  1  0.12075873  0.93962013  0.31886140  1
  O  O50  1  0.37924127  0.68113860  0.06037987  1
  O  O51  1  0.45565666  0.12735257  0.34594966  1
  O  O52  1  0.28140192  0.41699076  0.34594966  1
  O  O53  1  0.12075873  0.93962013  0.06037987  1
  O  O54  1  0.21859808  0.12735257  0.69839368  1
  O  O55  1  0.04434334  0.30160632  0.58300924  1
  O  O56  1  0.07104111  0.58300924  0.12735257  1
  O  O57  1  0.07104111  0.34594966  0.30160632  1
