# generated using pymatgen
data_Li4Mn5Nb3O16
_symmetry_space_group_name_H-M   'P 1'
_cell_length_a   6.13794471
_cell_length_b   6.15643420
_cell_length_c   9.96394542
_cell_angle_alpha   90.33403382
_cell_angle_beta   90.11516574
_cell_angle_gamma   119.55653133
_symmetry_Int_Tables_number   1
_chemical_formula_structural   Li4Mn5Nb3O16
_chemical_formula_sum   'Li4 Mn5 Nb3 O16'
_cell_volume   327.50911033
_cell_formula_units_Z   1
loop_
 _symmetry_equiv_pos_site_id
 _symmetry_equiv_pos_as_xyz
  1  'x, y, z'
loop_
 _atom_site_type_symbol
 _atom_site_label
 _atom_site_symmetry_multiplicity
 _atom_site_fract_x
 _atom_site_fract_y
 _atom_site_fract_z
 _atom_site_occupancy
  Li  Li0  1  0.34434246  0.67559670  0.89514338  1
  Li  Li1  1  0.00274876  0.00025116  0.00475736  1
  Li  Li2  1  0.01963032  0.00616760  0.49538763  1
  Li  Li3  1  0.67470148  0.34115918  0.37648829  1
  Mn  Mn4  1  0.16335236  0.82901257  0.21235434  1
  Mn  Mn5  1  0.31016813  0.65444090  0.49083010  1
  Mn  Mn6  1  0.16484701  0.33449080  0.21576609  1
  Mn  Mn7  1  0.33454773  0.16765143  0.71786771  1
  Mn  Mn8  1  0.65137534  0.32451767  0.01111055  1
  Nb  Nb9  1  0.65121319  0.82907428  0.21869985  1
  Nb  Nb10  1  0.82681115  0.65951470  0.71493211  1
  Nb  Nb11  1  0.82827476  0.16721863  0.71480596  1
  O  O12  1  0.14617781  0.83537035  0.60815793  1
  O  O13  1  0.04318648  0.52755899  0.32090263  1
  O  O14  1  0.35753926  0.69886970  0.09629095  1
  O  O15  1  0.98431740  0.96829585  0.31609228  1
  O  O16  1  0.97363843  0.98722016  0.82112829  1
  O  O17  1  0.14358842  0.30784800  0.60503295  1
  O  O18  1  0.49231541  0.97068889  0.33317801  1
  O  O19  1  0.47861707  0.51371418  0.32687222  1
  O  O20  1  0.30241991  0.14612036  0.11313330  1
  O  O21  1  0.68346851  0.84141586  0.60294498  1
  O  O22  1  0.53048917  0.49390003  0.83116929  1
  O  O23  1  0.53382520  0.04124988  0.83137132  1
  O  O24  1  0.69680809  0.34980704  0.59724137  1
  O  O25  1  0.83780183  0.68310862  0.10261633  1
  O  O26  1  0.97663663  0.48788037  0.82396703  1
  O  O27  1  0.84715768  0.15815708  0.10959575  1
