# generated using pymatgen
data_Li3FeSiO5
_symmetry_space_group_name_H-M   'P 1'
_cell_length_a   5.02564319
_cell_length_b   5.79972244
_cell_length_c   6.51497307
_cell_angle_alpha   104.53543505
_cell_angle_beta   97.86719216
_cell_angle_gamma   106.62286387
_symmetry_Int_Tables_number   1
_chemical_formula_structural   Li3FeSiO5
_chemical_formula_sum   'Li6 Fe2 Si2 O10'
_cell_volume   171.61877163
_cell_formula_units_Z   2
loop_
 _symmetry_equiv_pos_site_id
 _symmetry_equiv_pos_as_xyz
  1  'x, y, z'
loop_
 _atom_site_type_symbol
 _atom_site_label
 _atom_site_symmetry_multiplicity
 _atom_site_fract_x
 _atom_site_fract_y
 _atom_site_fract_z
 _atom_site_occupancy
  Li  Li0  1  0.80238206  0.60017438  0.59771469  1
  Li  Li1  1  0.60000000  0.20000000  0.20000000  1
  Li  Li2  1  0.60000000  0.70000000  0.20000000  1
  Li  Li3  1  0.39761794  0.79982562  0.80228531  1
  Li  Li4  1  0.20912593  0.40134450  0.38620267  1
  Li  Li5  1  0.99087407  0.99865550  0.01379733  1
  Fe  Fe6  1  0.79642122  0.08997161  0.59045587  1
  Fe  Fe7  1  0.40357878  0.31002839  0.80954413  1
  Si  Si8  1  0.19649953  0.89190480  0.39169159  1
  Si  Si9  1  0.00350047  0.50809520  0.00830841  1
  O  O10  1  0.93595806  0.03680666  0.32024125  1
  O  O11  1  0.93551623  0.57370661  0.28185151  1
  O  O12  1  0.72532006  0.18881299  0.91198844  1
  O  O13  1  0.73012313  0.62710797  0.90519427  1
  O  O14  1  0.47467994  0.21118701  0.48801156  1
  O  O15  1  0.46987687  0.77289203  0.49480573  1
  O  O16  1  0.26404194  0.36319334  0.07975875  1
  O  O17  1  0.26448377  0.82629339  0.11814849  1
  O  O18  1  0.08995219  0.45287958  0.73774041  1
  O  O19  1  0.11004781  0.94712042  0.66225959  1
