# generated using pymatgen
data_Li4Mn3CuO8
_symmetry_space_group_name_H-M   'P 1'
_cell_length_a   10.27670315
_cell_length_b   10.27670211
_cell_length_c   14.52866622
_cell_angle_alpha   19.52452046
_cell_angle_beta   19.52452025
_cell_angle_gamma   33.64821475
_symmetry_Int_Tables_number   1
_chemical_formula_structural   Li4Mn3CuO8
_chemical_formula_sum   'Li4 Mn3 Cu1 O8'
_cell_volume   148.42376659
_cell_formula_units_Z   1
loop_
 _symmetry_equiv_pos_site_id
 _symmetry_equiv_pos_as_xyz
  1  'x, y, z'
loop_
 _atom_site_type_symbol
 _atom_site_label
 _atom_site_symmetry_multiplicity
 _atom_site_fract_x
 _atom_site_fract_y
 _atom_site_fract_z
 _atom_site_occupancy
  Li  Li0  1  0.00000000  0.00000000  0.50000000  1
  Li  Li1  1  0.00000000  0.50000000  0.50000000  1
  Li  Li2  1  0.50000000  0.00000000  0.50000000  1
  Li  Li3  1  0.50000000  0.50000000  0.50000000  1
  Mn  Mn4  1  0.00000000  0.50000000  0.00000000  1
  Mn  Mn5  1  0.50000000  0.00000000  0.00000000  1
  Mn  Mn6  1  0.50000000  0.50000000  0.00000000  1
  Cu  Cu7  1  0.00000000  0.00000000  0.00000000  1
  O  O8  1  1.00000000  1.00000000  0.24779544  1
  O  O9  1  0.00000000  0.47548892  0.27656720  1
  O  O10  1  0.47548892  0.00000000  0.27656720  1
  O  O11  1  0.00000000  0.00000000  0.75220456  1
  O  O12  1  0.52451108  0.52451108  0.22754505  1
  O  O13  1  1.00000000  0.52451108  0.72343280  1
  O  O14  1  0.52451108  1.00000000  0.72343280  1
  O  O15  1  0.47548892  0.47548892  0.77245495  1
