# generated using pymatgen
data_Li2TiCrO4
_symmetry_space_group_name_H-M   'P 1'
_cell_length_a   5.93303304
_cell_length_b   5.93303318
_cell_length_c   5.90174716
_cell_angle_alpha   119.82565747
_cell_angle_beta   119.82565591
_cell_angle_gamma   89.85320630
_symmetry_Int_Tables_number   1
_chemical_formula_structural   Li2TiCrO4
_chemical_formula_sum   'Li4 Ti2 Cr2 O8'
_cell_volume   147.85408677
_cell_formula_units_Z   2
loop_
 _symmetry_equiv_pos_site_id
 _symmetry_equiv_pos_as_xyz
  1  'x, y, z'
loop_
 _atom_site_type_symbol
 _atom_site_label
 _atom_site_symmetry_multiplicity
 _atom_site_fract_x
 _atom_site_fract_y
 _atom_site_fract_z
 _atom_site_occupancy
  Li  Li0  1  0.00000000  0.50000000  0.50000000  1
  Li  Li1  1  0.50000000  0.50000000  0.50000000  1
  Li  Li2  1  0.50000000  0.00000000  0.00000000  1
  Li  Li3  1  0.50000000  0.50000000  0.00000000  1
  Ti  Ti4  1  0.00000000  0.00000000  0.50000000  1
  Ti  Ti5  1  0.00000000  0.00000000  0.00000000  1
  Cr  Cr6  1  0.00000000  0.50000000  0.00000000  1
  Cr  Cr7  1  0.50000000  0.00000000  0.50000000  1
  O  O8  1  0.24444413  0.75556739  0.01500673  1
  O  O9  1  0.24545879  0.23364504  0.48952086  1
  O  O10  1  0.24443261  0.75555587  0.48499327  1
  O  O11  1  0.76635496  0.75454121  0.01047914  1
  O  O12  1  0.23364504  0.24545879  0.98952086  1
  O  O13  1  0.75556739  0.24444413  0.51500673  1
  O  O14  1  0.75454121  0.76635496  0.51047914  1
  O  O15  1  0.75555587  0.24443261  0.98499327  1
