# generated using pymatgen
data_Li4Mn5Te3O16
_symmetry_space_group_name_H-M   'P 1'
_cell_length_a   6.27610970
_cell_length_b   6.29765174
_cell_length_c   9.98646506
_cell_angle_alpha   89.81639816
_cell_angle_beta   90.60639024
_cell_angle_gamma   120.04935685
_symmetry_Int_Tables_number   1
_chemical_formula_structural   Li4Mn5Te3O16
_chemical_formula_sum   'Li4 Mn5 Te3 O16'
_cell_volume   341.64083735
_cell_formula_units_Z   1
loop_
 _symmetry_equiv_pos_site_id
 _symmetry_equiv_pos_as_xyz
  1  'x, y, z'
loop_
 _atom_site_type_symbol
 _atom_site_label
 _atom_site_symmetry_multiplicity
 _atom_site_fract_x
 _atom_site_fract_y
 _atom_site_fract_z
 _atom_site_occupancy
  Li  Li0  1  0.31183993  0.65904716  0.87144502  1
  Li  Li1  1  0.99228609  0.99737525  0.99548295  1
  Li  Li2  1  0.99522657  0.99267586  0.50431747  1
  Li  Li3  1  0.63195796  0.32439181  0.39711742  1
  Mn  Mn4  1  0.36551689  0.68143281  0.50745937  1
  Mn  Mn5  1  0.66596002  0.83564679  0.21499165  1
  Mn  Mn6  1  0.69068786  0.33369433  0.98976307  1
  Mn  Mn7  1  0.83386163  0.66422202  0.71469226  1
  Mn  Mn8  1  0.83367989  0.16886526  0.71480969  1
  Te  Te9  1  0.16990979  0.83270823  0.21580253  1
  Te  Te10  1  0.17247965  0.34401840  0.21795487  1
  Te  Te11  1  0.33973561  0.16967404  0.71541608  1
  O  O12  1  0.17562511  0.86404787  0.60742812  1
  O  O13  1  0.02357888  0.53397980  0.33018262  1
  O  O14  1  0.31390085  0.68056085  0.10109844  1
  O  O15  1  0.01587626  0.98197493  0.32101590  1
  O  O16  1  0.03462977  0.01705966  0.81624923  1
  O  O17  1  0.17235316  0.30870511  0.60600231  1
  O  O18  1  0.45454511  0.96458482  0.33243035  1
  O  O19  1  0.47404316  0.51926701  0.34385352  1
  O  O20  1  0.31725680  0.12931975  0.10332212  1
  O  O21  1  0.70378171  0.85490392  0.61511895  1
  O  O22  1  0.49993503  0.46518560  0.82886751  1
  O  O23  1  0.50210491  0.03271018  0.82588214  1
  O  O24  1  0.63221051  0.31671549  0.60192360  1
  O  O25  1  0.87661325  0.69474588  0.10277632  1
  O  O26  1  0.95068284  0.47326561  0.81696211  1
  O  O27  1  0.84971878  0.15951856  0.09547536  1
