# generated using pymatgen
data_V2Sb(PO4)3
_symmetry_space_group_name_H-M   'P 1'
_cell_length_a   8.87475395
_cell_length_b   8.87475454
_cell_length_c   8.87475430
_cell_angle_alpha   58.80009618
_cell_angle_beta   58.80009476
_cell_angle_gamma   58.80009816
_symmetry_Int_Tables_number   1
_chemical_formula_structural   V2Sb(PO4)3
_chemical_formula_sum   'V4 Sb2 P6 O24'
_cell_volume   480.71464003
_cell_formula_units_Z   2
loop_
 _symmetry_equiv_pos_site_id
 _symmetry_equiv_pos_as_xyz
  1  'x, y, z'
loop_
 _atom_site_type_symbol
 _atom_site_label
 _atom_site_symmetry_multiplicity
 _atom_site_fract_x
 _atom_site_fract_y
 _atom_site_fract_z
 _atom_site_occupancy
  V  V0  1  0.14627365  0.14627365  0.14627365  1
  V  V1  1  0.35372635  0.35372635  0.35372635  1
  V  V2  1  0.64627365  0.64627365  0.64627365  1
  V  V3  1  0.85372635  0.85372635  0.85372635  1
  Sb  Sb4  1  0.00000000  0.00000000  0.00000000  1
  Sb  Sb5  1  0.50000000  0.50000000  0.50000000  1
  P  P6  1  0.03877976  0.75000000  0.46122024  1
  P  P7  1  0.46122024  0.03877976  0.75000000  1
  P  P8  1  0.75000000  0.46122024  0.03877976  1
  P  P9  1  0.25000000  0.53877976  0.96122024  1
  P  P10  1  0.53877976  0.96122024  0.25000000  1
  P  P11  1  0.96122024  0.25000000  0.53877976  1
  O  O12  1  0.11646088  0.30168891  0.50781603  1
  O  O13  1  0.30168891  0.50781603  0.11646088  1
  O  O14  1  0.06114405  0.91597619  0.26769940  1
  O  O15  1  0.50781603  0.11646088  0.30168891  1
  O  O16  1  0.00781603  0.80168891  0.61646088  1
  O  O17  1  0.23230060  0.58402381  0.43885595  1
  O  O18  1  0.26769940  0.06114405  0.91597619  1
  O  O19  1  0.43885595  0.23230060  0.58402381  1
  O  O20  1  0.19831109  0.38353912  0.99218397  1
  O  O21  1  0.58402381  0.43885595  0.23230060  1
  O  O22  1  0.08402381  0.73230060  0.93885595  1
  O  O23  1  0.38353912  0.99218397  0.19831109  1
  O  O24  1  0.61646088  0.00781603  0.80168891  1
  O  O25  1  0.91597619  0.26769940  0.06114405  1
  O  O26  1  0.41597619  0.56114405  0.76769940  1
  O  O27  1  0.80168891  0.61646088  0.00781603  1
  O  O28  1  0.56114405  0.76769940  0.41597619  1
  O  O29  1  0.73230060  0.93885595  0.08402381  1
  O  O30  1  0.76769940  0.41597619  0.56114405  1
  O  O31  1  0.99218397  0.19831109  0.38353912  1
  O  O32  1  0.49218397  0.88353912  0.69831109  1
  O  O33  1  0.93885595  0.08402381  0.73230060  1
  O  O34  1  0.69831109  0.49218397  0.88353912  1
  O  O35  1  0.88353912  0.69831109  0.49218397  1
