# generated using pymatgen
data_LiV3CoO10
_symmetry_space_group_name_H-M   'P 1'
_cell_length_a   6.58661796
_cell_length_b   6.58661796
_cell_length_c   4.65193153
_cell_angle_alpha   91.71998404
_cell_angle_beta   88.28001596
_cell_angle_gamma   89.36870860
_symmetry_Int_Tables_number   1
_chemical_formula_structural   LiV3CoO10
_chemical_formula_sum   'Li1 V3 Co1 O10'
_cell_volume   201.62107571
_cell_formula_units_Z   1
loop_
 _symmetry_equiv_pos_site_id
 _symmetry_equiv_pos_as_xyz
  1  'x, y, z'
loop_
 _atom_site_type_symbol
 _atom_site_label
 _atom_site_symmetry_multiplicity
 _atom_site_fract_x
 _atom_site_fract_y
 _atom_site_fract_z
 _atom_site_occupancy
  Li  Li0  1  0.50486576  0.00486576  0.00000000  1
  V  V1  1  0.25085495  0.75085495  0.50000000  1
  V  V2  1  0.24908300  0.25045737  0.61774069  1
  V  V3  1  0.75045737  0.74908300  0.38225931  1
  Co  Co4  1  0.74930971  0.24930971  0.50000000  1
  O  O5  1  0.03371647  0.75648351  0.29756317  1
  O  O6  1  0.26690527  0.23196386  0.26635668  1
  O  O7  1  0.25648351  0.53371647  0.70243683  1
  O  O8  1  0.26014430  0.96363100  0.73308402  1
  O  O9  1  0.46363100  0.76014430  0.26691598  1
  O  O10  1  0.52531020  0.23803558  0.73037335  1
  O  O11  1  0.73803558  0.02531020  0.26962665  1
  O  O12  1  0.74381087  0.47542916  0.29815779  1
  O  O13  1  0.73196386  0.76690527  0.73364332  1
  O  O14  1  0.97542916  0.24381087  0.70184221  1
