# generated using pymatgen
data_Li3Fe2(PO4)3
_symmetry_space_group_name_H-M   'P 1'
_cell_length_a   9.16388046
_cell_length_b   9.16446245
_cell_length_c   14.99183781
_cell_angle_alpha   81.00684919
_cell_angle_beta   82.55734858
_cell_angle_gamma   122.20020258
_symmetry_Int_Tables_number   1
_chemical_formula_structural   Li3Fe2(PO4)3
_chemical_formula_sum   'Li12 Fe8 P12 O48'
_cell_volume   1017.60611494
_cell_formula_units_Z   4
loop_
 _symmetry_equiv_pos_site_id
 _symmetry_equiv_pos_as_xyz
  1  'x, y, z'
loop_
 _atom_site_type_symbol
 _atom_site_label
 _atom_site_symmetry_multiplicity
 _atom_site_fract_x
 _atom_site_fract_y
 _atom_site_fract_z
 _atom_site_occupancy
  Li  Li0  1  0.18143305  0.75528240  0.34960711  1
  Li  Li1  1  0.95810254  0.25303551  0.94651144  1
  Li  Li2  1  0.09289111  0.34425821  0.24967249  1
  Li  Li3  1  0.69733370  0.89623452  0.55393408  1
  Li  Li4  1  0.60765306  0.53019355  0.15274704  1
  Li  Li5  1  0.50221761  0.49970592  0.49644490  1
  Li  Li6  1  0.39670199  0.47021600  0.84822449  1
  Li  Li7  1  0.30140804  0.09960378  0.44639325  1
  Li  Li8  1  0.90394365  0.65153060  0.75017020  1
  Li  Li9  1  0.05078000  0.74625011  0.05222184  1
  Li  Li10  1  0.81649384  0.23856119  0.65232828  1
  Li  Li11  1  0.50182038  0.00168152  0.00221774  1
  Fe  Fe12  1  0.25748142  0.71404087  0.52983885  1
  Fe  Fe13  1  0.33999402  0.81651883  0.83345188  1
  Fe  Fe14  1  0.14894083  0.17319894  0.66739943  1
  Fe  Fe15  1  0.74255183  0.78542737  0.97237794  1
  Fe  Fe16  1  0.25773329  0.21357608  0.02887705  1
  Fe  Fe17  1  0.85319176  0.82806845  0.33372045  1
  Fe  Fe18  1  0.66204653  0.18476117  0.16752764  1
  Fe  Fe19  1  0.74332843  0.28613904  0.47181672  1
  P  P20  1  0.60648244  0.96399105  0.37418569  1
  P  P21  1  0.28070593  0.56791084  0.69266263  1
  P  P22  1  0.30971785  0.59688488  0.02919520  1
  P  P23  1  0.12564446  0.33905865  0.47119079  1
  P  P24  1  0.75914237  0.97263548  0.80987345  1
  P  P25  1  0.83658232  0.97764079  0.12768394  1
  P  P26  1  0.16272332  0.02079085  0.87377810  1
  P  P27  1  0.24196457  0.02591913  0.19084592  1
  P  P28  1  0.87291042  0.65937201  0.52963354  1
  P  P29  1  0.69010972  0.40277042  0.97179933  1
  P  P30  1  0.72095031  0.43348688  0.30895228  1
  P  P31  1  0.39476916  0.03749868  0.62733804  1
  O  O32  1  0.11062666  0.90971917  0.28944364  1
  O  O33  1  0.17093086  0.94826103  0.10875361  1
  O  O34  1  0.31567373  0.99492761  0.87475636  1
  O  O35  1  0.31406469  0.95043871  0.54961213  1
  O  O36  1  0.05492225  0.68871732  0.48420005  1
  O  O37  1  0.29308056  0.88499177  0.71806891  1
  O  O38  1  0.40250080  0.87625360  0.39598061  1
  O  O39  1  0.11456421  0.54706709  0.66421076  1
  O  O40  1  0.22400311  0.67186305  0.96776819  1
  O  O41  1  0.59389887  0.97737408  0.80328862  1
  O  O42  1  0.20034385  0.51465609  0.12939795  1
  O  O43  1  0.29786866  0.60022049  0.79123130  1
  O  O44  1  0.27696978  0.52104009  0.48505555  1
  O  O45  1  0.44103258  0.72132777  0.61068930  1
  O  O46  1  0.50568435  0.76163414  0.01493516  1
  O  O47  1  0.63284485  0.81082000  0.37531568  1
  O  O48  1  0.14090155  0.32963027  0.37104175  1
  O  O49  1  0.00116546  0.13538842  0.04988967  1
  O  O50  1  0.27722456  0.39533373  0.69907369  1
  O  O51  1  0.32649604  0.46126564  0.98303637  1
  O  O52  1  0.89868246  0.98979954  0.21842144  1
  O  O53  1  0.13971725  0.19212868  0.53249629  1
  O  O54  1  0.77016516  0.79493196  0.10637905  1
  O  O55  1  0.70825245  0.77730677  0.83751027  1
  O  O56  1  0.29136846  0.22066440  0.16299729  1
  O  O57  1  0.22856468  0.20320306  0.89560497  1
  O  O58  1  0.86215117  0.80891204  0.46859583  1
  O  O59  1  0.10124996  0.01034102  0.78298935  1
  O  O60  1  0.67115266  0.53719907  0.01793585  1
  O  O61  1  0.72212780  0.60506852  0.30282473  1
  O  O62  1  0.99826555  0.86167611  0.95144233  1
  O  O63  1  0.85182554  0.66378420  0.63075355  1
  O  O64  1  0.36938133  0.19114756  0.62631220  1
  O  O65  1  0.49480310  0.23722798  0.98581522  1
  O  O66  1  0.56034516  0.27949597  0.39067497  1
  O  O67  1  0.72290224  0.47996297  0.51332889  1
  O  O68  1  0.70451771  0.40077062  0.21043395  1
  O  O69  1  0.79916046  0.48587832  0.87130972  1
  O  O70  1  0.40841867  0.02317912  0.19702144  1
  O  O71  1  0.77678025  0.32929302  0.03325648  1
  O  O72  1  0.88779479  0.45648229  0.33747662  1
  O  O73  1  0.59877167  0.12492558  0.60566083  1
  O  O74  1  0.70821242  0.11664428  0.28333644  1
  O  O75  1  0.94471257  0.31047405  0.51827540  1
  O  O76  1  0.68747978  0.05094901  0.45183244  1
  O  O77  1  0.68412500  0.00449179  0.12653979  1
  O  O78  1  0.83006766  0.04914545  0.89240932  1
  O  O79  1  0.89116667  0.08963782  0.71168025  1
