# generated using pymatgen
data_Li3Ti2FeO6
_symmetry_space_group_name_H-M   'P 1'
_cell_length_a   15.70630038
_cell_length_b   10.05600159
_cell_length_c   10.05600164
_cell_angle_alpha   16.94294694
_cell_angle_beta   16.60229155
_cell_angle_gamma   16.60229177
_symmetry_Int_Tables_number   1
_chemical_formula_structural   Li3Ti2FeO6
_chemical_formula_sum   'Li3 Ti2 Fe1 O6'
_cell_volume   114.56620095
_cell_formula_units_Z   1
loop_
 _symmetry_equiv_pos_site_id
 _symmetry_equiv_pos_as_xyz
  1  'x, y, z'
loop_
 _atom_site_type_symbol
 _atom_site_label
 _atom_site_symmetry_multiplicity
 _atom_site_fract_x
 _atom_site_fract_y
 _atom_site_fract_z
 _atom_site_occupancy
  Li  Li0  1  0.16666700  0.50000000  0.50000000  1
  Li  Li1  1  0.50180678  0.49935075  0.49935075  1
  Li  Li2  1  0.83152622  0.50064925  0.50064925  1
  Ti  Ti3  1  0.01577619  0.98893743  0.98893743  1
  Ti  Ti4  1  0.31755681  0.01106257  0.01106257  1
  Fe  Fe5  1  0.66666700  0.00000000  0.00000000  1
  O  O6  1  0.22038073  0.27550125  0.27550125  1
  O  O7  1  0.58280248  0.25793785  0.25793785  1
  O  O8  1  0.11295227  0.72449875  0.72449875  1
  O  O9  1  0.94446372  0.23235162  0.23235162  1
  O  O10  1  0.38887028  0.76764838  0.76764838  1
  O  O11  1  0.75053052  0.74206215  0.74206215  1
