# generated using pymatgen
data_Li10Cr2Fe3Co3O16
_symmetry_space_group_name_H-M   'P 1'
_cell_length_a   5.96686849
_cell_length_b   5.96642963
_cell_length_c   9.83417541
_cell_angle_alpha   90.21147254
_cell_angle_beta   89.88378739
_cell_angle_gamma   120.09570676
_symmetry_Int_Tables_number   1
_chemical_formula_structural   Li10Cr2Fe3Co3O16
_chemical_formula_sum   'Li10 Cr2 Fe3 Co3 O16'
_cell_volume   302.90536107
_cell_formula_units_Z   1
loop_
 _symmetry_equiv_pos_site_id
 _symmetry_equiv_pos_as_xyz
  1  'x, y, z'
loop_
 _atom_site_type_symbol
 _atom_site_label
 _atom_site_symmetry_multiplicity
 _atom_site_fract_x
 _atom_site_fract_y
 _atom_site_fract_z
 _atom_site_occupancy
  Li  Li0  1  0.18659576  0.80431022  0.04906627  1
  Li  Li1  1  0.60144448  0.80048498  0.04692300  1
  Li  Li2  1  0.33172500  0.67492788  0.26802346  1
  Li  Li3  1  0.99097896  -0.00010248  0.97506308  1
  Li  Li4  1  0.99392846  0.00783318  0.47992999  1
  Li  Li5  1  0.18666188  0.38667711  0.04992972  1
  Li  Li6  1  0.80436200  0.61875190  0.55205012  1
  Li  Li7  1  0.79290878  0.19936782  0.54695122  1
  Li  Li8  1  0.38701361  0.19250789  0.54846060  1
  Li  Li9  1  0.66470162  0.34236414  0.76823183  1
  Cr  Cr10  1  0.66270731  0.34101737  0.02193110  1
  Cr  Cr11  1  0.33213187  0.67716080  0.52523479  1
  Fe  Fe12  1  0.16301811  0.33964736  0.77786756  1
  Fe  Fe13  1  0.33485118  0.17763956  0.27984229  1
  Fe  Fe14  1  0.82763850  0.17832916  0.27860428  1
  Co  Co15  1  0.16925613  0.83672107  0.78171019  1
  Co  Co16  1  0.82874720  0.67186619  0.28116066  1
  Co  Co17  1  0.65337566  0.83553640  0.78106363  1
  O  O18  1  0.17220577  0.85127206  0.40625077  1
  O  O19  1  0.48625403  0.98300728  0.65362435  1
  O  O20  1  0.32405246  0.66431557  0.89791057  1
  O  O21  1  0.01835899  0.50925498  0.65279984  1
  O  O22  1  0.99606813  0.00147668  0.67176315  1
  O  O23  1  0.00122276  0.01744679  0.16819553  1
  O  O24  1  0.66168876  0.85040083  0.40395977  1
  O  O25  1  0.47815547  0.50952415  0.65241922  1
  O  O26  1  0.82374200  0.66546431  0.90519649  1
  O  O27  1  0.16228292  0.34143696  0.39900837  1
  O  O28  1  0.50100452  0.48879096  0.15348337  1
  O  O29  1  0.97375755  0.48963001  0.15305909  1
  O  O30  1  0.65933796  0.33386629  0.39821133  1
  O  O31  1  0.32909301  0.17691356  0.90279359  1
  O  O32  1  0.50597037  0.02696140  0.15487647  1
  O  O33  1  0.83161877  0.17701264  0.90183629  1
