# generated using pymatgen
data_NaMn2O4
_symmetry_space_group_name_H-M   'P 1'
_cell_length_a   3.00577094
_cell_length_b   5.16176180
_cell_length_c   9.85335466
_cell_angle_alpha   90.00414028
_cell_angle_beta   89.99759866
_cell_angle_gamma   73.09442548
_symmetry_Int_Tables_number   1
_chemical_formula_structural   NaMn2O4
_chemical_formula_sum   'Na2 Mn4 O8'
_cell_volume   146.26905167
_cell_formula_units_Z   2
loop_
 _symmetry_equiv_pos_site_id
 _symmetry_equiv_pos_as_xyz
  1  'x, y, z'
loop_
 _atom_site_type_symbol
 _atom_site_label
 _atom_site_symmetry_multiplicity
 _atom_site_fract_x
 _atom_site_fract_y
 _atom_site_fract_z
 _atom_site_occupancy
  Na  Na0  1  0.11123815  0.28681913  0.25006138  1
  Na  Na1  1  0.89635663  0.71329303  0.75003823  1
  Mn  Mn2  1  0.64010861  0.22662301  0.92776228  1
  Mn  Mn3  1  0.36647257  0.77311242  0.42795104  1
  Mn  Mn4  1  0.63925547  0.22691074  0.57196416  1
  Mn  Mn5  1  0.36649464  0.77300473  0.07197437  1
  O  O6  1  0.26555200  0.97169904  0.60397663  1
  O  O7  1  0.26606945  0.97115169  0.89594621  1
  O  O8  1  0.73660515  0.02849257  0.39602514  1
  O  O9  1  0.73727797  0.02818124  0.10390538  1
  O  O10  1  0.43776771  0.63396290  0.24998074  1
  O  O11  1  0.57135773  0.36611984  0.74991421  1
  O  O12  1  0.01430629  0.49984232  0.50010072  1
  O  O13  1  0.01422763  0.50078733  0.00035151  1
