# generated using pymatgen
data_LiCr(PO3)4
_symmetry_space_group_name_H-M   'P 1'
_cell_length_a   7.41253167
_cell_length_b   7.41253167
_cell_length_c   18.09887301
_cell_angle_alpha   90.00000000
_cell_angle_beta   90.00000000
_cell_angle_gamma   101.83079131
_symmetry_Int_Tables_number   1
_chemical_formula_structural   LiCr(PO3)4
_chemical_formula_sum   'Li4 Cr4 P16 O48'
_cell_volume   973.32906561
_cell_formula_units_Z   4
loop_
 _symmetry_equiv_pos_site_id
 _symmetry_equiv_pos_as_xyz
  1  'x, y, z'
loop_
 _atom_site_type_symbol
 _atom_site_label
 _atom_site_symmetry_multiplicity
 _atom_site_fract_x
 _atom_site_fract_y
 _atom_site_fract_z
 _atom_site_occupancy
  Li  Li0  1  0.20224977  0.10109477  0.39286979  1
  Li  Li1  1  0.89890523  0.79775023  0.60713021  1
  Li  Li2  1  0.79775023  0.89890523  0.89286979  1
  Li  Li3  1  0.10109477  0.20224977  0.10713021  1
  Cr  Cr4  1  0.56505949  0.95577886  0.63428589  1
  Cr  Cr5  1  0.04422114  0.43494051  0.36571411  1
  Cr  Cr6  1  0.95577886  0.56505949  0.86571411  1
  Cr  Cr7  1  0.43494051  0.04422114  0.13428489  1
  P  P8  1  0.04428025  0.76781880  0.09608410  1
  P  P9  1  0.23218120  0.95571975  0.90391590  1
  P  P10  1  0.29022122  0.77512915  0.76303708  1
  P  P11  1  0.22487085  0.70977878  0.23696292  1
  P  P12  1  0.37860432  0.62139568  0.50000000  1
  P  P13  1  0.66304392  0.76277667  0.05902598  1
  P  P14  1  0.23722333  0.33695608  0.94097402  1
  P  P15  1  0.36450385  0.36450385  0.25000000  1
  P  P16  1  0.63549615  0.63549615  0.75000000  1
  P  P17  1  0.33695608  0.23722333  0.55902598  1
  P  P18  1  0.76277667  0.66304392  0.44097402  1
  P  P19  1  0.62139568  0.37860432  0.00000000  1
  P  P20  1  0.70977878  0.22487085  0.26303708  1
  P  P21  1  0.77512915  0.29022122  0.73696292  1
  P  P22  1  0.76781880  0.04428025  0.40391590  1
  P  P23  1  0.95571975  0.23218120  0.59608410  1
  O  O24  1  0.03950001  0.83398251  0.89656673  1
  O  O25  1  0.16601749  0.96049999  0.10343327  1
  O  O26  1  0.04913647  0.65006371  0.03173630  1
  O  O27  1  0.34993629  0.95086353  0.96826370  1
  O  O28  1  0.33494082  0.90314656  0.22904176  1
  O  O29  1  0.09685344  0.66505918  0.77095824  1
  O  O30  1  0.08402279  0.65354234  0.17087268  1
  O  O31  1  0.34645766  0.91597721  0.82912732  1
  O  O32  1  0.12688999  0.67110066  0.30989301  1
  O  O33  1  0.32889934  0.87311001  0.69010699  1
  O  O34  1  0.41863984  0.79038904  0.54819578  1
  O  O35  1  0.20961096  0.58136016  0.45180422  1
  O  O36  1  0.50858965  0.81665144  0.10307363  1
  O  O37  1  0.18334856  0.49141035  0.89692637  1
  O  O38  1  0.42823601  0.63229910  0.77227800  1
  O  O39  1  0.36770090  0.57176399  0.22772200  1
  O  O40  1  0.80280137  0.83975973  0.38504802  1
  O  O41  1  0.16024027  0.19719863  0.61495198  1
  O  O42  1  0.54163209  0.61043096  0.44187177  1
  O  O43  1  0.38956904  0.45836791  0.55812823  1
  O  O44  1  0.24861401  0.31526324  0.31887874  1
  O  O45  1  0.68473676  0.75138599  0.68112126  1
  O  O46  1  0.15749579  0.28953640  0.01490116  1
  O  O47  1  0.71046360  0.84250421  0.98509884  1
  O  O48  1  0.28953640  0.15749579  0.48509884  1
  O  O49  1  0.84250421  0.71046360  0.51490116  1
  O  O50  1  0.31526324  0.24861401  0.18112126  1
  O  O51  1  0.75138599  0.68473676  0.81887874  1
  O  O52  1  0.61043096  0.54163209  0.05812823  1
  O  O53  1  0.45836791  0.38956904  0.94187177  1
  O  O54  1  0.19719863  0.16024027  0.88504802  1
  O  O55  1  0.83975973  0.80280137  0.11495198  1
  O  O56  1  0.63229910  0.42823601  0.72772200  1
  O  O57  1  0.57176399  0.36770090  0.27227800  1
  O  O58  1  0.49141035  0.18334856  0.60307363  1
  O  O59  1  0.81665144  0.50858965  0.39692637  1
  O  O60  1  0.79038904  0.41863984  0.95180422  1
  O  O61  1  0.58136016  0.20961096  0.04819578  1
  O  O62  1  0.67110066  0.12688999  0.19010699  1
  O  O63  1  0.87311001  0.32889934  0.80989301  1
  O  O64  1  0.65354234  0.08402279  0.32912732  1
  O  O65  1  0.91597721  0.34645766  0.67087268  1
  O  O66  1  0.66505918  0.09685344  0.72904176  1
  O  O67  1  0.90314656  0.33494082  0.27095824  1
  O  O68  1  0.65006371  0.04913647  0.46826370  1
  O  O69  1  0.95086353  0.34993629  0.53173630  1
  O  O70  1  0.96049999  0.16601749  0.39656673  1
  O  O71  1  0.83398251  0.03950001  0.60343327  1
