# generated using pymatgen
data_Mg2Ti
_symmetry_space_group_name_H-M   'P 1'
_cell_length_a   3.01578832
_cell_length_b   16.57452728
_cell_length_c   4.91417643
_cell_angle_alpha   90.00000000
_cell_angle_beta   90.00000000
_cell_angle_gamma   90.00000000
_symmetry_Int_Tables_number   1
_chemical_formula_structural   Mg2Ti
_chemical_formula_sum   'Mg8 Ti4'
_cell_volume   245.63641495
_cell_formula_units_Z   4
loop_
 _symmetry_equiv_pos_site_id
 _symmetry_equiv_pos_as_xyz
  1  'x, y, z'
loop_
 _atom_site_type_symbol
 _atom_site_label
 _atom_site_symmetry_multiplicity
 _atom_site_fract_x
 _atom_site_fract_y
 _atom_site_fract_z
 _atom_site_occupancy
  Mg  Mg0  1  0.50000000  0.28696577  0.25000000  1
  Mg  Mg1  1  -0.00000000  0.10960893  0.25000000  1
  Mg  Mg2  1  0.50000000  0.39039107  0.75000000  1
  Mg  Mg3  1  0.00000000  0.21303423  0.75000000  1
  Mg  Mg4  1  0.00000000  0.78696577  0.25000000  1
  Mg  Mg5  1  0.50000000  0.60960893  0.25000000  1
  Mg  Mg6  1  -0.00000000  0.89039107  0.75000000  1
  Mg  Mg7  1  0.50000000  0.71303423  0.75000000  1
  Ti  Ti8  1  0.00000000  0.45488648  0.25000000  1
  Ti  Ti9  1  0.50000000  0.04511352  0.75000000  1
  Ti  Ti10  1  0.50000000  0.95488648  0.25000000  1
  Ti  Ti11  1  -0.00000000  0.54511352  0.75000000  1
