# generated using pymatgen
data_Li4V3NiO8
_symmetry_space_group_name_H-M   'P 1'
_cell_length_a   10.30727306
_cell_length_b   10.37283464
_cell_length_c   14.63802835
_cell_angle_alpha   19.43305339
_cell_angle_beta   19.34279364
_cell_angle_gamma   33.37432064
_symmetry_Int_Tables_number   1
_chemical_formula_structural   Li4V3NiO8
_chemical_formula_sum   'Li4 V3 Ni1 O8'
_cell_volume   149.71204515
_cell_formula_units_Z   1
loop_
 _symmetry_equiv_pos_site_id
 _symmetry_equiv_pos_as_xyz
  1  'x, y, z'
loop_
 _atom_site_type_symbol
 _atom_site_label
 _atom_site_symmetry_multiplicity
 _atom_site_fract_x
 _atom_site_fract_y
 _atom_site_fract_z
 _atom_site_occupancy
  Li  Li0  1  0.00002528  -0.00006266  0.50002950  1
  Li  Li1  1  0.99996135  0.49987841  0.50010682  1
  Li  Li2  1  0.49998891  0.99999407  0.50000228  1
  Li  Li3  1  0.50001592  0.49998889  0.50000055  1
  V  V4  1  0.00004348  0.50051406  -0.00045144  1
  V  V5  1  0.49989394  -0.00024313  0.00022666  1
  V  V6  1  0.49980840  0.49982250  0.00023756  1
  Ni  Ni7  1  0.00017561  0.00026061  -0.00024476  1
  O  O8  1  0.98767611  0.98415423  0.27384557  1
  O  O9  1  0.02815034  0.49295445  0.24352575  1
  O  O10  1  0.48461553  0.01194659  0.25988744  1
  O  O11  1  0.01225284  0.01578387  0.72622828  1
  O  O12  1  0.51170419  0.51484861  0.24032337  1
  O  O13  1  0.97173608  0.50699206  0.75661477  1
  O  O14  1  0.51558499  0.98812738  0.73995590  1
  O  O15  1  0.48836605  0.48503908  0.75971177  1
