# generated using pymatgen
data_Li3Si2(NiO4)2
_symmetry_space_group_name_H-M   'P 1'
_cell_length_a   6.41511486
_cell_length_b   5.34370795
_cell_length_c   4.96542148
_cell_angle_alpha   89.49668047
_cell_angle_beta   89.87570493
_cell_angle_gamma   89.99352670
_symmetry_Int_Tables_number   1
_chemical_formula_structural   Li3Si2(NiO4)2
_chemical_formula_sum   'Li3 Si2 Ni2 O8'
_cell_volume   170.21016333
_cell_formula_units_Z   1
loop_
 _symmetry_equiv_pos_site_id
 _symmetry_equiv_pos_as_xyz
  1  'x, y, z'
loop_
 _atom_site_type_symbol
 _atom_site_label
 _atom_site_symmetry_multiplicity
 _atom_site_fract_x
 _atom_site_fract_y
 _atom_site_fract_z
 _atom_site_occupancy
  Li  Li0  1  0.00754131  0.83157051  0.50287543  1
  Li  Li1  1  0.49653923  0.18044980  0.00013581  1
  Li  Li2  1  0.75908700  0.65667636  0.99458379  1
  Si  Si3  1  0.25445337  0.67316980  0.00384286  1
  Si  Si4  1  0.75194838  0.31906585  0.51177377  1
  Ni  Ni5  1  0.01515739  0.17538692  0.00166462  1
  Ni  Ni6  1  0.50620979  0.82966438  0.49797690  1
  O  O7  1  0.03828751  0.80816816  0.89908914  1
  O  O8  1  0.26758400  0.72524380  0.33313034  1
  O  O9  1  0.25680393  0.37913656  0.93591762  1
  O  O10  1  0.46878301  0.81227369  0.87757678  1
  O  O11  1  0.54641269  0.15917060  0.40360848  1
  O  O12  1  0.73306798  0.61741672  0.40511423  1
  O  O13  1  0.75538481  0.31886775  0.84276932  1
  O  O14  1  0.95492162  0.18005110  0.38980592  1
