# generated using pymatgen
data_Li2V2(Si2O5)3
_symmetry_space_group_name_H-M   'P 1'
_cell_length_a   11.48096805
_cell_length_b   11.48096805
_cell_length_c   10.34981636
_cell_angle_alpha   90.00000000
_cell_angle_beta   90.00000000
_cell_angle_gamma   79.30648023
_symmetry_Int_Tables_number   1
_chemical_formula_structural   Li2V2(Si2O5)3
_chemical_formula_sum   'Li8 V8 Si24 O60'
_cell_volume   1340.54486915
_cell_formula_units_Z   4
loop_
 _symmetry_equiv_pos_site_id
 _symmetry_equiv_pos_as_xyz
  1  'x, y, z'
loop_
 _atom_site_type_symbol
 _atom_site_label
 _atom_site_symmetry_multiplicity
 _atom_site_fract_x
 _atom_site_fract_y
 _atom_site_fract_z
 _atom_site_occupancy
  Li  Li0  1  0.50346518  0.00346518  0.25000000  1
  Li  Li1  1  0.99653482  0.49653482  0.75000000  1
  Li  Li2  1  0.60467518  0.60467518  0.74443698  1
  Li  Li3  1  0.10467518  0.10467518  0.75556302  1
  Li  Li4  1  0.39532482  0.39532482  0.25556302  1
  Li  Li5  1  0.89532482  0.89532482  0.24443698  1
  Li  Li6  1  0.00346518  0.50346518  0.25000000  1
  Li  Li7  1  0.49653482  0.99653482  0.75000000  1
  V  V8  1  0.24133644  0.75866356  0.00000000  1
  V  V9  1  0.15932541  0.65932541  0.25000000  1
  V  V10  1  0.34067459  0.84067459  0.75000000  1
  V  V11  1  0.25866356  0.74133644  0.50000000  1
  V  V12  1  0.74133644  0.25866356  0.50000000  1
  V  V13  1  0.84067459  0.34067459  0.75000000  1
  V  V14  1  0.65932541  0.15932541  0.25000000  1
  V  V15  1  0.75866356  0.24133644  0.00000000  1
  Si  Si16  1  0.18323499  0.96621607  0.19421318  1
  Si  Si17  1  0.03378393  0.81676501  0.80578682  1
  Si  Si18  1  0.19931472  0.41844964  0.45918569  1
  Si  Si19  1  0.08155036  0.30068528  0.95918569  1
  Si  Si20  1  0.58155036  0.80068528  0.54081431  1
  Si  Si21  1  0.69931472  0.91844964  0.04081431  1
  Si  Si22  1  0.31676501  0.53378393  0.69421318  1
  Si  Si23  1  0.46621607  0.68323499  0.30578682  1
  Si  Si24  1  0.52523182  0.74055487  0.01265197  1
  Si  Si25  1  0.02523182  0.24055487  0.48734803  1
  Si  Si26  1  0.25944513  0.47476818  0.98734803  1
  Si  Si27  1  0.75944513  0.97476818  0.51265197  1
  Si  Si28  1  0.74055487  0.52523182  0.01265197  1
  Si  Si29  1  0.24055487  0.02523182  0.48734803  1
  Si  Si30  1  0.47476818  0.25944513  0.98734803  1
  Si  Si31  1  0.97476818  0.75944513  0.51265197  1
  Si  Si32  1  0.68323499  0.46621607  0.30578682  1
  Si  Si33  1  0.53378393  0.31676501  0.69421318  1
  Si  Si34  1  0.41844964  0.19931472  0.45918569  1
  Si  Si35  1  0.30068528  0.08155036  0.95918569  1
  Si  Si36  1  0.80068528  0.58155036  0.54081431  1
  Si  Si37  1  0.91844964  0.69931472  0.04081431  1
  Si  Si38  1  0.96621607  0.18323499  0.19421318  1
  Si  Si39  1  0.81676501  0.03378393  0.80578682  1
  O  O40  1  0.01043901  0.75554373  0.66672993  1
  O  O41  1  0.24445627  0.98956099  0.33327007  1
  O  O42  1  0.16215059  0.83324375  0.16995876  1
  O  O43  1  0.16675625  0.83784941  0.83004124  1
  O  O44  1  0.24995711  0.91029937  0.57708051  1
  O  O45  1  0.08970063  0.75004289  0.42291949  1
  O  O46  1  0.25004289  0.58970063  0.07708051  1
  O  O47  1  0.41029937  0.74995711  0.92291949  1
  O  O48  1  0.33784941  0.66675625  0.66995876  1
  O  O49  1  0.33324375  0.66215059  0.33004124  1
  O  O50  1  0.15688007  0.48634349  0.32805404  1
  O  O51  1  0.01365651  0.34311993  0.82805404  1
  O  O52  1  0.51365651  0.84311993  0.67194596  1
  O  O53  1  0.65688007  0.98634349  0.17194596  1
  O  O54  1  0.22625168  0.50257197  0.58067051  1
  O  O55  1  0.99742803  0.27374832  0.08067051  1
  O  O56  1  0.72625168  0.00257197  0.91932949  1
  O  O57  1  0.49742803  0.77374832  0.41932949  1
  O  O58  1  0.65179914  0.90222902  0.48488570  1
  O  O59  1  0.09777098  0.34820086  0.51511430  1
  O  O60  1  0.15179914  0.40222902  0.01511430  1
  O  O61  1  0.59777098  0.84820086  0.98488570  1
  O  O62  1  0.48956099  0.74445627  0.16672993  1
  O  O63  1  0.25554373  0.51043901  0.83327007  1
  O  O64  1  0.94593767  0.94593767  0.81461257  1
  O  O65  1  0.61597013  0.61597013  0.97148017  1
  O  O66  1  0.32540354  0.32540354  0.42468292  1
  O  O67  1  0.05406233  0.05406233  0.18538743  1
  O  O68  1  0.17459646  0.17459646  0.92468292  1
  O  O69  1  0.11597013  0.11597013  0.52851983  1
  O  O70  1  0.38402987  0.38402987  0.02851983  1
  O  O71  1  0.44593767  0.44593767  0.68538743  1
  O  O72  1  0.55406233  0.55406233  0.31461257  1
  O  O73  1  0.88402987  0.88402987  0.47148017  1
  O  O74  1  0.67459646  0.67459646  0.57531708  1
  O  O75  1  0.82540354  0.82540354  0.07531708  1
  O  O76  1  0.74445627  0.48956099  0.16672993  1
  O  O77  1  0.51043901  0.25554373  0.83327007  1
  O  O78  1  0.84820086  0.59777098  0.98488570  1
  O  O79  1  0.40222902  0.15179914  0.01511430  1
  O  O80  1  0.34820086  0.09777098  0.51511430  1
  O  O81  1  0.90222902  0.65179914  0.48488570  1
  O  O82  1  0.00257197  0.72625168  0.91932949  1
  O  O83  1  0.50257197  0.22625168  0.58067051  1
  O  O84  1  0.27374832  0.99742803  0.08067051  1
  O  O85  1  0.77374832  0.49742803  0.41932949  1
  O  O86  1  0.34311993  0.01365651  0.82805404  1
  O  O87  1  0.48634349  0.15688007  0.32805404  1
  O  O88  1  0.84311993  0.51365651  0.67194596  1
  O  O89  1  0.98634349  0.65688007  0.17194596  1
  O  O90  1  0.66215059  0.33324375  0.33004124  1
  O  O91  1  0.66675625  0.33784941  0.66995876  1
  O  O92  1  0.74995711  0.41029937  0.92291949  1
  O  O93  1  0.58970063  0.25004289  0.07708051  1
  O  O94  1  0.91029937  0.24995711  0.57708051  1
  O  O95  1  0.75004289  0.08970063  0.42291949  1
  O  O96  1  0.83324375  0.16215059  0.16995876  1
  O  O97  1  0.83784941  0.16675625  0.83004124  1
  O  O98  1  0.75554373  0.01043901  0.66672993  1
  O  O99  1  0.98956099  0.24445627  0.33327007  1
