# generated using pymatgen
data_CrNi3(PO4)4
_symmetry_space_group_name_H-M   'P 1'
_cell_length_a   4.77721470
_cell_length_b   9.92484307
_cell_length_c   5.76194223
_cell_angle_alpha   90.00000000
_cell_angle_beta   90.00000000
_cell_angle_gamma   90.09525893
_symmetry_Int_Tables_number   1
_chemical_formula_structural   CrNi3(PO4)4
_chemical_formula_sum   'Cr1 Ni3 P4 O16'
_cell_volume   273.19120149
_cell_formula_units_Z   1
loop_
 _symmetry_equiv_pos_site_id
 _symmetry_equiv_pos_as_xyz
  1  'x, y, z'
loop_
 _atom_site_type_symbol
 _atom_site_label
 _atom_site_symmetry_multiplicity
 _atom_site_fract_x
 _atom_site_fract_y
 _atom_site_fract_z
 _atom_site_occupancy
  Cr  Cr0  1  0.96899483  0.27143144  0.25000000  1
  Ni  Ni1  1  0.03922748  0.72699436  0.75000000  1
  Ni  Ni2  1  0.45760387  0.22762508  0.75000000  1
  Ni  Ni3  1  0.54133833  0.77109128  0.25000000  1
  P  P4  1  0.09232447  0.59538818  0.25000000  1
  P  P5  1  0.40089549  0.09297687  0.25000000  1
  P  P6  1  0.59144840  0.90383492  0.75000000  1
  P  P7  1  0.91784796  0.40878791  0.75000000  1
  O  O8  1  0.16640718  0.44380725  0.25000000  1
  O  O9  1  0.24037646  0.66774090  0.04186048  1
  O  O10  1  0.24037646  0.66774090  0.45813952  1
  O  O11  1  0.23408287  0.39495692  0.75000000  1
  O  O12  1  0.27213818  0.89115440  0.75000000  1
  O  O13  1  0.24638899  0.17033576  0.04618243  1
  O  O14  1  0.24638899  0.17033576  0.45381757  1
  O  O15  1  0.33291725  0.94387529  0.25000000  1
  O  O16  1  0.66242966  0.05403719  0.75000000  1
  O  O17  1  0.74050387  0.82995071  0.54288486  1
  O  O18  1  0.74050387  0.82995071  0.95711514  1
  O  O19  1  0.71749175  0.11591988  0.25000000  1
  O  O20  1  0.77375617  0.60607753  0.25000000  1
  O  O21  1  0.77640785  0.33034002  0.53949826  1
  O  O22  1  0.77640785  0.33034002  0.96050174  1
  O  O23  1  0.82373975  0.55530674  0.75000000  1
