# generated using pymatgen
data_Ni3Sn(PO4)4
_symmetry_space_group_name_H-M   'P 1'
_cell_length_a   4.84522940
_cell_length_b   9.97036757
_cell_length_c   5.87729157
_cell_angle_alpha   90.00000000
_cell_angle_beta   90.00000000
_cell_angle_gamma   89.80077297
_symmetry_Int_Tables_number   1
_chemical_formula_structural   Ni3Sn(PO4)4
_chemical_formula_sum   'Ni3 Sn1 P4 O16'
_cell_volume   283.92270512
_cell_formula_units_Z   1
loop_
 _symmetry_equiv_pos_site_id
 _symmetry_equiv_pos_as_xyz
  1  'x, y, z'
loop_
 _atom_site_type_symbol
 _atom_site_label
 _atom_site_symmetry_multiplicity
 _atom_site_fract_x
 _atom_site_fract_y
 _atom_site_fract_z
 _atom_site_occupancy
  Ni  Ni0  1  0.04370389  0.72696430  0.75000000  1
  Ni  Ni1  1  0.45446907  0.22418522  0.75000000  1
  Ni  Ni2  1  0.54543791  0.77171285  0.25000000  1
  Sn  Sn3  1  0.96224244  0.27647681  0.25000000  1
  P  P4  1  0.09413991  0.60124963  0.25000000  1
  P  P5  1  0.40491342  0.08734542  0.25000000  1
  P  P6  1  0.59102346  0.90199567  0.75000000  1
  P  P7  1  0.91237421  0.41041080  0.75000000  1
  O  O8  1  0.17866638  0.45027865  0.25000000  1
  O  O9  1  0.23862365  0.67347160  0.04525505  1
  O  O10  1  0.23862365  0.67347160  0.45474495  1
  O  O11  1  0.22172976  0.38717194  0.75000000  1
  O  O12  1  0.27567131  0.88956374  0.75000000  1
  O  O13  1  0.25780005  0.16651195  0.04732965  1
  O  O14  1  0.25780005  0.16651195  0.45267035  1
  O  O15  1  0.33339578  0.93992512  0.25000000  1
  O  O16  1  0.66170376  0.05173467  0.75000000  1
  O  O17  1  0.73652179  0.82798881  0.54551621  1
  O  O18  1  0.73652179  0.82798881  0.95448379  1
  O  O19  1  0.71923640  0.10944331  0.25000000  1
  O  O20  1  0.77924919  0.60978906  0.25000000  1
  O  O21  1  0.76130498  0.33382447  0.54560434  1
  O  O22  1  0.76130498  0.33382447  0.95439566  1
  O  O23  1  0.83354018  0.55816114  0.75000000  1
