# generated using pymatgen
data_LiNbPO5
_symmetry_space_group_name_H-M   'P 1'
_cell_length_a   7.62284222
_cell_length_b   6.68805882
_cell_length_c   7.49876792
_cell_angle_alpha   90.00000000
_cell_angle_beta   90.00000000
_cell_angle_gamma   90.00000000
_symmetry_Int_Tables_number   1
_chemical_formula_structural   LiNbPO5
_chemical_formula_sum   'Li4 Nb4 P4 O20'
_cell_volume   382.30231465
_cell_formula_units_Z   4
loop_
 _symmetry_equiv_pos_site_id
 _symmetry_equiv_pos_as_xyz
  1  'x, y, z'
loop_
 _atom_site_type_symbol
 _atom_site_label
 _atom_site_symmetry_multiplicity
 _atom_site_fract_x
 _atom_site_fract_y
 _atom_site_fract_z
 _atom_site_occupancy
  Li  Li0  1  0.00000000  0.00000000  0.00000000  1
  Li  Li1  1  0.00000000  0.50000000  0.00000000  1
  Li  Li2  1  0.50000000  0.00000000  0.50000000  1
  Li  Li3  1  0.50000000  0.50000000  0.50000000  1
  Nb  Nb4  1  0.16148166  0.25000000  0.72141710  1
  Nb  Nb5  1  0.33851834  0.75000000  0.22141710  1
  Nb  Nb6  1  0.66148166  0.25000000  0.77858290  1
  Nb  Nb7  1  0.83851834  0.75000000  0.27858290  1
  P  P8  1  0.12778079  0.75000000  0.63297328  1
  P  P9  1  0.37221921  0.25000000  0.13297328  1
  P  P10  1  0.62778079  0.75000000  0.86702672  1
  P  P11  1  0.87221921  0.25000000  0.36702672  1
  O  O12  1  0.04147904  0.25000000  0.48021680  1
  O  O13  1  0.09667572  0.75000000  0.16251612  1
  O  O14  1  0.12962202  0.56388819  0.75582051  1
  O  O15  1  0.12962202  0.93611181  0.75582051  1
  O  O16  1  0.20906114  0.25000000  0.00896812  1
  O  O17  1  0.29093886  0.75000000  0.50896812  1
  O  O18  1  0.37037798  0.06388819  0.25582051  1
  O  O19  1  0.37037798  0.43611181  0.25582051  1
  O  O20  1  0.40332428  0.25000000  0.66251612  1
  O  O21  1  0.45852096  0.75000000  0.98021680  1
  O  O22  1  0.54147904  0.25000000  0.01978320  1
  O  O23  1  0.59667572  0.75000000  0.33748388  1
  O  O24  1  0.62962202  0.56388819  0.74417949  1
  O  O25  1  0.62962202  0.93611181  0.74417949  1
  O  O26  1  0.70906114  0.25000000  0.49103188  1
  O  O27  1  0.79093886  0.75000000  0.99103188  1
  O  O28  1  0.87037798  0.06388819  0.24417949  1
  O  O29  1  0.87037798  0.43611181  0.24417949  1
  O  O30  1  0.90332428  0.25000000  0.83748388  1
  O  O31  1  0.95852096  0.75000000  0.51978320  1
