# generated using pymatgen
data_Li3SiNiO5
_symmetry_space_group_name_H-M   'P 1'
_cell_length_a   6.49500739
_cell_length_b   5.49002876
_cell_length_c   4.99222474
_cell_angle_alpha   105.99638891
_cell_angle_beta   74.38642187
_cell_angle_gamma   102.60927346
_symmetry_Int_Tables_number   1
_chemical_formula_structural   Li3SiNiO5
_chemical_formula_sum   'Li6 Si2 Ni2 O10'
_cell_volume   162.79498314
_cell_formula_units_Z   2
loop_
 _symmetry_equiv_pos_site_id
 _symmetry_equiv_pos_as_xyz
  1  'x, y, z'
loop_
 _atom_site_type_symbol
 _atom_site_label
 _atom_site_symmetry_multiplicity
 _atom_site_fract_x
 _atom_site_fract_y
 _atom_site_fract_z
 _atom_site_occupancy
  Li  Li0  1  0.00478982  0.75068797  0.48776250  1
  Li  Li1  1  0.40384586  0.54985767  0.29849999  1
  Li  Li2  1  0.40542577  0.04982811  0.29577949  1
  Li  Li3  1  0.59457423  0.95017189  0.70422051  1
  Li  Li4  1  0.59615414  0.45014233  0.70150001  1
  Li  Li5  1  0.99521018  0.24931203  0.51223750  1
  Si  Si6  1  0.22442828  0.15696377  0.90659628  1
  Si  Si7  1  0.77557172  0.84303623  0.09340372  1
  Ni  Ni8  1  0.20363898  0.65154722  0.90134754  1
  Ni  Ni9  1  0.79636102  0.34845278  0.09865246  1
  O  O10  1  0.27835515  0.87257147  0.64455380  1
  O  O11  1  0.27788781  0.34089821  0.64751241  1
  O  O12  1  0.09940252  0.94941512  0.15469136  1
  O  O13  1  0.46837530  0.23908871  0.99443638  1
  O  O14  1  0.11345081  0.42970320  0.15908107  1
  O  O15  1  0.88654919  0.57029680  0.84091893  1
  O  O16  1  0.53162470  0.76091129  0.00556362  1
  O  O17  1  0.90059748  0.05058488  0.84530864  1
  O  O18  1  0.72211219  0.65910179  0.35248759  1
  O  O19  1  0.72164485  0.12742853  0.35544620  1
