# generated using pymatgen
data_Co2OF3
_symmetry_space_group_name_H-M   'P 1'
_cell_length_a   4.67819880
_cell_length_b   13.40976967
_cell_length_c   5.61950883
_cell_angle_alpha   101.22816723
_cell_angle_beta   91.64780209
_cell_angle_gamma   88.72444095
_symmetry_Int_Tables_number   1
_chemical_formula_structural   Co2OF3
_chemical_formula_sum   'Co10 O5 F15'
_cell_volume   345.59131939
_cell_formula_units_Z   5
loop_
 _symmetry_equiv_pos_site_id
 _symmetry_equiv_pos_as_xyz
  1  'x, y, z'
loop_
 _atom_site_type_symbol
 _atom_site_label
 _atom_site_symmetry_multiplicity
 _atom_site_fract_x
 _atom_site_fract_y
 _atom_site_fract_z
 _atom_site_occupancy
  Co  Co0  1  0.45870783  0.01565631  0.49887717  1
  Co  Co1  1  0.49657507  0.40274579  0.29916726  1
  Co  Co2  1  0.50577141  0.60062605  0.70034084  1
  Co  Co3  1  0.49791972  0.19811599  0.90311291  1
  Co  Co4  1  0.55358200  0.79398697  0.09317240  1
  Co  Co5  1  0.00018479  0.39964790  0.79985223  1
  Co  Co6  1  0.99300460  0.80229523  0.61485396  1
  Co  Co7  1  0.97387817  0.20361144  0.38313536  1
  Co  Co8  1  0.01748055  0.60114471  0.20260750  1
  Co  Co9  1  0.98255275  0.99082520  0.00285651  1
  O  O10  1  0.80394720  0.85436179  0.92813773  1
  O  O11  1  0.71643498  0.65285819  0.00852599  1
  O  O12  1  0.69611393  0.26209316  0.22391214  1
  O  O13  1  0.28737515  0.13828951  0.56646108  1
  O  O14  1  0.30511709  0.54520783  0.38863568  1
  F  F15  1  0.80154086  0.25993278  0.71761051  1
  F  F16  1  0.79152297  0.06034427  0.31817484  1
  F  F17  1  0.81418126  0.46220053  0.12376356  1
  F  F18  1  0.80426228  0.66235783  0.51030871  1
  F  F19  1  0.69273166  0.05689356  0.80843518  1
  F  F20  1  0.69466931  0.46355929  0.62352334  1
  F  F21  1  0.68852518  0.86880686  0.43103733  1
  F  F22  1  0.31186040  0.73450518  0.78149737  1
  F  F23  1  0.30817255  0.93624743  0.18566617  1
  F  F24  1  0.30300490  0.33953081  0.98249300  1
  F  F25  1  0.18500894  0.13421656  0.07522937  1
  F  F26  1  0.20061920  0.93875779  0.68323550  1
  F  F27  1  0.20846665  0.53839426  0.88461860  1
  F  F28  1  0.21297919  0.74345668  0.28085463  1
  F  F29  1  0.19380942  0.33933012  0.47990113  1
