# generated using pymatgen
data_LiLaNb4O12
_symmetry_space_group_name_H-M   'P 1'
_cell_length_a   5.62308046
_cell_length_b   9.80347401
_cell_length_c   11.30215903
_cell_angle_alpha   72.73760043
_cell_angle_beta   119.83734216
_cell_angle_gamma   55.00339317
_symmetry_Int_Tables_number   1
_chemical_formula_structural   LiLaNb4O12
_chemical_formula_sum   'Li1 La1 Nb4 O12'
_cell_volume   253.92584109
_cell_formula_units_Z   1
loop_
 _symmetry_equiv_pos_site_id
 _symmetry_equiv_pos_as_xyz
  1  'x, y, z'
loop_
 _atom_site_type_symbol
 _atom_site_label
 _atom_site_symmetry_multiplicity
 _atom_site_fract_x
 _atom_site_fract_y
 _atom_site_fract_z
 _atom_site_occupancy
  Li  Li0  1  0.50000080  0.49999945  0.50000050  1
  La  La1  1  -0.00000601  0.00000357  -0.00000293  1
  Nb  Nb2  1  0.74250844  0.75748015  0.50001926  1
  Nb  Nb3  1  0.24251633  0.25747768  0.00001927  1
  Nb  Nb4  1  0.25749516  0.24251834  0.49998345  1
  Nb  Nb5  1  0.75748700  0.74252121  0.99998094  1
  O  O6  1  0.50000115  0.00000039  0.00000074  1
  O  O7  1  0.47158940  0.52841566  0.24412968  1
  O  O8  1  0.98340211  0.01659862  0.75596766  1
  O  O9  1  0.52840808  0.47158571  0.75586960  1
  O  O10  1  0.01660010  0.98339955  0.24403310  1
  O  O11  1  -0.00000187  0.50000118  0.49999793  1
  O  O12  1  0.49451987  0.01719067  0.75587943  1
  O  O13  1  0.95938556  0.52890441  0.24417289  1
  O  O14  1  0.50547861  0.98280890  0.24411987  1
  O  O15  1  0.04061108  0.47109887  0.75582657  1
  O  O16  1  0.50000160  -0.00000189  0.50000052  1
  O  O17  1  0.00000258  0.49999854  0.00000152  1
