# generated using pymatgen
data_LiSnPO4
_symmetry_space_group_name_H-M   'P 1'
_cell_length_a   9.03547872
_cell_length_b   9.03547875
_cell_length_c   9.03547913
_cell_angle_alpha   107.28062181
_cell_angle_beta   107.28062801
_cell_angle_gamma   107.28062490
_symmetry_Int_Tables_number   1
_chemical_formula_structural   LiSnPO4
_chemical_formula_sum   'Li6 Sn6 P6 O24'
_cell_volume   609.56258176
_cell_formula_units_Z   6
loop_
 _symmetry_equiv_pos_site_id
 _symmetry_equiv_pos_as_xyz
  1  'x, y, z'
loop_
 _atom_site_type_symbol
 _atom_site_label
 _atom_site_symmetry_multiplicity
 _atom_site_fract_x
 _atom_site_fract_y
 _atom_site_fract_z
 _atom_site_occupancy
  Li  Li0  1  0.13249230  0.88772264  0.72202770  1
  Li  Li1  1  0.21636455  0.41877648  0.61175685  1
  Li  Li2  1  0.41877648  0.61175685  0.21636455  1
  Li  Li3  1  0.72202770  0.13249230  0.88772264  1
  Li  Li4  1  0.61175685  0.21636455  0.41877648  1
  Li  Li5  1  0.88772264  0.72202770  0.13249230  1
  Sn  Sn6  1  0.05519947  0.44575825  0.22307553  1
  Sn  Sn7  1  0.54155419  0.77392195  0.93879341  1
  Sn  Sn8  1  0.22307553  0.05519947  0.44575825  1
  Sn  Sn9  1  0.77392195  0.93879341  0.54155419  1
  Sn  Sn10  1  0.44575825  0.22307553  0.05519947  1
  Sn  Sn11  1  0.93879341  0.54155419  0.77392195  1
  P  P12  1  0.10579022  0.27846673  0.86231610  1
  P  P13  1  0.38134125  0.78638335  0.58251721  1
  P  P14  1  0.27846673  0.86231610  0.10579022  1
  P  P15  1  0.58251721  0.38134125  0.78638335  1
  P  P16  1  0.78638335  0.58251721  0.38134125  1
  P  P17  1  0.86231610  0.10579022  0.27846673  1
  O  O18  1  0.25598090  0.90166604  0.94625856  1
  O  O19  1  0.10565795  0.38860476  0.75802762  1
  O  O20  1  0.10011545  0.10332780  0.76023147  1
  O  O21  1  0.27493252  0.89512302  0.59014962  1
  O  O22  1  0.03597384  0.27316091  0.37509666  1
  O  O23  1  0.10332780  0.76023147  0.10011545  1
  O  O24  1  0.32757793  0.66053746  0.66431673  1
  O  O25  1  0.34265843  0.68174080  0.39479832  1
  O  O26  1  0.39479832  0.34265843  0.68174080  1
  O  O27  1  0.57536622  0.90628371  0.69056813  1
  O  O28  1  0.38860476  0.75802762  0.10565795  1
  O  O29  1  0.69056813  0.57536622  0.90628371  1
  O  O30  1  0.27316091  0.37509666  0.03597384  1
  O  O31  1  0.59014962  0.27493252  0.89512302  1
  O  O32  1  0.37509666  0.03597384  0.27316091  1
  O  O33  1  0.66053746  0.66431673  0.32757793  1
  O  O34  1  0.66431673  0.32757793  0.66053746  1
  O  O35  1  0.68174080  0.39479832  0.34265843  1
  O  O36  1  0.90628371  0.69056813  0.57536622  1
  O  O37  1  0.94625856  0.25598090  0.90166604  1
  O  O38  1  0.90166604  0.94625856  0.25598090  1
  O  O39  1  0.75802762  0.10565795  0.38860476  1
  O  O40  1  0.89512302  0.59014962  0.27493252  1
  O  O41  1  0.76023147  0.10011545  0.10332780  1
