# generated using pymatgen
data_Li2Cu2S3
_symmetry_space_group_name_H-M   'P 1'
_cell_length_a   9.04877709
_cell_length_b   9.04877709
_cell_length_c   6.47272172
_cell_angle_alpha   69.79141749
_cell_angle_beta   69.79141749
_cell_angle_gamma   83.17979994
_symmetry_Int_Tables_number   1
_chemical_formula_structural   Li2Cu2S3
_chemical_formula_sum   'Li8 Cu8 S12'
_cell_volume   466.74625062
_cell_formula_units_Z   4
loop_
 _symmetry_equiv_pos_site_id
 _symmetry_equiv_pos_as_xyz
  1  'x, y, z'
loop_
 _atom_site_type_symbol
 _atom_site_label
 _atom_site_symmetry_multiplicity
 _atom_site_fract_x
 _atom_site_fract_y
 _atom_site_fract_z
 _atom_site_occupancy
  Li  Li0  1  0.97518457  0.80996876  0.06101637  1
  Li  Li1  1  0.80996876  0.97518457  0.56101637  1
  Li  Li2  1  0.72460571  0.27539429  0.25000000  1
  Li  Li3  1  0.42884801  0.57115199  0.25000000  1
  Li  Li4  1  0.57115199  0.42884801  0.75000000  1
  Li  Li5  1  0.27539429  0.72460571  0.75000000  1
  Li  Li6  1  0.19003124  0.02481543  0.43898363  1
  Li  Li7  1  0.02481543  0.19003124  0.93898363  1
  Cu  Cu8  1  0.62974548  0.78325351  0.38658473  1
  Cu  Cu9  1  0.92123031  0.44084416  0.40075844  1
  Cu  Cu10  1  0.78325351  0.62974548  0.88658473  1
  Cu  Cu11  1  0.44084416  0.92123031  0.90075844  1
  Cu  Cu12  1  0.55915584  0.07876969  0.09924156  1
  Cu  Cu13  1  0.21674649  0.37025452  0.11341527  1
  Cu  Cu14  1  0.07876969  0.55915584  0.59924156  1
  Cu  Cu15  1  0.37025452  0.21674649  0.61341527  1
  S  S16  1  0.71689331  0.56594741  0.27769996  1
  S  S17  1  0.40571718  0.85295378  0.28744833  1
  S  S18  1  0.56594741  0.71689331  0.77769996  1
  S  S19  1  0.85295378  0.40571718  0.78744833  1
  S  S20  1  0.78399236  0.00277688  0.18400546  1
  S  S21  1  0.21600764  0.99722312  0.81599454  1
  S  S22  1  0.14704622  0.59428282  0.21255167  1
  S  S23  1  0.43405259  0.28310669  0.22230004  1
  S  S24  1  0.00277688  0.78399236  0.68400546  1
  S  S25  1  0.59428282  0.14704622  0.71255167  1
  S  S26  1  0.28310669  0.43405259  0.72230004  1
  S  S27  1  0.99722312  0.21600764  0.31599454  1
