# generated using pymatgen
data_Mn6O7F5
_symmetry_space_group_name_H-M   'P 1'
_cell_length_a   4.57170160
_cell_length_b   5.63998367
_cell_length_c   15.33077382
_cell_angle_alpha   89.88221856
_cell_angle_beta   89.68952854
_cell_angle_gamma   90.38620069
_symmetry_Int_Tables_number   1
_chemical_formula_structural   Mn6O7F5
_chemical_formula_sum   'Mn12 O14 F10'
_cell_volume   395.27796594
_cell_formula_units_Z   2
loop_
 _symmetry_equiv_pos_site_id
 _symmetry_equiv_pos_as_xyz
  1  'x, y, z'
loop_
 _atom_site_type_symbol
 _atom_site_label
 _atom_site_symmetry_multiplicity
 _atom_site_fract_x
 _atom_site_fract_y
 _atom_site_fract_z
 _atom_site_occupancy
  Mn  Mn0  1  0.02252656  0.15994226  0.40964064  1
  Mn  Mn1  1  0.01033110  0.84528587  0.24352314  1
  Mn  Mn2  1  0.01751340  0.16025100  0.08057745  1
  Mn  Mn3  1  0.01989665  0.16570547  0.74311265  1
  Mn  Mn4  1  0.00279627  0.84994024  0.57471470  1
  Mn  Mn5  1  0.03082748  0.86023990  0.91252268  1
  Mn  Mn6  1  0.49759364  0.34655815  0.58560228  1
  Mn  Mn7  1  0.49835924  0.34193328  0.92189846  1
  Mn  Mn8  1  0.49995840  0.34864440  0.25456611  1
  Mn  Mn9  1  0.50529710  0.63351959  0.09410728  1
  Mn  Mn10  1  0.50227111  0.63479256  0.42595331  1
  Mn  Mn11  1  0.48888837  0.63847937  0.75313523  1
  O  O12  1  0.21915523  0.11326567  0.30021982  1
  O  O13  1  0.21795774  0.10853125  0.63350358  1
  O  O14  1  0.22203855  0.11566332  0.97088466  1
  O  O15  1  0.23209053  0.88498583  0.13574343  1
  O  O16  1  0.23317590  0.88625858  0.46717354  1
  O  O17  1  0.23067591  0.89257439  0.80221244  1
  O  O18  1  0.27855172  0.39685332  0.14742495  1
  O  O19  1  0.28172100  0.39135288  0.47782719  1
  O  O20  1  0.28132971  0.39939156  0.81693417  1
  O  O21  1  0.72664055  0.38258129  0.03029447  1
  O  O22  1  0.72429312  0.61605338  0.19720256  1
  O  O23  1  0.72768573  0.38616721  0.36198025  1
  O  O24  1  0.72126409  0.61810613  0.52899647  1
  O  O25  1  0.71950488  0.38243330  0.69437631  1
  F  F26  1  0.25938724  0.61877894  0.31938060  1
  F  F27  1  0.23612882  0.60938718  0.64214254  1
  F  F28  1  0.27100479  0.61930479  0.98518516  1
  F  F29  1  0.75363699  0.61864137  0.86935441  1
  F  F30  1  0.76597408  0.11686421  0.18431412  1
  F  F31  1  0.77139109  0.12068748  0.51568613  1
  F  F32  1  0.75412953  0.87178354  0.35662206  1
  F  F33  1  0.75891917  0.87023394  0.02298109  1
  F  F34  1  0.76919148  0.12262973  0.85175880  1
  F  F35  1  0.74789484  0.87218063  0.68844931  1
