# generated using pymatgen
data_Li3Sb2(PO4)3
_symmetry_space_group_name_H-M   'P 1'
_cell_length_a   8.54176251
_cell_length_b   8.50729813
_cell_length_c   8.50729862
_cell_angle_alpha   66.95996483
_cell_angle_beta   67.21017223
_cell_angle_gamma   67.21017099
_symmetry_Int_Tables_number   1
_chemical_formula_structural   Li3Sb2(PO4)3
_chemical_formula_sum   'Li6 Sb4 P6 O24'
_cell_volume   503.82106068
_cell_formula_units_Z   2
loop_
 _symmetry_equiv_pos_site_id
 _symmetry_equiv_pos_as_xyz
  1  'x, y, z'
loop_
 _atom_site_type_symbol
 _atom_site_label
 _atom_site_symmetry_multiplicity
 _atom_site_fract_x
 _atom_site_fract_y
 _atom_site_fract_z
 _atom_site_occupancy
  Li  Li0  1  0.01451790  0.99175178  0.99826403  1
  Li  Li1  1  0.75000000  0.14117315  0.35882685  1
  Li  Li2  1  0.48548210  0.50173597  0.50824822  1
  Li  Li3  1  0.25000000  0.86700428  0.63299572  1
  Li  Li4  1  0.63970710  0.24703824  0.86544260  1
  Li  Li5  1  0.86029290  0.63455740  0.25296176  1
  Sb  Sb6  1  0.15484301  0.15886110  0.14560645  1
  Sb  Sb7  1  0.34515699  0.35439355  0.34113890  1
  Sb  Sb8  1  0.65538974  0.66049347  0.65858859  1
  Sb  Sb9  1  0.84461026  0.84141141  0.83950653  1
  P  P10  1  0.09165334  0.74927065  0.40772561  1
  P  P11  1  0.40834666  0.09227439  0.75072935  1
  P  P12  1  0.75000000  0.41742119  0.08257881  1
  P  P13  1  0.25000000  0.58376797  0.91623203  1
  P  P14  1  0.59370194  0.92315259  0.25291802  1
  P  P15  1  0.90629806  0.24708198  0.57684741  1
  O  O16  1  0.07384709  0.29884908  0.52541510  1
  O  O17  1  0.30762581  0.56724685  0.07106746  1
  O  O18  1  0.09907106  0.90573807  0.23010327  1
  O  O19  1  0.60458964  0.05990476  0.31845738  1
  O  O20  1  0.27058621  0.59457791  0.39652255  1
  O  O21  1  0.07360737  0.81495358  0.56084366  1
  O  O22  1  0.22941379  0.10347745  0.90542209  1
  O  O23  1  0.40092894  0.26989673  0.59426193  1
  O  O24  1  0.60198595  0.40026187  0.26610205  1
  O  O25  1  0.19237419  0.42893254  0.93275315  1
  O  O26  1  0.09707305  0.76839433  0.88896549  1
  O  O27  1  0.42615291  0.97458490  0.20115092  1
  O  O28  1  0.56038498  0.06823832  0.82049692  1
  O  O29  1  0.89801405  0.23389795  0.09973813  1
  O  O30  1  0.82032343  0.56804518  0.06094559  1
  O  O31  1  0.40292695  0.61103451  0.73160567  1
  O  O32  1  0.60897290  0.73467431  0.40105649  1
  O  O33  1  0.76956644  0.89040029  0.09369671  1
  O  O34  1  0.89541036  0.18154262  0.44009524  1
  O  O35  1  0.73043356  0.40630329  0.60959971  1
  O  O36  1  0.42639263  0.93915634  0.68504642  1
  O  O37  1  0.89102710  0.09894351  0.76532569  1
  O  O38  1  0.67967657  0.43905441  0.93195482  1
  O  O39  1  0.93961502  0.67950308  0.43176168  1
