# generated using pymatgen
data_LiMnSiO4
_symmetry_space_group_name_H-M   'P 1'
_cell_length_a   7.36472012
_cell_length_b   15.64036141
_cell_length_c   5.93038008
_cell_angle_alpha   90.00000000
_cell_angle_beta   90.00000000
_cell_angle_gamma   90.00000000
_symmetry_Int_Tables_number   1
_chemical_formula_structural   LiMnSiO4
_chemical_formula_sum   'Li8 Mn8 Si8 O32'
_cell_volume   683.10200449
_cell_formula_units_Z   8
loop_
 _symmetry_equiv_pos_site_id
 _symmetry_equiv_pos_as_xyz
  1  'x, y, z'
loop_
 _atom_site_type_symbol
 _atom_site_label
 _atom_site_symmetry_multiplicity
 _atom_site_fract_x
 _atom_site_fract_y
 _atom_site_fract_z
 _atom_site_occupancy
  Li  Li0  1  0.26330516  0.26508268  0.09042241  1
  Li  Li1  1  0.26330516  0.23491732  0.59042241  1
  Li  Li2  1  0.23669484  0.73491732  0.59042241  1
  Li  Li3  1  0.23669484  0.76508268  0.09042241  1
  Li  Li4  1  0.76330516  0.26508268  0.40957759  1
  Li  Li5  1  0.76330516  0.23491732  0.90957759  1
  Li  Li6  1  0.73669484  0.76508268  0.40957759  1
  Li  Li7  1  0.73669484  0.73491732  0.90957759  1
  Mn  Mn8  1  0.17002174  0.53403724  0.38942334  1
  Mn  Mn9  1  0.17002174  0.96596276  0.88942334  1
  Mn  Mn10  1  0.32997826  0.03403724  0.38942334  1
  Mn  Mn11  1  0.32997826  0.46596276  0.88942334  1
  Mn  Mn12  1  0.67002174  0.53403724  0.11057666  1
  Mn  Mn13  1  0.67002174  0.96596276  0.61057666  1
  Mn  Mn14  1  0.82997826  0.03403724  0.11057666  1
  Mn  Mn15  1  0.82997826  0.46596276  0.61057666  1
  Si  Si16  1  0.03324256  0.61386100  0.90663202  1
  Si  Si17  1  0.03324256  0.88613900  0.40663202  1
  Si  Si18  1  0.46675744  0.11386100  0.90663202  1
  Si  Si19  1  0.46675744  0.38613900  0.40663202  1
  Si  Si20  1  0.53324256  0.61386100  0.59336798  1
  Si  Si21  1  0.53324256  0.88613900  0.09336798  1
  Si  Si22  1  0.96675744  0.11386100  0.59336798  1
  Si  Si23  1  0.96675744  0.38613900  0.09336798  1
  O  O24  1  0.98699473  0.05479693  0.83069446  1
  O  O25  1  0.98699473  0.44520307  0.33069446  1
  O  O26  1  0.10927163  0.79263755  0.35790948  1
  O  O27  1  0.10927163  0.70736245  0.85790948  1
  O  O28  1  0.16596647  0.12241797  0.46728407  1
  O  O29  1  0.16596647  0.37758203  0.96728407  1
  O  O30  1  0.17484573  0.55596817  0.06491131  1
  O  O31  1  0.17484573  0.94403183  0.56491131  1
  O  O32  1  0.32515427  0.05596817  0.06491131  1
  O  O33  1  0.32515427  0.44403183  0.56491131  1
  O  O34  1  0.33403353  0.62241797  0.46728407  1
  O  O35  1  0.33403353  0.87758203  0.96728407  1
  O  O36  1  0.39072837  0.20736245  0.85790948  1
  O  O37  1  0.39072837  0.29263755  0.35790948  1
  O  O38  1  0.51300527  0.55479693  0.83069446  1
  O  O39  1  0.51300527  0.94520307  0.33069446  1
  O  O40  1  0.48699473  0.44520307  0.16930554  1
  O  O41  1  0.48699473  0.05479693  0.66930554  1
  O  O42  1  0.60927163  0.70736245  0.64209052  1
  O  O43  1  0.60927163  0.79263755  0.14209052  1
  O  O44  1  0.66596647  0.12241797  0.03271593  1
  O  O45  1  0.66596647  0.37758203  0.53271593  1
  O  O46  1  0.67484573  0.55596817  0.43508869  1
  O  O47  1  0.67484573  0.94403183  0.93508869  1
  O  O48  1  0.82515427  0.05596817  0.43508869  1
  O  O49  1  0.82515427  0.44403183  0.93508869  1
  O  O50  1  0.83403353  0.62241797  0.03271593  1
  O  O51  1  0.83403353  0.87758203  0.53271593  1
  O  O52  1  0.89072837  0.20736245  0.64209052  1
  O  O53  1  0.89072837  0.29263755  0.14209052  1
  O  O54  1  0.01300527  0.55479693  0.66930554  1
  O  O55  1  0.01300527  0.94520307  0.16930554  1
