# generated using pymatgen
data_TiNi3(PO4)4
_symmetry_space_group_name_H-M   'P 1'
_cell_length_a   4.87401053
_cell_length_b   9.95859942
_cell_length_c   5.88879755
_cell_angle_alpha   90.00000000
_cell_angle_beta   90.00000000
_cell_angle_gamma   91.14698964
_symmetry_Int_Tables_number   1
_chemical_formula_structural   TiNi3(PO4)4
_chemical_formula_sum   'Ti1 Ni3 P4 O16'
_cell_volume   285.77505907
_cell_formula_units_Z   1
loop_
 _symmetry_equiv_pos_site_id
 _symmetry_equiv_pos_as_xyz
  1  'x, y, z'
loop_
 _atom_site_type_symbol
 _atom_site_label
 _atom_site_symmetry_multiplicity
 _atom_site_fract_x
 _atom_site_fract_y
 _atom_site_fract_z
 _atom_site_occupancy
  Ti  Ti0  1  0.96832371  0.27219826  0.25000000  1
  Ni  Ni1  1  0.05114178  0.71917560  0.75000000  1
  Ni  Ni2  1  0.46222367  0.22979022  0.75000000  1
  Ni  Ni3  1  0.54960157  0.77676650  0.25000000  1
  P  P4  1  0.08894222  0.59830594  0.25000000  1
  P  P5  1  0.38942759  0.09427278  0.25000000  1
  P  P6  1  0.59717568  0.90116041  0.75000000  1
  P  P7  1  0.92567225  0.40524980  0.75000000  1
  O  O8  1  0.14490436  0.44371481  0.25000000  1
  O  O9  1  0.23842020  0.66540901  0.04391316  1
  O  O10  1  0.23842020  0.66540901  0.45608684  1
  O  O11  1  0.23374150  0.39218175  0.75000000  1
  O  O12  1  0.28242825  0.88208089  0.75000000  1
  O  O13  1  0.24281985  0.17143484  0.05014079  1
  O  O14  1  0.24281985  0.17143484  0.44985921  1
  O  O15  1  0.33468964  0.94630530  0.25000000  1
  O  O16  1  0.65114479  0.05256827  0.75000000  1
  O  O17  1  0.73852051  0.83154573  0.54472717  1
  O  O18  1  0.73852051  0.83154573  0.95527283  1
  O  O19  1  0.69942036  0.13078776  0.25000000  1
  O  O20  1  0.77953965  0.61443452  0.25000000  1
  O  O21  1  0.78645319  0.32661140  0.54324226  1
  O  O22  1  0.78645319  0.32661140  0.95675774  1
  O  O23  1  0.82919547  0.55100725  0.75000000  1
