# generated using pymatgen
data_Li2Co3WO8
_symmetry_space_group_name_H-M   'P 1'
_cell_length_a   5.91839761
_cell_length_b   5.87133023
_cell_length_c   9.65509320
_cell_angle_alpha   90.24033858
_cell_angle_beta   89.88078398
_cell_angle_gamma   119.73727937
_symmetry_Int_Tables_number   1
_chemical_formula_structural   Li2Co3WO8
_chemical_formula_sum   'Li4 Co6 W2 O16'
_cell_volume   291.31817372
_cell_formula_units_Z   2
loop_
 _symmetry_equiv_pos_site_id
 _symmetry_equiv_pos_as_xyz
  1  'x, y, z'
loop_
 _atom_site_type_symbol
 _atom_site_label
 _atom_site_symmetry_multiplicity
 _atom_site_fract_x
 _atom_site_fract_y
 _atom_site_fract_z
 _atom_site_occupancy
  Li  Li0  1  0.32683744  0.66607974  0.90561256  1
  Li  Li1  1  -0.00209032  0.99665301  0.99013515  1
  Li  Li2  1  0.00209032  0.99874434  0.49013515  1
  Li  Li3  1  0.67316256  0.33924230  0.40561256  1
  Co  Co4  1  0.17374714  0.82928391  0.21987994  1
  Co  Co5  1  0.16395529  0.33598620  0.21455091  1
  Co  Co6  1  0.65160745  0.82536708  0.21330352  1
  Co  Co7  1  0.34839255  0.17375963  0.71330352  1
  Co  Co8  1  0.82625286  0.65553677  0.71987994  1
  Co  Co9  1  0.83604471  0.17203091  0.71455091  1
  W  W10  1  0.34410611  0.66881748  0.48920346  1
  W  W11  1  0.65589389  0.32471137  0.98920346  1
  O  O12  1  0.20037428  0.85352752  0.58938327  1
  O  O13  1  0.04322271  0.52747469  0.36021696  1
  O  O14  1  0.32786847  0.67557171  0.11239527  1
  O  O15  1  0.98804978  0.98032720  0.29842884  1
  O  O16  1  0.01195022  -0.00772158  0.79842884  1
  O  O17  1  0.20018736  0.34494229  0.58768949  1
  O  O18  1  0.49885815  0.96632548  0.34218227  1
  O  O19  1  0.50210898  0.54021386  0.34353721  1
  O  O20  1  0.33506361  0.16652857  0.08740214  1
  O  O21  1  0.66493639  0.83146395  0.58740214  1
  O  O22  1  0.50114185  0.46746733  0.84218227  1
  O  O23  1  0.49789102  0.03810488  0.84353721  1
  O  O24  1  0.67213153  0.34770323  0.61239527  1
  O  O25  1  0.79962572  0.65315223  0.08938327  1
  O  O26  1  0.95677729  0.48425298  0.86021696  1
  O  O27  1  0.79981264  0.14475492  0.08768949  1
