# generated using pymatgen
data_Li4CrTe2WO12
_symmetry_space_group_name_H-M   'P 1'
_cell_length_a   5.46787667
_cell_length_b   10.92915933
_cell_length_c   9.62615998
_cell_angle_alpha   28.33770329
_cell_angle_beta   51.19063501
_cell_angle_gamma   56.44605805
_symmetry_Int_Tables_number   1
_chemical_formula_structural   Li4CrTe2WO12
_chemical_formula_sum   'Li4 Cr1 Te2 W1 O12'
_cell_volume   212.77220196
_cell_formula_units_Z   1
loop_
 _symmetry_equiv_pos_site_id
 _symmetry_equiv_pos_as_xyz
  1  'x, y, z'
loop_
 _atom_site_type_symbol
 _atom_site_label
 _atom_site_symmetry_multiplicity
 _atom_site_fract_x
 _atom_site_fract_y
 _atom_site_fract_z
 _atom_site_occupancy
  Li  Li0  1  0.25332520  0.99543413  0.30902755  1
  Li  Li1  1  0.31888146  0.49836012  0.26815432  1
  Li  Li2  1  0.77406394  0.00945377  0.73989343  1
  Li  Li3  1  0.78580274  0.49522285  0.81400193  1
  Cr  Cr4  1  0.00868886  0.50043988  0.99935099  1
  Te  Te5  1  0.49625962  0.00298410  0.49993445  1
  Te  Te6  1  0.51174255  0.49995288  0.50047274  1
  W  W7  1  0.99599876  0.00058571  0.00431044  1
  O  O8  1  0.38510649  0.29263909  0.13382007  1
  O  O9  1  0.22914879  0.12877629  0.62424764  1
  O  O10  1  0.09829711  0.31283185  0.74773745  1
  O  O11  1  0.86083886  0.19310708  0.23734460  1
  O  O12  1  0.37326071  0.82660406  0.10393434  1
  O  O13  1  0.71316601  0.37896572  0.37459318  1
  O  O14  1  0.23615158  0.62524476  0.62111439  1
  O  O15  1  0.61777524  0.15913169  0.89923722  1
  O  O16  1  0.13924594  0.82791265  0.72212578  1
  O  O17  1  0.89780889  0.68657135  0.24077669  1
  O  O18  1  0.75068187  0.86963047  0.37489950  1
  O  O19  1  0.62495740  0.69615056  0.85622329  1
