# generated using pymatgen
data_Na3MnO3
_symmetry_space_group_name_H-M   'P 1'
_cell_length_a   6.09500224
_cell_length_b   11.70506180
_cell_length_c   11.67387392
_cell_angle_alpha   90.00000000
_cell_angle_beta   89.16835787
_cell_angle_gamma   90.00000000
_symmetry_Int_Tables_number   1
_chemical_formula_structural   Na3MnO3
_chemical_formula_sum   'Na24 Mn8 O24'
_cell_volume   832.75419414
_cell_formula_units_Z   8
loop_
 _symmetry_equiv_pos_site_id
 _symmetry_equiv_pos_as_xyz
  1  'x, y, z'
loop_
 _atom_site_type_symbol
 _atom_site_label
 _atom_site_symmetry_multiplicity
 _atom_site_fract_x
 _atom_site_fract_y
 _atom_site_fract_z
 _atom_site_occupancy
  Na  Na0  1  0.13006688  0.04383535  0.62499759  1
  Na  Na1  1  0.02712221  0.32680766  0.74785661  1
  Na  Na2  1  0.20928069  0.79406203  0.53287434  1
  Na  Na3  1  0.13006688  0.45616465  0.12499759  1
  Na  Na4  1  0.02712221  0.17319234  0.24785661  1
  Na  Na5  1  0.20928069  0.70593797  0.03287434  1
  Na  Na6  1  0.27059172  0.20830519  0.96217638  1
  Na  Na7  1  0.38239817  0.69176516  0.75867645  1
  Na  Na8  1  0.37066577  0.95940267  0.87577264  1
  Na  Na9  1  0.27059172  0.29169481  0.46217638  1
  Na  Na10  1  0.38239817  0.80823484  0.25867645  1
  Na  Na11  1  0.37066577  0.54059733  0.37577264  1
  Na  Na12  1  0.62933423  0.45940267  0.62422736  1
  Na  Na13  1  0.61760183  0.19176516  0.74132355  1
  Na  Na14  1  0.72940828  0.70830519  0.53782362  1
  Na  Na15  1  0.62933423  0.04059733  0.12422736  1
  Na  Na16  1  0.61760183  0.30823484  0.24132355  1
  Na  Na17  1  0.72940828  0.79169481  0.03782362  1
  Na  Na18  1  0.79071931  0.29406203  0.96712566  1
  Na  Na19  1  0.97287779  0.82680766  0.75214339  1
  Na  Na20  1  0.86993312  0.54383535  0.87500241  1
  Na  Na21  1  0.79071931  0.20593797  0.46712566  1
  Na  Na22  1  0.97287779  0.67319234  0.25214339  1
  Na  Na23  1  0.86993312  0.95616465  0.37500241  1
  Mn  Mn24  1  0.12482752  0.55175757  0.59293354  1
  Mn  Mn25  1  0.12482752  0.94824243  0.09293354  1
  Mn  Mn26  1  0.40680524  0.44559208  0.89939335  1
  Mn  Mn27  1  0.40680524  0.05440792  0.39939335  1
  Mn  Mn28  1  0.59319476  0.94559208  0.60060665  1
  Mn  Mn29  1  0.59319476  0.55440792  0.10060665  1
  Mn  Mn30  1  0.87517248  0.05175757  0.90706646  1
  Mn  Mn31  1  0.87517248  0.44824243  0.40706646  1
  O  O32  1  0.00915266  0.39957883  0.56867284  1
  O  O33  1  0.00621793  0.13755263  0.79193445  1
  O  O34  1  0.00915266  0.10042117  0.06867284  1
  O  O35  1  0.00621793  0.36244737  0.29193445  1
  O  O36  1  0.12288839  0.39122129  0.92553525  1
  O  O37  1  0.12288839  0.10877871  0.42553525  1
  O  O38  1  0.40359612  0.61501127  0.57531987  1
  O  O39  1  0.40359612  0.88498873  0.07531987  1
  O  O40  1  0.37265800  0.88622658  0.69689442  1
  O  O41  1  0.47186857  0.60163648  0.92626982  1
  O  O42  1  0.37265800  0.61377342  0.19689442  1
  O  O43  1  0.47186857  0.89836352  0.42626982  1
  O  O44  1  0.52813143  0.10163648  0.57373018  1
  O  O45  1  0.62734200  0.38622658  0.80310558  1
  O  O46  1  0.52813143  0.39836352  0.07373018  1
  O  O47  1  0.62734200  0.11377342  0.30310558  1
  O  O48  1  0.59640388  0.11501127  0.92468013  1
  O  O49  1  0.59640388  0.38498873  0.42468013  1
  O  O50  1  0.87711161  0.89122129  0.57446475  1
  O  O51  1  0.87711161  0.60877871  0.07446475  1
  O  O52  1  0.99378207  0.63755263  0.70806555  1
  O  O53  1  0.99084734  0.89957883  0.93132716  1
  O  O54  1  0.99378207  0.86244737  0.20806555  1
  O  O55  1  0.99084734  0.60042117  0.43132716  1
