# generated using pymatgen
data_Li4Ti2V3Cr4O18
_symmetry_space_group_name_H-M   'P 1'
_cell_length_a   8.96260863
_cell_length_b   24.98488601
_cell_length_c   2.97694480
_cell_angle_alpha   90.00002133
_cell_angle_beta   90.00003152
_cell_angle_gamma   89.91314142
_symmetry_Int_Tables_number   1
_chemical_formula_structural   Li4Ti2V3Cr4O18
_chemical_formula_sum   'Li8 Ti4 V6 Cr8 O36'
_cell_volume   666.62575380
_cell_formula_units_Z   2
loop_
 _symmetry_equiv_pos_site_id
 _symmetry_equiv_pos_as_xyz
  1  'x, y, z'
loop_
 _atom_site_type_symbol
 _atom_site_label
 _atom_site_symmetry_multiplicity
 _atom_site_fract_x
 _atom_site_fract_y
 _atom_site_fract_z
 _atom_site_occupancy
  Li  Li0  1  0.18780234  0.99378419  0.00000123  1
  Li  Li1  1  0.20804895  0.19001347  0.99999992  1
  Li  Li2  1  0.29186372  0.69006204  0.00000083  1
  Li  Li3  1  0.31272751  0.49379279  0.00000071  1
  Li  Li4  1  0.68724544  0.50621198  0.00000126  1
  Li  Li5  1  0.70815384  0.30995196  0.99999949  1
  Li  Li6  1  0.79196996  0.80998234  0.00000116  1
  Li  Li7  1  0.81216430  0.00619981  0.99999814  1
  Ti  Ti8  1  0.99317255  0.10255989  0.00000115  1
  Ti  Ti9  1  0.50679583  0.60262899  0.99999729  1
  Ti  Ti10  1  0.49321789  0.39739257  0.00000283  1
  Ti  Ti11  1  0.00685021  0.89738846  0.99999962  1
  V  V12  1  0.00000144  0.50001617  0.00000194  1
  V  V13  1  0.14537717  0.80252457  0.49999920  1
  V  V14  1  0.35468145  0.30265069  0.50000086  1
  V  V15  1  0.50000084  0.99998845  -0.00000060  1
  V  V16  1  0.64530239  0.69736636  0.49999924  1
  V  V17  1  0.85461562  0.19745551  0.49999924  1
  Cr  Cr18  1  0.01909328  0.31059503  0.00004257  1
  Cr  Cr19  1  0.14838243  0.58625581  0.50000551  1
  Cr  Cr20  1  0.35168536  0.08630766  0.50000816  1
  Cr  Cr21  1  0.48072370  0.81062669  0.99995469  1
  Cr  Cr22  1  0.51919071  0.18934481  -0.00001429  1
  Cr  Cr23  1  0.64835216  0.91366216  0.50000618  1
  Cr  Cr24  1  0.85163102  0.41379422  0.49999767  1
  Cr  Cr25  1  0.98095405  0.68946481  0.99999010  1
  O  O26  1  0.99954783  0.42415827  0.99999918  1
  O  O27  1  0.00047254  0.57586995  0.00000329  1
  O  O28  1  0.06079766  0.94173407  0.49999773  1
  O  O29  1  0.04584276  0.15972511  0.50000277  1
  O  O30  1  0.11327826  0.66461781  0.49999926  1
  O  O31  1  0.09084410  0.75621798  0.99999888  1
  O  O32  1  0.15045015  0.50465168  0.50000383  1
  O  O33  1  0.15248985  0.28480056  0.50002149  1
  O  O34  1  0.18774276  0.85365536  0.99999726  1
  O  O35  1  0.20188367  0.08564415  0.00000454  1
  O  O36  1  0.29827004  0.58562230  0.00000348  1
  O  O37  1  0.31229064  0.35384252  0.00000255  1
  O  O38  1  0.34770198  0.78475461  0.49998665  1
  O  O39  1  0.34957765  0.00471592  0.50000002  1
  O  O40  1  0.40928046  0.25627850  0.00000081  1
  O  O41  1  0.38682879  0.16461399  0.49999568  1
  O  O42  1  0.45394269  0.65980789  0.49999916  1
  O  O43  1  0.43904570  0.44179500  0.49999900  1
  O  O44  1  0.49962224  0.07582824  0.00000511  1
  O  O45  1  0.50041780  0.92415674  0.99999363  1
  O  O46  1  0.56099425  0.55823134  0.49999751  1
  O  O47  1  0.54605321  0.34020564  0.50000176  1
  O  O48  1  0.61310960  0.83536596  0.49998489  1
  O  O49  1  0.59060313  0.74371379  0.99999894  1
  O  O50  1  0.65041840  0.99526522  0.49999802  1
  O  O51  1  0.65225563  0.21519138  0.49999432  1
  O  O52  1  0.68770207  0.64618242  -0.00000077  1
  O  O53  1  0.70173350  0.41441016  0.99999699  1
  O  O54  1  0.79816153  0.91432188  0.99999646  1
  O  O55  1  0.81228332  0.14629197  0.00000206  1
  O  O56  1  0.84749950  0.71523750  0.49999743  1
  O  O57  1  0.84954630  0.49538207  0.49999805  1
  O  O58  1  0.90908904  0.24381215  0.00000577  1
  O  O59  1  0.88679604  0.33544828  0.50001840  1
  O  O60  1  0.95412435  0.84023776  0.49999700  1
  O  O61  1  0.93929839  0.05819037  0.50000473  1
