# generated using pymatgen
data_Li4V5(Fe2O9)2
_symmetry_space_group_name_H-M   'P 1'
_cell_length_a   9.06238638
_cell_length_b   25.79740453
_cell_length_c   2.96343483
_cell_angle_alpha   90.00000000
_cell_angle_beta   90.00000000
_cell_angle_gamma   90.00000000
_symmetry_Int_Tables_number   1
_chemical_formula_structural   Li4V5(Fe2O9)2
_chemical_formula_sum   'Li8 V10 Fe8 O36'
_cell_volume   692.80971579
_cell_formula_units_Z   2
loop_
 _symmetry_equiv_pos_site_id
 _symmetry_equiv_pos_as_xyz
  1  'x, y, z'
loop_
 _atom_site_type_symbol
 _atom_site_label
 _atom_site_symmetry_multiplicity
 _atom_site_fract_x
 _atom_site_fract_y
 _atom_site_fract_z
 _atom_site_occupancy
  Li  Li0  1  0.19502005  0.98094831  0.00000000  1
  Li  Li1  1  0.20132489  0.17767974  0.00000000  1
  Li  Li2  1  0.29867511  0.67767974  0.00000000  1
  Li  Li3  1  0.30497995  0.48094831  0.00000000  1
  Li  Li4  1  0.69502005  0.51905169  0.00000000  1
  Li  Li5  1  0.70132489  0.32232026  0.00000000  1
  Li  Li6  1  0.79867511  0.82232026  0.00000000  1
  Li  Li7  1  0.80497995  0.01905169  0.00000000  1
  V  V8  1  0.00000000  0.50000000  0.00000000  1
  V  V9  1  0.99472130  0.10205862  0.00000000  1
  V  V10  1  0.14822524  0.80849317  0.50000000  1
  V  V11  1  0.35177476  0.30849317  0.50000000  1
  V  V12  1  0.50527870  0.60205862  0.00000000  1
  V  V13  1  0.50000000  0.00000000  0.00000000  1
  V  V14  1  0.49472130  0.39794138  0.00000000  1
  V  V15  1  0.64822524  0.69150683  0.50000000  1
  V  V16  1  0.85177476  0.19150683  0.50000000  1
  V  V17  1  0.00527870  0.89794138  0.00000000  1
  Fe  Fe18  1  0.00404013  0.30504945  0.00000000  1
  Fe  Fe19  1  0.15010781  0.58611805  0.50000000  1
  Fe  Fe20  1  0.34989219  0.08611805  0.50000000  1
  Fe  Fe21  1  0.49595987  0.80504945  0.00000000  1
  Fe  Fe22  1  0.50404013  0.19495055  0.00000000  1
  Fe  Fe23  1  0.65010781  0.91388195  0.50000000  1
  Fe  Fe24  1  0.84989219  0.41388195  0.50000000  1
  Fe  Fe25  1  0.99595987  0.69495055  0.00000000  1
  O  O26  1  0.99479190  0.42644204  0.00000000  1
  O  O27  1  0.00520810  0.57355796  0.00000000  1
  O  O28  1  0.06403090  0.94114955  0.50000000  1
  O  O29  1  0.04412722  0.15821102  0.50000000  1
  O  O30  1  0.12246247  0.66499016  0.50000000  1
  O  O31  1  0.09391955  0.76186791  0.00000000  1
  O  O32  1  0.15013764  0.50391388  0.50000000  1
  O  O33  1  0.14828478  0.29274193  0.50000000  1
  O  O34  1  0.18264633  0.85854078  0.00000000  1
  O  O35  1  0.19855930  0.08775133  0.00000000  1
  O  O36  1  0.30144070  0.58775133  0.00000000  1
  O  O37  1  0.31735367  0.35854078  0.00000000  1
  O  O38  1  0.35171522  0.79274193  0.50000000  1
  O  O39  1  0.34986236  0.00391388  0.50000000  1
  O  O40  1  0.40608045  0.26186791  0.00000000  1
  O  O41  1  0.37753753  0.16499016  0.50000000  1
  O  O42  1  0.45587278  0.65821102  0.50000000  1
  O  O43  1  0.43596910  0.44114955  0.50000000  1
  O  O44  1  0.49479190  0.07355796  0.00000000  1
  O  O45  1  0.50520810  0.92644204  0.00000000  1
  O  O46  1  0.56403090  0.55885045  0.50000000  1
  O  O47  1  0.54412722  0.34178898  0.50000000  1
  O  O48  1  0.62246247  0.83500984  0.50000000  1
  O  O49  1  0.59391955  0.73813209  0.00000000  1
  O  O50  1  0.65013764  0.99608612  0.50000000  1
  O  O51  1  0.64828478  0.20725807  0.50000000  1
  O  O52  1  0.68264633  0.64145922  0.00000000  1
  O  O53  1  0.69855930  0.41224867  0.00000000  1
  O  O54  1  0.80144070  0.91224867  0.00000000  1
  O  O55  1  0.81735367  0.14145922  0.00000000  1
  O  O56  1  0.85171522  0.70725807  0.50000000  1
  O  O57  1  0.84986236  0.49608612  0.50000000  1
  O  O58  1  0.90608045  0.23813209  0.00000000  1
  O  O59  1  0.87753753  0.33500984  0.50000000  1
  O  O60  1  0.95587278  0.84178898  0.50000000  1
  O  O61  1  0.93596910  0.05885045  0.50000000  1
