# generated using pymatgen
data_Ti3VSb2(PO4)6
_symmetry_space_group_name_H-M   'P 1'
_cell_length_a   8.93684701
_cell_length_b   8.71972719
_cell_length_c   8.71972711
_cell_angle_alpha   60.00000203
_cell_angle_beta   60.80047022
_cell_angle_gamma   60.80045987
_symmetry_Int_Tables_number   1
_chemical_formula_structural   Ti3VSb2(PO4)6
_chemical_formula_sum   'Ti3 V1 Sb2 P6 O24'
_cell_volume   486.21129679
_cell_formula_units_Z   1
loop_
 _symmetry_equiv_pos_site_id
 _symmetry_equiv_pos_as_xyz
  1  'x, y, z'
loop_
 _atom_site_type_symbol
 _atom_site_label
 _atom_site_symmetry_multiplicity
 _atom_site_fract_x
 _atom_site_fract_y
 _atom_site_fract_z
 _atom_site_occupancy
  Ti  Ti0  1  0.05377277  0.64874274  0.64874274  1
  Ti  Ti1  1  0.44153612  0.85282163  0.85282163  1
  Ti  Ti2  1  0.94643580  0.35118807  0.35118807  1
  V  V3  1  0.56299733  0.14566756  0.14566756  1
  Sb  Sb4  1  0.99006021  0.00331326  0.00331326  1
  Sb  Sb5  1  0.49208341  0.50263920  0.50263920  1
  P  P6  1  0.25110229  0.25002594  0.54130560  1
  P  P7  1  0.25110229  0.95756617  0.25002594  1
  P  P8  1  0.25110229  0.54130560  0.95756617  1
  P  P9  1  0.75120691  0.45994480  0.04096359  1
  P  P10  1  0.75120691  0.04096359  0.74788370  1
  P  P11  1  0.75120691  0.74788370  0.45994480  1
  O  O12  1  0.07631484  0.11783317  0.30099336  1
  O  O13  1  0.07631484  0.50485863  0.11783317  1
  O  O14  1  0.07631484  0.30099336  0.50485863  1
  O  O15  1  0.24544395  0.08352994  0.73333493  1
  O  O16  1  0.42437910  0.20459257  0.38830553  1
  O  O17  1  0.24516700  0.41937273  0.56909731  1
  O  O18  1  0.24544395  0.93769218  0.08352994  1
  O  O19  1  0.24516700  0.76636296  0.41937273  1
  O  O20  1  0.57673055  0.61719186  0.00452639  1
  O  O21  1  0.24516700  0.56909731  0.76636296  1
  O  O22  1  0.76197329  0.26902999  0.05773994  1
  O  O23  1  0.57673055  0.00452639  0.80155020  1
  O  O24  1  0.42437910  0.98272380  0.20459257  1
  O  O25  1  0.24544395  0.73333493  0.93769218  1
  O  O26  1  0.74908249  0.43981407  0.23056748  1
  O  O27  1  0.42437910  0.38830553  0.98272380  1
  O  O28  1  0.74908249  0.23056748  0.58053597  1
  O  O29  1  0.76197329  0.05773994  0.91125679  1
  O  O30  1  0.74908249  0.58053597  0.43981407  1
  O  O31  1  0.57673055  0.80155020  0.61719186  1
  O  O32  1  0.76197329  0.91125679  0.26902999  1
  O  O33  1  0.92297105  0.69433327  0.50059850  1
  O  O34  1  0.92297105  0.50059850  0.88209617  1
  O  O35  1  0.92297105  0.88209617  0.69433327  1
