# generated using pymatgen
data_Li4Cr3Sn3(TeO8)2
_symmetry_space_group_name_H-M   'P 1'
_cell_length_a   6.27618158
_cell_length_b   6.24955470
_cell_length_c   10.14648055
_cell_angle_alpha   90.00261662
_cell_angle_beta   91.39862236
_cell_angle_gamma   119.85992477
_symmetry_Int_Tables_number   1
_chemical_formula_structural   Li4Cr3Sn3(TeO8)2
_chemical_formula_sum   'Li4 Cr3 Sn3 Te2 O16'
_cell_volume   345.00827530
_cell_formula_units_Z   1
loop_
 _symmetry_equiv_pos_site_id
 _symmetry_equiv_pos_as_xyz
  1  'x, y, z'
loop_
 _atom_site_type_symbol
 _atom_site_label
 _atom_site_symmetry_multiplicity
 _atom_site_fract_x
 _atom_site_fract_y
 _atom_site_fract_z
 _atom_site_occupancy
  Li  Li0  1  0.34583039  0.67291395  0.89550521  1
  Li  Li1  1  0.99056342  0.99528899  0.98914027  1
  Li  Li2  1  0.98744337  0.99370479  0.49634056  1
  Li  Li3  1  0.66723624  0.33367437  0.40867347  1
  Cr  Cr4  1  0.66498571  0.83247353  0.20934877  1
  Cr  Cr5  1  0.83092115  0.66428281  0.71327072  1
  Cr  Cr6  1  0.83091366  0.16662624  0.71324300  1
  Sn  Sn7  1  0.16885892  0.83294066  0.21534591  1
  Sn  Sn8  1  0.16877229  0.33599818  0.21536717  1
  Sn  Sn9  1  0.33321305  0.16660016  0.71276546  1
  Te  Te10  1  0.35099912  0.67549062  0.49197935  1
  Te  Te11  1  0.69640416  0.34818948  0.98026539  1
  O  O12  1  0.14061984  0.83775075  0.60432913  1
  O  O13  1  0.02384500  0.51199688  0.33149037  1
  O  O14  1  0.33139267  0.66571434  0.10792243  1
  O  O15  1  0.99400438  0.99703852  0.31271244  1
  O  O16  1  0.99265108  0.99634607  0.80881506  1
  O  O17  1  0.14064134  0.30287141  0.60431463  1
  O  O18  1  0.47068843  0.96016869  0.35221529  1
  O  O19  1  0.47066098  0.51052866  0.35222301  1
  O  O20  1  0.30410224  0.15213863  0.10730698  1
  O  O21  1  0.68814218  0.84404426  0.59884381  1
  O  O22  1  0.52883283  0.49353161  0.83067100  1
  O  O23  1  0.52883941  0.03525842  0.83064836  1
  O  O24  1  0.66993696  0.33498300  0.61194385  1
  O  O25  1  0.85987301  0.68400350  0.08712329  1
  O  O26  1  0.95976958  0.47987632  0.83890629  1
  O  O27  1  0.85985861  0.17586616  0.08712876  1
