# generated using pymatgen
data_Li4V3Ni3(SnO8)2
_symmetry_space_group_name_H-M   'P 1'
_cell_length_a   5.97667440
_cell_length_b   5.94675484
_cell_length_c   9.73197639
_cell_angle_alpha   90.09458728
_cell_angle_beta   90.70015350
_cell_angle_gamma   119.94166968
_symmetry_Int_Tables_number   1
_chemical_formula_structural   Li4V3Ni3(SnO8)2
_chemical_formula_sum   'Li4 V3 Ni3 Sn2 O16'
_cell_volume   299.69291638
_cell_formula_units_Z   1
loop_
 _symmetry_equiv_pos_site_id
 _symmetry_equiv_pos_as_xyz
  1  'x, y, z'
loop_
 _atom_site_type_symbol
 _atom_site_label
 _atom_site_symmetry_multiplicity
 _atom_site_fract_x
 _atom_site_fract_y
 _atom_site_fract_z
 _atom_site_occupancy
  Li  Li0  1  0.31764773  0.65793617  0.88765817  1
  Li  Li1  1  0.00271235  0.00383459  0.98830193  1
  Li  Li2  1  0.00310799  0.00236102  0.49717662  1
  Li  Li3  1  0.65613021  0.32602686  0.40184911  1
  V  V4  1  0.17660543  0.84136731  0.21285745  1
  V  V5  1  0.17205938  0.35079230  0.21863124  1
  V  V6  1  0.34433180  0.17270276  0.71918255  1
  Ni  Ni7  1  0.66370459  0.83155700  0.21220685  1
  Ni  Ni8  1  0.82897883  0.65929229  0.71215265  1
  Ni  Ni9  1  0.82877336  0.16974068  0.71252048  1
  Sn  Sn10  1  0.34588935  0.67285405  0.50251350  1
  Sn  Sn11  1  0.68156007  0.34135027  0.98584507  1
  O  O12  1  0.17500526  0.84834677  0.60094257  1
  O  O13  1  0.03324541  0.50308473  0.33468361  1
  O  O14  1  0.30818178  0.63709025  0.10433215  1
  O  O15  1  0.02176739  0.02062938  0.30645450  1
  O  O16  1  0.02800813  0.01425473  0.80243062  1
  O  O17  1  0.17648597  0.32757205  0.60214890  1
  O  O18  1  0.45803927  0.95480036  0.33301761  1
  O  O19  1  0.46263913  0.50110828  0.33441547  1
  O  O20  1  0.33258537  0.17156223  0.10825159  1
  O  O21  1  0.69155133  0.84586913  0.59120578  1
  O  O22  1  0.49601580  0.46647076  0.84131250  1
  O  O23  1  0.49435724  0.02928344  0.84189109  1
  O  O24  1  0.62132236  0.31008597  0.60354965  1
  O  O25  1  0.86127855  0.68394390  0.10520130  1
  O  O26  1  0.96198028  0.48162170  0.84208072  1
  O  O27  1  0.85603565  0.17476303  0.10502433  1
