# generated using pymatgen
data_Zr2N2O
_symmetry_space_group_name_H-M   'P 1'
_cell_length_a   5.56015396
_cell_length_b   5.57630487
_cell_length_c   14.79864755
_cell_angle_alpha   90.05305033
_cell_angle_beta   90.00000000
_cell_angle_gamma   60.09575830
_symmetry_Int_Tables_number   1
_chemical_formula_structural   Zr2N2O
_chemical_formula_sum   'Zr12 N12 O6'
_cell_volume   397.74432450
_cell_formula_units_Z   6
loop_
 _symmetry_equiv_pos_site_id
 _symmetry_equiv_pos_as_xyz
  1  'x, y, z'
loop_
 _atom_site_type_symbol
 _atom_site_label
 _atom_site_symmetry_multiplicity
 _atom_site_fract_x
 _atom_site_fract_y
 _atom_site_fract_z
 _atom_site_occupancy
  Zr  Zr0  1  0.99776456  0.00301369  0.64164438  1
  Zr  Zr1  1  0.99922275  0.00301369  0.14164438  1
  Zr  Zr2  1  0.67817028  0.64555083  0.80889749  1
  Zr  Zr3  1  0.67854281  0.64767666  0.52519118  1
  Zr  Zr4  1  0.67627888  0.64555083  0.30889749  1
  Zr  Zr5  1  0.67378053  0.64767666  0.02519118  1
  Zr  Zr6  1  0.32621947  0.35232334  0.97480882  1
  Zr  Zr7  1  0.32372112  0.35444917  0.69110251  1
  Zr  Zr8  1  0.32145719  0.35232334  0.47480882  1
  Zr  Zr9  1  0.32182972  0.35444917  0.19110251  1
  Zr  Zr10  1  0.00077725  0.99698631  0.85835562  1
  Zr  Zr11  1  0.00223544  0.99698631  0.35835562  1
  N  N12  1  0.00582713  0.70425370  0.75160767  1
  N  N13  1  0.28991917  0.70425370  0.25160767  1
  N  N14  1  0.36854692  0.67578863  0.91781779  1
  N  N15  1  0.95566445  0.67578863  0.41781779  1
  N  N16  1  0.33922402  0.62598780  0.58463610  1
  N  N17  1  0.03478818  0.62598780  0.08463610  1
  N  N18  1  0.96521182  0.37401220  0.91536390  1
  N  N19  1  0.66077598  0.37401220  0.41536390  1
  N  N20  1  0.04433555  0.32421137  0.58218221  1
  N  N21  1  0.63145308  0.32421137  0.08218221  1
  N  N22  1  0.71008083  0.29574630  0.74839233  1
  N  N23  1  0.99417287  0.29574630  0.24839233  1
  O  O24  1  0.66660848  0.97692917  0.91782293  1
  O  O25  1  0.35646234  0.97692917  0.41782293  1
  O  O26  1  0.64353766  0.02307083  0.58217707  1
  O  O27  1  0.33339152  0.02307083  0.08217707  1
  O  O28  1  0.31065321  0.00000000  0.75000000  1
  O  O29  1  0.68934679  0.00000000  0.25000000  1
