# generated using pymatgen
data_CuAsO3
_symmetry_space_group_name_H-M   'P 1'
_cell_length_a   5.01572485
_cell_length_b   5.78666459
_cell_length_c   5.01330274
_cell_angle_alpha   115.62086177
_cell_angle_beta   59.98640327
_cell_angle_gamma   115.68055280
_symmetry_Int_Tables_number   1
_chemical_formula_structural   CuAsO3
_chemical_formula_sum   'Cu2 As2 O6'
_cell_volume   109.12907526
_cell_formula_units_Z   2
loop_
 _symmetry_equiv_pos_site_id
 _symmetry_equiv_pos_as_xyz
  1  'x, y, z'
loop_
 _atom_site_type_symbol
 _atom_site_label
 _atom_site_symmetry_multiplicity
 _atom_site_fract_x
 _atom_site_fract_y
 _atom_site_fract_z
 _atom_site_occupancy
  Cu  Cu0  1  0.13000803  0.39008913  0.12940998  1
  Cu  Cu1  1  0.87002193  0.60993289  0.87058992  1
  As  As2  1  0.33766010  0.01142626  0.33626720  1
  As  As3  1  0.66233060  0.98855492  0.66372880  1
  O  O4  1  0.06467985  0.21291157  0.44761320  1
  O  O5  1  0.55238301  0.78717417  0.29984362  1
  O  O6  1  0.29978831  0.78732612  0.93553865  1
  O  O7  1  0.70014826  0.21267414  0.06446259  1
  O  O8  1  0.44766244  0.21282320  0.70009940  1
  O  O9  1  0.93531746  0.78708859  0.55244665  1
