# generated using pymatgen
data_Mn3Fe3(SbO8)2
_symmetry_space_group_name_H-M   'P 1'
_cell_length_a   5.95034597
_cell_length_b   5.90825142
_cell_length_c   9.28943305
_cell_angle_alpha   90.00602500
_cell_angle_beta   88.82402016
_cell_angle_gamma   119.77142679
_symmetry_Int_Tables_number   1
_chemical_formula_structural   Mn3Fe3(SbO8)2
_chemical_formula_sum   'Mn3 Fe3 Sb2 O16'
_cell_volume   283.39742766
_cell_formula_units_Z   1
loop_
 _symmetry_equiv_pos_site_id
 _symmetry_equiv_pos_as_xyz
  1  'x, y, z'
loop_
 _atom_site_type_symbol
 _atom_site_label
 _atom_site_symmetry_multiplicity
 _atom_site_fract_x
 _atom_site_fract_y
 _atom_site_fract_z
 _atom_site_occupancy
  Mn  Mn0  1  0.65904701  0.82955214  0.21341383  1
  Mn  Mn1  1  0.82886690  0.66230655  0.71187682  1
  Mn  Mn2  1  0.82887303  0.16656375  0.71185722  1
  Fe  Fe3  1  0.16174370  0.82949338  0.20944729  1
  Fe  Fe4  1  0.16174962  0.33230092  0.20937675  1
  Fe  Fe5  1  0.33123544  0.16563226  0.70941675  1
  Sb  Sb6  1  0.33357212  0.66678303  0.48983821  1
  Sb  Sb7  1  0.66464504  0.33230853  0.99050522  1
  O  O8  1  0.16416574  0.83093108  0.60094393  1
  O  O9  1  0.04284274  0.52141497  0.34369122  1
  O  O10  1  0.34556102  0.67280559  0.10691824  1
  O  O11  1  0.98593515  0.99304409  0.30701002  1
  O  O12  1  0.98541375  0.99273834  0.80773147  1
  O  O13  1  0.16420684  0.33327903  0.60096720  1
  O  O14  1  0.49246222  0.96311848  0.34053840  1
  O  O15  1  0.49245208  0.52938896  0.34049636  1
  O  O16  1  0.33059885  0.16528175  0.09784708  1
  O  O17  1  0.66842030  0.83419067  0.60393943  1
  O  O18  1  0.53118399  0.48993731  0.83950122  1
  O  O19  1  0.53115362  0.04122452  0.83946332  1
  O  O20  1  0.68097384  0.34047148  0.60788911  1
  O  O21  1  0.82712989  0.66278497  0.10020910  1
  O  O22  1  0.96062654  0.48033882  0.83269534  1
  O  O23  1  0.82714056  0.16431040  0.10014645  1
