# generated using pymatgen
data_Zr2N2O
_symmetry_space_group_name_H-M   'P 1'
_cell_length_a   5.58660896
_cell_length_b   10.38983924
_cell_length_c   5.58660930
_cell_angle_alpha   104.99104072
_cell_angle_beta   59.33592403
_cell_angle_gamma   89.72482422
_symmetry_Int_Tables_number   1
_chemical_formula_structural   Zr2N2O
_chemical_formula_sum   'Zr8 N8 O4'
_cell_volume   265.76149741
_cell_formula_units_Z   4
loop_
 _symmetry_equiv_pos_site_id
 _symmetry_equiv_pos_as_xyz
  1  'x, y, z'
loop_
 _atom_site_type_symbol
 _atom_site_label
 _atom_site_symmetry_multiplicity
 _atom_site_fract_x
 _atom_site_fract_y
 _atom_site_fract_z
 _atom_site_occupancy
  Zr  Zr0  1  0.41521586  0.71321081  0.14645837  1
  Zr  Zr1  1  0.32478491  0.03786999  0.38151018  1
  Zr  Zr2  1  0.16769205  0.46331412  0.66736761  1
  Zr  Zr3  1  0.04594550  0.78668588  0.86899383  1
  Zr  Zr4  1  0.90635981  0.21213001  0.13734510  1
  Zr  Zr5  1  0.56292728  0.28726329  0.85886896  1
  Zr  Zr6  1  0.67839433  0.96273671  0.64980943  1
  Zr  Zr7  1  0.81675244  0.53678919  0.37157333  1
  N  N8  1  0.13573388  0.61951989  0.03583813  1
  N  N9  1  0.08069865  0.87410058  0.53733133  1
  N  N10  1  0.62489956  0.12226509  0.04241860  1
  N  N11  1  0.32984749  0.12773491  0.75283535  1
  N  N12  1  0.67311038  0.88146004  0.25076169  1
  N  N13  1  0.58676925  0.37589942  0.54520078  1
  N  N14  1  0.83368176  0.63048011  0.74474522  1
  N  N15  1  0.88069836  0.36853996  0.94542957  1
  O  O16  1  0.18461364  0.38265435  0.25319261  1
  O  O17  1  0.44054974  0.62500000  0.43445026  1
  O  O18  1  0.37946174  0.86734565  0.93273201  1
  O  O19  1  0.93186236  0.12500000  0.44313764  1
