# generated using pymatgen
data_Li2Ti3NbO8
_symmetry_space_group_name_H-M   'P 1'
_cell_length_a   5.96817017
_cell_length_b   5.96926057
_cell_length_c   9.84661252
_cell_angle_alpha   89.97695111
_cell_angle_beta   90.01152567
_cell_angle_gamma   120.00604451
_symmetry_Int_Tables_number   1
_chemical_formula_structural   Li2Ti3NbO8
_chemical_formula_sum   'Li4 Ti6 Nb2 O16'
_cell_volume   303.77548579
_cell_formula_units_Z   2
loop_
 _symmetry_equiv_pos_site_id
 _symmetry_equiv_pos_as_xyz
  1  'x, y, z'
loop_
 _atom_site_type_symbol
 _atom_site_label
 _atom_site_symmetry_multiplicity
 _atom_site_fract_x
 _atom_site_fract_y
 _atom_site_fract_z
 _atom_site_occupancy
  Li  Li0  1  0.33333223  0.66665876  0.89830528  1
  Li  Li1  1  0.99997877  0.99993233  0.99379678  1
  Li  Li2  1  0.00002123  0.99995356  0.49379678  1
  Li  Li3  1  0.66666777  0.33332653  0.39830528  1
  Ti  Ti4  1  0.65991677  0.82995439  0.21570615  1
  Ti  Ti5  1  0.34008323  0.17003862  0.71570615  1
  Ti  Ti6  1  0.83003217  0.16999010  0.71572047  1
  Ti  Ti7  1  0.16990789  0.83000572  0.21572268  1
  Ti  Ti8  1  0.16996783  0.33995693  0.21572047  1
  Ti  Ti9  1  0.83009211  0.66009783  0.71572268  1
  Nb  Nb10  1  0.33328508  0.66664872  0.48856667  1
  Nb  Nb11  1  0.66671492  0.33336364  0.98856667  1
  O  O12  1  0.16337321  0.83672388  0.59872720  1
  O  O13  1  0.03575239  0.51791984  0.33835578  1
  O  O14  1  0.33317595  0.66662003  0.10375294  1
  O  O15  1  0.00015182  0.00016424  0.31069498  1
  O  O16  1  0.99984818  0.00001241  0.81069498  1
  O  O17  1  0.16331309  0.32656249  0.59868528  1
  O  O18  1  0.48219311  0.96416279  0.33853644  1
  O  O19  1  0.48220977  0.51809754  0.33850586  1
  O  O20  1  0.32650097  0.16327030  0.09884250  1
  O  O21  1  0.67349903  0.83676933  0.59884250  1
  O  O22  1  0.51780689  0.48196968  0.83853644  1
  O  O23  1  0.51779023  0.03588777  0.83850586  1
  O  O24  1  0.66682405  0.33344408  0.60375294  1
  O  O25  1  0.83662679  0.67334967  0.09872720  1
  O  O26  1  0.96424761  0.48216746  0.83835678  1
  O  O27  1  0.83668691  0.16324840  0.09868528  1
