# generated using pymatgen
data_Li4Ti2Cu3Sb3O16
_symmetry_space_group_name_H-M   'P 1'
_cell_length_a   6.18225525
_cell_length_b   6.05609173
_cell_length_c   9.83768196
_cell_angle_alpha   90.00155277
_cell_angle_beta   86.79221213
_cell_angle_gamma   119.35305400
_symmetry_Int_Tables_number   1
_chemical_formula_structural   Li4Ti2Cu3Sb3O16
_chemical_formula_sum   'Li4 Ti2 Cu3 Sb3 O16'
_cell_volume   320.37661866
_cell_formula_units_Z   1
loop_
 _symmetry_equiv_pos_site_id
 _symmetry_equiv_pos_as_xyz
  1  'x, y, z'
loop_
 _atom_site_type_symbol
 _atom_site_label
 _atom_site_symmetry_multiplicity
 _atom_site_fract_x
 _atom_site_fract_y
 _atom_site_fract_z
 _atom_site_occupancy
  Li  Li0  1  0.35197661  0.67604716  0.90514575  1
  Li  Li1  1  0.01730179  0.00872127  0.00135686  1
  Li  Li2  1  0.03681180  0.01837485  0.47829483  1
  Li  Li3  1  0.66326216  0.33159430  0.39248171  1
  Ti  Ti4  1  0.27618817  0.63793889  0.46597732  1
  Ti  Ti5  1  0.64247710  0.32129681  0.00486386  1
  Cu  Cu6  1  0.15774693  0.82243726  0.20708622  1
  Cu  Cu7  1  0.15776633  0.33540594  0.20706781  1
  Cu  Cu8  1  0.34182287  0.17100820  0.71172734  1
  Sb  Sb9  1  0.65086547  0.82550364  0.21833887  1
  Sb  Sb10  1  0.83490457  0.66518771  0.71628255  1
  Sb  Sb11  1  0.83483149  0.16966285  0.71631800  1
  O  O12  1  0.14287041  0.81325801  0.59038894  1
  O  O13  1  0.02891755  0.51431681  0.35347818  1
  O  O14  1  0.33840871  0.66959097  0.11509488  1
  O  O15  1  0.98937072  0.99440064  0.29255281  1
  O  O16  1  0.00371857  0.00182751  0.81261158  1
  O  O17  1  0.14309534  0.32936682  0.59048924  1
  O  O18  1  0.49944639  0.96230131  0.35841434  1
  O  O19  1  0.49975988  0.53742677  0.35855716  1
  O  O20  1  0.33865028  0.16935954  0.08258159  1
  O  O21  1  0.70010983  0.85009108  0.60802796  1
  O  O22  1  0.54779352  0.50315335  0.84885448  1
  O  O23  1  0.54740019  0.04482276  0.84870944  1
  O  O24  1  0.67986860  0.33994405  0.60778477  1
  O  O25  1  0.79826400  0.65321338  0.09184293  1
  O  O26  1  0.97840304  0.48912342  0.83183800  1
  O  O27  1  0.79796470  0.14492471  0.09166959  1
