# generated using pymatgen
data_TiFe2Ni3(PO4)6
_symmetry_space_group_name_H-M   'P 1'
_cell_length_a   8.41873217
_cell_length_b   8.41873291
_cell_length_c   8.41873267
_cell_angle_alpha   61.86089611
_cell_angle_beta   61.86089899
_cell_angle_gamma   61.86089507
_symmetry_Int_Tables_number   1
_chemical_formula_structural   TiFe2Ni3(PO4)6
_chemical_formula_sum   'Ti1 Fe2 Ni3 P6 O24'
_cell_volume   439.49449737
_cell_formula_units_Z   1
loop_
 _symmetry_equiv_pos_site_id
 _symmetry_equiv_pos_as_xyz
  1  'x, y, z'
loop_
 _atom_site_type_symbol
 _atom_site_label
 _atom_site_symmetry_multiplicity
 _atom_site_fract_x
 _atom_site_fract_y
 _atom_site_fract_z
 _atom_site_occupancy
  Ti  Ti0  1  0.85295301  0.85295301  0.85295301  1
  Fe  Fe1  1  0.00225196  0.00225196  0.00225196  1
  Fe  Fe2  1  0.50111576  0.50111576  0.50111576  1
  Ni  Ni3  1  0.14477504  0.14477504  0.14477504  1
  Ni  Ni4  1  0.35767193  0.35767193  0.35767193  1
  Ni  Ni5  1  0.64308561  0.64308561  0.64308561  1
  P  P6  1  0.25088929  0.54997880  0.94863695  1
  P  P7  1  0.54997880  0.94863695  0.25088929  1
  P  P8  1  0.94863695  0.25088929  0.54997880  1
  P  P9  1  0.04892488  0.74855044  0.44945053  1
  P  P10  1  0.44945053  0.04892488  0.74855044  1
  P  P11  1  0.74855044  0.44945053  0.04892488  1
  O  O12  1  0.10075231  0.32566690  0.51219476  1
  O  O13  1  0.32566690  0.51219476  0.10075231  1
  O  O14  1  0.06198835  0.90373349  0.25036333  1
  O  O15  1  0.51219476  0.10075231  0.32566690  1
  O  O16  1  0.98462896  0.83175551  0.60931597  1
  O  O17  1  0.25117018  0.60179700  0.44648523  1
  O  O18  1  0.25036333  0.06198835  0.90373349  1
  O  O19  1  0.44648523  0.25117018  0.60179700  1
  O  O20  1  0.17354112  0.39777634  0.99774327  1
  O  O21  1  0.60179700  0.44648523  0.25117018  1
  O  O22  1  0.09383133  0.75524870  0.93003916  1
  O  O23  1  0.39777634  0.99774327  0.17354112  1
  O  O24  1  0.60931597  0.98462896  0.83175551  1
  O  O25  1  0.90373349  0.25036333  0.06198835  1
  O  O26  1  0.39936584  0.56842867  0.74452445  1
  O  O27  1  0.83175551  0.60931597  0.98462896  1
  O  O28  1  0.56842867  0.74452445  0.39936584  1
  O  O29  1  0.75524870  0.93003916  0.09383133  1
  O  O30  1  0.74452445  0.39936584  0.56842867  1
  O  O31  1  0.99774327  0.17354112  0.39777634  1
  O  O32  1  0.49562567  0.90388294  0.66185331  1
  O  O33  1  0.93003916  0.09383133  0.75524870  1
  O  O34  1  0.66185331  0.49562567  0.90388294  1
  O  O35  1  0.90388294  0.66185331  0.49562567  1
