# generated using pymatgen
data_Li2V3NiO8
_symmetry_space_group_name_H-M   'P 1'
_cell_length_a   6.38628023
_cell_length_b   6.38628035
_cell_length_c   6.47193007
_cell_angle_alpha   74.12120248
_cell_angle_beta   105.87879449
_cell_angle_gamma   143.33880819
_symmetry_Int_Tables_number   1
_chemical_formula_structural   Li2V3NiO8
_chemical_formula_sum   'Li2 V3 Ni1 O8'
_cell_volume   150.91431254
_cell_formula_units_Z   1
loop_
 _symmetry_equiv_pos_site_id
 _symmetry_equiv_pos_as_xyz
  1  'x, y, z'
loop_
 _atom_site_type_symbol
 _atom_site_label
 _atom_site_symmetry_multiplicity
 _atom_site_fract_x
 _atom_site_fract_y
 _atom_site_fract_z
 _atom_site_occupancy
  Li  Li0  1  0.06138001  0.93861999  0.34300132  1
  Li  Li1  1  0.94071535  0.05928465  0.63991190  1
  V  V2  1  0.39284820  0.60715180  0.29803417  1
  V  V3  1  0.61155972  0.38844028  0.72519412  1
  V  V4  1  0.28945750  0.71054250  0.70784508  1
  Ni  Ni5  1  0.71314784  0.28685216  0.30931887  1
  O  O6  1  0.12097172  0.87902828  0.67133207  1
  O  O7  1  0.24089641  0.75910359  0.35897772  1
  O  O8  1  0.34453374  0.65546626  -0.01468804  1
  O  O9  1  0.44043800  0.55956200  0.64037155  1
  O  O10  1  0.54786820  0.45213180  0.35092898  1
  O  O11  1  0.64512567  0.35487433  0.99395051  1
  O  O12  1  0.76447588  0.23552412  0.65717027  1
  O  O13  1  0.88658175  0.11341825  0.31865148  1
