# generated using pymatgen
data_YMg
_symmetry_space_group_name_H-M   'P 1'
_cell_length_a   12.91076190
_cell_length_b   3.49810609
_cell_length_c   7.84332424
_cell_angle_alpha   90.00000000
_cell_angle_beta   105.05506377
_cell_angle_gamma   90.00000000
_symmetry_Int_Tables_number   1
_chemical_formula_structural   YMg
_chemical_formula_sum   'Y6 Mg6'
_cell_volume   342.07138426
_cell_formula_units_Z   6
loop_
 _symmetry_equiv_pos_site_id
 _symmetry_equiv_pos_as_xyz
  1  'x, y, z'
loop_
 _atom_site_type_symbol
 _atom_site_label
 _atom_site_symmetry_multiplicity
 _atom_site_fract_x
 _atom_site_fract_y
 _atom_site_fract_z
 _atom_site_occupancy
  Y  Y0  1  0.00206724  -0.00000000  0.00899161  1
  Y  Y1  1  0.33218646  0.00000000  0.65819773  1
  Y  Y2  1  0.22080707  0.50000000  0.94492838  1
  Y  Y3  1  0.50206724  0.50000000  0.00899161  1
  Y  Y4  1  0.83218646  0.50000000  0.65819773  1
  Y  Y5  1  0.72080707  -0.00000000  0.94492838  1
  Mg  Mg6  1  0.39021402  0.00000000  0.28075622  1
  Mg  Mg7  1  0.16378935  0.50000000  0.33557286  1
  Mg  Mg8  1  0.05760286  -0.00000000  0.60488620  1
  Mg  Mg9  1  0.89021402  0.50000000  0.28075622  1
  Mg  Mg10  1  0.66378935  -0.00000000  0.33557286  1
  Mg  Mg11  1  0.55760286  0.50000000  0.60488620  1
