# generated using pymatgen
data_VH24(C2N)4
_symmetry_space_group_name_H-M   'P 1'
_cell_length_a   8.81938995
_cell_length_b   12.81785401
_cell_length_c   14.80555699
_cell_angle_alpha   75.81026964
_cell_angle_beta   79.28522597
_cell_angle_gamma   84.92994971
_symmetry_Int_Tables_number   1
_chemical_formula_structural   VH24(C2N)4
_chemical_formula_sum   'V4 H96 C32 N16'
_cell_volume   1592.73713783
_cell_formula_units_Z   4
loop_
 _symmetry_equiv_pos_site_id
 _symmetry_equiv_pos_as_xyz
  1  'x, y, z'
loop_
 _atom_site_type_symbol
 _atom_site_label
 _atom_site_symmetry_multiplicity
 _atom_site_fract_x
 _atom_site_fract_y
 _atom_site_fract_z
 _atom_site_occupancy
  V  V0  1  0.77873372  0.75194382  0.47251942  1
  V  V1  1  0.22126628  0.24805618  0.52748058  1
  V  V2  1  0.79555799  0.75284585  0.97607572  1
  V  V3  1  0.20444201  0.24715415  0.02392428  1
  H  H4  1  0.82811209  0.51117994  0.53777972  1
  H  H5  1  0.17188791  0.48882006  0.46222028  1
  H  H6  1  0.71909214  0.50278740  0.65375863  1
  H  H7  1  0.28090786  0.49721260  0.34624137  1
  H  H8  1  0.63246255  0.47121679  0.56521617  1
  H  H9  1  0.36753745  0.52878321  0.43478383  1
  H  H10  1  0.50950394  0.62773709  0.68155254  1
  H  H11  1  0.49049606  0.37226291  0.31844746  1
  H  H12  1  0.46090559  0.73569370  0.58790291  1
  H  H13  1  0.53909441  0.26430630  0.41209709  1
  H  H14  1  0.42239036  0.60007247  0.59139827  1
  H  H15  1  0.57760964  0.39992753  0.40860173  1
  H  H16  1  0.52385109  0.86630781  0.30464200  1
  H  H17  1  0.47614891  0.13369219  0.69535800  1
  H  H18  1  0.40430963  0.88831417  0.40954000  1
  H  H19  1  0.59569037  0.11168583  0.59046000  1
  H  H20  1  0.48046420  0.75540059  0.40435807  1
  H  H21  1  0.51953580  0.24459941  0.59564193  1
  H  H22  1  0.78236257  0.99247705  0.40319328  1
  H  H23  1  0.21763743  0.00752295  0.59680672  1
  H  H24  1  0.69072281  0.99732672  0.30398108  1
  H  H25  1  0.30927719  0.00267328  0.69601892  1
  H  H26  1  0.58004471  0.02652402  0.40878789  1
  H  H27  1  0.41995529  0.97347598  0.59121211  1
  H  H28  1  0.78101061  0.57561790  0.37109276  1
  H  H29  1  0.21898939  0.42438210  0.62890724  1
  H  H30  1  0.85099862  0.66159969  0.25867080  1
  H  H31  1  0.14900138  0.33840031  0.74132920  1
  H  H32  1  0.97982094  0.56618645  0.31826373  1
  H  H33  1  0.02017906  0.43381355  0.68173627  1
  H  H34  1  0.14673782  0.70420788  0.30449968  1
  H  H35  1  0.85326218  0.29579212  0.69550032  1
  H  H36  1  0.02041054  0.80510307  0.24906818  1
  H  H37  1  0.97958946  0.19489693  0.75093182  1
  H  H38  1  0.08405783  0.81848045  0.35351163  1
  H  H39  1  0.91594217  0.18151955  0.64648837  1
  H  H40  1  0.09746682  0.70486086  0.51997389  1
  H  H41  1  0.90253318  0.29513914  0.48002611  1
  H  H42  1  0.13230491  0.82777482  0.54778339  1
  H  H43  1  0.86769509  0.17222518  0.45221661  1
  H  H44  1  0.04195016  0.72233608  0.63797186  1
  H  H45  1  0.95804984  0.27766392  0.36202814  1
  H  H46  1  0.83888686  0.85181388  0.67327750  1
  H  H47  1  0.16111314  0.14818612  0.32672250  1
  H  H48  1  0.72834890  0.92168242  0.58527330  1
  H  H49  1  0.27165110  0.07831758  0.41472670  1
  H  H50  1  0.92339998  0.95489242  0.57827717  1
  H  H51  1  0.07660002  0.04510758  0.42172283  1
  H  H52  1  0.77783644  0.67105161  0.74802318  1
  H  H53  1  0.22216356  0.32894839  0.25197682  1
  H  H54  1  0.89376693  0.61266586  0.83651405  1
  H  H55  1  0.10623307  0.38733414  0.16348595  1
  H  H56  1  0.70081590  0.57191105  0.84893168  1
  H  H57  1  0.29918410  0.42808895  0.15106832  1
  H  H58  1  0.48456936  0.69498500  0.87644257  1
  H  H59  1  0.51543064  0.30501500  0.12355743  1
  H  H60  1  0.51378101  0.82633715  0.88971361  1
  H  H61  1  0.48621899  0.17366285  0.11028639  1
  H  H62  1  0.56704672  0.79387985  0.77683469  1
  H  H63  1  0.43295328  0.20612015  0.22316531  1
  H  H64  1  0.20043972  0.63961749  0.00705807  1
  H  H65  1  0.79956028  0.36038251  0.99294193  1
  H  H66  1  0.04439358  0.66932564  0.09451590  1
  H  H67  1  0.95560642  0.33067436  0.90548410  1
  H  H68  1  0.17391981  0.77137722  0.02759599  1
  H  H69  1  0.82608019  0.22862278  0.97240401  1
  H  H70  1  0.17523906  0.83928653  0.86154825  1
  H  H71  1  0.82476094  0.16071347  0.13845175  1
  H  H72  1  0.03224634  0.80110529  0.80593317  1
  H  H73  1  0.96775366  0.19889471  0.19406683  1
  H  H74  1  0.18723501  0.70841298  0.83933078  1
  H  H75  1  0.81276499  0.29158702  0.16066922  1
  H  H76  1  0.63127469  0.04302450  0.93157535  1
  H  H77  1  0.36872531  0.95697550  0.06842465  1
  H  H78  1  0.71883849  0.96678281  0.84741759  1
  H  H79  1  0.28116151  0.03321719  0.15258241  1
  H  H80  1  0.83531946  0.03734466  0.89766042  1
  H  H81  1  0.16468054  0.96265534  0.10233958  1
  H  H82  1  0.85845908  0.97547985  0.06381214  1
  H  H83  1  0.14154092  0.02452015  0.93618786  1
  H  H84  1  0.75871539  0.85974084  0.13500659  1
  H  H85  1  0.24128461  0.14025916  0.86499341  1
  H  H86  1  0.65349839  0.98267422  0.09342318  1
  H  H87  1  0.34650161  0.01732578  0.90657682  1
  H  H88  1  0.86774804  0.52501954  0.07239461  1
  H  H89  1  0.13225196  0.47498046  0.92760539  1
  H  H90  1  0.66842191  0.49331637  0.09824065  1
  H  H91  1  0.33157809  0.50668363  0.90175935  1
  H  H92  1  0.75971367  0.51530627  0.18884118  1
  H  H93  1  0.24028633  0.48469373  0.81115882  1
  H  H94  1  0.51893286  0.75940290  0.12868430  1
  H  H95  1  0.48106714  0.24059710  0.87131570  1
  H  H96  1  0.56429203  0.64812833  0.22083203  1
  H  H97  1  0.43570797  0.35187167  0.77916797  1
  H  H98  1  0.47019366  0.62610958  0.13126314  1
  H  H99  1  0.52980634  0.37389042  0.86873686  1
  C  C100  1  0.71303009  0.52615669  0.57723210  1
  C  C101  1  0.28696991  0.47384331  0.42276790  1
  C  C102  1  0.50599151  0.65193790  0.60472644  1
  C  C103  1  0.49400849  0.34806210  0.39527356  1
  C  C104  1  0.50673178  0.84083488  0.38299228  1
  C  C105  1  0.49326822  0.15916512  0.61700772  1
  C  C106  1  0.67656661  0.97429884  0.38229858  1
  C  C107  1  0.32343339  0.02570116  0.61770142  1
  C  C108  1  0.87884404  0.62242805  0.32968523  1
  C  C109  1  0.12115596  0.37757195  0.67031477  1
  C  C110  1  0.04763713  0.76070382  0.31896967  1
  C  C111  1  0.95236287  0.23929618  0.68103033  1
  C  C112  1  0.04930567  0.76322853  0.56217334  1
  C  C113  1  0.95069433  0.23677147  0.43782666  1
  C  C114  1  0.84382123  0.88768904  0.59668359  1
  C  C115  1  0.15617877  0.11231096  0.40331641  1
  C  C116  1  0.77648119  0.64162897  0.82502293  1
  C  C117  1  0.22351881  0.35837103  0.17497707  1
  C  C118  1  0.56382948  0.76263826  0.85381107  1
  C  C119  1  0.43617052  0.23736174  0.14618893  1
  C  C120  1  0.11118557  0.70142720  0.02423251  1
  C  C121  1  0.88881443  0.29857280  0.97576749  1
  C  C122  1  0.10500589  0.77205434  0.86048150  1
  C  C123  1  0.89499411  0.22794566  0.13951850  1
  C  C124  1  0.73126123  0.98904082  0.91265077  1
  C  C125  1  0.26873877  0.01095918  0.08734923  1
  C  C126  1  0.75363166  0.92884220  0.07466379  1
  C  C127  1  0.24636834  0.07115780  0.92533621  1
  C  C128  1  0.75440370  0.54281712  0.11245253  1
  C  C129  1  0.24559630  0.45718288  0.88754747  1
  C  C130  1  0.55885775  0.67426641  0.14436255  1
  C  C131  1  0.44114225  0.32573359  0.85563745  1
  N  N132  1  0.65722544  0.63743060  0.54882586  1
  N  N133  1  0.34277456  0.36256940  0.45117414  1
  N  N134  1  0.64146392  0.86154960  0.41842248  1
  N  N135  1  0.35853608  0.13845040  0.58157752  1
  N  N136  1  0.91710700  0.70109548  0.37699975  1
  N  N137  1  0.08289300  0.29890452  0.62300025  1
  N  N138  1  0.89985890  0.80937047  0.54037946  1
  N  N139  1  0.10014110  0.19062953  0.45962054  1
  N  N140  1  0.71811112  0.72715050  0.87306605  1
  N  N141  1  0.28188888  0.27284950  0.12693395  1
  N  N142  1  0.01262375  0.73090474  0.95265413  1
  N  N143  1  0.98737625  0.26909526  0.04734587  1
  N  N144  1  0.73959949  0.89502484  0.98986464  1
  N  N145  1  0.26040051  0.10497516  0.01013536  1
  N  N146  1  0.70931119  0.65668600  0.08919561  1
  N  N147  1  0.29068881  0.34331400  0.91080439  1
