# generated using pymatgen
data_Ta2CrNO5
_symmetry_space_group_name_H-M   'P 1'
_cell_length_a   4.75973885
_cell_length_b   4.75973885
_cell_length_c   9.22909862
_cell_angle_alpha   89.68534628
_cell_angle_beta   90.31465372
_cell_angle_gamma   89.93526375
_symmetry_Int_Tables_number   1
_chemical_formula_structural   Ta2CrNO5
_chemical_formula_sum   'Ta4 Cr2 N2 O10'
_cell_volume   209.07983389
_cell_formula_units_Z   2
loop_
 _symmetry_equiv_pos_site_id
 _symmetry_equiv_pos_as_xyz
  1  'x, y, z'
loop_
 _atom_site_type_symbol
 _atom_site_label
 _atom_site_symmetry_multiplicity
 _atom_site_fract_x
 _atom_site_fract_y
 _atom_site_fract_z
 _atom_site_occupancy
  Ta  Ta0  1  0.99134595  0.00865405  0.34358490  1
  Ta  Ta1  1  0.98576768  0.01423232  0.67375807  1
  Ta  Ta2  1  0.49474565  0.50525435  0.16702382  1
  Ta  Ta3  1  0.51106467  0.48893533  0.82959427  1
  Cr  Cr4  1  0.00279477  0.99720523  0.99977696  1
  Cr  Cr5  1  0.50187208  0.49812792  0.49887773  1
  N  N6  1  0.80193226  0.19806774  0.83377612  1
  N  N7  1  0.80470831  0.19529169  0.49810346  1
  O  O8  1  0.19777698  0.80222302  0.49552902  1
  O  O9  1  0.19896881  0.80103119  0.83148570  1
  O  O10  1  0.20319377  0.79680623  0.16654451  1
  O  O11  1  0.30653098  0.30127388  0.32786354  1
  O  O12  1  0.30178417  0.30653450  0.66818337  1
  O  O13  1  0.30752573  0.30724978  0.00091649  1
  O  O14  1  0.69275022  0.69247427  0.00091649  1
  O  O15  1  0.69872612  0.69346902  0.32786354  1
  O  O16  1  0.69346550  0.69821583  0.66818337  1
  O  O17  1  0.80504435  0.19495565  0.16801965  1
