# generated using pymatgen
data_LiFeF4
_symmetry_space_group_name_H-M   'P 1'
_cell_length_a   5.67273049
_cell_length_b   7.85590906
_cell_length_c   5.32375284
_cell_angle_alpha   50.30139452
_cell_angle_beta   89.99999950
_cell_angle_gamma   68.83538539
_symmetry_Int_Tables_number   1
_chemical_formula_structural   LiFeF4
_chemical_formula_sum   'Li2 Fe2 F8'
_cell_volume   161.19806145
_cell_formula_units_Z   2
loop_
 _symmetry_equiv_pos_site_id
 _symmetry_equiv_pos_as_xyz
  1  'x, y, z'
loop_
 _atom_site_type_symbol
 _atom_site_label
 _atom_site_symmetry_multiplicity
 _atom_site_fract_x
 _atom_site_fract_y
 _atom_site_fract_z
 _atom_site_occupancy
  Li  Li0  1  0.50000000  0.50000000  0.50000000  1
  Li  Li1  1  0.00000000  0.50000000  0.00000000  1
  Fe  Fe2  1  0.83472270  1.00000000  0.75000000  1
  Fe  Fe3  1  0.16527730  0.00000000  0.25000000  1
  F  F4  1  0.99289947  0.81169766  0.60258615  1
  F  F5  1  0.50271804  0.72818295  0.56239252  1
  F  F6  1  0.19540288  0.81169766  0.10258615  1
  F  F7  1  0.76909800  0.72818295  0.06239252  1
  F  F8  1  0.23090200  0.27181705  0.93760748  1
  F  F9  1  0.80459712  0.18830234  0.89741385  1
  F  F10  1  0.49728196  0.27181705  0.43760748  1
  F  F11  1  0.00710053  0.18830234  0.39741385  1
