# generated using pymatgen
data_NaTiO2
_symmetry_space_group_name_H-M   'P 1'
_cell_length_a   5.44124896
_cell_length_b   6.10252773
_cell_length_c   12.29145582
_cell_angle_alpha   90.00428319
_cell_angle_beta   90.00000000
_cell_angle_gamma   90.00000000
_symmetry_Int_Tables_number   1
_chemical_formula_structural   NaTiO2
_chemical_formula_sum   'Na8 Ti8 O16'
_cell_volume   408.14236995
_cell_formula_units_Z   8
loop_
 _symmetry_equiv_pos_site_id
 _symmetry_equiv_pos_as_xyz
  1  'x, y, z'
loop_
 _atom_site_type_symbol
 _atom_site_label
 _atom_site_symmetry_multiplicity
 _atom_site_fract_x
 _atom_site_fract_y
 _atom_site_fract_z
 _atom_site_occupancy
  Na  Na0  1  0.08760807  0.61288821  0.81413552  1
  Na  Na1  1  0.08775665  0.11253644  0.68610688  1
  Na  Na2  1  0.41224335  0.11253644  0.18610688  1
  Na  Na3  1  0.41239193  0.61288821  0.31413552  1
  Na  Na4  1  0.58733209  0.88734102  0.81394484  1
  Na  Na5  1  0.58791200  0.38722587  0.68587607  1
  Na  Na6  1  0.91208800  0.38722587  0.18587607  1
  Na  Na7  1  0.91266791  0.88734102  0.31394484  1
  Ti  Ti8  1  0.12214667  0.17030587  0.94182436  1
  Ti  Ti9  1  0.12233653  0.67023638  0.55817659  1
  Ti  Ti10  1  0.37766347  0.67023638  0.05817659  1
  Ti  Ti11  1  0.37785333  0.17030587  0.44182436  1
  Ti  Ti12  1  0.62225243  0.82972361  0.55820005  1
  Ti  Ti13  1  0.62226168  0.32975001  0.94183036  1
  Ti  Ti14  1  0.87773832  0.32975001  0.44183036  1
  Ti  Ti15  1  0.87774757  0.82972361  0.05820005  1
  O  O16  1  0.10635701  0.23413428  0.33224155  1
  O  O17  1  0.10632348  0.73386995  0.16765324  1
  O  O18  1  0.29696715  0.85946085  0.45611543  1
  O  O19  1  0.29689465  0.35939641  0.04387807  1
  O  O20  1  0.20310535  0.35939641  0.54387807  1
  O  O21  1  0.20303285  0.85946085  0.95611543  1
  O  O22  1  0.39367652  0.73386995  0.66765324  1
  O  O23  1  0.39364299  0.23413428  0.83224155  1
  O  O24  1  0.60639403  0.76564541  0.16774819  1
  O  O25  1  0.60628355  0.26626851  0.33233170  1
  O  O26  1  0.79689275  0.14056053  0.04385132  1
  O  O27  1  0.79698059  0.64064364  0.45606883  1
  O  O28  1  0.70301941  0.64064364  0.95606883  1
  O  O29  1  0.70310725  0.14056053  0.54385132  1
  O  O30  1  0.89371645  0.26626851  0.83233170  1
  O  O31  1  0.89360597  0.76564541  0.66774819  1
