# generated using pymatgen
data_Ti3Co2Te(PO4)6
_symmetry_space_group_name_H-M   'P 1'
_cell_length_a   8.65259681
_cell_length_b   8.65259607
_cell_length_c   8.65259689
_cell_angle_alpha   61.10779463
_cell_angle_beta   61.10779630
_cell_angle_gamma   61.10779928
_symmetry_Int_Tables_number   1
_chemical_formula_structural   Ti3Co2Te(PO4)6
_chemical_formula_sum   'Ti3 Co2 Te1 P6 O24'
_cell_volume   469.48375899
_cell_formula_units_Z   1
loop_
 _symmetry_equiv_pos_site_id
 _symmetry_equiv_pos_as_xyz
  1  'x, y, z'
loop_
 _atom_site_type_symbol
 _atom_site_label
 _atom_site_symmetry_multiplicity
 _atom_site_fract_x
 _atom_site_fract_y
 _atom_site_fract_z
 _atom_site_occupancy
  Ti  Ti0  1  0.14033142  0.14033142  0.14033142  1
  Ti  Ti1  1  0.35692086  0.35692086  0.35692086  1
  Ti  Ti2  1  0.63992084  0.63992084  0.63992084  1
  Co  Co3  1  0.00833568  0.00833568  0.00833568  1
  Co  Co4  1  0.50384239  0.50384239  0.50384239  1
  Te  Te5  1  0.85678706  0.85678706  0.85678706  1
  P  P6  1  0.25568932  0.53516954  0.96009549  1
  P  P7  1  0.53516954  0.96009549  0.25568932  1
  P  P8  1  0.96009549  0.25568932  0.53516954  1
  P  P9  1  0.04655593  0.74539654  0.44983976  1
  P  P10  1  0.44983976  0.04655593  0.74539654  1
  P  P11  1  0.74539654  0.44983976  0.04655593  1
  O  O12  1  0.11684632  0.32577863  0.48476656  1
  O  O13  1  0.32577863  0.48476656  0.11684632  1
  O  O14  1  0.06014448  0.90876135  0.26118355  1
  O  O15  1  0.48476656  0.11684632  0.32577863  1
  O  O16  1  0.02407982  0.80852628  0.60162544  1
  O  O17  1  0.23757104  0.58600834  0.42991172  1
  O  O18  1  0.26118355  0.06014448  0.90876135  1
  O  O19  1  0.42991172  0.23757104  0.58600834  1
  O  O20  1  0.18471500  0.38224026  0.00037955  1
  O  O21  1  0.58600834  0.42991172  0.23757104  1
  O  O22  1  0.10017989  0.73074801  0.95231441  1
  O  O23  1  0.38224026  0.00037955  0.18471500  1
  O  O24  1  0.60162544  0.02407982  0.80852628  1
  O  O25  1  0.90876135  0.26118355  0.06014448  1
  O  O26  1  0.41390562  0.55260246  0.76729329  1
  O  O27  1  0.80852628  0.60162544  0.02407982  1
  O  O28  1  0.55260246  0.76729329  0.41390562  1
  O  O29  1  0.73074801  0.95231441  0.10017989  1
  O  O30  1  0.76729329  0.41390562  0.55260246  1
  O  O31  1  0.00037955  0.18471500  0.38224026  1
  O  O32  1  0.50254672  0.87977130  0.68921214  1
  O  O33  1  0.95231441  0.10017989  0.73074801  1
  O  O34  1  0.68921214  0.50254672  0.87977130  1
  O  O35  1  0.87977130  0.68921214  0.50254672  1
