# generated using pymatgen
data_Li4Mn2Fe3Sb(PO4)6
_symmetry_space_group_name_H-M   'P 1'
_cell_length_a   8.45709266
_cell_length_b   8.54876595
_cell_length_c   8.56208928
_cell_angle_alpha   64.50339550
_cell_angle_beta   64.98786419
_cell_angle_gamma   64.72672088
_symmetry_Int_Tables_number   1
_chemical_formula_structural   Li4Mn2Fe3Sb(PO4)6
_chemical_formula_sum   'Li4 Mn2 Fe3 Sb1 P6 O24'
_cell_volume   483.10078438
_cell_formula_units_Z   1
loop_
 _symmetry_equiv_pos_site_id
 _symmetry_equiv_pos_as_xyz
  1  'x, y, z'
loop_
 _atom_site_type_symbol
 _atom_site_label
 _atom_site_symmetry_multiplicity
 _atom_site_fract_x
 _atom_site_fract_y
 _atom_site_fract_z
 _atom_site_occupancy
  Li  Li0  1  0.74917288  0.14265512  0.35594428  1
  Li  Li1  1  0.28373405  0.84074776  0.64737564  1
  Li  Li2  1  0.64316718  0.28009208  0.84032050  1
  Li  Li3  1  0.84188605  0.64437997  0.28759116  1
  Mn  Mn4  1  0.01385663  0.00124273  0.99663442  1
  Mn  Mn5  1  0.48520979  0.50684144  0.50018667  1
  Fe  Fe6  1  0.14838108  0.15069751  0.14633667  1
  Fe  Fe7  1  0.34778145  0.34843908  0.34653822  1
  Fe  Fe8  1  0.66026760  0.65952444  0.66263819  1
  Sb  Sb9  1  0.84131004  0.83496261  0.84251048  1
  P  P10  1  0.07178063  0.74710820  0.43071468  1
  P  P11  1  0.43068085  0.07297982  0.74794018  1
  P  P12  1  0.74620166  0.43170478  0.07008577  1
  P  P13  1  0.25045423  0.54255660  0.94985332  1
  P  P14  1  0.55109801  0.94987557  0.25170841  1
  P  P15  1  0.94122267  0.24766005  0.54405454  1
  O  O16  1  0.10883703  0.30860299  0.48775209  1
  O  O17  1  0.32367293  0.49913139  0.10437392  1
  O  O18  1  0.06800258  0.90484801  0.25189207  1
  O  O19  1  0.53425918  0.10226444  0.31497343  1
  O  O20  1  0.06781736  0.80563681  0.58156394  1
  O  O21  1  0.25403610  0.59013107  0.40781939  1
  O  O22  1  0.24459345  0.08798625  0.89339426  1
  O  O23  1  0.42617264  0.24950556  0.58173534  1
  O  O24  1  0.17128781  0.39856805  0.98521326  1
  O  O25  1  0.59391044  0.40908466  0.25710021  1
  O  O26  1  0.10381023  0.74212636  0.92764307  1
  O  O27  1  0.39376627  0.99796094  0.18348391  1
  O  O28  1  0.58113798  0.06298013  0.81441863  1
  O  O29  1  0.89067340  0.24125593  0.08791394  1
  O  O30  1  0.40402017  0.56302571  0.76177052  1
  O  O31  1  0.81074577  0.58027959  0.06221360  1
  O  O32  1  0.56261862  0.76306504  0.40832554  1
  O  O33  1  0.74790484  0.91775512  0.10329099  1
  O  O34  1  0.75662827  0.40628229  0.56808059  1
  O  O35  1  0.95384482  0.17592925  0.40250125  1
  O  O36  1  0.47777111  0.90419051  0.69169796  1
  O  O37  1  0.92791648  0.10080527  0.74090910  1
  O  O38  1  0.68753748  0.47717133  0.90438928  1
  O  O39  1  0.90282924  0.68694350  0.48010958  1
