# generated using pymatgen
data_AlFeO3
_symmetry_space_group_name_H-M   'P 1'
_cell_length_a   4.88329947
_cell_length_b   5.12029350
_cell_length_c   7.36897441
_cell_angle_alpha   90.00000000
_cell_angle_beta   90.00000000
_cell_angle_gamma   90.00000000
_symmetry_Int_Tables_number   1
_chemical_formula_structural   AlFeO3
_chemical_formula_sum   'Al4 Fe4 O12'
_cell_volume   184.25329478
_cell_formula_units_Z   4
loop_
 _symmetry_equiv_pos_site_id
 _symmetry_equiv_pos_as_xyz
  1  'x, y, z'
loop_
 _atom_site_type_symbol
 _atom_site_label
 _atom_site_symmetry_multiplicity
 _atom_site_fract_x
 _atom_site_fract_y
 _atom_site_fract_z
 _atom_site_occupancy
  Al  Al0  1  0.00000000  0.50000000  0.00000000  1
  Al  Al1  1  0.00000000  0.50000000  0.50000000  1
  Al  Al2  1  0.50000000  0.00000000  0.00000000  1
  Al  Al3  1  0.50000000  0.00000000  0.50000000  1
  Fe  Fe4  1  0.02363343  0.94166572  0.75000000  1
  Fe  Fe5  1  0.47636657  0.44166572  0.75000000  1
  Fe  Fe6  1  0.52363343  0.55833428  0.25000000  1
  Fe  Fe7  1  0.97636657  0.05833428  0.25000000  1
  O  O8  1  0.13516841  0.43870877  0.25000000  1
  O  O9  1  0.18929026  0.19351955  0.57072243  1
  O  O10  1  0.18929026  0.19351955  0.92927757  1
  O  O11  1  0.31070974  0.69351955  0.92927757  1
  O  O12  1  0.31070974  0.69351955  0.57072243  1
  O  O13  1  0.36483159  0.93870877  0.25000000  1
  O  O14  1  0.63516841  0.06129123  0.75000000  1
  O  O15  1  0.68929026  0.30648045  0.07072243  1
  O  O16  1  0.68929026  0.30648045  0.42927757  1
  O  O17  1  0.81070974  0.80648045  0.07072243  1
  O  O18  1  0.81070974  0.80648045  0.42927757  1
  O  O19  1  0.86483159  0.56129123  0.75000000  1
