# generated using pymatgen
data_LiVF4
_symmetry_space_group_name_H-M   'P 1'
_cell_length_a   7.00715690
_cell_length_b   7.00715690
_cell_length_c   7.19699590
_cell_angle_alpha   75.66205310
_cell_angle_beta   104.33794690
_cell_angle_gamma   96.85678643
_symmetry_Int_Tables_number   1
_chemical_formula_structural   LiVF4
_chemical_formula_sum   'Li4 V4 F16'
_cell_volume   331.06810129
_cell_formula_units_Z   4
loop_
 _symmetry_equiv_pos_site_id
 _symmetry_equiv_pos_as_xyz
  1  'x, y, z'
loop_
 _atom_site_type_symbol
 _atom_site_label
 _atom_site_symmetry_multiplicity
 _atom_site_fract_x
 _atom_site_fract_y
 _atom_site_fract_z
 _atom_site_occupancy
  Li  Li0  1  0.27665900  0.72334100  0.39213245  1
  Li  Li1  1  0.25247367  0.25247367  0.00000000  1
  Li  Li2  1  0.74752633  0.74752633  0.00000000  1
  Li  Li3  1  0.72334100  0.27665900  0.60786755  1
  V  V4  1  0.21112044  0.78887956  0.86425626  1
  V  V5  1  0.19057931  0.19057931  0.50000000  1
  V  V6  1  0.80942069  0.80942069  0.50000000  1
  V  V7  1  0.78887956  0.21112044  0.13574374  1
  F  F8  1  0.13752676  0.86247324  0.54839186  1
  F  F9  1  0.19562878  0.51270168  0.88766719  1
  F  F10  1  0.48729832  0.80437122  0.88766719  1
  F  F11  1  0.19445641  0.80554359  0.11779945  1
  F  F12  1  0.53731513  0.80410045  0.47952104  1
  F  F13  1  0.19589955  0.46268487  0.47952104  1
  F  F14  1  0.20007350  0.10000599  0.78373441  1
  F  F15  1  0.89999401  0.79992650  0.78373441  1
  F  F16  1  0.10000599  0.20007350  0.21626559  1
  F  F17  1  0.79992650  0.89999401  0.21626559  1
  F  F18  1  0.80410045  0.53731513  0.52047896  1
  F  F19  1  0.46268487  0.19589955  0.52047896  1
  F  F20  1  0.80554359  0.19445641  0.88220055  1
  F  F21  1  0.51270168  0.19562878  0.11233281  1
  F  F22  1  0.80437122  0.48729832  0.11233281  1
  F  F23  1  0.86247324  0.13752676  0.45160814  1
