# generated using pymatgen
data_Li3Fe2F9
_symmetry_space_group_name_H-M   'P 1'
_cell_length_a   9.52244783
_cell_length_b   7.81677555
_cell_length_c   10.68220760
_cell_angle_alpha   90.00000000
_cell_angle_beta   90.00000000
_cell_angle_gamma   90.00000000
_symmetry_Int_Tables_number   1
_chemical_formula_structural   Li3Fe2F9
_chemical_formula_sum   'Li12 Fe8 F36'
_cell_volume   795.12838550
_cell_formula_units_Z   4
loop_
 _symmetry_equiv_pos_site_id
 _symmetry_equiv_pos_as_xyz
  1  'x, y, z'
loop_
 _atom_site_type_symbol
 _atom_site_label
 _atom_site_symmetry_multiplicity
 _atom_site_fract_x
 _atom_site_fract_y
 _atom_site_fract_z
 _atom_site_occupancy
  Li  Li0  1  0.01604302  0.75000000  0.84159408  1
  Li  Li1  1  0.03286285  0.75000000  0.53067596  1
  Li  Li2  1  0.11334008  0.25000000  0.84863887  1
  Li  Li3  1  0.38665992  0.75000000  0.34863887  1
  Li  Li4  1  0.46713715  0.25000000  0.03067596  1
  Li  Li5  1  0.48395698  0.25000000  0.34159408  1
  Li  Li6  1  0.51604302  0.75000000  0.65840592  1
  Li  Li7  1  0.53286285  0.75000000  0.96932404  1
  Li  Li8  1  0.61334008  0.25000000  0.65136113  1
  Li  Li9  1  0.88665992  0.75000000  0.15136113  1
  Li  Li10  1  0.96713715  0.25000000  0.46932404  1
  Li  Li11  1  0.98395698  0.25000000  0.15840592  1
  Fe  Fe12  1  0.22675723  0.93954310  0.06811017  1
  Fe  Fe13  1  0.22675723  0.56045690  0.06811017  1
  Fe  Fe14  1  0.27324277  0.06045690  0.56811017  1
  Fe  Fe15  1  0.27324277  0.43954310  0.56811017  1
  Fe  Fe16  1  0.72675723  0.56045690  0.43188983  1
  Fe  Fe17  1  0.72675723  0.93954310  0.43188983  1
  Fe  Fe18  1  0.77324277  0.06045690  0.93188983  1
  Fe  Fe19  1  0.77324277  0.43954310  0.93188983  1
  F  F20  1  0.07610054  0.75000000  0.02443175  1
  F  F21  1  0.09478446  0.05252900  0.16857699  1
  F  F22  1  0.09478446  0.44747100  0.16857699  1
  F  F23  1  0.10740646  0.56039310  0.60893832  1
  F  F24  1  0.10740646  0.93960690  0.60893832  1
  F  F25  1  0.16248730  0.25000000  0.47303835  1
  F  F26  1  0.19305622  0.05232189  0.91593857  1
  F  F27  1  0.19305622  0.44767811  0.91593857  1
  F  F28  1  0.23201560  0.25000000  0.69619716  1
  F  F29  1  0.26798440  0.75000000  0.19619716  1
  F  F30  1  0.30694378  0.94767811  0.41593857  1
  F  F31  1  0.30694378  0.55232189  0.41593857  1
  F  F32  1  0.33751270  0.75000000  0.97303835  1
  F  F33  1  0.39259354  0.06039310  0.10893832  1
  F  F34  1  0.39259354  0.43960690  0.10893832  1
  F  F35  1  0.40521554  0.55252900  0.66857699  1
  F  F36  1  0.40521554  0.94747100  0.66857699  1
  F  F37  1  0.42389946  0.25000000  0.52443175  1
  F  F38  1  0.57610054  0.75000000  0.47556825  1
  F  F39  1  0.59478446  0.05252900  0.33142301  1
  F  F40  1  0.59478446  0.44747100  0.33142301  1
  F  F41  1  0.60740646  0.56039310  0.89106168  1
  F  F42  1  0.60740646  0.93960690  0.89106168  1
  F  F43  1  0.66248730  0.25000000  0.02696165  1
  F  F44  1  0.69305622  0.05232189  0.58406143  1
  F  F45  1  0.69305622  0.44767811  0.58406143  1
  F  F46  1  0.73201560  0.25000000  0.80380284  1
  F  F47  1  0.76798440  0.75000000  0.30380284  1
  F  F48  1  0.80694378  0.55232189  0.08406143  1
  F  F49  1  0.80694378  0.94767811  0.08406143  1
  F  F50  1  0.83751270  0.75000000  0.52696165  1
  F  F51  1  0.89259354  0.06039310  0.39106168  1
  F  F52  1  0.89259354  0.43960690  0.39106168  1
  F  F53  1  0.90521554  0.55252900  0.83142301  1
  F  F54  1  0.90521554  0.94747100  0.83142301  1
  F  F55  1  0.92389946  0.25000000  0.97556825  1
