# generated using pymatgen
data_Li5Fe3Cu2(PO4)6
_symmetry_space_group_name_H-M   'P 1'
_cell_length_a   8.32605110
_cell_length_b   8.52001381
_cell_length_c   8.75337347
_cell_angle_alpha   61.59745486
_cell_angle_beta   62.17418250
_cell_angle_gamma   62.56330126
_symmetry_Int_Tables_number   1
_chemical_formula_structural   Li5Fe3Cu2(PO4)6
_chemical_formula_sum   'Li5 Fe3 Cu2 P6 O24'
_cell_volume   459.73587085
_cell_formula_units_Z   1
loop_
 _symmetry_equiv_pos_site_id
 _symmetry_equiv_pos_as_xyz
  1  'x, y, z'
loop_
 _atom_site_type_symbol
 _atom_site_label
 _atom_site_symmetry_multiplicity
 _atom_site_fract_x
 _atom_site_fract_y
 _atom_site_fract_z
 _atom_site_occupancy
  Li  Li0  1  0.75247317  0.14250166  0.35380186  1
  Li  Li1  1  0.20047080  0.85362750  0.67351878  1
  Li  Li2  1  0.66110778  0.19162173  0.85391489  1
  Li  Li3  1  0.85444820  0.66410095  0.18681970  1
  Li  Li4  1  0.84732415  0.84181853  0.84025645  1
  Fe  Fe5  1  0.14792622  0.14263660  0.14230159  1
  Fe  Fe6  1  0.35301586  0.36030815  0.35233449  1
  Fe  Fe7  1  0.64877379  0.64851910  0.65664282  1
  Cu  Cu8  1  0.00270969  0.00025537  0.99368767  1
  Cu  Cu9  1  0.49206987  0.50226427  0.50374202  1
  P  P10  1  0.75382479  0.44902522  0.05026444  1
  P  P11  1  0.06362395  0.74879883  0.45889941  1
  P  P12  1  0.44260690  0.05158675  0.75633210  1
  P  P13  1  0.25393677  0.54597061  0.96022749  1
  P  P14  1  0.55519789  0.96180236  0.25627159  1
  P  P15  1  0.94145358  0.25384236  0.53358986  1
  O  O16  1  0.10332066  0.33402326  0.46383724  1
  O  O17  1  0.33481893  0.49407660  0.10822938  1
  O  O18  1  0.06158627  0.90917044  0.27107773  1
  O  O19  1  0.52826304  0.10446463  0.33189034  1
  O  O20  1  0.04259283  0.80843587  0.60560149  1
  O  O21  1  0.26172172  0.58906657  0.42909274  1
  O  O22  1  0.24207965  0.06302350  0.91122385  1
  O  O23  1  0.43235289  0.24119288  0.59082169  1
  O  O24  1  0.18715530  0.38604426  0.99941363  1
  O  O25  1  0.60052095  0.41729201  0.24526511  1
  O  O26  1  0.09217162  0.73772345  0.95313528  1
  O  O27  1  0.38716213  0.01876515  0.19260211  1
  O  O28  1  0.59340939  0.02184142  0.82644387  1
  O  O29  1  0.90461008  0.24442396  0.07292757  1
  O  O30  1  0.40238875  0.57689479  0.76205236  1
  O  O31  1  0.82036311  0.60081371  0.02206213  1
  O  O32  1  0.57460054  0.75968137  0.40303516  1
  O  O33  1  0.74694750  0.95089376  0.09265971  1
  O  O34  1  0.73714221  0.40831313  0.57073378  1
  O  O35  1  0.95606268  0.19471628  0.38493134  1
  O  O36  1  0.48591574  0.89089184  0.69290683  1
  O  O37  1  0.94412045  0.09806343  0.72034975  1
  O  O38  1  0.69252843  0.48949928  0.89059952  1
  O  O39  1  0.89720172  0.67900943  0.50950322  1
