# generated using pymatgen
data_LiFe2F9
_symmetry_space_group_name_H-M   'P 1'
_cell_length_a   7.83954114
_cell_length_b   7.31588027
_cell_length_c   8.08532356
_cell_angle_alpha   115.44444997
_cell_angle_beta   118.99941196
_cell_angle_gamma   57.60254738
_symmetry_Int_Tables_number   1
_chemical_formula_structural   LiFe2F9
_chemical_formula_sum   'Li2 Fe4 F18'
_cell_volume   333.26762810
_cell_formula_units_Z   2
loop_
 _symmetry_equiv_pos_site_id
 _symmetry_equiv_pos_as_xyz
  1  'x, y, z'
loop_
 _atom_site_type_symbol
 _atom_site_label
 _atom_site_symmetry_multiplicity
 _atom_site_fract_x
 _atom_site_fract_y
 _atom_site_fract_z
 _atom_site_occupancy
  Li  Li0  1  0.04431171  0.97162079  0.78114016  1
  Li  Li1  1  0.76520667  0.47162079  0.28114016  1
  Fe  Fe2  1  0.05082981  0.87830591  0.29529069  1
  Fe  Fe3  1  0.84186829  0.60248084  0.79862890  1
  Fe  Fe4  1  0.36615497  0.37830591  0.79529069  1
  Fe  Fe5  1  0.35428077  0.10248084  0.29862890  1
  F  F6  1  0.82290570  0.86541479  0.81430572  1
  F  F7  1  0.24621590  0.01447949  0.41461064  1
  F  F8  1  0.01057011  0.92196849  0.51702604  1
  F  F9  1  0.88165817  0.72807501  0.09828816  1
  F  F10  1  0.58414216  0.84151753  0.31621816  1
  F  F11  1  0.24881283  0.63188863  0.72742405  1
  F  F12  1  0.56195950  0.70149535  0.74962196  1
  F  F13  1  0.86680964  0.49180304  0.55220041  1
  F  F14  1  0.27945366  0.62723311  0.29966910  1
  F  F15  1  0.12598523  0.36541479  0.31430572  1
  F  F16  1  0.58448744  0.42196849  0.01702604  1
  F  F17  1  0.15391526  0.51447949  0.91461064  1
  F  F18  1  0.84672359  0.13188863  0.22742405  1
  F  F19  1  0.48855497  0.22807501  0.59828816  1
  F  F20  1  0.89055847  0.34151753  0.81621816  1
  F  F21  1  0.48616710  0.20149535  0.24962196  1
  F  F22  1  0.19358772  0.99180304  0.05220041  1
  F  F23  1  0.39298233  0.12723311  0.79966910  1
