# generated using pymatgen
data_Li3LaNiO4
_symmetry_space_group_name_H-M   'P 1'
_cell_length_a   10.28679877
_cell_length_b   10.28679877
_cell_length_c   10.28679877
_cell_angle_alpha   112.98396060
_cell_angle_beta   112.98396060
_cell_angle_gamma   102.65342583
_symmetry_Int_Tables_number   1
_chemical_formula_structural   Li3LaNiO4
_chemical_formula_sum   'Li24 La8 Ni8 O32'
_cell_volume   829.19965942
_cell_formula_units_Z   8
loop_
 _symmetry_equiv_pos_site_id
 _symmetry_equiv_pos_as_xyz
  1  'x, y, z'
loop_
 _atom_site_type_symbol
 _atom_site_label
 _atom_site_symmetry_multiplicity
 _atom_site_fract_x
 _atom_site_fract_y
 _atom_site_fract_z
 _atom_site_occupancy
  Li  Li0  1  0.92107561  0.10114268  0.14293938  1
  Li  Li1  1  0.82892439  0.14885732  0.35706062  1
  Li  Li2  1  0.89885732  0.04179670  0.81993292  1
  Li  Li3  1  0.52813723  0.17107661  0.31993292  1
  Li  Li4  1  0.46701281  0.31860395  0.15793383  1
  Li  Li5  1  0.72625076  0.57962107  0.17446065  1
  Li  Li6  1  0.22186277  0.07892439  0.18006708  1
  Li  Li7  1  0.85114268  0.20820330  0.68006708  1
  Li  Li8  1  0.68139605  0.83932988  0.14840886  1
  Li  Li9  1  0.42037893  0.59483958  0.14662869  1
  Li  Li10  1  0.79179670  0.47186277  0.64293938  1
  Li  Li11  1  0.95820330  0.77813723  0.85706062  1
  Li  Li12  1  0.44820989  0.27374924  0.85337031  1
  Li  Li13  1  0.32962107  0.65516042  0.35337031  1
  Li  Li14  1  0.06860395  0.41067012  0.35159114  1
  Li  Li15  1  0.69092003  0.53298719  0.85159114  1
  Li  Li16  1  0.02374924  0.67037893  0.32553935  1
  Li  Li17  1  0.40516042  0.55179011  0.82553935  1
  Li  Li18  1  0.58932988  0.94092003  0.65793383  1
  Li  Li19  1  0.28298719  0.93139605  0.34206617  1
  Li  Li20  1  0.16067012  0.30907997  0.84206617  1
  Li  Li21  1  0.34483958  0.69820989  0.67446065  1
  Li  Li22  1  0.05907997  0.71701281  0.64840886  1
  Li  Li23  1  0.30179011  0.97625076  0.64662969  1
  La  La24  1  0.56072035  0.03424221  0.99788170  1
  La  La25  1  0.43716134  0.43927965  0.47352185  1
  La  La26  1  0.78424221  0.28636051  0.97352185  1
  La  La27  1  0.71363949  0.68716134  0.49788170  1
  La  La28  1  0.18927965  0.21575779  0.50211830  1
  La  La29  1  0.96575779  0.96363949  0.52647815  1
  La  La30  1  0.31283866  0.81072035  0.02647815  1
  La  La31  1  0.03636051  0.56283866  0.00211830  1
  Ni  Ni32  1  0.77300047  0.40739429  0.31074823  1
  Ni  Ni33  1  0.53774776  0.22699953  0.63439382  1
  Ni  Ni34  1  0.15739429  0.34664606  0.13439382  1
  Ni  Ni35  1  0.59260571  0.90335394  0.36560618  1
  Ni  Ni36  1  0.65335394  0.78774776  0.81074823  1
  Ni  Ni37  1  0.97699953  0.84260571  0.18925177  1
  Ni  Ni38  1  0.09664606  0.46225224  0.68925177  1
  Ni  Ni39  1  0.21225224  0.02300047  0.86560618  1
  O  O40  1  0.84183223  0.25323660  0.22937590  1
  O  O41  1  0.36245532  0.09183223  0.08859562  1
  O  O42  1  0.61421338  0.34381439  0.07794813  1
  O  O43  1  0.85693878  0.61260311  0.08217874  1
  O  O44  1  0.89306122  0.63739689  0.41782126  1
  O  O45  1  0.64037902  0.40240740  0.40899126  1
  O  O46  1  0.38754468  0.15816777  0.41140438  1
  O  O47  1  0.38739689  0.46957462  0.24433567  1
  O  O48  1  0.52476105  0.10693878  0.74433567  1
  O  O49  1  0.90816777  0.99676340  0.27062410  1
  O  O50  1  0.15240740  0.24341715  0.26202838  1
  O  O51  1  0.76861223  0.35962098  0.76202838  1
  O  O52  1  0.65618561  0.73413375  0.27039799  1
  O  O53  1  0.09381439  0.51586625  0.22960201  1
  O  O54  1  0.46373576  0.38578662  0.72960201  1
  O  O55  1  0.59759260  0.00658285  0.23797162  1
  O  O56  1  0.72613930  0.63754468  0.72937590  1
  O  O57  1  0.22523895  0.14306122  0.75566433  1
  O  O58  1  0.36260311  0.78042538  0.25566433  1
  O  O59  1  0.74676340  0.97613930  0.58859562  1
  O  O60  1  0.48413375  0.71373576  0.57794813  1
  O  O61  1  0.99341715  0.23138777  0.59100874  1
  O  O62  1  0.10962098  0.84759260  0.09100874  1
  O  O63  1  0.21957462  0.47523895  0.58217874  1
  O  O64  1  0.53042538  0.77476105  0.91782126  1
  O  O65  1  0.75658285  0.01861223  0.90899126  1
  O  O66  1  0.26586625  0.53626424  0.92205187  1
  O  O67  1  0.13578662  0.90618561  0.42205187  1
  O  O68  1  0.00323660  0.27386070  0.91140438  1
  O  O69  1  0.02386070  0.61245532  0.77062410  1
  O  O70  1  0.28626424  0.86421338  0.77039799  1
  O  O71  1  0.98138777  0.89037902  0.73797162  1
