# generated using pymatgen
data_Li3MnB8O15
_symmetry_space_group_name_H-M   'P 1'
_cell_length_a   9.30286493
_cell_length_b   11.36637901
_cell_length_c   11.96710776
_cell_angle_alpha   90.00000000
_cell_angle_beta   89.62667302
_cell_angle_gamma   90.00000000
_symmetry_Int_Tables_number   1
_chemical_formula_structural   Li3MnB8O15
_chemical_formula_sum   'Li12 Mn4 B32 O60'
_cell_volume   1265.37378111
_cell_formula_units_Z   4
loop_
 _symmetry_equiv_pos_site_id
 _symmetry_equiv_pos_as_xyz
  1  'x, y, z'
loop_
 _atom_site_type_symbol
 _atom_site_label
 _atom_site_symmetry_multiplicity
 _atom_site_fract_x
 _atom_site_fract_y
 _atom_site_fract_z
 _atom_site_occupancy
  Li  Li0  1  0.07693655  0.07447180  0.58358390  1
  Li  Li1  1  0.10114815  0.66770433  0.54901867  1
  Li  Li2  1  0.07693655  0.42552820  0.08358390  1
  Li  Li3  1  0.10114815  0.83229567  0.04901867  1
  Li  Li4  1  0.47608966  0.17603116  0.71433448  1
  Li  Li5  1  0.47608966  0.32396884  0.21433448  1
  Li  Li6  1  0.52391034  0.67603116  0.78566552  1
  Li  Li7  1  0.52391034  0.82396884  0.28566552  1
  Li  Li8  1  0.89885185  0.16770433  0.95098133  1
  Li  Li9  1  0.92306345  0.57447180  0.91641610  1
  Li  Li10  1  0.89885185  0.33229567  0.45098133  1
  Li  Li11  1  0.92306345  0.92552820  0.41641610  1
  Mn  Mn12  1  0.24767395  0.16357716  0.97682507  1
  Mn  Mn13  1  0.24767395  0.33642284  0.47682507  1
  Mn  Mn14  1  0.75232605  0.66357716  0.52317493  1
  Mn  Mn15  1  0.75232605  0.83642284  0.02317493  1
  B  B16  1  0.10394048  0.33564701  0.88444616  1
  B  B17  1  0.10394048  0.16435299  0.38444616  1
  B  B18  1  0.13684380  0.74572006  0.78599140  1
  B  B19  1  0.13684380  0.75427994  0.28599140  1
  B  B20  1  0.17639872  0.53306492  0.81431583  1
  B  B21  1  0.17639872  0.96693508  0.31431583  1
  B  B22  1  0.18944890  0.94488459  0.84852718  1
  B  B23  1  0.22344354  0.35426076  0.70398544  1
  B  B24  1  0.18944890  0.55511541  0.34852718  1
  B  B25  1  0.22344354  0.14573924  0.20398544  1
  B  B26  1  0.27898227  0.88004597  0.66640901  1
  B  B27  1  0.27898227  0.61995403  0.16640901  1
  B  B28  1  0.34545505  0.60015247  0.96712218  1
  B  B29  1  0.34545505  0.89984753  0.46712218  1
  B  B30  1  0.50849036  0.28041855  0.90951798  1
  B  B31  1  0.50849036  0.21958145  0.40951798  1
  B  B32  1  0.49150964  0.78041855  0.59048202  1
  B  B33  1  0.49150964  0.71958145  0.09048202  1
  B  B34  1  0.65454495  0.10015247  0.53287782  1
  B  B35  1  0.65454495  0.39984753  0.03287782  1
  B  B36  1  0.72101773  0.38004597  0.83359099  1
  B  B37  1  0.72101773  0.11995403  0.33359099  1
  B  B38  1  0.77655546  0.85426076  0.79601456  1
  B  B39  1  0.81055110  0.44488459  0.65147282  1
  B  B40  1  0.77655546  0.64573924  0.29601456  1
  B  B41  1  0.81055110  0.05511541  0.15147282  1
  B  B42  1  0.82360128  0.03306492  0.68568417  1
  B  B43  1  0.82360128  0.46693508  0.18568417  1
  B  B44  1  0.86315620  0.24572006  0.71400860  1
  B  B45  1  0.86315620  0.25427994  0.21400860  1
  B  B46  1  0.89605952  0.83564701  0.61555384  1
  B  B47  1  0.89605952  0.66435299  0.11555384  1
  O  O48  1  0.09366828  0.45548178  0.89400137  1
  O  O49  1  0.07417967  0.26589460  0.97525680  1
  O  O50  1  0.08215882  0.63640479  0.80714497  1
  O  O51  1  0.09366828  0.04451822  0.39400137  1
  O  O52  1  0.07417967  0.23410540  0.47525680  1
  O  O53  1  0.08215882  0.86359521  0.30714497  1
  O  O54  1  0.15279467  0.82627528  0.87378138  1
  O  O55  1  0.16355977  0.28468722  0.78972086  1
  O  O56  1  0.15279467  0.67372472  0.37378138  1
  O  O57  1  0.16355977  0.21531278  0.28972086  1
  O  O58  1  0.15999264  0.02280802  0.92973638  1
  O  O59  1  0.15999264  0.47719198  0.42973638  1
  O  O60  1  0.17466566  0.77801316  0.67918422  1
  O  O61  1  0.20417675  0.47402610  0.70683650  1
  O  O62  1  0.17466566  0.72198684  0.17918422  1
  O  O63  1  0.20417675  0.02597390  0.20683650  1
  O  O64  1  0.29806562  0.29300590  0.62397658  1
  O  O65  1  0.25928557  0.93134251  0.55525090  1
  O  O66  1  0.29806562  0.20699410  0.12397658  1
  O  O67  1  0.24791028  0.97268042  0.74695348  1
  O  O68  1  0.25928557  0.56865749  0.05525090  1
  O  O69  1  0.24791028  0.52731958  0.24695348  1
  O  O70  1  0.32023563  0.56941241  0.85874025  1
  O  O71  1  0.32023563  0.93058759  0.35874025  1
  O  O72  1  0.42186097  0.18580602  0.89242325  1
  O  O73  1  0.42186097  0.31419398  0.39242325  1
  O  O74  1  0.42309606  0.82749427  0.68275049  1
  O  O75  1  0.46654558  0.67158008  0.98387040  1
  O  O76  1  0.42309606  0.67250573  0.18275049  1
  O  O77  1  0.46654558  0.82841992  0.48387040  1
  O  O78  1  0.53345442  0.17158008  0.51612960  1
  O  O79  1  0.57690394  0.32749427  0.81724951  1
  O  O80  1  0.53345442  0.32841992  0.01612960  1
  O  O81  1  0.57690394  0.17250573  0.31724951  1
  O  O82  1  0.57813903  0.68580602  0.60757675  1
  O  O83  1  0.57813903  0.81419398  0.10757675  1
  O  O84  1  0.67976437  0.06941241  0.64125975  1
  O  O85  1  0.67976437  0.43058759  0.14125975  1
  O  O86  1  0.75208972  0.47268042  0.75304652  1
  O  O87  1  0.74071443  0.43134251  0.94474910  1
  O  O88  1  0.75208972  0.02731958  0.25304652  1
  O  O89  1  0.70193438  0.79300590  0.87602342  1
  O  O90  1  0.74071443  0.06865749  0.44474910  1
  O  O91  1  0.70193438  0.70699410  0.37602342  1
  O  O92  1  0.79582325  0.97402610  0.79316350  1
  O  O93  1  0.82533434  0.27801316  0.82081578  1
  O  O94  1  0.79582325  0.52597390  0.29316350  1
  O  O95  1  0.82533434  0.22198684  0.32081578  1
  O  O96  1  0.84000736  0.52280802  0.57026362  1
  O  O97  1  0.84000736  0.97719198  0.07026362  1
  O  O98  1  0.83644023  0.78468722  0.71027914  1
  O  O99  1  0.84720533  0.32627528  0.62621862  1
  O  O100  1  0.83644023  0.71531278  0.21027914  1
  O  O101  1  0.84720533  0.17372472  0.12621862  1
  O  O102  1  0.91784118  0.13640479  0.69285503  1
  O  O103  1  0.92582033  0.76589460  0.52474320  1
  O  O104  1  0.90633172  0.95548178  0.60599863  1
  O  O105  1  0.91784118  0.36359521  0.19285503  1
  O  O106  1  0.92582033  0.73410540  0.02474320  1
  O  O107  1  0.90633172  0.54451822  0.10599863  1
