# generated using pymatgen
data_Li2Mn3F8
_symmetry_space_group_name_H-M   'P 1'
_cell_length_a   6.17530447
_cell_length_b   9.45813069
_cell_length_c   5.67482132
_cell_angle_alpha   93.03517935
_cell_angle_beta   90.00000000
_cell_angle_gamma   70.94626265
_symmetry_Int_Tables_number   1
_chemical_formula_structural   Li2Mn3F8
_chemical_formula_sum   'Li4 Mn6 F16'
_cell_volume   312.79729561
_cell_formula_units_Z   2
loop_
 _symmetry_equiv_pos_site_id
 _symmetry_equiv_pos_as_xyz
  1  'x, y, z'
loop_
 _atom_site_type_symbol
 _atom_site_label
 _atom_site_symmetry_multiplicity
 _atom_site_fract_x
 _atom_site_fract_y
 _atom_site_fract_z
 _atom_site_occupancy
  Li  Li0  1  0.96616718  0.79499160  0.71554866  1
  Li  Li1  1  0.23884122  0.79499160  0.21554866  1
  Li  Li2  1  0.76115878  0.20500840  0.78445134  1
  Li  Li3  1  0.03383282  0.20500840  0.28445134  1
  Mn  Mn4  1  0.54626278  0.58531696  0.76567210  1
  Mn  Mn5  1  0.86842026  0.58531696  0.26567210  1
  Mn  Mn6  1  0.13157974  0.41468304  0.73432790  1
  Mn  Mn7  1  0.45373722  0.41468304  0.23432790  1
  Mn  Mn8  1  0.36101185  0.00000000  0.75000000  1
  Mn  Mn9  1  0.63898815  0.00000000  0.25000000  1
  F  F10  1  0.68817394  0.87932108  0.91451411  1
  F  F11  1  0.43250498  0.87932108  0.41451411  1
  F  F12  1  0.22537186  0.83463232  0.87070788  1
  F  F13  1  0.93999582  0.83463232  0.37070788  1
  F  F14  1  0.28333803  0.58522095  0.54466549  1
  F  F15  1  0.13144101  0.58522095  0.04466549  1
  F  F16  1  0.84076706  0.62762734  0.63680232  1
  F  F17  1  0.53160560  0.62762734  0.13680232  1
  F  F18  1  0.46839440  0.37237266  0.86319768  1
  F  F19  1  0.15923294  0.37237266  0.36319768  1
  F  F20  1  0.86855899  0.41477905  0.95533451  1
  F  F21  1  0.71666197  0.41477905  0.45533451  1
  F  F22  1  0.06000418  0.16536768  0.62929212  1
  F  F23  1  0.77462814  0.16536768  0.12929212  1
  F  F24  1  0.56749502  0.12067892  0.58548589  1
  F  F25  1  0.31182606  0.12067892  0.08548589  1
