# generated using pymatgen
data_LiCr(PO3)4
_symmetry_space_group_name_H-M   'P 1'
_cell_length_a   7.24580187
_cell_length_b   7.64400183
_cell_length_c   8.41058217
_cell_angle_alpha   90.00000000
_cell_angle_beta   90.00000000
_cell_angle_gamma   91.97551284
_symmetry_Int_Tables_number   1
_chemical_formula_structural   LiCr(PO3)4
_chemical_formula_sum   'Li2 Cr2 P8 O24'
_cell_volume   465.55939596
_cell_formula_units_Z   2
loop_
 _symmetry_equiv_pos_site_id
 _symmetry_equiv_pos_as_xyz
  1  'x, y, z'
loop_
 _atom_site_type_symbol
 _atom_site_label
 _atom_site_symmetry_multiplicity
 _atom_site_fract_x
 _atom_site_fract_y
 _atom_site_fract_z
 _atom_site_occupancy
  Li  Li0  1  0.26858162  0.85528122  0.69673400  1
  Li  Li1  1  0.73141838  0.14471878  0.19673400  1
  Cr  Cr2  1  0.26354860  0.33609777  0.49198768  1
  Cr  Cr3  1  0.73645140  0.66390223  0.99198768  1
  P  P4  1  0.08457193  0.98286361  0.29296674  1
  P  P5  1  0.06609228  0.37064503  0.87512996  1
  P  P6  1  0.35210717  0.80793002  0.07194609  1
  P  P7  1  0.37115818  0.43776531  0.12432344  1
  P  P8  1  0.62884182  0.56223469  0.62432344  1
  P  P9  1  0.64789283  0.19206998  0.57194609  1
  P  P10  1  0.93390772  0.62935497  0.37512996  1
  P  P11  1  0.91542807  0.01713639  0.79296674  1
  O  O12  1  0.06196208  0.80392870  0.39797216  1
  O  O13  1  0.05159913  0.47954058  0.41856230  1
  O  O14  1  0.27103947  0.80940226  0.91145329  1
  O  O15  1  0.07415610  0.00220285  0.68568078  1
  O  O16  1  0.16492648  0.37575302  0.71933403  1
  O  O17  1  0.27314505  0.94609352  0.19373068  1
  O  O18  1  0.13240362  0.12772537  0.40558582  1
  O  O19  1  0.21551596  0.34149708  0.01706081  1
  O  O20  1  0.29097033  0.62554725  0.16153068  1
  O  O21  1  0.38340519  0.33720808  0.27709945  1
  O  O22  1  0.56110210  0.83150442  0.08624354  1
  O  O23  1  0.44689276  0.54543870  0.53632954  1
  O  O24  1  0.55310724  0.45456130  0.03632954  1
  O  O25  1  0.43889790  0.16849558  0.58624354  1
  O  O26  1  0.61659481  0.66279192  0.77709945  1
  O  O27  1  0.70902967  0.37445275  0.66153068  1
  O  O28  1  0.78448404  0.65850292  0.51706081  1
  O  O29  1  0.86759638  0.87227463  0.90558582  1
  O  O30  1  0.72685495  0.05390648  0.69373068  1
  O  O31  1  0.83507352  0.62424698  0.21933403  1
  O  O32  1  0.92584390  0.99779715  0.18568078  1
  O  O33  1  0.72896053  0.19059774  0.41145329  1
  O  O34  1  0.94840087  0.52045942  0.91856230  1
  O  O35  1  0.93803792  0.19607130  0.89797216  1
