# generated using pymatgen
data_LiFeF3
_symmetry_space_group_name_H-M   'P 1'
_cell_length_a   10.57564361
_cell_length_b   10.57564361
_cell_length_c   10.57564361
_cell_angle_alpha   108.72611314
_cell_angle_beta   108.72611314
_cell_angle_gamma   110.97193928
_symmetry_Int_Tables_number   1
_chemical_formula_structural   LiFeF3
_chemical_formula_sum   'Li16 Fe16 F48'
_cell_volume   910.06906265
_cell_formula_units_Z   16
loop_
 _symmetry_equiv_pos_site_id
 _symmetry_equiv_pos_as_xyz
  1  'x, y, z'
loop_
 _atom_site_type_symbol
 _atom_site_label
 _atom_site_symmetry_multiplicity
 _atom_site_fract_x
 _atom_site_fract_y
 _atom_site_fract_z
 _atom_site_occupancy
  Li  Li0  1  0.87767532  0.25509689  0.12391587  1
  Li  Li1  1  0.50000000  0.00000000  0.00000000  1
  Li  Li2  1  0.75509689  0.13118102  0.37742156  1
  Li  Li3  1  0.87500000  0.62500000  0.25000000  1
  Li  Li4  1  0.00000000  0.00000000  0.00000000  1
  Li  Li5  1  0.50000000  0.00000000  0.50000000  1
  Li  Li6  1  0.37500000  0.12500000  0.25000000  1
  Li  Li7  1  0.25375946  0.37767532  0.12257844  1
  Li  Li8  1  0.36881898  0.24624054  0.62391587  1
  Li  Li9  1  0.50000000  0.50000000  0.50000000  1
  Li  Li10  1  0.63118102  0.75375946  0.37608413  1
  Li  Li11  1  0.74624054  0.62232468  0.87742156  1
  Li  Li12  1  0.12500000  0.37500000  0.75000000  1
  Li  Li13  1  0.62500000  0.87500000  0.75000000  1
  Li  Li14  1  0.24490311  0.86881898  0.62257844  1
  Li  Li15  1  0.12232468  0.74490311  0.87608413  1
  Fe  Fe16  1  0.86946035  0.11946035  0.75000000  1
  Fe  Fe17  1  0.50000000  0.50000000  0.00000000  1
  Fe  Fe18  1  0.61946035  0.36946035  0.25000000  1
  Fe  Fe19  1  0.76105371  0.89814545  0.12547179  1
  Fe  Fe20  1  0.72732534  0.36441808  0.62547179  1
  Fe  Fe21  1  0.86441808  0.73894629  0.63709174  1
  Fe  Fe22  1  0.39814545  0.77267466  0.13709174  1
  Fe  Fe23  1  0.00000000  0.50000000  0.00000000  1
  Fe  Fe24  1  0.00000000  0.00000000  0.50000000  1
  Fe  Fe25  1  0.60185455  0.22732534  0.86290826  1
  Fe  Fe26  1  0.13558192  0.26105371  0.36290826  1
  Fe  Fe27  1  0.23894629  0.10185455  0.87452821  1
  Fe  Fe28  1  0.27267466  0.63558192  0.37452821  1
  Fe  Fe29  1  0.13053965  0.88053965  0.25000000  1
  Fe  Fe30  1  0.38053965  0.63053965  0.75000000  1
  Fe  Fe31  1  0.00000000  0.50000000  0.50000000  1
  F  F32  1  0.92658946  0.11187853  0.14634649  1
  F  F33  1  0.92827363  0.10472391  0.38435381  1
  F  F34  1  0.41531116  0.13912868  0.09148741  1
  F  F35  1  0.67793596  0.45203763  0.09231991  1
  F  F36  1  0.69719169  0.14845316  0.52397566  1
  F  F37  1  0.77675391  0.30828664  0.36610145  1
  F  F38  1  0.44218418  0.41065146  0.13389855  1
  F  F39  1  0.17617625  0.08468884  0.22381752  1
  F  F40  1  0.63912868  0.04764127  0.72381752  1
  F  F41  1  0.12447749  0.17321603  0.97602434  1
  F  F42  1  0.85971672  0.58561605  0.40768009  1
  F  F43  1  0.95203763  0.35971672  0.77410167  1
  F  F44  1  0.91438395  0.82206404  0.27410167  1
  F  F45  1  0.54764127  0.32382375  0.40851259  1
  F  F46  1  0.53446796  0.21975703  0.64634649  1
  F  F47  1  0.60472391  0.72037010  0.17645027  1
  F  F48  1  0.95608017  0.57172637  0.67645027  1
  F  F49  1  0.91065146  0.27675391  0.96846727  1
  F  F50  1  0.19171336  0.05781582  0.46846727  1
  F  F51  1  0.67321603  0.19719169  0.04873854  1
  F  F52  1  0.35154684  0.37552251  0.54873854  1
  F  F53  1  0.22037010  0.54391983  0.11564619  1
  F  F54  1  0.38812147  0.03446796  0.81471093  1
  F  F55  1  0.28024297  0.42658946  0.31471093  1
  F  F56  1  0.71975703  0.57341054  0.68528907  1
  F  F57  1  0.61187853  0.96553204  0.18528907  1
  F  F58  1  0.77962990  0.45608017  0.88435381  1
  F  F59  1  0.32678397  0.80280831  0.95126146  1
  F  F60  1  0.64845316  0.62447749  0.45126146  1
  F  F61  1  0.08934854  0.72324609  0.03153273  1
  F  F62  1  0.80828664  0.94218418  0.53153273  1
  F  F63  1  0.04391983  0.42827363  0.32354973  1
  F  F64  1  0.39527609  0.27962990  0.82354973  1
  F  F65  1  0.46553204  0.78024297  0.35365351  1
  F  F66  1  0.45235873  0.67617625  0.59148741  1
  F  F67  1  0.04796237  0.64028328  0.22589833  1
  F  F68  1  0.08561605  0.17793596  0.72589833  1
  F  F69  1  0.14028328  0.41438395  0.59231991  1
  F  F70  1  0.87552251  0.82678397  0.02397566  1
  F  F71  1  0.36087132  0.95235873  0.27618248  1
  F  F72  1  0.82382375  0.91531116  0.77618248  1
  F  F73  1  0.55781582  0.58934854  0.86610145  1
  F  F74  1  0.22324609  0.69171336  0.63389855  1
  F  F75  1  0.30280831  0.85154684  0.47602434  1
  F  F76  1  0.32206404  0.54796237  0.90768009  1
  F  F77  1  0.58468884  0.86087132  0.90851259  1
  F  F78  1  0.07172637  0.89527609  0.61564619  1
  F  F79  1  0.07341054  0.88812147  0.85365351  1
