# generated using pymatgen
data_LiFe2O3F
_symmetry_space_group_name_H-M   'P 1'
_cell_length_a   5.99067849
_cell_length_b   8.02681498
_cell_length_c   8.02681498
_cell_angle_alpha   116.06454491
_cell_angle_beta   112.30918563
_cell_angle_gamma   67.69081437
_symmetry_Int_Tables_number   1
_chemical_formula_structural   LiFe2O3F
_chemical_formula_sum   'Li4 Fe8 O12 F4'
_cell_volume   310.07583507
_cell_formula_units_Z   4
loop_
 _symmetry_equiv_pos_site_id
 _symmetry_equiv_pos_as_xyz
  1  'x, y, z'
loop_
 _atom_site_type_symbol
 _atom_site_label
 _atom_site_symmetry_multiplicity
 _atom_site_fract_x
 _atom_site_fract_y
 _atom_site_fract_z
 _atom_site_occupancy
  Li  Li0  1  0.36423217  0.98827497  0.25110915  1
  Li  Li1  1  0.12643526  0.26323780  0.99621673  1
  Li  Li2  1  0.86423217  0.74889085  0.01172503  1
  Li  Li3  1  0.62643526  0.00378327  0.73676220  1
  Fe  Fe4  1  0.75843124  0.23459467  0.22162602  1
  Fe  Fe5  1  0.01825276  0.99013265  0.50365908  1
  Fe  Fe6  1  0.51825276  0.49634092  0.00986735  1
  Fe  Fe7  1  0.88291663  0.62948083  0.37526841  1
  Fe  Fe8  1  0.11895726  0.35820053  0.61290146  1
  Fe  Fe9  1  0.61895726  0.38709854  0.64179947  1
  Fe  Fe10  1  0.38291663  0.62473159  0.37051917  1
  Fe  Fe11  1  0.25843124  0.77837398  0.76540533  1
  O  O12  1  0.09171601  0.12994885  0.37983194  1
  O  O13  1  0.40883958  0.38540309  0.13919884  1
  O  O14  1  0.86590273  0.38433958  0.14051525  1
  O  O15  1  0.75046732  0.47770797  0.48652394  1
  O  O16  1  0.97251092  0.25207760  0.71669105  1
  O  O17  1  0.52195315  0.72471225  0.25585748  1
  O  O18  1  0.47251092  0.28330895  0.74792240  1
  O  O19  1  0.02195315  0.74414252  0.27528775  1
  O  O20  1  0.25046732  0.51347606  0.52229203  1
  O  O21  1  0.90883958  0.86080116  0.61459691  1
  O  O22  1  0.59171601  0.62016806  0.87005115  1
  O  O23  1  0.36590273  0.85948475  0.61566042  1
  F  F24  1  0.24293748  0.00103234  0.99707288  1
  F  F25  1  0.62644650  0.12954003  0.37220994  1
  F  F26  1  0.12644650  0.62779006  0.87045997  1
  F  F27  1  0.74293748  0.00292712  0.99896766  1
