# generated using pymatgen
data_LiMn3(BO3)3
_symmetry_space_group_name_H-M   'P 1'
_cell_length_a   5.78419220
_cell_length_b   8.11875973
_cell_length_c   9.27977094
_cell_angle_alpha   65.73411373
_cell_angle_beta   101.75392424
_cell_angle_gamma   79.22072705
_symmetry_Int_Tables_number   1
_chemical_formula_structural   LiMn3(BO3)3
_chemical_formula_sum   'Li2 Mn6 B6 O18'
_cell_volume   370.62291636
_cell_formula_units_Z   2
loop_
 _symmetry_equiv_pos_site_id
 _symmetry_equiv_pos_as_xyz
  1  'x, y, z'
loop_
 _atom_site_type_symbol
 _atom_site_label
 _atom_site_symmetry_multiplicity
 _atom_site_fract_x
 _atom_site_fract_y
 _atom_site_fract_z
 _atom_site_occupancy
  Li  Li0  1  0.58910601  0.72331722  0.10394971  1
  Li  Li1  1  0.41089399  0.27668278  0.89605029  1
  Mn  Mn2  1  0.79861123  0.94686230  0.22966883  1
  Mn  Mn3  1  0.92079110  0.33844548  0.13529326  1
  Mn  Mn4  1  0.56412222  0.68350303  0.48689450  1
  Mn  Mn5  1  0.43587778  0.31649697  0.51310550  1
  Mn  Mn6  1  0.07920890  0.66155452  0.86470674  1
  Mn  Mn7  1  0.20138877  0.05313770  0.77033117  1
  B  B8  1  0.88393163  0.38258712  0.42507563  1
  B  B9  1  0.75313737  0.98657453  0.87186122  1
  B  B10  1  0.54643527  0.70042505  0.79314454  1
  B  B11  1  0.45356473  0.29957495  0.20685546  1
  B  B12  1  0.24686263  0.01342547  0.12813878  1
  B  B13  1  0.11606837  0.61741288  0.57492437  1
  O  O14  1  0.79636871  0.88578664  0.03726725  1
  O  O15  1  0.87897864  0.74050618  0.47762770  1
  O  O16  1  0.91173996  0.92820225  0.79426547  1
  O  O17  1  0.81050371  0.47416548  0.25648310  1
  O  O18  1  0.72236837  0.41464390  0.51244748  1
  O  O19  1  0.78442551  0.57884671  0.88968449  1
  O  O20  1  0.45701947  0.85724241  0.22994743  1
  O  O21  1  0.61302673  0.25877148  0.12055050  1
  O  O22  1  0.47035425  0.78806881  0.62510878  1
  O  O23  1  0.52964575  0.21193119  0.37489122  1
  O  O24  1  0.38697327  0.74122852  0.87944950  1
  O  O25  1  0.54298053  0.14275759  0.77005257  1
  O  O26  1  0.21557449  0.42115329  0.11031551  1
  O  O27  1  0.27763163  0.58535610  0.48755252  1
  O  O28  1  0.18949629  0.52583452  0.74351690  1
  O  O29  1  0.08826004  0.07179775  0.20573453  1
  O  O30  1  0.12102136  0.25949382  0.52237230  1
  O  O31  1  0.20363129  0.11421336  0.96273275  1
