# generated using pymatgen
data_Li4CaNiO4
_symmetry_space_group_name_H-M   'P 1'
_cell_length_a   9.27622763
_cell_length_b   5.00787178
_cell_length_c   18.01066493
_cell_angle_alpha   90.00000000
_cell_angle_beta   90.00000000
_cell_angle_gamma   90.00000000
_symmetry_Int_Tables_number   1
_chemical_formula_structural   Li4CaNiO4
_chemical_formula_sum   'Li32 Ca8 Ni8 O32'
_cell_volume   836.67028467
_cell_formula_units_Z   8
loop_
 _symmetry_equiv_pos_site_id
 _symmetry_equiv_pos_as_xyz
  1  'x, y, z'
loop_
 _atom_site_type_symbol
 _atom_site_label
 _atom_site_symmetry_multiplicity
 _atom_site_fract_x
 _atom_site_fract_y
 _atom_site_fract_z
 _atom_site_occupancy
  Li  Li0  1  0.14668235  0.31119261  0.41101257  1
  Li  Li1  1  0.14668235  0.18880739  0.91101257  1
  Li  Li2  1  0.04429855  0.42421425  0.28668997  1
  Li  Li3  1  0.04429855  0.07578575  0.78668997  1
  Li  Li4  1  0.17491361  0.00353220  0.31898274  1
  Li  Li5  1  0.17491361  0.49646780  0.81898274  1
  Li  Li6  1  0.19334859  0.81070851  0.18738144  1
  Li  Li7  1  0.19334859  0.68929149  0.68738144  1
  Li  Li8  1  0.30665141  0.31070851  0.18738144  1
  Li  Li9  1  0.30665141  0.18929149  0.68738144  1
  Li  Li10  1  0.32508639  0.50353220  0.31898274  1
  Li  Li11  1  0.32508639  0.99646780  0.81898274  1
  Li  Li12  1  0.45570145  0.92421425  0.28668997  1
  Li  Li13  1  0.45570145  0.57578575  0.78668997  1
  Li  Li14  1  0.35331765  0.68880739  0.91101257  1
  Li  Li15  1  0.35331765  0.81119261  0.41101257  1
  Li  Li16  1  0.64668235  0.31119261  0.08898743  1
  Li  Li17  1  0.64668235  0.18880739  0.58898743  1
  Li  Li18  1  0.54429855  0.42421425  0.21331003  1
  Li  Li19  1  0.54429855  0.07578575  0.71331003  1
  Li  Li20  1  0.67491361  0.00353220  0.18101726  1
  Li  Li21  1  0.67491361  0.49646780  0.68101726  1
  Li  Li22  1  0.69334859  0.81070851  0.31261856  1
  Li  Li23  1  0.69334859  0.68929149  0.81261856  1
  Li  Li24  1  0.80665141  0.31070851  0.31261856  1
  Li  Li25  1  0.80665141  0.18929149  0.81261856  1
  Li  Li26  1  0.82508639  0.99646780  0.68101726  1
  Li  Li27  1  0.82508639  0.50353220  0.18101726  1
  Li  Li28  1  0.95570145  0.57578575  0.71331003  1
  Li  Li29  1  0.95570145  0.92421425  0.21331003  1
  Li  Li30  1  0.85331765  0.68880739  0.58898743  1
  Li  Li31  1  0.85331765  0.81119261  0.08898743  1
  Ca  Ca32  1  0.12328377  0.75882298  0.51523389  1
  Ca  Ca33  1  0.12328377  0.74117702  0.01523389  1
  Ca  Ca34  1  0.37671623  0.25882298  0.51523389  1
  Ca  Ca35  1  0.37671623  0.24117702  0.01523389  1
  Ca  Ca36  1  0.62328377  0.75882298  0.98476611  1
  Ca  Ca37  1  0.62328377  0.74117702  0.48476611  1
  Ca  Ca38  1  0.87671623  0.25882298  0.98476611  1
  Ca  Ca39  1  0.87671623  0.24117702  0.48476611  1
  Ni  Ni40  1  0.04905409  0.28161391  0.12474520  1
  Ni  Ni41  1  0.04905409  0.21838609  0.62474520  1
  Ni  Ni42  1  0.45094591  0.78161391  0.12474520  1
  Ni  Ni43  1  0.45094591  0.71838609  0.62474520  1
  Ni  Ni44  1  0.54905409  0.28161391  0.37525480  1
  Ni  Ni45  1  0.54905409  0.21838609  0.87525480  1
  Ni  Ni46  1  0.95094591  0.78161391  0.37525480  1
  Ni  Ni47  1  0.95094591  0.71838609  0.87525480  1
  O  O48  1  0.03318833  0.67607894  0.13280976  1
  O  O49  1  0.03318833  0.82392106  0.63280976  1
  O  O50  1  0.12389756  0.24156183  0.01949252  1
  O  O51  1  0.12389756  0.25843817  0.51949252  1
  O  O52  1  0.13184221  0.15485095  0.22088802  1
  O  O53  1  0.13184221  0.34514905  0.72088802  1
  O  O54  1  0.15888907  0.66941318  0.37405921  1
  O  O55  1  0.15888907  0.83058682  0.87405921  1
  O  O56  1  0.34111093  0.16941318  0.37405921  1
  O  O57  1  0.34111093  0.33058682  0.87405921  1
  O  O58  1  0.36815779  0.65485095  0.22088802  1
  O  O59  1  0.36815779  0.84514905  0.72088802  1
  O  O60  1  0.37610244  0.74156183  0.01949252  1
  O  O61  1  0.37610244  0.75843817  0.51949252  1
  O  O62  1  0.46681167  0.17607894  0.13280976  1
  O  O63  1  0.46681167  0.32392106  0.63280976  1
  O  O64  1  0.53318833  0.67607894  0.36719024  1
  O  O65  1  0.53318833  0.82392106  0.86719024  1
  O  O66  1  0.62389756  0.25843817  0.98050748  1
  O  O67  1  0.62389756  0.24156183  0.48050748  1
  O  O68  1  0.63184221  0.15485095  0.27911198  1
  O  O69  1  0.63184221  0.34514905  0.77911198  1
  O  O70  1  0.65888907  0.66941318  0.12594079  1
  O  O71  1  0.65888907  0.83058682  0.62594079  1
  O  O72  1  0.84111093  0.33058682  0.62594079  1
  O  O73  1  0.84111093  0.16941318  0.12594079  1
  O  O74  1  0.86815779  0.65485095  0.27911198  1
  O  O75  1  0.86815779  0.84514905  0.77911198  1
  O  O76  1  0.87610244  0.74156183  0.48050748  1
  O  O77  1  0.87610244  0.75843817  0.98050748  1
  O  O78  1  0.96681167  0.17607894  0.36719024  1
  O  O79  1  0.96681167  0.32392106  0.86719024  1
