# generated using pymatgen
data_Li4TiMn3Cr2(PO4)6
_symmetry_space_group_name_H-M   'P 1'
_cell_length_a   8.51666086
_cell_length_b   8.73528891
_cell_length_c   8.74856794
_cell_angle_alpha   62.29840491
_cell_angle_beta   62.74874267
_cell_angle_gamma   62.97158276
_symmetry_Int_Tables_number   1
_chemical_formula_structural   Li4TiMn3Cr2(PO4)6
_chemical_formula_sum   'Li4 Ti1 Mn3 Cr2 P6 O24'
_cell_volume   487.56925590
_cell_formula_units_Z   1
loop_
 _symmetry_equiv_pos_site_id
 _symmetry_equiv_pos_as_xyz
  1  'x, y, z'
loop_
 _atom_site_type_symbol
 _atom_site_label
 _atom_site_symmetry_multiplicity
 _atom_site_fract_x
 _atom_site_fract_y
 _atom_site_fract_z
 _atom_site_occupancy
  Li  Li0  1  0.75185000  0.15077308  0.35216020  1
  Li  Li1  1  0.27865602  0.85293319  0.65067492  1
  Li  Li2  1  0.64611344  0.27852263  0.85838435  1
  Li  Li3  1  0.86325707  0.64723699  0.28492273  1
  Ti  Ti4  1  0.84771221  0.84316281  0.84925766  1
  Mn  Mn5  1  0.15445374  0.15104331  0.14931934  1
  Mn  Mn6  1  0.34779511  0.35665442  0.34951145  1
  Mn  Mn7  1  0.65478322  0.65288726  0.65762427  1
  Cr  Cr8  1  0.01193165  0.99927960  0.00006966  1
  Cr  Cr9  1  0.49419073  0.50155157  0.50682958  1
  P  P10  1  0.24282705  0.55797812  0.94568504  1
  P  P11  1  0.57239369  0.95370550  0.24457443  1
  P  P12  1  0.93156054  0.24153473  0.54975496  1
  P  P13  1  0.05555006  0.74507705  0.44871249  1
  P  P14  1  0.43979692  0.04711343  0.74862278  1
  P  P15  1  0.74697417  0.44046200  0.05349303  1
  O  O16  1  0.09802248  0.29390639  0.50724502  1
  O  O17  1  0.29468384  0.53568036  0.10115678  1
  O  O18  1  0.05398141  0.91054159  0.27467757  1
  O  O19  1  0.56414135  0.09993319  0.30069599  1
  O  O20  1  0.98214969  0.80847579  0.62120723  1
  O  O21  1  0.24954650  0.60618008  0.44528609  1
  O  O22  1  0.25224012  0.06985732  0.90139659  1
  O  O23  1  0.46000670  0.22642891  0.59416359  1
  O  O24  1  0.17186492  0.40929367  0.98443823  1
  O  O25  1  0.60510062  0.43442537  0.24532417  1
  O  O26  1  0.09078096  0.75738293  0.90747752  1
  O  O27  1  0.41575116  0.01127221  0.17270835  1
  O  O28  1  0.60910489  0.97298935  0.82375826  1
  O  O29  1  0.89949336  0.25364133  0.07616285  1
  O  O30  1  0.39744524  0.57962625  0.75431505  1
  O  O31  1  0.81270374  0.61173168  0.98672668  1
  O  O32  1  0.58519738  0.76240439  0.39397590  1
  O  O33  1  0.77063302  0.91759515  0.08783437  1
  O  O34  1  0.73974976  0.39765584  0.57937270  1
  O  O35  1  0.94717701  0.18061779  0.40490004  1
  O  O36  1  0.46135599  0.90399281  0.67976502  1
  O  O37  1  0.90751310  0.08865900  0.74491103  1
  O  O38  1  0.67399070  0.46365333  0.91094377  1
  O  O39  1  0.91751944  0.66113756  0.47496229  1
