# generated using pymatgen
data_Li4Mn5V(PO4)6
_symmetry_space_group_name_H-M   'P 1'
_cell_length_a   8.57106613
_cell_length_b   8.99030147
_cell_length_c   9.01148373
_cell_angle_alpha   59.76812975
_cell_angle_beta   59.38640623
_cell_angle_gamma   58.93987183
_symmetry_Int_Tables_number   1
_chemical_formula_structural   Li4Mn5V(PO4)6
_chemical_formula_sum   'Li4 Mn5 V1 P6 O24'
_cell_volume   483.85948873
_cell_formula_units_Z   1
loop_
 _symmetry_equiv_pos_site_id
 _symmetry_equiv_pos_as_xyz
  1  'x, y, z'
loop_
 _atom_site_type_symbol
 _atom_site_label
 _atom_site_symmetry_multiplicity
 _atom_site_fract_x
 _atom_site_fract_y
 _atom_site_fract_z
 _atom_site_occupancy
  Li  Li0  1  0.25187206  0.85134730  0.64104426  1
  Li  Li1  1  0.76589564  0.14812174  0.35335450  1
  Li  Li2  1  0.76401886  0.73470161  0.14481932  1
  Li  Li3  1  0.76800076  0.35231982  0.73328152  1
  Mn  Mn4  1  0.01043736  0.99762347  0.00801602  1
  Mn  Mn5  1  0.05568530  0.64573830  0.64743364  1
  Mn  Mn6  1  0.49343886  0.49653485  0.50031292  1
  Mn  Mn7  1  0.44345105  0.85049475  0.85327149  1
  Mn  Mn8  1  0.96160599  0.34991466  0.34328321  1
  V  V9  1  0.55444929  0.15112539  0.14730353  1
  P  P10  1  0.25361826  0.24781806  0.55327443  1
  P  P11  1  0.24591983  0.94967725  0.25087575  1
  P  P12  1  0.24982789  0.55594501  0.94618250  1
  P  P13  1  0.74648748  0.45270997  0.04768442  1
  P  P14  1  0.75614761  0.04676846  0.75232957  1
  P  P15  1  0.73668093  0.75396229  0.44976912  1
  O  O16  1  0.05360550  0.09931278  0.31566070  1
  O  O17  1  0.05665963  0.53759145  0.09277387  1
  O  O18  1  0.05719485  0.31111655  0.53580232  1
  O  O19  1  0.24387873  0.07768818  0.73702495  1
  O  O20  1  0.42761305  0.18791295  0.39008017  1
  O  O21  1  0.28135196  0.39418570  0.56899974  1
  O  O22  1  0.22969911  0.92665932  0.10027954  1
  O  O23  1  0.27864094  0.76660924  0.41231740  1
  O  O24  1  0.56429774  0.61038834  0.00737049  1
  O  O25  1  0.28120350  0.57437548  0.75298451  1
  O  O26  1  0.76055719  0.25747236  0.07255154  1
  O  O27  1  0.58604789  0.99306645  0.81000965  1
  O  O28  1  0.42435333  0.00126176  0.17903758  1
  O  O29  1  0.23586456  0.74907162  0.92300879  1
  O  O30  1  0.72398772  0.42915772  0.24206845  1
  O  O31  1  0.42716983  0.39568701  0.99524596  1
  O  O32  1  0.72635408  0.24226831  0.60242491  1
  O  O33  1  0.76011519  0.07639324  0.91085050  1
  O  O34  1  0.72759135  0.60085316  0.41963579  1
  O  O35  1  0.54572084  0.81289355  0.59878689  1
  O  O36  1  0.75698491  0.91187099  0.25455835  1
  O  O37  1  0.91243204  0.69979375  0.48973391  1
  O  O38  1  0.92952620  0.48148704  0.89868959  1
  O  O39  1  0.95161369  0.90108116  0.69486819  1
