# generated using pymatgen
data_LiFeF3
_symmetry_space_group_name_H-M   'P 1'
_cell_length_a   7.91519087
_cell_length_b   6.96710572
_cell_length_c   12.14921931
_cell_angle_alpha   94.38548094
_cell_angle_beta   73.85156948
_cell_angle_gamma   89.36666491
_symmetry_Int_Tables_number   1
_chemical_formula_structural   LiFeF3
_chemical_formula_sum   'Li10 Fe10 F30'
_cell_volume   641.29633193
_cell_formula_units_Z   10
loop_
 _symmetry_equiv_pos_site_id
 _symmetry_equiv_pos_as_xyz
  1  'x, y, z'
loop_
 _atom_site_type_symbol
 _atom_site_label
 _atom_site_symmetry_multiplicity
 _atom_site_fract_x
 _atom_site_fract_y
 _atom_site_fract_z
 _atom_site_occupancy
  Li  Li0  1  0.08993187  0.84644974  0.34576743  1
  Li  Li1  1  0.26833538  0.74190052  0.08573225  1
  Li  Li2  1  0.26022088  0.37236721  0.52911087  1
  Li  Li3  1  0.19522636  0.49375243  0.86038728  1
  Li  Li4  1  0.46031807  0.30234917  0.25775389  1
  Li  Li5  1  0.53968193  0.69765083  0.74224611  1
  Li  Li6  1  0.80477364  0.50624757  0.13961272  1
  Li  Li7  1  0.73977912  0.62763279  0.47088913  1
  Li  Li8  1  0.73166462  0.25809948  0.91426775  1
  Li  Li9  1  0.91006813  0.15355026  0.65423257  1
  Fe  Fe10  1  0.09810968  0.95653851  0.84540870  1
  Fe  Fe11  1  0.07090644  0.43040233  0.32459232  1
  Fe  Fe12  1  0.30757408  0.88301582  0.55992295  1
  Fe  Fe13  1  0.52420751  0.80978373  0.26704143  1
  Fe  Fe14  1  0.27381110  0.24218092  0.02531131  1
  Fe  Fe15  1  0.72618890  0.75781908  0.97468869  1
  Fe  Fe16  1  0.47579249  0.19021627  0.73295857  1
  Fe  Fe17  1  0.69242592  0.11698418  0.44007705  1
  Fe  Fe18  1  0.92909356  0.56959767  0.67540768  1
  Fe  Fe19  1  0.90189032  0.04346149  0.15459130  1
  F  F20  1  0.15652248  0.96659806  0.03042422  1
  F  F21  1  0.06926617  0.97579561  0.68096122  1
  F  F22  1  0.13989413  0.65847340  0.22172841  1
  F  F23  1  0.29388290  0.89943527  0.39134455  1
  F  F24  1  0.27290948  0.51688901  0.99279211  1
  F  F25  1  0.48866069  0.83193875  0.10240021  1
  F  F26  1  0.03401276  0.68446572  0.84933927  1
  F  F27  1  0.21037353  0.62689256  0.60486719  1
  F  F28  1  0.38076237  0.90872377  0.72962407  1
  F  F29  1  0.02488215  0.32721784  0.55958215  1
  F  F30  1  0.28138458  0.23415553  0.18678010  1
  F  F31  1  0.58935501  0.83452781  0.44277658  1
  F  F32  1  0.28477015  0.40159525  0.37994706  1
  F  F33  1  0.81113988  0.78179092  0.13640972  1
  F  F34  1  0.58264931  0.53451288  0.24632584  1
  F  F35  1  0.41735069  0.46548712  0.75367416  1
  F  F36  1  0.18886012  0.21820908  0.86359028  1
  F  F37  1  0.71522985  0.59840475  0.62005294  1
  F  F38  1  0.41064499  0.16547219  0.55722342  1
  F  F39  1  0.71861542  0.76584447  0.81321990  1
  F  F40  1  0.97511785  0.67278216  0.44041785  1
  F  F41  1  0.61923763  0.09127623  0.27037593  1
  F  F42  1  0.78962647  0.37310744  0.39513281  1
  F  F43  1  0.96598724  0.31553428  0.15066073  1
  F  F44  1  0.51133931  0.16806125  0.89759979  1
  F  F45  1  0.72709052  0.48311099  0.00720789  1
  F  F46  1  0.70611710  0.10056473  0.60865545  1
  F  F47  1  0.86010587  0.34152660  0.77827159  1
  F  F48  1  0.93073383  0.02420439  0.31903878  1
  F  F49  1  0.84347752  0.03340194  0.96957578  1
