# generated using pymatgen
data_Li3Fe2SbO6
_symmetry_space_group_name_H-M   'P 1'
_cell_length_a   15.86183887
_cell_length_b   10.24704044
_cell_length_c   10.24704029
_cell_angle_alpha   17.49015503
_cell_angle_beta   16.88641615
_cell_angle_gamma   16.88641824
_symmetry_Int_Tables_number   1
_chemical_formula_structural   Li3Fe2SbO6
_chemical_formula_sum   'Li3 Fe2 Sb1 O6'
_cell_volume   125.34968768
_cell_formula_units_Z   1
loop_
 _symmetry_equiv_pos_site_id
 _symmetry_equiv_pos_as_xyz
  1  'x, y, z'
loop_
 _atom_site_type_symbol
 _atom_site_label
 _atom_site_symmetry_multiplicity
 _atom_site_fract_x
 _atom_site_fract_y
 _atom_site_fract_z
 _atom_site_occupancy
  Li  Li0  1  0.16666700  0.50000000  0.50000000  1
  Li  Li1  1  0.51660325  0.47850377  0.47850377  1
  Li  Li2  1  0.81672975  0.52149623  0.52149623  1
  Fe  Fe3  1  0.96224922  0.03199667  0.03199667  1
  Fe  Fe4  1  0.37108478  0.96800333  0.96800333  1
  Sb  Sb5  1  0.66666700  0.00000000  0.00000000  1
  O  O6  1  0.25923238  0.25349386  0.25349386  1
  O  O7  1  0.56204496  0.26402237  0.26402237  1
  O  O8  1  0.07410062  0.74650614  0.74650614  1
  O  O9  1  0.86831926  0.29195896  0.29195896  1
  O  O10  1  0.46501374  0.70804104  0.70804104  1
  O  O11  1  0.77128804  0.73597763  0.73597763  1
