# generated using pymatgen
data_TiMn4O10
_symmetry_space_group_name_H-M   'P 1'
_cell_length_a   5.81886264
_cell_length_b   5.84580592
_cell_length_c   24.15565968
_cell_angle_alpha   96.75584162
_cell_angle_beta   90.00000000
_cell_angle_gamma   60.15234754
_symmetry_Int_Tables_number   1
_chemical_formula_structural   TiMn4O10
_chemical_formula_sum   'Ti4 Mn16 O40'
_cell_volume   706.09800958
_cell_formula_units_Z   4
loop_
 _symmetry_equiv_pos_site_id
 _symmetry_equiv_pos_as_xyz
  1  'x, y, z'
loop_
 _atom_site_type_symbol
 _atom_site_label
 _atom_site_symmetry_multiplicity
 _atom_site_fract_x
 _atom_site_fract_y
 _atom_site_fract_z
 _atom_site_occupancy
  Ti  Ti0  1  0.32520309  0.34959481  0.02481219  1
  Ti  Ti1  1  0.92479691  0.15040519  0.22518781  1
  Ti  Ti2  1  0.32500418  0.34999263  0.52495896  1
  Ti  Ti3  1  0.92499582  0.15000737  0.72504104  1
  Mn  Mn4  1  0.12500000  0.75000000  0.12500000  1
  Mn  Mn5  1  0.62500000  0.25000000  0.12500000  1
  Mn  Mn6  1  0.12500000  0.25000000  0.12500000  1
  Mn  Mn7  1  0.72473228  0.55053545  0.32541285  1
  Mn  Mn8  1  0.52563133  0.94873733  0.42491426  1
  Mn  Mn9  1  0.22482495  0.05017956  0.32546071  1
  Mn  Mn10  1  0.32520957  0.84983768  0.52498362  1
  Mn  Mn11  1  0.72499549  0.05017956  0.32546071  1
  Mn  Mn12  1  0.82495276  0.84983768  0.52498362  1
  Mn  Mn13  1  0.12500000  0.75000000  0.62500000  1
  Mn  Mn14  1  0.92479043  0.65016232  0.72501638  1
  Mn  Mn15  1  0.42504724  0.65016232  0.72501638  1
  Mn  Mn16  1  0.52526772  0.94946455  0.92458715  1
  Mn  Mn17  1  0.72436867  0.55126267  0.82508574  1
  Mn  Mn18  1  0.52500451  0.44982044  0.92453929  1
  Mn  Mn19  1  0.02517505  0.44982044  0.92453929  1
  O  O20  1  0.24016292  0.96558553  0.17104456  1
  O  O21  1  0.79425155  0.96558553  0.17104456  1
  O  O22  1  0.45574845  0.53441447  0.07895544  1
  O  O23  1  0.00983708  0.53441447  0.07895544  1
  O  O24  1  0.05545765  0.88908471  0.27941885  1
  O  O25  1  0.27823932  0.44352136  0.16566673  1
  O  O26  1  0.45528770  0.08942361  0.07901061  1
  O  O27  1  0.57157380  0.85685140  0.28463891  1
  O  O28  1  0.79471230  0.41057639  0.17098939  1
  O  O29  1  0.97176068  0.05647864  0.08433327  1
  O  O30  1  0.83564986  0.76787106  0.37210440  1
  O  O31  1  0.39647908  0.76787106  0.37210440  1
  O  O32  1  0.60928656  0.33462345  0.27929131  1
  O  O33  1  0.05608999  0.33462345  0.27929131  1
  O  O34  1  0.87804526  0.24391048  0.36601919  1
  O  O35  1  0.65362800  0.69274401  0.47831902  1
  O  O36  1  0.16917001  0.66165898  0.48359444  1
  O  O37  1  0.39693896  0.20612108  0.37229664  1
  O  O38  1  0.43692556  0.57214386  0.57269562  1
  O  O39  1  0.99092957  0.57214386  0.57269562  1
  O  O40  1  0.21328397  0.12701079  0.47714293  1
  O  O41  1  0.65970624  0.12701079  0.47714293  1
  O  O42  1  0.25907043  0.92785614  0.67730438  1
  O  O43  1  0.81307444  0.92785614  0.67730438  1
  O  O44  1  0.25319201  0.49361698  0.67817207  1
  O  O45  1  0.08082999  0.83834102  0.76640556  1
  O  O46  1  0.48080061  0.03839779  0.56630507  1
  O  O47  1  0.59637200  0.80725599  0.77168098  1
  O  O48  1  0.99680799  0.00638302  0.57182793  1
  O  O49  1  0.76919939  0.46160221  0.68369493  1
  O  O50  1  0.03671603  0.37298921  0.77285707  1
  O  O51  1  0.59029376  0.37298921  0.77285707  1
  O  O52  1  0.85352092  0.73212894  0.87789560  1
  O  O53  1  0.41435014  0.73212894  0.87789560  1
  O  O54  1  0.85306104  0.29387892  0.87770336  1
  O  O55  1  0.67842620  0.64314860  0.96536109  1
  O  O56  1  0.37195474  0.25608952  0.88398081  1
  O  O57  1  0.19454235  0.61091529  0.97058115  1
  O  O58  1  0.19391001  0.16537655  0.97070869  1
  O  O59  1  0.64071344  0.16537655  0.97070869  1
