# generated using pymatgen
data_LiFeF4
_symmetry_space_group_name_H-M   'P 1'
_cell_length_a   8.61416537
_cell_length_b   8.81932014
_cell_length_c   8.67545539
_cell_angle_alpha   90.00000000
_cell_angle_beta   90.00000000
_cell_angle_gamma   90.00000000
_symmetry_Int_Tables_number   1
_chemical_formula_structural   LiFeF4
_chemical_formula_sum   'Li8 Fe8 F32'
_cell_volume   659.08373401
_cell_formula_units_Z   8
loop_
 _symmetry_equiv_pos_site_id
 _symmetry_equiv_pos_as_xyz
  1  'x, y, z'
loop_
 _atom_site_type_symbol
 _atom_site_label
 _atom_site_symmetry_multiplicity
 _atom_site_fract_x
 _atom_site_fract_y
 _atom_site_fract_z
 _atom_site_occupancy
  Li  Li0  1  0.28307489  0.96968955  0.19290342  1
  Li  Li1  1  0.28307489  0.53031045  0.19290342  1
  Li  Li2  1  0.21692511  0.03031045  0.69290342  1
  Li  Li3  1  0.21692511  0.46968955  0.69290342  1
  Li  Li4  1  0.78307489  0.96968955  0.30709658  1
  Li  Li5  1  0.78307489  0.53031045  0.30709658  1
  Li  Li6  1  0.71692511  0.46968955  0.80709658  1
  Li  Li7  1  0.71692511  0.03031045  0.80709658  1
  Fe  Fe8  1  0.93723067  0.75000000  0.61475648  1
  Fe  Fe9  1  0.11250727  0.75000000  0.99444386  1
  Fe  Fe10  1  0.38749273  0.25000000  0.49444386  1
  Fe  Fe11  1  0.56276933  0.25000000  0.11475648  1
  Fe  Fe12  1  0.43723067  0.75000000  0.88524352  1
  Fe  Fe13  1  0.61250727  0.75000000  0.50555614  1
  Fe  Fe14  1  0.88749273  0.25000000  0.00555614  1
  Fe  Fe15  1  0.06276933  0.25000000  0.38524352  1
  F  F16  1  0.92583897  0.09044323  0.86911578  1
  F  F17  1  0.92583897  0.40955677  0.86911578  1
  F  F18  1  0.07842185  0.90517218  0.59145075  1
  F  F19  1  0.07842185  0.59482782  0.59145075  1
  F  F20  1  0.05468900  0.25000000  0.15259026  1
  F  F21  1  0.16069142  0.25000000  0.60257981  1
  F  F22  1  0.24904704  0.60668803  0.86595564  1
  F  F23  1  0.24904704  0.89331197  0.86595564  1
  F  F24  1  0.25095296  0.10668803  0.36595564  1
  F  F25  1  0.25095296  0.39331197  0.36595564  1
  F  F26  1  0.33930858  0.75000000  0.10257981  1
  F  F27  1  0.44531100  0.75000000  0.65259026  1
  F  F28  1  0.42157815  0.09482782  0.09145075  1
  F  F29  1  0.42157815  0.40517218  0.09145075  1
  F  F30  1  0.57416103  0.90955677  0.36911578  1
  F  F31  1  0.57416103  0.59044323  0.36911578  1
  F  F32  1  0.42583897  0.09044323  0.63088422  1
  F  F33  1  0.42583897  0.40955677  0.63088422  1
  F  F34  1  0.57842185  0.59482782  0.90854925  1
  F  F35  1  0.57842185  0.90517218  0.90854925  1
  F  F36  1  0.55468900  0.25000000  0.34740974  1
  F  F37  1  0.66069142  0.25000000  0.89742019  1
  F  F38  1  0.74904704  0.60668803  0.63404436  1
  F  F39  1  0.74904704  0.89331197  0.63404436  1
  F  F40  1  0.75095296  0.10668803  0.13404436  1
  F  F41  1  0.75095296  0.39331197  0.13404436  1
  F  F42  1  0.83930858  0.75000000  0.39742019  1
  F  F43  1  0.94531100  0.75000000  0.84740974  1
  F  F44  1  0.92157815  0.09482782  0.40854925  1
  F  F45  1  0.92157815  0.40517218  0.40854925  1
  F  F46  1  0.07416103  0.59044323  0.13088422  1
  F  F47  1  0.07416103  0.90955677  0.13088422  1
