# generated using pymatgen
data_LiV2OF5
_symmetry_space_group_name_H-M   'P 1'
_cell_length_a   5.24191006
_cell_length_b   5.60053491
_cell_length_c   11.60579175
_cell_angle_alpha   99.32531199
_cell_angle_beta   76.93527739
_cell_angle_gamma   90.03539017
_symmetry_Int_Tables_number   1
_chemical_formula_structural   LiV2OF5
_chemical_formula_sum   'Li3 V6 O3 F15'
_cell_volume   327.28148716
_cell_formula_units_Z   3
loop_
 _symmetry_equiv_pos_site_id
 _symmetry_equiv_pos_as_xyz
  1  'x, y, z'
loop_
 _atom_site_type_symbol
 _atom_site_label
 _atom_site_symmetry_multiplicity
 _atom_site_fract_x
 _atom_site_fract_y
 _atom_site_fract_z
 _atom_site_occupancy
  Li  Li0  1  0.22009656  0.31473977  0.51067942  1
  Li  Li1  1  0.11106270  0.41423450  0.83286840  1
  Li  Li2  1  0.90064586  0.52488579  0.15572146  1
  V  V3  1  0.16658633  0.83467368  0.66282092  1
  V  V4  1  0.34893551  0.66521388  0.31614206  1
  V  V5  1  0.50216824  0.49724851  0.99577131  1
  V  V6  1  0.66303994  0.33474645  0.66972419  1
  V  V7  1  -0.00163411  0.99638294  0.00280851  1
  V  V8  1  0.83186750  0.16921828  0.34925903  1
  O  O9  1  0.53820456  0.57790224  0.15905182  1
  O  O10  1  0.47586952  0.41679310  0.83281312  1
  O  O11  1  0.86068096  0.25894177  0.50616036  1
  F  F12  1  0.03509131  0.46690114  0.29013692  1
  F  F13  1  0.14569013  0.69102801  0.04273662  1
  F  F14  1  0.15533565  0.96325565  0.29694813  1
  F  F15  1  0.28194512  0.20020732  0.03632382  1
  F  F16  1  0.14963737  0.72567761  0.49807834  1
  F  F17  1  0.19341568  0.91676617  0.83256989  1
  F  F18  1  0.48960115  0.36694440  0.37336347  1
  F  F19  1  0.35247155  0.14150271  0.62398361  1
  F  F20  1  0.61806164  0.87215540  0.37109924  1
  F  F21  1  0.48291594  0.62993269  0.63006466  1
  F  F22  1  0.81364708  0.10434042  0.16775978  1
  F  F23  1  0.72401667  0.79425661  0.95975199  1
  F  F24  1  0.84634769  0.03392638  0.70462574  1
  F  F25  1  0.85532788  0.30269042  0.95753343  1
  F  F26  1  0.98287057  0.52771617  0.70710276  1
