# generated using pymatgen
data_Fe6O7F5
_symmetry_space_group_name_H-M   'P 1'
_cell_length_a   7.34419628
_cell_length_b   5.62252280
_cell_length_c   5.62163917
_cell_angle_alpha   71.50511091
_cell_angle_beta   71.68381629
_cell_angle_gamma   71.59789396
_symmetry_Int_Tables_number   1
_chemical_formula_structural   Fe6O7F5
_chemical_formula_sum   'Fe6 O7 F5'
_cell_volume   202.88767460
_cell_formula_units_Z   1
loop_
 _symmetry_equiv_pos_site_id
 _symmetry_equiv_pos_as_xyz
  1  'x, y, z'
loop_
 _atom_site_type_symbol
 _atom_site_label
 _atom_site_symmetry_multiplicity
 _atom_site_fract_x
 _atom_site_fract_y
 _atom_site_fract_z
 _atom_site_occupancy
  Fe  Fe0  1  0.84193517  0.69253296  0.68132503  1
  Fe  Fe1  1  0.66851184  0.33846674  0.33833029  1
  Fe  Fe2  1  0.30998721  0.67947304  0.61735563  1
  Fe  Fe3  1  0.16357521  0.32854666  0.33121411  1
  Fe  Fe4  1  0.50660600  0.98366794  0.99385265  1
  Fe  Fe5  1  0.00511144  0.97231388  0.03718713  1
  O  O6  1  0.66374367  0.03973622  0.63819072  1
  O  O7  1  0.95721418  0.22836869  0.24179787  1
  O  O8  1  0.03737477  0.77308167  0.78748172  1
  O  O9  1  0.37724937  0.42703317  0.41592743  1
  O  O10  1  0.32926803  0.98159300  0.33588133  1
  O  O11  1  0.66978748  0.63493100  0.03523779  1
  O  O12  1  0.00551965  0.67991550  0.32851119  1
  F  F13  1  0.33681462  0.36797711  0.94713272  1
  F  F14  1  0.30219969  0.89813856  0.88314427  1
  F  F15  1  0.62167987  0.57677189  0.57210622  1
  F  F16  1  0.70324255  0.10221612  0.09881682  1
  F  F17  1  0.00017926  0.29523586  0.71650506  1
