# generated using pymatgen
data_Li2NiO2
_symmetry_space_group_name_H-M   'P 1'
_cell_length_a   3.06913056
_cell_length_b   3.06913103
_cell_length_c   6.63987083
_cell_angle_alpha   76.63735191
_cell_angle_beta   90.00000000
_cell_angle_gamma   59.99999406
_symmetry_Int_Tables_number   1
_chemical_formula_structural   Li2NiO2
_chemical_formula_sum   'Li2 Ni1 O2'
_cell_volume   52.20089047
_cell_formula_units_Z   1
loop_
 _symmetry_equiv_pos_site_id
 _symmetry_equiv_pos_as_xyz
  1  'x, y, z'
loop_
 _atom_site_type_symbol
 _atom_site_label
 _atom_site_symmetry_multiplicity
 _atom_site_fract_x
 _atom_site_fract_y
 _atom_site_fract_z
 _atom_site_occupancy
  Li  Li0  1  0.76276464  0.47447073  0.28829391  1
  Li  Li1  1  0.23723536  0.52552927  0.71170609  1
  Ni  Ni2  1  0.00000000  0.00000000  0.00000000  1
  O  O3  1  0.60346016  0.79307968  0.81038047  1
  O  O4  1  0.39653984  0.20692032  0.18961953  1
