# generated using pymatgen
data_Li3Si2(NiO4)2
_symmetry_space_group_name_H-M   'P 1'
_cell_length_a   10.44981669
_cell_length_b   5.02647165
_cell_length_c   6.56192939
_cell_angle_alpha   90.00000000
_cell_angle_beta   90.79563966
_cell_angle_gamma   90.00000000
_symmetry_Int_Tables_number   1
_chemical_formula_structural   Li3Si2(NiO4)2
_chemical_formula_sum   'Li6 Si4 Ni4 O16'
_cell_volume   344.63675100
_cell_formula_units_Z   2
loop_
 _symmetry_equiv_pos_site_id
 _symmetry_equiv_pos_as_xyz
  1  'x, y, z'
loop_
 _atom_site_type_symbol
 _atom_site_label
 _atom_site_symmetry_multiplicity
 _atom_site_fract_x
 _atom_site_fract_y
 _atom_site_fract_z
 _atom_site_occupancy
  Li  Li0  1  0.16156181  0.17764521  0.11691259  1
  Li  Li1  1  0.34042740  0.68973582  0.61876571  1
  Li  Li2  1  0.41774906  0.29589578  0.36671895  1
  Li  Li3  1  0.66156181  0.32235479  0.11691259  1
  Li  Li4  1  0.84042740  0.81026418  0.61876571  1
  Li  Li5  1  0.91774906  0.20410422  0.36671895  1
  Si  Si6  1  0.08851918  0.69180805  0.36933565  1
  Si  Si7  1  0.41024728  0.17737240  0.86381130  1
  Si  Si8  1  0.58851918  0.80819195  0.36933565  1
  Si  Si9  1  0.91024728  0.32262760  0.86381130  1
  Ni  Ni10  1  0.16019821  0.17408617  0.63101248  1
  Ni  Ni11  1  0.33886394  0.69377667  0.10598642  1
  Ni  Ni12  1  0.66019821  0.32591383  0.63101248  1
  Ni  Ni13  1  0.83886394  0.80622333  0.10598642  1
  O  O14  1  0.06277317  0.23232406  0.85505371  1
  O  O15  1  0.09579463  0.35910121  0.39173467  1
  O  O16  1  0.16477673  0.81759575  0.57132678  1
  O  O17  1  0.16334524  0.78947840  0.16866810  1
  O  O18  1  0.33261360  0.29684448  0.65609605  1
  O  O19  1  0.34758413  0.29464561  0.07527448  1
  O  O20  1  0.39627095  0.85731110  0.85688809  1
  O  O21  1  0.43947069  0.70428132  0.36758900  1
  O  O22  1  0.56277317  0.26767594  0.85505371  1
  O  O23  1  0.59579463  0.14089879  0.39173467  1
  O  O24  1  0.66477673  0.68240425  0.57132678  1
  O  O25  1  0.66334524  0.71052160  0.16866810  1
  O  O26  1  0.83261360  0.20315552  0.65609605  1
  O  O27  1  0.84758413  0.20535439  0.07527448  1
  O  O28  1  0.89627095  0.64268890  0.85688809  1
  O  O29  1  0.93947069  0.79571868  0.36758900  1
