# generated using pymatgen
data_Fe5(OF4)2
_symmetry_space_group_name_H-M   'P 1'
_cell_length_a   4.86149323
_cell_length_b   7.91669427
_cell_length_c   10.30741370
_cell_angle_alpha   109.40525934
_cell_angle_beta   90.00000000
_cell_angle_gamma   90.00000000
_symmetry_Int_Tables_number   1
_chemical_formula_structural   Fe5(OF4)2
_chemical_formula_sum   'Fe10 O4 F16'
_cell_volume   374.16524975
_cell_formula_units_Z   2
loop_
 _symmetry_equiv_pos_site_id
 _symmetry_equiv_pos_as_xyz
  1  'x, y, z'
loop_
 _atom_site_type_symbol
 _atom_site_label
 _atom_site_symmetry_multiplicity
 _atom_site_fract_x
 _atom_site_fract_y
 _atom_site_fract_z
 _atom_site_occupancy
  Fe  Fe0  1  0.52609483  0.30903015  0.89465224  1
  Fe  Fe1  1  0.50000000  0.10000000  0.30000000  1
  Fe  Fe2  1  0.47390517  0.89096985  0.70534776  1
  Fe  Fe3  1  0.51586104  0.71087072  0.11678239  1
  Fe  Fe4  1  0.48413896  0.48912928  0.48321761  1
  Fe  Fe5  1  0.00000000  0.60000000  0.80000000  1
  Fe  Fe6  1  0.98413896  0.21087072  0.61678239  1
  Fe  Fe7  1  0.97390517  0.80903015  0.39465224  1
  Fe  Fe8  1  0.02609483  0.39096985  0.20534776  1
  Fe  Fe9  1  0.01586104  0.98912928  0.98321761  1
  O  O10  1  0.82542962  0.36194997  0.77528719  1
  O  O11  1  0.67457038  0.86194997  0.27528719  1
  O  O12  1  0.32542962  0.33805003  0.32471281  1
  O  O13  1  0.17457038  0.83805003  0.82471281  1
  F  F14  1  0.78254584  0.77075426  0.98620411  1
  F  F15  1  0.80084216  0.97171240  0.58886521  1
  F  F16  1  0.80167534  0.55730088  0.38185827  1
  F  F17  1  0.81765225  0.14521648  0.15700735  1
  F  F18  1  0.69832466  0.05730088  0.88185827  1
  F  F19  1  0.68234775  0.64521648  0.65700735  1
  F  F20  1  0.69915784  0.47171240  0.08886521  1
  F  F21  1  0.71745416  0.27075426  0.48620411  1
  F  F22  1  0.30167534  0.14269912  0.71814173  1
  F  F23  1  0.30084216  0.72828760  0.51113479  1
  F  F24  1  0.28254484  0.92924574  0.11379589  1
  F  F25  1  0.31765225  0.55478352  0.94299265  1
  F  F26  1  0.21745416  0.42924574  0.61379589  1
  F  F27  1  0.18234775  0.05478352  0.44299265  1
  F  F28  1  0.19915784  0.22828760  0.01113479  1
  F  F29  1  0.19832466  0.64269912  0.21814173  1
