# generated using pymatgen
data_Li6Bi2B4SO16
_symmetry_space_group_name_H-M   'P 1'
_cell_length_a   9.73614101
_cell_length_b   9.73614083
_cell_length_c   9.73614098
_cell_angle_alpha   60.00000006
_cell_angle_beta   59.99999986
_cell_angle_gamma   59.99999936
_symmetry_Int_Tables_number   1
_chemical_formula_structural   Li6Bi2B4SO16
_chemical_formula_sum   'Li12 Bi4 B8 S2 O32'
_cell_volume   652.59772603
_cell_formula_units_Z   2
loop_
 _symmetry_equiv_pos_site_id
 _symmetry_equiv_pos_as_xyz
  1  'x, y, z'
loop_
 _atom_site_type_symbol
 _atom_site_label
 _atom_site_symmetry_multiplicity
 _atom_site_fract_x
 _atom_site_fract_y
 _atom_site_fract_z
 _atom_site_occupancy
  Li  Li0  1  0.16146851  0.08853149  0.08853149  1
  Li  Li1  1  0.16146851  0.66146851  0.08853149  1
  Li  Li2  1  0.16146851  0.08853149  0.66146851  1
  Li  Li3  1  0.41146851  0.33853149  0.33853149  1
  Li  Li4  1  0.58853149  0.08853149  0.66146851  1
  Li  Li5  1  0.58853149  0.66146851  0.08853149  1
  Li  Li6  1  0.41146851  0.33853149  0.91146851  1
  Li  Li7  1  0.41146851  0.91146851  0.33853149  1
  Li  Li8  1  0.58853149  0.66146851  0.66146851  1
  Li  Li9  1  0.83853149  0.33853149  0.91146851  1
  Li  Li10  1  0.83853149  0.91146851  0.33853149  1
  Li  Li11  1  0.83853149  0.91146851  0.91146851  1
  Bi  Bi12  1  0.00000000  0.00000000  0.50000000  1
  Bi  Bi13  1  0.00000000  0.50000000  0.00000000  1
  Bi  Bi14  1  0.00000000  0.50000000  0.50000000  1
  Bi  Bi15  1  0.50000000  0.50000000  0.50000000  1
  B  B16  1  0.18336098  0.27221301  0.27221301  1
  B  B17  1  0.22778699  0.72778699  0.31663902  1
  B  B18  1  0.22778699  0.31663902  0.72778699  1
  B  B19  1  0.22778699  0.72778699  0.72778699  1
  B  B20  1  0.77221301  0.27221301  0.27221301  1
  B  B21  1  0.77221301  0.68336098  0.27221301  1
  B  B22  1  0.77221301  0.27221301  0.68336098  1
  B  B23  1  0.81663902  0.72778699  0.72778699  1
  S  S24  1  0.62500000  0.12500000  0.12500000  1
  S  S25  1  0.37500000  0.87500000  0.87500000  1
  O  O26  1  0.18218060  0.26993310  0.13176641  1
  O  O27  1  0.18218060  0.13176641  0.41611989  1
  O  O28  1  0.18218060  0.41611989  0.26993310  1
  O  O29  1  0.08388011  0.73006690  0.31781940  1
  O  O30  1  0.56229627  0.06229627  0.06229627  1
  O  O31  1  0.23006690  0.31781940  0.58388011  1
  O  O32  1  0.08388011  0.31781940  0.86823359  1
  O  O33  1  0.56229627  0.31311019  0.06229627  1
  O  O34  1  0.56229627  0.06229627  0.31311019  1
  O  O35  1  0.23006690  0.86823359  0.31781940  1
  O  O36  1  0.36823359  0.58388011  0.31781940  1
  O  O37  1  0.81311019  0.06229627  0.06229627  1
  O  O38  1  0.08388011  0.86823359  0.73006690  1
  O  O39  1  0.36823359  0.31781940  0.73006690  1
  O  O40  1  0.23006690  0.58388011  0.86823359  1
  O  O41  1  0.63176641  0.26993310  0.41611989  1
  O  O42  1  0.36823359  0.73006690  0.58388011  1
  O  O43  1  0.76993310  0.41611989  0.13176641  1
  O  O44  1  0.63176641  0.68218060  0.26993310  1
  O  O45  1  0.91611989  0.13176641  0.26993310  1
  O  O46  1  0.18688981  0.93770373  0.93770373  1
  O  O47  1  0.63176641  0.41611989  0.68218060  1
  O  O48  1  0.76993310  0.13176641  0.68218060  1
  O  O49  1  0.43770373  0.93770373  0.68688981  1
  O  O50  1  0.43770373  0.68688981  0.93770373  1
  O  O51  1  0.91611989  0.68218060  0.13176641  1
  O  O52  1  0.76993310  0.68218060  0.41611989  1
  O  O53  1  0.43770373  0.93770373  0.93770373  1
  O  O54  1  0.91611989  0.26993310  0.68218060  1
  O  O55  1  0.81781940  0.58388011  0.73006690  1
  O  O56  1  0.81781940  0.86823359  0.58388011  1
  O  O57  1  0.81781940  0.73006690  0.86823359  1
