# generated using pymatgen
data_Li4V2Si(PO6)2
_symmetry_space_group_name_H-M   'P 1'
_cell_length_a   8.99139087
_cell_length_b   9.02011422
_cell_length_c   14.43352533
_cell_angle_alpha   71.39165518
_cell_angle_beta   90.00810630
_cell_angle_gamma   119.95331281
_symmetry_Int_Tables_number   1
_chemical_formula_structural   Li4V2Si(PO6)2
_chemical_formula_sum   'Li16 V8 Si4 P8 O48'
_cell_volume   942.99492012
_cell_formula_units_Z   4
loop_
 _symmetry_equiv_pos_site_id
 _symmetry_equiv_pos_as_xyz
  1  'x, y, z'
loop_
 _atom_site_type_symbol
 _atom_site_label
 _atom_site_symmetry_multiplicity
 _atom_site_fract_x
 _atom_site_fract_y
 _atom_site_fract_z
 _atom_site_occupancy
  Li  Li0  1  0.37839247  0.83072691  0.88635094  1
  Li  Li1  1  0.97022041  0.25879993  0.87378296  1
  Li  Li2  1  0.02007439  0.51001788  0.99924581  1
  Li  Li3  1  0.29156032  0.66265187  0.36450171  1
  Li  Li4  1  0.53273673  0.73587204  0.63409305  1
  Li  Li5  1  0.12067218  0.16553933  0.61300899  1
  Li  Li6  1  0.21172968  0.34064693  0.12365380  1
  Li  Li7  1  0.49844905  0.50375655  0.50005107  1
  Li  Li8  1  0.78685182  0.66946076  0.86195843  1
  Li  Li9  1  0.87893635  0.83636087  0.38581616  1
  Li  Li10  1  0.46207556  0.25158069  0.37382489  1
  Li  Li11  1  0.24574194  0.99878278  0.24987734  1
  Li  Li12  1  0.71482000  0.34854231  0.62643100  1
  Li  Li13  1  0.03859054  0.74882403  0.12764012  1
  Li  Li14  1  0.61710222  0.15328443  0.12459289  1
  Li  Li15  1  0.74205129  0.98396725  0.74873428  1
  V  V16  1  0.17788201  0.85763060  0.46253206  1
  V  V17  1  0.07313959  0.64744272  0.78745939  1
  V  V18  1  0.67583862  0.85511881  0.96285933  1
  V  V19  1  0.56874548  0.64208938  0.28746030  1
  V  V20  1  0.42872193  0.36156062  0.71304365  1
  V  V21  1  0.31748951  0.14244433  0.03763865  1
  V  V22  1  0.93050525  0.35478959  0.21233486  1
  V  V23  1  0.82295984  0.14321204  0.53706570  1
  Si  Si24  1  0.32654652  0.74920196  0.12515274  1
  Si  Si25  1  0.37738817  0.54853469  0.87370383  1
  Si  Si26  1  0.17414530  0.24946229  0.37452721  1
  Si  Si27  1  0.82757455  0.75018241  0.62334256  1
  P  P28  1  0.07861309  0.95331709  0.87717262  1
  P  P29  1  0.12004443  0.45062806  0.62817896  1
  P  P30  1  0.57940264  0.94947007  0.37849318  1
  P  P31  1  0.62145190  0.44816901  0.12683150  1
  P  P32  1  0.67523070  0.25273808  0.87563674  1
  P  P33  1  0.42181048  0.05070884  0.62347392  1
  P  P34  1  0.88007788  0.55043816  0.37086816  1
  P  P35  1  0.91846936  0.04522570  0.12396782  1
  O  O36  1  0.13921853  0.98216327  0.97281423  1
  O  O37  1  0.04833089  0.76232469  0.88694990  1
  O  O38  1  0.04669952  0.73777431  0.36180507  1
  O  O39  1  0.29781929  0.88895457  0.71885808  1
  O  O40  1  0.39434897  0.92195320  0.36885382  1
  O  O41  1  0.09238361  0.48009449  0.72418448  1
  O  O42  1  0.29671817  0.91173128  0.13416658  1
  O  O43  1  0.20921009  0.57507369  0.88448408  1
  O  O44  1  0.15271446  0.61246402  0.53447058  1
  O  O45  1  0.13411282  0.59104314  0.11312847  1
  O  O46  1  0.55287473  0.74967631  0.86184490  1
  O  O47  1  0.63979404  0.98275275  0.47261540  1
  O  O48  1  0.39697646  0.69140559  0.22697640  1
  O  O49  1  0.33265065  0.37492923  0.97450037  1
  O  O50  1  0.27787212  0.42533484  0.61507022  1
  O  O51  1  0.45896197  0.80891568  0.02465977  1
  O  O52  1  0.41356343  0.51791146  0.77249667  1
  O  O53  1  0.55747879  0.76111579  0.38879191  1
  O  O54  1  0.89766947  0.93595039  0.86632763  1
  O  O55  1  0.04223722  0.19034141  0.47561863  1
  O  O56  1  0.78842770  0.90518898  0.63570004  1
  O  O57  1  0.10143583  0.30748564  0.27368993  1
  O  O58  1  0.20693460  0.11413374  0.78308950  1
  O  O59  1  0.36628036  0.40908320  0.38663141  1
  O  O60  1  0.63767862  0.58453700  0.61275609  1
  O  O61  1  0.78910481  0.88740383  0.21833882  1
  O  O62  1  0.90274562  0.69540627  0.72341197  1
  O  O63  1  0.20946546  0.09140311  0.36314463  1
  O  O64  1  0.95789756  0.81231655  0.52141528  1
  O  O65  1  0.09933500  0.06494811  0.13694786  1
  O  O66  1  0.44380078  0.23776850  0.61644721  1
  O  O67  1  0.58824986  0.47864933  0.22143673  1
  O  O68  1  0.54841335  0.18939339  0.97064679  1
  O  O69  1  0.72233519  0.57746020  0.38068133  1
  O  O70  1  0.65811472  0.60818661  0.03105845  1
  O  O71  1  0.61203560  0.31390637  0.77998694  1
  O  O72  1  0.35957514  0.02167328  0.52865861  1
  O  O73  1  0.45692695  0.25747465  0.13645435  1
  O  O74  1  0.85646697  0.40743820  0.88516587  1
  O  O75  1  0.84293888  0.38866923  0.46628065  1
  O  O76  1  0.77905338  0.42040208  0.11905859  1
  O  O77  1  0.70978130  0.10343215  0.86651513  1
  O  O78  1  0.90969045  0.52009418  0.27587694  1
  O  O79  1  0.60726258  0.07903366  0.63204511  1
  O  O80  1  0.70375547  0.11004451  0.28254275  1
  O  O81  1  0.95314436  0.26293411  0.63738462  1
  O  O82  1  0.94349325  0.23566041  0.11182486  1
  O  O83  1  0.85798080  0.01278060  0.02888472  1
