# generated using pymatgen
data_Li3V4(OF3)3
_symmetry_space_group_name_H-M   'P 1'
_cell_length_a   10.46202934
_cell_length_b   10.38874790
_cell_length_c   11.15009007
_cell_angle_alpha   89.91827330
_cell_angle_beta   118.09827568
_cell_angle_gamma   120.11272356
_symmetry_Int_Tables_number   1
_chemical_formula_structural   Li3V4(OF3)3
_chemical_formula_sum   'Li12 V16 O12 F36'
_cell_volume   879.87331558
_cell_formula_units_Z   4
loop_
 _symmetry_equiv_pos_site_id
 _symmetry_equiv_pos_as_xyz
  1  'x, y, z'
loop_
 _atom_site_type_symbol
 _atom_site_label
 _atom_site_symmetry_multiplicity
 _atom_site_fract_x
 _atom_site_fract_y
 _atom_site_fract_z
 _atom_site_occupancy
  Li  Li0  1  0.25245068  0.87664254  0.63193749  1
  Li  Li1  1  0.20101131  0.59951630  0.81234804  1
  Li  Li2  1  0.24244456  0.87237579  0.11923718  1
  Li  Li3  1  0.20132627  0.59308856  0.30632284  1
  Li  Li4  1  0.30136630  0.15622551  0.94261967  1
  Li  Li5  1  0.25990456  0.37789713  0.63320191  1
  Li  Li6  1  0.75198099  0.87560345  0.63049227  1
  Li  Li7  1  0.30136182  0.15712642  0.44113392  1
  Li  Li8  1  0.74424941  0.87103578  0.11861299  1
  Li  Li9  1  0.70045153  0.59439428  0.30770954  1
  Li  Li10  1  0.79765352  0.15530254  0.94118797  1
  Li  Li11  1  0.79204224  0.15322322  0.43795787  1
  V  V12  1  0.00024498  0.74260831  0.74298140  1
  V  V13  1  0.00436626  0.74363870  0.24216169  1
  V  V14  1  0.01789315  0.00194278  0.50596252  1
  V  V15  1  0.51097341  0.74662947  0.74527557  1
  V  V16  1  0.50148959  0.50482954  0.51681387  1
  V  V17  1  0.48740559  0.25231441  0.73865921  1
  V  V18  1  0.01879601  0.00547675  0.00653773  1
  V  V19  1  0.50526302  0.74534456  0.24475600  1
  V  V20  1  0.49687841  0.50333748  0.01306354  1
  V  V21  1  0.48321066  0.24939411  0.23904532  1
  V  V22  1  0.51657482  0.00464759  0.50672399  1
  V  V23  1  0.99496723  0.50268069  0.51165834  1
  V  V24  1  0.98101241  0.24809532  0.73882866  1
  V  V25  1  0.51622967  0.00403189  0.00623203  1
  V  V26  1  0.99209258  0.50033806  0.00992947  1
  V  V27  1  0.98133991  0.24717283  0.23649897  1
  O  O28  1  0.07187504  0.69000376  0.63574188  1
  O  O29  1  0.06808671  0.68973767  0.13109648  1
  O  O30  1  0.56356341  0.69173586  0.62494257  1
  O  O31  1  0.24899171  0.05990940  0.62086012  1
  O  O32  1  0.42487670  0.36494282  0.61515320  1
  O  O33  1  0.57020631  0.69176436  0.13431570  1
  O  O34  1  0.24866050  0.06105755  0.12170705  1
  O  O35  1  0.45096137  0.37487329  0.12456714  1
  O  O36  1  0.74715173  0.05878247  0.61723606  1
  O  O37  1  0.95119793  0.37359062  0.62368739  1
  O  O38  1  0.74579627  0.05759530  0.11808754  1
  O  O39  1  0.95069253  0.37425232  0.12492312  1
  F  F40  1  0.07224097  0.62576614  0.88221321  1
  F  F41  1  0.25372048  0.94145036  0.87802577  1
  F  F42  1  0.07402055  0.62567083  0.38205263  1
  F  F43  1  0.06867670  0.12711634  0.86891464  1
  F  F44  1  0.24190639  0.44120353  0.87355674  1
  F  F45  1  0.25413231  0.94235191  0.37923296  1
  F  F46  1  0.42996657  0.80682578  0.86795386  1
  F  F47  1  0.06053286  0.19125489  0.61419670  1
  F  F48  1  0.25423881  0.55831450  0.63529958  1
  F  F49  1  0.43418395  0.87544203  0.62657571  1
  F  F50  1  0.06503568  0.12220695  0.37044212  1
  F  F51  1  0.55943752  0.62803078  0.88235808  1
  F  F52  1  0.24100662  0.43781405  0.38119065  1
  F  F53  1  0.41896338  0.31240914  0.86625167  1
  F  F54  1  0.43224943  0.80776009  0.37141034  1
  F  F55  1  0.75733267  0.94574170  0.87838887  1
  F  F56  1  0.04471580  0.17946536  0.11055719  1
  F  F57  1  0.25328446  0.57088708  0.13973068  1
  F  F58  1  0.43245545  0.87516398  0.12538670  1
  F  F59  1  0.57398662  0.62751340  0.38243336  1
  F  F60  1  0.56095056  0.11800377  0.86626005  1
  F  F61  1  0.42925261  0.31390412  0.37559298  1
  F  F62  1  0.73774514  0.42426532  0.87459374  1
  F  F63  1  0.75696971  0.94468921  0.38206031  1
  F  F64  1  0.94583469  0.82059152  0.87073815  1
  F  F65  1  0.54474970  0.18234214  0.60828139  1
  F  F66  1  0.75384793  0.56588953  0.63005091  1
  F  F67  1  0.93293152  0.87615196  0.62331979  1
  F  F68  1  0.56544279  0.12323810  0.36911267  1
  F  F69  1  0.74297777  0.44082038  0.37710325  1
  F  F70  1  0.92481997  0.30805177  0.87273101  1
  F  F71  1  0.93371534  0.80486890  0.37261549  1
  F  F72  1  0.54392650  0.17988901  0.10985108  1
  F  F73  1  0.75335010  0.56898679  0.14050244  1
  F  F74  1  0.93367142  0.87554859  0.12578905  1
  F  F75  1  0.92910789  0.30888562  0.37641191  1
