# generated using pymatgen
data_Na2FeO3
_symmetry_space_group_name_H-M   'P 1'
_cell_length_a   5.56601483
_cell_length_b   6.10294914
_cell_length_c   11.21658979
_cell_angle_alpha   90.00000000
_cell_angle_beta   90.00000000
_cell_angle_gamma   117.12995483
_symmetry_Int_Tables_number   1
_chemical_formula_structural   Na2FeO3
_chemical_formula_sum   'Na8 Fe4 O12'
_cell_volume   339.09588530
_cell_formula_units_Z   4
loop_
 _symmetry_equiv_pos_site_id
 _symmetry_equiv_pos_as_xyz
  1  'x, y, z'
loop_
 _atom_site_type_symbol
 _atom_site_label
 _atom_site_symmetry_multiplicity
 _atom_site_fract_x
 _atom_site_fract_y
 _atom_site_fract_z
 _atom_site_occupancy
  Na  Na0  1  0.04012102  0.08024104  0.14250682  1
  Na  Na1  1  0.12720075  0.25440149  0.58325348  1
  Na  Na2  1  0.45987898  0.91975896  0.64250682  1
  Na  Na3  1  0.37279925  0.74559851  0.08325348  1
  Na  Na4  1  0.54012102  0.08024104  0.35749318  1
  Na  Na5  1  0.87279925  0.74559851  0.41674652  1
  Na  Na6  1  0.62720075  0.25440149  0.91674652  1
  Na  Na7  1  0.95987898  0.91975896  0.85749318  1
  Fe  Fe8  1  0.24135547  0.48271194  0.34518273  1
  Fe  Fe9  1  0.25864453  0.51728806  0.84518273  1
  Fe  Fe10  1  0.75864453  0.51728806  0.65481727  1
  Fe  Fe11  1  0.74135547  0.48271194  0.15481727  1
  O  O12  1  0.04688232  0.59376464  0.25000000  1
  O  O13  1  0.07780571  0.15561143  0.35912896  1
  O  O14  1  0.34643613  0.69287227  0.46569681  1
  O  O15  1  0.15356387  0.30712773  0.96569681  1
  O  O16  1  0.42219429  0.84438857  0.85912896  1
  O  O17  1  0.54688232  0.59376464  0.25000000  1
  O  O18  1  0.45311768  0.40623536  0.75000000  1
  O  O19  1  0.65356387  0.30712773  0.53430319  1
  O  O20  1  0.84643613  0.69287227  0.03430319  1
  O  O21  1  0.57780571  0.15561143  0.14087104  1
  O  O22  1  0.92219429  0.84438857  0.64087104  1
  O  O23  1  0.95311768  0.40623536  0.75000000  1
