# generated using pymatgen
data_Mn6OF11
_symmetry_space_group_name_H-M   'P 1'
_cell_length_a   5.28476477
_cell_length_b   5.26070387
_cell_length_c   15.76515737
_cell_angle_alpha   92.81483542
_cell_angle_beta   90.00000000
_cell_angle_gamma   90.00000000
_symmetry_Int_Tables_number   1
_chemical_formula_structural   Mn6OF11
_chemical_formula_sum   'Mn12 O2 F22'
_cell_volume   437.76749845
_cell_formula_units_Z   2
loop_
 _symmetry_equiv_pos_site_id
 _symmetry_equiv_pos_as_xyz
  1  'x, y, z'
loop_
 _atom_site_type_symbol
 _atom_site_label
 _atom_site_symmetry_multiplicity
 _atom_site_fract_x
 _atom_site_fract_y
 _atom_site_fract_z
 _atom_site_occupancy
  Mn  Mn0  1  0.04613903  0.00000000  0.00000000  1
  Mn  Mn1  1  0.98412720  0.48495111  0.16735983  1
  Mn  Mn2  1  0.98285487  0.99520452  0.33223860  1
  Mn  Mn3  1  0.99291501  0.50000000  0.50000000  1
  Mn  Mn4  1  0.98285487  0.00479648  0.66776140  1
  Mn  Mn5  1  0.98412720  0.51504989  0.83264017  1
  Mn  Mn6  1  0.49006109  0.97520533  0.15953375  1
  Mn  Mn7  1  0.45788364  0.50000000  0.00000000  1
  Mn  Mn8  1  0.47233912  0.50565388  0.66769325  1
  Mn  Mn9  1  0.49686133  0.00000000  0.50000000  1
  Mn  Mn10  1  0.47233912  0.49434612  0.33230675  1
  Mn  Mn11  1  0.49006109  0.02479467  0.84046625  1
  O  O12  1  0.25823548  0.78391375  0.06057162  1
  O  O13  1  0.25823548  0.21608625  0.93942838  1
  F  F14  1  0.21861054  0.22226088  0.26049396  1
  F  F15  1  0.22294565  0.23171376  0.59205905  1
  F  F16  1  0.22294565  0.76828624  0.40794095  1
  F  F17  1  0.21861054  0.77773912  0.73950604  1
  F  F18  1  0.31402568  0.30378132  0.10642022  1
  F  F19  1  0.26478297  0.71852800  0.23774937  1
  F  F20  1  0.27454436  0.72646018  0.57246053  1
  F  F21  1  0.31402568  0.69621868  0.89357978  1
  F  F22  1  0.26478297  0.28147200  0.76225063  1
  F  F23  1  0.27454436  0.27353982  0.42753947  1
  F  F24  1  0.73075038  0.34504186  0.92713078  1
  F  F25  1  0.72300657  0.26852878  0.58905604  1
  F  F26  1  0.71891854  0.28265345  0.24934345  1
  F  F27  1  0.73075038  0.65495814  0.07286922  1
  F  F28  1  0.72300657  0.73147122  0.41094396  1
  F  F29  1  0.71891854  0.71734655  0.75065655  1
  F  F30  1  0.76961181  0.22999235  0.42086956  1
  F  F31  1  0.81366036  0.15406106  0.09089718  1
  F  F32  1  0.76462588  0.21601352  0.76145689  1
  F  F33  1  0.76961181  0.77000765  0.57913044  1
  F  F34  1  0.81366036  0.84593894  0.90910282  1
  F  F35  1  0.76462588  0.78398648  0.23854311  1
