# generated using pymatgen
data_Li8TiMn3(PO4)6
_symmetry_space_group_name_H-M   'P 1'
_cell_length_a   9.03550797
_cell_length_b   9.03544330
_cell_length_c   8.92071042
_cell_angle_alpha   59.57395819
_cell_angle_beta   59.57344844
_cell_angle_gamma   59.99976321
_symmetry_Int_Tables_number   1
_chemical_formula_structural   Li8TiMn3(PO4)6
_chemical_formula_sum   'Li8 Ti1 Mn3 P6 O24'
_cell_volume   511.63128200
_cell_formula_units_Z   1
loop_
 _symmetry_equiv_pos_site_id
 _symmetry_equiv_pos_as_xyz
  1  'x, y, z'
loop_
 _atom_site_type_symbol
 _atom_site_label
 _atom_site_symmetry_multiplicity
 _atom_site_fract_x
 _atom_site_fract_y
 _atom_site_fract_z
 _atom_site_occupancy
  Li  Li0  1  0.03458746  0.03457567  0.89626011  1
  Li  Li1  1  0.19803048  0.76347335  0.68106495  1
  Li  Li2  1  0.35744043  0.19801724  0.68105739  1
  Li  Li3  1  0.76341466  0.35745341  0.68109012  1
  Li  Li4  1  0.52630692  0.52633770  0.42104383  1
  Li  Li5  1  0.27631518  0.68063576  0.17736121  1
  Li  Li6  1  0.68063264  0.86570742  0.17736364  1
  Li  Li7  1  0.86571445  0.27626869  0.17735262  1
  Ti  Ti8  1  0.85094669  0.85093975  0.44717757  1
  Mn  Mn9  1  0.16139338  0.16143173  0.51575826  1
  Mn  Mn10  1  0.65725085  0.65721442  0.02831237  1
  Mn  Mn11  1  0.35180094  0.35180831  0.94457938  1
  P  P12  1  0.04635718  0.45097329  0.74982187  1
  P  P13  1  0.45098046  0.75285064  0.74981308  1
  P  P14  1  0.75285590  0.04633139  0.74983966  1
  P  P15  1  0.24514472  0.94069764  0.25797898  1
  P  P16  1  0.55618475  0.24514329  0.25796202  1
  P  P17  1  0.94066352  0.55619101  0.25799359  1
  O  O18  1  0.07787797  0.26857999  0.74305819  1
  O  O19  1  0.97616613  0.61699341  0.59172117  1
  O  O20  1  0.23088859  0.45017349  0.72195925  1
  O  O21  1  0.46507940  0.69530573  0.93744846  1
  O  O22  1  0.26859723  0.91049860  0.74306469  1
  O  O23  1  0.45016689  0.59699360  0.72195687  1
  O  O24  1  0.69533847  0.90215504  0.93744068  1
  O  O25  1  0.59697763  0.23087932  0.72198271  1
  O  O26  1  0.20304526  0.95674552  0.44098541  1
  O  O27  1  0.08530325  0.90448273  0.26773162  1
  O  O28  1  0.90217166  0.46505171  0.93744857  1
  O  O29  1  0.39922207  0.20304157  0.44097378  1
  O  O30  1  0.61700567  0.81511663  0.59172144  1
  O  O31  1  0.11311941  0.52429492  0.09268854  1
  O  O32  1  0.91049785  0.07785430  0.74306798  1
  O  O33  1  0.81512477  0.97616045  0.59172033  1
  O  O34  1  0.40689771  0.76227225  0.24470676  1
  O  O35  1  0.26986874  0.11314291  0.09266723  1
  O  O36  1  0.58611207  0.40690619  0.24472217  1
  O  O37  1  0.74248808  0.08530786  0.26773671  1
  O  O38  1  0.52434806  0.26987346  0.09265452  1
  O  O39  1  0.95670240  0.39923751  0.44101752  1
  O  O40  1  0.76224789  0.58613453  0.24472866  1
  O  O41  1  0.90448519  0.74248656  0.26772607  1
