# generated using pymatgen
data_Li7FeCo3(PO4)6
_symmetry_space_group_name_H-M   'P 1'
_cell_length_a   8.81693406
_cell_length_b   8.81693442
_cell_length_c   8.80942570
_cell_angle_alpha   89.99999847
_cell_angle_beta   120.02820200
_cell_angle_gamma   120.00000016
_symmetry_Int_Tables_number   1
_chemical_formula_structural   Li7FeCo3(PO4)6
_chemical_formula_sum   'Li7 Fe1 Co3 P6 O24'
_cell_volume   484.04144419
_cell_formula_units_Z   1
loop_
 _symmetry_equiv_pos_site_id
 _symmetry_equiv_pos_as_xyz
  1  'x, y, z'
loop_
 _atom_site_type_symbol
 _atom_site_label
 _atom_site_symmetry_multiplicity
 _atom_site_fract_x
 _atom_site_fract_y
 _atom_site_fract_z
 _atom_site_occupancy
  Li  Li0  1  0.11784061  0.22828846  0.83985990  1
  Li  Li1  1  0.04812984  0.52406492  0.57219576  1
  Li  Li2  1  0.61157144  0.88955214  0.83985990  1
  Li  Li3  1  0.95030776  0.72201929  0.83985990  1
  Li  Li4  1  0.04053780  0.33468173  0.20091467  1
  Li  Li5  1  0.49505760  0.16037587  0.20091467  1
  Li  Li6  1  0.86623294  0.70585707  0.20091467  1
  Fe  Fe7  1  0.29081070  0.14540485  0.43621555  1
  Co  Co8  1  0.29808347  0.64904224  0.94712571  1
  Co  Co9  1  0.70287527  0.85143764  0.55431291  1
  Co  Co10  1  0.69832780  0.34916390  0.04749171  1
  P  P11  1  0.20450970  0.95644562  0.74760036  1
  P  P12  1  0.49953627  0.54309065  0.74760036  1
  P  P13  1  0.79115374  0.24806409  0.74760036  1
  P  P14  1  0.20998454  0.74992680  0.25143514  1
  P  P15  1  0.50150835  0.46005774  0.25143514  1
  P  P16  1  0.79137740  0.04145060  0.25143514  1
  O  O17  1  0.01992943  0.94240462  0.74504052  1
  O  O18  1  0.40915316  0.11929790  0.93215160  1
  O  O19  1  0.17617416  0.76791007  0.75417205  1
  O  O20  1  0.64229635  0.52299845  0.93215160  1
  O  O21  1  0.34590795  0.57799788  0.75417205  1
  O  O22  1  0.81285370  0.28985526  0.93215160  1
  O  O23  1  0.20541847  0.99121861  0.57861571  1
  O  O24  1  0.66751570  0.72511109  0.74504052  1
  O  O25  1  0.36441585  0.37319624  0.57861571  1
  O  O26  1  0.80263590  0.07752481  0.74504052  1
  O  O27  1  0.98626198  0.40826409  0.75417205  1
  O  O28  1  0.58739610  0.21419986  0.57861571  1
  O  O29  1  0.02207116  0.57316185  0.24029062  1
  O  O30  1  0.41742176  0.79310285  0.42302382  1
  O  O31  1  0.17563930  0.90537445  0.25811682  1
  O  O32  1  0.62992098  0.62431891  0.42302382  1
  O  O33  1  0.35274237  0.27026485  0.25811682  1
  O  O34  1  0.79870591  0.00560307  0.42302382  1
  O  O35  1  0.19325879  0.71949131  0.06755326  1
  O  O36  1  0.66712877  0.44891031  0.24029062  1
  O  O37  1  0.34806095  0.47376647  0.06755326  1
  O  O38  1  0.79138031  0.21821946  0.24029062  1
  O  O39  1  0.59378579  0.87429448  0.06755326  1
  O  O40  1  0.98785197  0.08247752  0.25811682  1
