# generated using pymatgen
data_Fe3(O2F)2
_symmetry_space_group_name_H-M   'P 1'
_cell_length_a   7.67983384
_cell_length_b   5.64878343
_cell_length_c   5.64878343
_cell_angle_alpha   69.19188486
_cell_angle_beta   68.60204339
_cell_angle_gamma   68.60204339
_symmetry_Int_Tables_number   1
_chemical_formula_structural   Fe3(O2F)2
_chemical_formula_sum   'Fe6 O8 F4'
_cell_volume   205.34228832
_cell_formula_units_Z   2
loop_
 _symmetry_equiv_pos_site_id
 _symmetry_equiv_pos_as_xyz
  1  'x, y, z'
loop_
 _atom_site_type_symbol
 _atom_site_label
 _atom_site_symmetry_multiplicity
 _atom_site_fract_x
 _atom_site_fract_y
 _atom_site_fract_z
 _atom_site_occupancy
  Fe  Fe0  1  0.85393438  0.67595951  0.67595951  1
  Fe  Fe1  1  0.65502874  0.33979406  0.33979406  1
  Fe  Fe2  1  0.32161739  0.65731540  0.65731540  1
  Fe  Fe3  1  0.18574015  0.34292042  0.34292042  1
  Fe  Fe4  1  0.49505561  0.99714701  0.99714701  1
  Fe  Fe5  1  0.99699433  0.99105370  0.99105370  1
  O  O6  1  0.66765052  0.02896883  0.64348432  1
  O  O7  1  0.33417606  0.35397255  0.97025311  1
  O  O8  1  0.04125083  0.77169675  0.77169675  1
  O  O9  1  0.37662826  0.43333422  0.43333422  1
  O  O10  1  0.33417606  0.97025311  0.35397255  1
  O  O11  1  0.66765052  0.64348432  0.02896883  1
  O  O12  1  0.99972641  0.30668565  0.69713856  1
  O  O13  1  0.99972641  0.69713856  0.30668565  1
  F  F14  1  0.29877670  0.89265642  0.89265642  1
  F  F15  1  0.94917878  0.22582284  0.22582284  1
  F  F16  1  0.62269746  0.56835585  0.56835585  1
  F  F17  1  0.69999139  0.10344179  0.10344179  1
