# generated using pymatgen
data_LiMn2(BO3)2
_symmetry_space_group_name_H-M   'P 1'
_cell_length_a   5.76890359
_cell_length_b   5.31081953
_cell_length_c   9.14836712
_cell_angle_alpha   90.07294493
_cell_angle_beta   103.21676681
_cell_angle_gamma   114.09217769
_symmetry_Int_Tables_number   1
_chemical_formula_structural   LiMn2(BO3)2
_chemical_formula_sum   'Li2 Mn4 B4 O12'
_cell_volume   247.67572674
_cell_formula_units_Z   2
loop_
 _symmetry_equiv_pos_site_id
 _symmetry_equiv_pos_as_xyz
  1  'x, y, z'
loop_
 _atom_site_type_symbol
 _atom_site_label
 _atom_site_symmetry_multiplicity
 _atom_site_fract_x
 _atom_site_fract_y
 _atom_site_fract_z
 _atom_site_occupancy
  Li  Li0  1  0.66923431  0.93101404  0.53189522  1
  Li  Li1  1  0.33076569  0.56898596  0.96810478  1
  Mn  Mn2  1  0.74522922  0.46215111  0.69889276  1
  Mn  Mn3  1  0.75194018  0.96435699  0.18944861  1
  Mn  Mn4  1  0.25477078  0.03784889  0.80110724  1
  Mn  Mn5  1  0.24805982  0.53564301  0.31055139  1
  B  B6  1  0.74643756  0.44967205  0.37362135  1
  B  B7  1  0.25356244  0.05032795  0.12637865  1
  B  B8  1  0.74131813  0.94472323  0.86155629  1
  B  B9  1  0.25868187  0.55527677  0.63844371  1
  O  O10  1  0.84893848  0.38204193  0.26261568  1
  O  O11  1  0.72933890  0.30228365  0.49530485  1
  O  O12  1  0.64696615  0.14636418  0.83516069  1
  O  O13  1  0.65641315  0.66114314  0.35346611  1
  O  O14  1  0.84920570  0.88738529  0.74719750  1
  O  O15  1  0.27066110  0.19771635  0.00469515  1
  O  O16  1  0.70592288  0.79012127  0.97905420  1
  O  O17  1  0.15106152  0.11795807  0.23738432  1
  O  O18  1  0.35303385  0.35363582  0.66483931  1
  O  O19  1  0.34358685  0.83885686  0.14653389  1
  O  O20  1  0.29407712  0.70987873  0.52094580  1
  O  O21  1  0.15079430  0.61261471  0.75280250  1
