# generated using pymatgen
data_LiMn2(BO3)2
_symmetry_space_group_name_H-M   'P 1'
_cell_length_a   9.11041100
_cell_length_b   5.30062579
_cell_length_c   10.55596888
_cell_angle_alpha   100.94405617
_cell_angle_beta   100.21087465
_cell_angle_gamma   89.90257079
_symmetry_Int_Tables_number   1
_chemical_formula_structural   LiMn2(BO3)2
_chemical_formula_sum   'Li4 Mn8 B8 O24'
_cell_volume   492.28995659
_cell_formula_units_Z   4
loop_
 _symmetry_equiv_pos_site_id
 _symmetry_equiv_pos_as_xyz
  1  'x, y, z'
loop_
 _atom_site_type_symbol
 _atom_site_label
 _atom_site_symmetry_multiplicity
 _atom_site_fract_x
 _atom_site_fract_y
 _atom_site_fract_z
 _atom_site_occupancy
  Li  Li0  1  0.38281183  0.00926662  0.83217080  1
  Li  Li1  1  0.86517344  0.73952495  0.66628191  1
  Li  Li2  1  0.13482656  0.26047505  0.33371809  1
  Li  Li3  1  0.61718817  0.99073338  0.16782920  1
  Mn  Mn4  1  0.74523219  0.02714584  0.87359248  1
  Mn  Mn5  1  0.23979489  0.52366388  0.87582554  1
  Mn  Mn6  1  0.01330732  0.22752038  0.62777511  1
  Mn  Mn7  1  0.50250691  0.72385935  0.62334195  1
  Mn  Mn8  1  0.49749309  0.27614065  0.37665805  1
  Mn  Mn9  1  0.98669268  0.77247962  0.37222489  1
  Mn  Mn10  1  0.76020511  0.47633612  0.12417446  1
  Mn  Mn11  1  0.25476781  0.97285416  0.12640752  1
  B  B12  1  0.07206354  0.00792641  0.86952101  1
  B  B13  1  0.56421645  0.51329334  0.87472994  1
  B  B14  1  0.68688074  0.23695848  0.62497932  1
  B  B15  1  0.17752183  0.74101420  0.63065171  1
  B  B16  1  0.82247817  0.25898580  0.36934829  1
  B  B17  1  0.31311926  0.76304152  0.37502068  1
  B  B18  1  0.43578355  0.48670666  0.12527006  1
  B  B19  1  0.92793646  0.99207359  0.13047899  1
  O  O20  1  0.70339936  0.42819093  0.92769977  1
  O  O21  1  0.43985917  0.36274450  0.86336260  1
  O  O22  1  0.94555787  0.86521708  0.85423655  1
  O  O23  1  0.68906684  0.00085490  0.66717229  1
  O  O24  1  0.07610215  0.23674178  0.82510124  1
  O  O25  1  0.55791109  0.74725775  0.82853748  1
  O  O26  1  0.21302017  0.91813588  0.92026886  1
  O  O27  1  0.81169986  0.38384284  0.63541960  1
  O  O28  1  0.54878183  0.33134628  0.57502666  1
  O  O29  1  0.17791317  0.51660596  0.68065797  1
  O  O30  1  0.96370132  0.17623405  0.42309677  1
  O  O31  1  0.30386805  0.88735562  0.64493195  1
  O  O32  1  0.69613195  0.11264438  0.35506805  1
  O  O33  1  0.03629868  0.82376595  0.57690323  1
  O  O34  1  0.82208683  0.48339404  0.31934203  1
  O  O35  1  0.45121817  0.66865372  0.42497334  1
  O  O36  1  0.18830014  0.61615716  0.36458040  1
  O  O37  1  0.78697983  0.08186412  0.07973114  1
  O  O38  1  0.44208891  0.25274225  0.17146252  1
  O  O39  1  0.92389785  0.76325822  0.17489876  1
  O  O40  1  0.31093316  0.99914510  0.33282771  1
  O  O41  1  0.05444213  0.13478292  0.14576345  1
  O  O42  1  0.56014083  0.63725550  0.13663740  1
  O  O43  1  0.29660064  0.57180907  0.07230023  1
