# generated using pymatgen
data_Sm3B5O12
_symmetry_space_group_name_H-M   'P 1'
_cell_length_a   6.53940108
_cell_length_b   8.07959726
_cell_length_c   17.59973092
_cell_angle_alpha   90.00000000
_cell_angle_beta   90.00000000
_cell_angle_gamma   90.00000000
_symmetry_Int_Tables_number   1
_chemical_formula_structural   Sm3B5O12
_chemical_formula_sum   'Sm12 B20 O48'
_cell_volume   929.89457901
_cell_formula_units_Z   4
loop_
 _symmetry_equiv_pos_site_id
 _symmetry_equiv_pos_as_xyz
  1  'x, y, z'
loop_
 _atom_site_type_symbol
 _atom_site_label
 _atom_site_symmetry_multiplicity
 _atom_site_fract_x
 _atom_site_fract_y
 _atom_site_fract_z
 _atom_site_occupancy
  Sm  Sm0  1  0.03992259  0.02098137  0.90037366  1
  Sm  Sm1  1  0.03992259  0.47901863  0.90037366  1
  Sm  Sm2  1  0.98979519  0.75000000  0.30850839  1
  Sm  Sm3  1  0.51020481  0.25000000  0.80850839  1
  Sm  Sm4  1  0.46007741  0.52098137  0.40037366  1
  Sm  Sm5  1  0.46007741  0.97901863  0.40037366  1
  Sm  Sm6  1  0.53992259  0.02098137  0.59962634  1
  Sm  Sm7  1  0.53992259  0.47901863  0.59962634  1
  Sm  Sm8  1  0.48979419  0.75000000  0.19149161  1
  Sm  Sm9  1  0.01020581  0.25000000  0.69149161  1
  Sm  Sm10  1  0.96007741  0.52098137  0.09962634  1
  Sm  Sm11  1  0.96007741  0.97901863  0.09962634  1
  B  B12  1  0.09413667  0.25000000  0.38608997  1
  B  B13  1  0.12729191  0.09977176  0.26007993  1
  B  B14  1  0.12729191  0.40022824  0.26007993  1
  B  B15  1  0.17166621  0.25000000  0.52471933  1
  B  B16  1  0.20380287  0.75000000  0.52070885  1
  B  B17  1  0.29619613  0.25000000  0.02070885  1
  B  B18  1  0.32833379  0.75000000  0.02471933  1
  B  B19  1  0.37270809  0.59977176  0.76007993  1
  B  B20  1  0.37270809  0.90022824  0.76007993  1
  B  B21  1  0.40586333  0.75000000  0.88608997  1
  B  B22  1  0.59413667  0.25000000  0.11391003  1
  B  B23  1  0.62729191  0.09977176  0.23992007  1
  B  B24  1  0.62729191  0.40022824  0.23992007  1
  B  B25  1  0.67166621  0.25000000  0.97528067  1
  B  B26  1  0.70380287  0.75000000  0.97929115  1
  B  B27  1  0.79619713  0.25000000  0.47929115  1
  B  B28  1  0.82833379  0.75000000  0.47528067  1
  B  B29  1  0.87270809  0.90022824  0.73992007  1
  B  B30  1  0.87270809  0.59977176  0.73992007  1
  B  B31  1  0.90586333  0.75000000  0.61391003  1
  O  O32  1  0.03196305  0.75000000  0.45880461  1
  O  O33  1  0.15459033  0.09874700  0.33803323  1
  O  O34  1  0.15459033  0.40125300  0.33803323  1
  O  O35  1  0.07867396  0.25000000  0.22352404  1
  O  O36  1  0.11024509  0.75000000  0.59624388  1
  O  O37  1  0.13902258  0.54340052  0.22092631  1
  O  O38  1  0.13902258  0.95659948  0.22092631  1
  O  O39  1  0.18402910  0.25000000  0.83583430  1
  O  O40  1  0.17422689  0.10030317  0.01058153  1
  O  O41  1  0.17422689  0.39969683  0.01058153  1
  O  O42  1  0.19862998  0.75000000  0.08643680  1
  O  O43  1  0.24529479  0.25000000  0.44919836  1
  O  O44  1  0.25470521  0.75000000  0.94919836  1
  O  O45  1  0.30137002  0.25000000  0.58643680  1
  O  O46  1  0.32577311  0.60030317  0.51058153  1
  O  O47  1  0.32577311  0.89969683  0.51058153  1
  O  O48  1  0.31597090  0.75000000  0.33583430  1
  O  O49  1  0.36097742  0.45659948  0.72092631  1
  O  O50  1  0.36097742  0.04340052  0.72092631  1
  O  O51  1  0.38975491  0.25000000  0.09624388  1
  O  O52  1  0.42132604  0.75000000  0.72352404  1
  O  O53  1  0.34540967  0.59874700  0.83803323  1
  O  O54  1  0.34540967  0.90125300  0.83803323  1
  O  O55  1  0.46803695  0.25000000  0.95880461  1
  O  O56  1  0.53196305  0.75000000  0.04119539  1
  O  O57  1  0.65459033  0.09874700  0.16196677  1
  O  O58  1  0.65459033  0.40125300  0.16196677  1
  O  O59  1  0.57867396  0.25000000  0.27647596  1
  O  O60  1  0.61024509  0.75000000  0.90375612  1
  O  O61  1  0.63902258  0.54340052  0.27907369  1
  O  O62  1  0.63902258  0.95659948  0.27907369  1
  O  O63  1  0.68402910  0.25000000  0.66416570  1
  O  O64  1  0.67422689  0.10030317  0.48941847  1
  O  O65  1  0.67422689  0.39969683  0.48941847  1
  O  O66  1  0.69862998  0.75000000  0.41356320  1
  O  O67  1  0.74529479  0.25000000  0.05080164  1
  O  O68  1  0.75470521  0.75000000  0.55080164  1
  O  O69  1  0.80137002  0.25000000  0.91356320  1
  O  O70  1  0.82577311  0.89969683  0.98941847  1
  O  O71  1  0.82577311  0.60030317  0.98941847  1
  O  O72  1  0.81597090  0.75000000  0.16416570  1
  O  O73  1  0.86097742  0.04340052  0.77907369  1
  O  O74  1  0.86097742  0.45659948  0.77907369  1
  O  O75  1  0.88975491  0.25000000  0.40375612  1
  O  O76  1  0.92132604  0.75000000  0.77647596  1
  O  O77  1  0.84540967  0.90125300  0.66196677  1
  O  O78  1  0.84540967  0.59874700  0.66196677  1
  O  O79  1  0.96803695  0.25000000  0.54119539  1
