# generated using pymatgen
data_Fe3(O2F)2
_symmetry_space_group_name_H-M   'P 1'
_cell_length_a   4.66226530
_cell_length_b   7.73130673
_cell_length_c   5.55648714
_cell_angle_alpha   94.83544965
_cell_angle_beta   90.43117859
_cell_angle_gamma   89.56634303
_symmetry_Int_Tables_number   1
_chemical_formula_structural   Fe3(O2F)2
_chemical_formula_sum   'Fe6 O8 F4'
_cell_volume   199.56249677
_cell_formula_units_Z   2
loop_
 _symmetry_equiv_pos_site_id
 _symmetry_equiv_pos_as_xyz
  1  'x, y, z'
loop_
 _atom_site_type_symbol
 _atom_site_label
 _atom_site_symmetry_multiplicity
 _atom_site_fract_x
 _atom_site_fract_y
 _atom_site_fract_z
 _atom_site_occupancy
  Fe  Fe0  1  0.54181489  0.65706145  0.15955272  1
  Fe  Fe1  1  0.50000000  0.00000000  0.50000000  1
  Fe  Fe2  1  0.45818511  0.34293855  0.84044728  1
  Fe  Fe3  1  0.00458138  0.68660499  0.67314521  1
  Fe  Fe4  1  0.99541862  0.31339501  0.32685579  1
  Fe  Fe5  1  0.00000000  0.00000000  0.00000000  1
  O  O6  1  0.80435407  0.78493087  0.96475433  1
  O  O7  1  0.80044235  0.09044546  0.28353231  1
  O  O8  1  0.69402056  0.76503854  0.46394876  1
  O  O9  1  0.69552560  0.42733825  0.12599257  1
  O  O10  1  0.30447440  0.57266175  0.87400743  1
  O  O11  1  0.30597944  0.23496146  0.53605124  1
  O  O12  1  0.19564593  0.21506913  0.03524567  1
  O  O13  1  0.19955765  0.90955454  0.71646769  1
  F  F14  1  0.80792765  0.43589716  0.62994363  1
  F  F15  1  0.70455991  0.11332628  0.78892989  1
  F  F16  1  0.29544109  0.88667372  0.21107011  1
  F  F17  1  0.19207235  0.56410284  0.37005637  1
