# generated using pymatgen
data_Li3Cr3(PO4)4
_symmetry_space_group_name_H-M   'P 1'
_cell_length_a   8.47123430
_cell_length_b   11.30197537
_cell_length_c   6.22551268
_cell_angle_alpha   90.00000000
_cell_angle_beta   101.64585684
_cell_angle_gamma   90.00000000
_symmetry_Int_Tables_number   1
_chemical_formula_structural   Li3Cr3(PO4)4
_chemical_formula_sum   'Li6 Cr6 P8 O32'
_cell_volume   583.77095138
_cell_formula_units_Z   2
loop_
 _symmetry_equiv_pos_site_id
 _symmetry_equiv_pos_as_xyz
  1  'x, y, z'
loop_
 _atom_site_type_symbol
 _atom_site_label
 _atom_site_symmetry_multiplicity
 _atom_site_fract_x
 _atom_site_fract_y
 _atom_site_fract_z
 _atom_site_occupancy
  Li  Li0  1  0.07117421  0.61007531  0.60272404  1
  Li  Li1  1  0.06067632  0.89218380  0.10761700  1
  Li  Li2  1  0.34662994  0.30236977  0.64784576  1
  Li  Li3  1  0.65337006  0.80236977  0.85215424  1
  Li  Li4  1  0.92882579  0.11007531  0.89727596  1
  Li  Li5  1  0.93932368  0.39218380  0.39238300  1
  Cr  Cr6  1  0.28091482  0.91460732  0.67169401  1
  Cr  Cr7  1  0.27403803  0.59114318  0.15042102  1
  Cr  Cr8  1  0.33846893  0.18590101  0.12578673  1
  Cr  Cr9  1  0.66153107  0.68590101  0.37421327  1
  Cr  Cr10  1  0.71908518  0.41460732  0.82830599  1
  Cr  Cr11  1  0.72596197  0.09114318  0.34957898  1
  P  P12  1  0.08530044  0.37396708  0.88455096  1
  P  P13  1  0.09908994  0.13146671  0.38040515  1
  P  P14  1  0.40396227  0.58640666  0.67573028  1
  P  P15  1  0.39894587  0.90894376  0.20936036  1
  P  P16  1  0.59603773  0.08640666  0.82426972  1
  P  P17  1  0.60105413  0.40894376  0.29063964  1
  P  P18  1  0.91469956  0.87396708  0.61544904  1
  P  P19  1  0.90091006  0.63146671  0.11959485  1
  O  O20  1  0.08199308  0.43836526  0.67105334  1
  O  O21  1  0.07975954  0.81815769  0.59980092  1
  O  O22  1  0.09885798  0.06873511  0.16012272  1
  O  O23  1  0.06697892  0.68604286  0.10199073  1
  O  O24  1  0.15749265  0.05646098  0.59041191  1
  O  O25  1  0.20382250  0.26785352  0.89072336  1
  O  O26  1  0.15021643  0.44883458  0.09478791  1
  O  O27  1  0.31646007  0.63250659  0.85628690  1
  O  O28  1  0.28127416  0.91273823  0.98591009  1
  O  O29  1  0.22549747  0.23128237  0.37518756  1
  O  O30  1  0.29194233  0.87983476  0.37278583  1
  O  O31  1  0.26966322  0.58141475  0.46546650  1
  O  O32  1  0.46641622  0.17652260  0.86268592  1
  O  O33  1  0.48157057  0.46254519  0.73951978  1
  O  O34  1  0.48112778  0.30734463  0.29012880  1
  O  O35  1  0.51842943  0.96254519  0.76048022  1
  O  O36  1  0.48372967  0.03429626  0.25884345  1
  O  O37  1  0.53358378  0.67652260  0.63731408  1
  O  O38  1  0.51627033  0.53429626  0.24115655  1
  O  O39  1  0.51887222  0.80734463  0.20987120  1
  O  O40  1  0.71872584  0.41273823  0.51408991  1
  O  O41  1  0.68353993  0.13250659  0.64371310  1
  O  O42  1  0.79617750  0.76785352  0.60927664  1
  O  O43  1  0.73033678  0.08141475  0.03453350  1
  O  O44  1  0.70805767  0.37983476  0.12721417  1
  O  O45  1  0.84250735  0.55646098  0.90958809  1
  O  O46  1  0.77450253  0.73128237  0.12481244  1
  O  O47  1  0.84978357  0.94883458  0.40521209  1
  O  O48  1  0.92024046  0.31815769  0.90019908  1
  O  O49  1  0.91800692  0.93836526  0.82894666  1
  O  O50  1  0.93302108  0.18604286  0.39800927  1
  O  O51  1  0.90114202  0.56873511  0.33987728  1
