# generated using pymatgen
data_Fe3(O2F)2
_symmetry_space_group_name_H-M   'P 1'
_cell_length_a   4.77142700
_cell_length_b   7.69707619
_cell_length_c   5.64156600
_cell_angle_alpha   96.07058040
_cell_angle_beta   94.77267687
_cell_angle_gamma   86.48396371
_symmetry_Int_Tables_number   1
_chemical_formula_structural   Fe3(O2F)2
_chemical_formula_sum   'Fe6 O8 F4'
_cell_volume   205.02745893
_cell_formula_units_Z   2
loop_
 _symmetry_equiv_pos_site_id
 _symmetry_equiv_pos_as_xyz
  1  'x, y, z'
loop_
 _atom_site_type_symbol
 _atom_site_label
 _atom_site_symmetry_multiplicity
 _atom_site_fract_x
 _atom_site_fract_y
 _atom_site_fract_z
 _atom_site_occupancy
  Fe  Fe0  1  0.49271544  0.66399326  0.17077651  1
  Fe  Fe1  1  0.53078021  0.01009368  0.47974286  1
  Fe  Fe2  1  0.52787284  0.34236020  0.81517431  1
  Fe  Fe3  1  0.98817066  0.65745098  0.66936751  1
  Fe  Fe4  1  0.98055081  0.32509763  0.34581546  1
  Fe  Fe5  1  0.99368927  0.00516333  0.01040190  1
  O  O6  1  0.81201131  0.43853411  0.62515447  1
  O  O7  1  0.81094902  0.10202936  0.28853245  1
  O  O8  1  0.69570132  0.10015149  0.79322966  1
  O  O9  1  0.69131331  0.76828999  0.46329814  1
  O  O10  1  0.69650332  0.43899090  0.12895477  1
  O  O11  1  0.30667988  0.56798719  0.87187821  1
  O  O12  1  0.30793422  0.23007830  0.53594181  1
  O  O13  1  0.30558841  0.89566430  0.20417239  1
  F  F14  1  0.80303790  0.76817448  0.96764298  1
  F  F15  1  0.19111426  0.23257706  0.04267912  1
  F  F16  1  0.19256767  0.56295207  0.37003506  1
  F  F17  1  0.17282018  0.89041065  0.71720338  1
