# generated using pymatgen
data_Cr19O48
_symmetry_space_group_name_H-M   'P 1'
_cell_length_a   5.00864310
_cell_length_b   10.27922495
_cell_length_c   17.34370515
_cell_angle_alpha   89.71453895
_cell_angle_beta   89.27305518
_cell_angle_gamma   89.92576868
_symmetry_Int_Tables_number   1
_chemical_formula_structural   Cr19O48
_chemical_formula_sum   'Cr19 O48'
_cell_volume   892.85649424
_cell_formula_units_Z   1
loop_
 _symmetry_equiv_pos_site_id
 _symmetry_equiv_pos_as_xyz
  1  'x, y, z'
loop_
 _atom_site_type_symbol
 _atom_site_label
 _atom_site_symmetry_multiplicity
 _atom_site_fract_x
 _atom_site_fract_y
 _atom_site_fract_z
 _atom_site_occupancy
  Cr  Cr0  1  0.23666917  0.74897494  0.94218000  1
  Cr  Cr1  1  0.23391105  0.02736566  0.65571246  1
  Cr  Cr2  1  0.23367341  0.47173660  0.65365648  1
  Cr  Cr3  1  0.22770610  0.75556501  0.29457771  1
  Cr  Cr4  1  0.22357318  0.06675509  0.97639539  1
  Cr  Cr5  1  0.28750718  0.52597195  0.15097079  1
  Cr  Cr6  1  0.29117253  0.97521776  0.15674669  1
  Cr  Cr7  1  0.29631737  0.25040344  0.44627177  1
  Cr  Cr8  1  0.41292535  0.74339199  0.74675127  1
  Cr  Cr9  1  0.58665089  0.25043144  0.24816010  1
  Cr  Cr10  1  0.71657025  0.75019387  0.56071788  1
  Cr  Cr11  1  0.71499946  0.47528574  0.84305931  1
  Cr  Cr12  1  0.70647347  0.02326546  0.84816542  1
  Cr  Cr13  1  0.77040224  0.06359418  0.52737634  1
  Cr  Cr14  1  0.76871190  0.43589988  0.52708324  1
  Cr  Cr15  1  0.76826659  0.56492187  0.02019705  1
  Cr  Cr16  1  0.75712756  0.53084988  0.34245053  1
  Cr  Cr17  1  0.75909737  0.96976081  0.34401939  1
  Cr  Cr18  1  0.76178585  0.24561456  0.05475561  1
  O  O19  1  0.04810882  0.22581862  0.00090220  1
  O  O20  1  0.03696202  0.61600198  0.35672569  1
  O  O21  1  0.04029145  0.88643153  0.36163206  1
  O  O22  1  0.12970700  0.62782585  0.20920669  1
  O  O23  1  0.10647567  0.87709652  0.21467965  1
  O  O24  1  0.10592886  0.12375025  0.46801242  1
  O  O25  1  0.10588233  0.37688519  0.46742407  1
  O  O26  1  0.11129543  0.00259097  0.07374092  1
  O  O27  1  0.07861266  0.49594491  0.07874589  1
  O  O28  1  0.18419028  0.74882980  0.84634355  1
  O  O29  1  0.18693129  0.61977923  0.70167694  1
  O  O30  1  0.20131576  0.87983172  0.70575611  1
  O  O31  1  0.36034092  0.11441535  0.20327328  1
  O  O32  1  0.36524495  0.38792386  0.19784420  1
  O  O33  1  0.37563866  0.25104058  0.35282429  1
  O  O34  1  0.43623908  0.49383180  0.57718620  1
  O  O35  1  0.43916576  0.00591379  0.57984226  1
  O  O36  1  0.38190617  0.88842317  0.96718405  1
  O  O37  1  0.44965921  0.63179930  0.96378482  1
  O  O38  1  0.37446113  0.12546812  0.71249325  1
  O  O39  1  0.38676417  0.37792257  0.71096753  1
  O  O40  1  0.42360398  0.09964927  0.88678566  1
  O  O41  1  0.46213935  0.39237882  0.87110872  1
  O  O42  1  0.46297816  0.75065909  0.50640807  1
  O  O43  1  0.58421642  0.24979717  0.50527539  1
  O  O44  1  0.56244911  0.60102569  0.11762806  1
  O  O45  1  0.55782582  0.90091471  0.13243727  1
  O  O46  1  0.54155637  0.62545404  0.29792162  1
  O  O47  1  0.54391482  0.87550347  0.29891355  1
  O  O48  1  0.54962673  0.12919736  0.03328399  1
  O  O49  1  0.61966891  0.38432267  0.02997742  1
  O  O50  1  0.61749882  0.01166888  0.42743279  1
  O  O51  1  0.61992006  0.48915203  0.42692394  1
  O  O52  1  0.62659384  0.75207039  0.65742244  1
  O  O53  1  0.60793002  0.62502200  0.79258070  1
  O  O54  1  0.62740237  0.88616599  0.80144621  1
  O  O55  1  0.81285200  0.10697212  0.29344537  1
  O  O56  1  0.81194965  0.39423295  0.29153669  1
  O  O57  1  0.81223932  0.24438826  0.14998986  1
  O  O58  1  0.90853871  0.51348614  0.91967913  1
  O  O59  1  0.91945043  0.99640262  0.92213408  1
  O  O60  1  0.90008910  0.61589914  0.54115228  1
  O  O61  1  0.90267219  0.88328908  0.54010530  1
  O  O62  1  0.84970169  0.12187550  0.79034575  1
  O  O63  1  0.89655420  0.38885787  0.78698031  1
  O  O64  1  0.94752520  0.09906189  0.62531527  1
  O  O65  1  0.94960506  0.39712489  0.62455631  1
  O  O66  1  0.95806715  0.73110772  0.99619328  1
