# generated using pymatgen
data_Li4Cr7(PO4)6
_symmetry_space_group_name_H-M   'P 1'
_cell_length_a   9.04317964
_cell_length_b   9.04317964
_cell_length_c   6.50679087
_cell_angle_alpha   81.24553674
_cell_angle_beta   98.75446326
_cell_angle_gamma   77.67673463
_symmetry_Int_Tables_number   1
_chemical_formula_structural   Li4Cr7(PO4)6
_chemical_formula_sum   'Li4 Cr7 P6 O24'
_cell_volume   504.31648058
_cell_formula_units_Z   1
loop_
 _symmetry_equiv_pos_site_id
 _symmetry_equiv_pos_as_xyz
  1  'x, y, z'
loop_
 _atom_site_type_symbol
 _atom_site_label
 _atom_site_symmetry_multiplicity
 _atom_site_fract_x
 _atom_site_fract_y
 _atom_site_fract_z
 _atom_site_occupancy
  Li  Li0  1  0.00524681  0.99475319  0.48794864  1
  Li  Li1  1  0.36090141  0.63909859  0.57311546  1
  Li  Li2  1  0.44433242  0.32612698  0.51996517  1
  Li  Li3  1  0.67387302  0.55566758  0.51996517  1
  Cr  Cr4  1  0.64534723  0.98815393  0.18536222  1
  Cr  Cr5  1  0.01184607  0.35465277  0.18536222  1
  Cr  Cr6  1  0.00141093  0.99858907  0.99467719  1
  Cr  Cr7  1  0.66147212  0.65225571  0.00604059  1
  Cr  Cr8  1  0.34774429  0.33852788  0.00604059  1
  Cr  Cr9  1  0.35835804  0.99888975  0.82024428  1
  Cr  Cr10  1  0.00111025  0.64164196  0.82024428  1
  P  P11  1  0.70893776  0.89697446  0.69787571  1
  P  P12  1  0.10302554  0.29106224  0.69787571  1
  P  P13  1  0.31759447  0.68240553  0.08392014  1
  P  P14  1  0.68753583  0.31246417  0.91770693  1
  P  P15  1  0.29613469  0.08225732  0.30601156  1
  P  P16  1  0.91774268  0.70386531  0.30601156  1
  O  O17  1  0.34376435  0.96550384  0.51544010  1
  O  O18  1  0.03449616  0.65623565  0.51544010  1
  O  O19  1  0.04841500  0.38073857  0.87274557  1
  O  O20  1  0.61926143  0.95158500  0.87274557  1
  O  O21  1  0.18615875  0.81384125  0.10552104  1
  O  O22  1  0.25147235  0.57509254  0.94469319  1
  O  O23  1  0.42490746  0.74852765  0.94469319  1
  O  O24  1  0.12026762  0.11175810  0.75997595  1
  O  O25  1  0.88824190  0.87973238  0.75997595  1
  O  O26  1  0.68755700  0.72890370  0.69585207  1
  O  O27  1  0.27109630  0.31244300  0.69585207  1
  O  O28  1  0.41005524  0.58994476  0.30257774  1
  O  O29  1  0.59020902  0.40979098  0.70208904  1
  O  O30  1  0.32695638  0.24554708  0.31347493  1
  O  O31  1  0.75445292  0.67304362  0.31347493  1
  O  O32  1  0.11512847  0.11193644  0.23921863  1
  O  O33  1  0.88806356  0.88487153  0.23921863  1
  O  O34  1  0.81767036  0.18232964  0.89179577  1
  O  O35  1  0.38793018  0.02348085  0.13642529  1
  O  O36  1  0.97651915  0.61206982  0.13642529  1
  O  O37  1  0.75849748  0.42138876  0.04703170  1
  O  O38  1  0.57861124  0.24150252  0.04703170  1
  O  O39  1  0.64959453  0.01301440  0.49037057  1
  O  O40  1  0.98698560  0.35040547  0.49037057  1
