# generated using pymatgen
data_Ho2Sb2O7
_symmetry_space_group_name_H-M   'P 1'
_cell_length_a   7.52875353
_cell_length_b   7.52892604
_cell_length_c   18.52611989
_cell_angle_alpha   90.00595922
_cell_angle_beta   89.99447157
_cell_angle_gamma   120.00389434
_symmetry_Int_Tables_number   1
_chemical_formula_structural   Ho2Sb2O7
_chemical_formula_sum   'Ho12 Sb12 O42'
_cell_volume   909.39835889
_cell_formula_units_Z   6
loop_
 _symmetry_equiv_pos_site_id
 _symmetry_equiv_pos_as_xyz
  1  'x, y, z'
loop_
 _atom_site_type_symbol
 _atom_site_label
 _atom_site_symmetry_multiplicity
 _atom_site_fract_x
 _atom_site_fract_y
 _atom_site_fract_z
 _atom_site_occupancy
  Ho  Ho0  1  0.99994113  0.82604595  0.66668097  1
  Ho  Ho1  1  0.99969873  0.83651455  0.16670326  1
  Ho  Ho2  1  0.18232305  0.68402328  0.01127858  1
  Ho  Ho3  1  0.17461573  0.17441894  0.00002420  1
  Ho  Ho4  1  0.50198312  0.81814517  0.67788301  1
  Ho  Ho5  1  0.16279683  0.16340935  0.50002905  1
  Ho  Ho6  1  0.31600591  0.49847341  0.34471765  1
  Ho  Ho7  1  0.49854328  0.31595588  0.65523630  1
  Ho  Ho8  1  0.68413014  0.18256345  0.98868410  1
  Ho  Ho9  1  0.81801662  0.50182884  0.32208368  1
  Ho  Ho10  1  0.83678046  0.00012105  0.83331906  1
  Ho  Ho11  1  0.82599823  0.99997376  0.33327198  1
  Sb  Sb12  1  0.99966321  0.32865521  0.16665585  1
  Sb  Sb13  1  0.00138388  0.30146492  0.66694054  1
  Sb  Sb14  1  0.16773454  0.66955907  0.50124843  1
  Sb  Sb15  1  0.50185216  0.83194840  0.16796873  1
  Sb  Sb16  1  0.33012110  0.49805939  0.83454014  1
  Sb  Sb17  1  0.30110114  0.00083987  0.33325793  1
  Sb  Sb18  1  0.67129939  0.67113468  0.49993530  1
  Sb  Sb19  1  0.32875775  0.99970625  0.83328965  1
  Sb  Sb20  1  0.69954671  0.69993222  0.00007393  1
  Sb  Sb21  1  0.49800892  0.33010224  0.16548925  1
  Sb  Sb22  1  0.66945378  0.16762684  0.49877224  1
  Sb  Sb23  1  0.83192135  0.50193087  0.83204950  1
  O  O24  1  0.01680699  0.85206719  0.28449650  1
  O  O25  1  0.99163141  0.80069488  0.80302709  1
  O  O26  1  0.10626743  0.65680439  0.39426673  1
  O  O27  1  0.04478326  0.42675891  0.80744228  1
  O  O28  1  0.32958943  0.99400353  0.95674692  1
  O  O29  1  0.23345954  0.69290882  0.60634096  1
  O  O30  1  0.00656919  0.33560034  0.28983390  1
  O  O31  1  0.20149143  0.67687996  0.13914375  1
  O  O32  1  0.38171532  0.95476499  0.47404128  1
  O  O33  1  0.45951401  0.76635691  0.27301128  1
  O  O34  1  0.47576208  0.79835588  0.80571096  1
  O  O35  1  0.34160193  0.44877355  0.72738218  1
  O  O36  1  0.14834641  0.16458115  0.61788938  1
  O  O37  1  0.32305091  0.52441440  0.47247494  1
  O  O38  1  0.19917671  0.19148277  0.13662748  1
  O  O39  1  0.16442518  0.14821108  0.38217073  1
  O  O40  1  0.30676196  0.54023680  0.93962251  1
  O  O41  1  0.19146544  0.19926121  0.86345000  1
  O  O42  1  0.55130621  0.89331522  0.06091032  1
  O  O43  1  0.57327982  0.61803040  0.14088442  1
  O  O44  1  0.80831943  0.00762754  0.46976454  1
  O  O45  1  0.66460406  0.67092433  0.62334960  1
  O  O46  1  0.44889247  0.34184110  0.27260040  1
  O  O47  1  0.61782355  0.57293247  0.85916219  1
  O  O48  1  0.33559575  0.00654935  0.71017817  1
  O  O49  1  0.83555159  0.98382963  0.95118906  1
  O  O50  1  0.53990279  0.30659272  0.06037468  1
  O  O51  1  0.67089603  0.66464337  0.37659375  1
  O  O52  1  0.52412825  0.32269785  0.52753129  1
  O  O53  1  0.42683602  0.04482083  0.19251975  1
  O  O54  1  0.69311948  0.23351842  0.39368682  1
  O  O55  1  0.67694771  0.20151679  0.86082258  1
  O  O56  1  0.89342212  0.55110823  0.93906437  1
  O  O57  1  0.98377484  0.83571388  0.04881520  1
  O  O58  1  0.79835721  0.47573370  0.19427152  1
  O  O59  1  0.00807572  0.80868764  0.53029650  1
  O  O60  1  0.76636580  0.45971088  0.72699683  1
  O  O61  1  0.65669942  0.10630798  0.60572777  1
  O  O62  1  0.95516824  0.38134644  0.52576421  1
  O  O63  1  0.80059713  0.99159953  0.19703636  1
  O  O64  1  0.99406554  0.32948390  0.04326801  1
  O  O65  1  0.85217603  0.01687646  0.71551452  1
