# generated using pymatgen
data_Li3Mn2(PO3)7
_symmetry_space_group_name_H-M   'P 1'
_cell_length_a   6.79114773
_cell_length_b   7.15778055
_cell_length_c   19.32743293
_cell_angle_alpha   88.38031032
_cell_angle_beta   99.11863323
_cell_angle_gamma   114.02602161
_symmetry_Int_Tables_number   1
_chemical_formula_structural   Li3Mn2(PO3)7
_chemical_formula_sum   'Li6 Mn4 P14 O42'
_cell_volume   846.57071026
_cell_formula_units_Z   2
loop_
 _symmetry_equiv_pos_site_id
 _symmetry_equiv_pos_as_xyz
  1  'x, y, z'
loop_
 _atom_site_type_symbol
 _atom_site_label
 _atom_site_symmetry_multiplicity
 _atom_site_fract_x
 _atom_site_fract_y
 _atom_site_fract_z
 _atom_site_occupancy
  Li  Li0  1  0.25577476  0.80206093  0.75099498  1
  Li  Li1  1  0.44224366  0.23961972  0.57883628  1
  Li  Li2  1  0.82800061  0.87374560  0.87172517  1
  Li  Li3  1  0.17199939  0.12625440  0.12827483  1
  Li  Li4  1  0.55775634  0.76038028  0.42116372  1
  Li  Li5  1  0.74422524  0.19793907  0.24900502  1
  Mn  Mn6  1  0.60108042  0.81201416  0.61616786  1
  Mn  Mn7  1  0.38597489  0.14919491  0.87698972  1
  Mn  Mn8  1  0.61402511  0.85080509  0.12301028  1
  Mn  Mn9  1  0.39891958  0.18798584  0.38383214  1
  P  P10  1  0.29710582  0.72864453  0.96285768  1
  P  P11  1  0.19110155  0.77286888  0.49598875  1
  P  P12  1  0.02127951  0.69640145  0.06862762  1
  P  P13  1  0.08726038  0.42303377  0.39975600  1
  P  P14  1  0.04421323  0.10895411  0.72032876  1
  P  P15  1  0.35115017  0.82844556  0.26822494  1
  P  P16  1  0.46699485  0.46457807  0.75139324  1
  P  P17  1  0.53300515  0.53542193  0.24860676  1
  P  P18  1  0.64884983  0.17155444  0.73177506  1
  P  P19  1  0.95578677  0.89104589  0.27967124  1
  P  P20  1  0.91273962  0.57696623  0.60024400  1
  P  P21  1  0.97872049  0.30359855  0.93137238  1
  P  P22  1  0.80889845  0.22713112  0.50401125  1
  P  P23  1  0.70289418  0.27135547  0.03714232  1
  O  O24  1  0.09633279  0.75376700  0.99126721  1
  O  O25  1  0.97879078  0.71680532  0.53297274  1
  O  O26  1  0.30865486  0.82667659  0.89271837  1
  O  O27  1  0.08048037  0.65992982  0.66345865  1
  O  O28  1  0.21813343  0.48532848  0.95221683  1
  O  O29  1  0.02526557  0.12760741  0.90848055  1
  O  O30  1  0.08693788  0.64155083  0.42235878  1
  O  O31  1  0.27771812  0.99736394  0.48341222  1
  O  O32  1  0.09286445  0.77212230  0.25503480  1
  O  O33  1  0.50320829  0.79619298  0.01560616  1
  O  O34  1  0.10684928  0.99819140  0.78163585  1
  O  O35  1  0.25775342  0.29701891  0.69988944  1
  O  O36  1  0.33974960  0.68335849  0.53619875  1
  O  O37  1  0.17800086  0.62667851  0.11240912  1
  O  O38  1  0.32470439  0.45930879  0.40042979  1
  O  O39  1  0.42911222  0.43263010  0.82603068  1
  O  O40  1  0.45332682  0.91312435  0.34308833  1
  O  O41  1  0.45900100  0.95845780  0.21122869  1
  O  O42  1  0.07165379  0.01169729  0.34662052  1
  O  O43  1  0.51726062  0.67342658  0.72286310  1
  O  O44  1  0.33951660  0.60072311  0.26169221  1
  O  O45  1  0.66048340  0.39927689  0.73830779  1
  O  O46  1  0.48273938  0.32657342  0.27713690  1
  O  O47  1  0.92834621  0.98830271  0.65337948  1
  O  O48  1  0.54099900  0.04154220  0.78877131  1
  O  O49  1  0.54667318  0.08687565  0.65691167  1
  O  O50  1  0.57088778  0.56736990  0.17396932  1
  O  O51  1  0.67529561  0.54069121  0.59957021  1
  O  O52  1  0.82199914  0.37332149  0.88759088  1
  O  O53  1  0.66025040  0.31664151  0.46380125  1
  O  O54  1  0.74224658  0.70298109  0.30011056  1
  O  O55  1  0.89315072  0.00180860  0.21836415  1
  O  O56  1  0.49679171  0.20380702  0.98439384  1
  O  O57  1  0.90713555  0.22787770  0.74496520  1
  O  O58  1  0.72228188  0.00263606  0.51658778  1
  O  O59  1  0.91306212  0.35844917  0.57764122  1
  O  O60  1  0.97473443  0.87239259  0.09151945  1
  O  O61  1  0.78186657  0.51467152  0.04778317  1
  O  O62  1  0.91951963  0.34007018  0.33654135  1
  O  O63  1  0.69134514  0.17332341  0.10728163  1
  O  O64  1  0.02120922  0.28319468  0.46702726  1
  O  O65  1  0.90366721  0.24623300  0.00873279  1
