# generated using pymatgen
data_CeMg5
_symmetry_space_group_name_H-M   'P 1'
_cell_length_a   5.61878804
_cell_length_b   5.61878821
_cell_length_c   16.43304957
_cell_angle_alpha   90.00000000
_cell_angle_beta   90.00000000
_cell_angle_gamma   119.99999899
_symmetry_Int_Tables_number   1
_chemical_formula_structural   CeMg5
_chemical_formula_sum   'Ce3 Mg15'
_cell_volume   449.29761515
_cell_formula_units_Z   3
loop_
 _symmetry_equiv_pos_site_id
 _symmetry_equiv_pos_as_xyz
  1  'x, y, z'
loop_
 _atom_site_type_symbol
 _atom_site_label
 _atom_site_symmetry_multiplicity
 _atom_site_fract_x
 _atom_site_fract_y
 _atom_site_fract_z
 _atom_site_occupancy
  Ce  Ce0  1  0.33333300  0.66666700  0.16666700  1
  Ce  Ce1  1  -0.00000000  0.00000000  0.50000000  1
  Ce  Ce2  1  0.66666700  0.33333300  0.83333300  1
  Mg  Mg3  1  0.66858058  0.66858058  -0.00000000  1
  Mg  Mg4  1  -0.00000000  -0.00000000  0.16663706  1
  Mg  Mg5  1  0.00000000  0.33141942  -0.00000000  1
  Mg  Mg6  1  0.33141942  0.00000000  -0.00000000  1
  Mg  Mg7  1  0.66666700  0.33333300  0.16669694  1
  Mg  Mg8  1  0.33524658  0.00191358  0.33333300  1
  Mg  Mg9  1  0.66666700  0.33333300  0.49997006  1
  Mg  Mg10  1  0.66666700  0.66475342  0.33333300  1
  Mg  Mg11  1  0.99808642  0.33333300  0.33333300  1
  Mg  Mg12  1  0.33333300  0.66666700  0.50002994  1
  Mg  Mg13  1  0.00191358  0.33524658  0.66666700  1
  Mg  Mg14  1  0.33333300  0.66666700  0.83330306  1
  Mg  Mg15  1  0.33333300  0.99808642  0.66666700  1
  Mg  Mg16  1  0.66475342  0.66666700  0.66666700  1
  Mg  Mg17  1  -0.00000000  0.00000000  0.83336294  1
