# generated using pymatgen
data_Li2VPO5
_symmetry_space_group_name_H-M   'P 1'
_cell_length_a   4.16650589
_cell_length_b   6.55286440
_cell_length_c   6.71982120
_cell_angle_alpha   89.96304179
_cell_angle_beta   90.00389343
_cell_angle_gamma   90.00025449
_symmetry_Int_Tables_number   1
_chemical_formula_structural   Li2VPO5
_chemical_formula_sum   'Li4 V2 P2 O10'
_cell_volume   183.46820305
_cell_formula_units_Z   2
loop_
 _symmetry_equiv_pos_site_id
 _symmetry_equiv_pos_as_xyz
  1  'x, y, z'
loop_
 _atom_site_type_symbol
 _atom_site_label
 _atom_site_symmetry_multiplicity
 _atom_site_fract_x
 _atom_site_fract_y
 _atom_site_fract_z
 _atom_site_occupancy
  Li  Li0  1  0.03266776  0.00970994  0.47683415  1
  Li  Li1  1  0.96836438  0.97032980  0.97771263  1
  Li  Li2  1  0.96763479  0.50950665  0.97710161  1
  Li  Li3  1  0.03169619  0.47053697  0.47778880  1
  V  V4  1  0.37949170  0.73994735  0.74617940  1
  V  V5  1  0.62051394  0.23996021  0.24617292  1
  P  P6  1  0.50003134  0.73998595  0.24476670  1
  P  P7  1  0.50036228  0.23995968  0.74527403  1
  O  O8  1  0.71843614  0.93209696  0.24641616  1
  O  O9  1  0.28705591  0.74220581  0.05707930  1
  O  O10  1  0.83072092  0.73961138  0.76742646  1
  O  O11  1  0.28980992  0.73814633  0.43554768  1
  O  O12  1  0.71816557  0.54803695  0.24254812  1
  O  O13  1  0.28145423  0.43196153  0.74652667  1
  O  O14  1  0.71272931  0.24219419  0.55713806  1
  O  O15  1  0.16923965  0.23961755  0.26730706  1
  O  O16  1  0.70985793  0.23811665  0.93540102  1
  O  O17  1  0.28171804  0.04805609  0.74265224  1
