# generated using pymatgen
data_LiCuP4O11
_symmetry_space_group_name_H-M   'P 1'
_cell_length_a   9.57924109
_cell_length_b   9.62337495
_cell_length_c   10.90971921
_cell_angle_alpha   109.56693855
_cell_angle_beta   70.70097024
_cell_angle_gamma   90.86765986
_symmetry_Int_Tables_number   1
_chemical_formula_structural   LiCuP4O11
_chemical_formula_sum   'Li4 Cu4 P16 O44'
_cell_volume   889.20232580
_cell_formula_units_Z   4
loop_
 _symmetry_equiv_pos_site_id
 _symmetry_equiv_pos_as_xyz
  1  'x, y, z'
loop_
 _atom_site_type_symbol
 _atom_site_label
 _atom_site_symmetry_multiplicity
 _atom_site_fract_x
 _atom_site_fract_y
 _atom_site_fract_z
 _atom_site_occupancy
  Li  Li0  1  0.61323181  0.44821609  0.93855568  1
  Li  Li1  1  0.77306860  0.36576215  0.30971228  1
  Li  Li2  1  0.22411585  0.63860142  0.69440296  1
  Li  Li3  1  0.27428637  0.80784851  0.21972411  1
  Cu  Cu4  1  0.77757862  0.20698510  0.96872812  1
  Cu  Cu5  1  0.72981661  0.74943239  0.50486037  1
  Cu  Cu6  1  0.27016805  0.25391925  0.49881675  1
  Cu  Cu7  1  0.21268196  0.77099318  0.00195570  1
  P  P8  1  0.91464524  0.76155779  0.92967720  1
  P  P9  1  0.93974998  0.42399831  0.77793289  1
  P  P10  1  0.91387391  0.89355817  0.70690965  1
  P  P11  1  0.73819791  0.40612873  0.61207238  1
  P  P12  1  0.75709678  0.08574799  0.43679601  1
  P  P13  1  0.40192070  0.23463976  0.89766949  1
  P  P14  1  0.40142383  0.90832981  0.76645513  1
  P  P15  1  0.41560682  0.43416381  0.73345080  1
  P  P16  1  0.58354158  0.56383259  0.26860619  1
  P  P17  1  0.60130424  0.09438159  0.23478228  1
  P  P18  1  0.60060219  0.76897914  0.10613638  1
  P  P19  1  0.24171547  0.91602815  0.56358634  1
  P  P20  1  0.26189401  0.59095977  0.38909064  1
  P  P21  1  0.08334387  0.10896584  0.29483098  1
  P  P22  1  0.06028912  0.57724267  0.22582307  1
  P  P23  1  0.08942455  0.23773926  0.06773177  1
  O  O24  1  0.98140007  0.59180642  0.84967731  1
  O  O25  1  0.96806079  0.82426253  0.80897394  1
  O  O26  1  0.81510369  0.38751764  0.88536228  1
  O  O27  1  0.86213002  0.46331326  0.67534923  1
  O  O28  1  0.89853541  0.76366597  0.59234337  1
  O  O29  1  0.80046824  0.02199441  0.79372054  1
  O  O30  1  0.73647671  0.75863356  0.96850198  1
  O  O31  1  0.92810480  0.03917095  0.35173998  1
  O  O32  1  0.91139924  0.65933171  0.30679243  1
  O  O33  1  0.96521247  0.83072589  0.04771924  1
  O  O34  1  0.75381154  0.23009701  0.56940160  1
  O  O35  1  0.74393231  0.45719295  0.49768176  1
  O  O36  1  0.53323622  0.27184319  0.93966163  1
  O  O37  1  0.58748031  0.46022738  0.74644432  1
  O  O38  1  0.68043520  0.96917594  0.48064544  1
  O  O39  1  0.69751005  0.15067221  0.34436026  1
  O  O40  1  0.54822556  0.81982625  0.69658475  1
  O  O41  1  0.67366203  0.41682167  0.20742434  1
  O  O42  1  0.70750050  0.08767774  0.09715565  1
  O  O43  1  0.56580237  0.67501962  0.40633546  1
  O  O44  1  0.41708798  0.08448703  0.77666098  1
  O  O45  1  0.64896182  0.63613128  0.14383772  1
  O  O46  1  0.34735709  0.35766650  0.85192990  1
  O  O47  1  0.59262609  0.91575924  0.22701665  1
  O  O48  1  0.43761978  0.32902983  0.59219112  1
  O  O49  1  0.29275253  0.91347995  0.90289006  1
  O  O50  1  0.32694277  0.58261069  0.79350491  1
  O  O51  1  0.45137243  0.17654966  0.30357339  1
  O  O52  1  0.30406604  0.85468271  0.65573121  1
  O  O53  1  0.31794521  0.02940208  0.51316072  1
  O  O54  1  0.41303463  0.53435277  0.26011538  1
  O  O55  1  0.46394692  0.74030143  0.07042491  1
  O  O56  1  0.25030150  0.54772807  0.50910726  1
  O  O57  1  0.24783324  0.76916362  0.42619658  1
  O  O58  1  0.03670061  0.16820118  0.95168806  1
  O  O59  1  0.08333660  0.33150608  0.69780631  1
  O  O60  1  0.07140018  0.96125908  0.64719361  1
  O  O61  1  0.26645673  0.23692257  0.03138880  1
  O  O62  1  0.19602284  0.97739790  0.21139490  1
  O  O63  1  0.10220020  0.23763761  0.40774797  1
  O  O64  1  0.13815865  0.53326779  0.32606195  1
  O  O65  1  0.18231975  0.63513557  0.13265626  1
  O  O66  1  0.03591503  0.17493886  0.18950309  1
  O  O67  1  0.02971181  0.40940571  0.14281860  1
