# generated using pymatgen
data_Mn3(O2F)2
_symmetry_space_group_name_H-M   'P 1'
_cell_length_a   10.30627914
_cell_length_b   6.53067352
_cell_length_c   3.08295360
_cell_angle_alpha   90.00000000
_cell_angle_beta   90.00000000
_cell_angle_gamma   108.47215205
_symmetry_Int_Tables_number   1
_chemical_formula_structural   Mn3(O2F)2
_chemical_formula_sum   'Mn6 O8 F4'
_cell_volume   196.81310662
_cell_formula_units_Z   2
loop_
 _symmetry_equiv_pos_site_id
 _symmetry_equiv_pos_as_xyz
  1  'x, y, z'
loop_
 _atom_site_type_symbol
 _atom_site_label
 _atom_site_symmetry_multiplicity
 _atom_site_fract_x
 _atom_site_fract_y
 _atom_site_fract_z
 _atom_site_occupancy
  Mn  Mn0  1  0.01346259  0.00673415  0.00000000  1
  Mn  Mn1  1  0.33335425  0.16662793  0.50000000  1
  Mn  Mn2  1  0.01483181  0.50741363  0.50000000  1
  Mn  Mn3  1  0.65316884  0.32661479  0.00000000  1
  Mn  Mn4  1  0.33330115  0.66655705  0.00000000  1
  Mn  Mn5  1  0.65184743  0.82596914  0.50000000  1
  O  O6  1  0.13527955  0.06766474  0.50000000  1
  O  O7  1  0.00145202  0.30864540  0.00000000  1
  O  O8  1  0.00152303  0.69291053  0.00000000  1
  O  O9  1  0.66517335  0.02471267  0.00000000  1
  O  O10  1  0.53139458  0.26564550  0.50000000  1
  O  O11  1  0.20689690  0.60337444  0.50000000  1
  O  O12  1  0.45974220  0.72986438  0.50000000  1
  O  O13  1  0.66512725  0.64045062  0.00000000  1
  F  F14  1  0.33338037  0.35949304  0.00000000  1
  F  F15  1  0.79876573  0.39942871  0.50000000  1
  F  F16  1  0.33345230  0.97384931  0.00000000  1
  F  F17  1  0.86784464  0.93404597  0.50000000  1
