# generated using pymatgen
data_Fe10O11F9
_symmetry_space_group_name_H-M   'P 1'
_cell_length_a   4.77428538
_cell_length_b   4.77803732
_cell_length_c   15.30077060
_cell_angle_alpha   90.08634219
_cell_angle_beta   89.89311995
_cell_angle_gamma   95.01000299
_symmetry_Int_Tables_number   1
_chemical_formula_structural   Fe10O11F9
_chemical_formula_sum   'Fe10 O11 F9'
_cell_volume   347.70237089
_cell_formula_units_Z   1
loop_
 _symmetry_equiv_pos_site_id
 _symmetry_equiv_pos_as_xyz
  1  'x, y, z'
loop_
 _atom_site_type_symbol
 _atom_site_label
 _atom_site_symmetry_multiplicity
 _atom_site_fract_x
 _atom_site_fract_y
 _atom_site_fract_z
 _atom_site_occupancy
  Fe  Fe0  1  0.00654673  0.98444964  0.00513682  1
  Fe  Fe1  1  0.00936706  0.98920515  0.19579049  1
  Fe  Fe2  1  0.99829629  0.99907307  0.39891574  1
  Fe  Fe3  1  0.00537654  0.98361195  0.60463238  1
  Fe  Fe4  1  0.03930261  0.01575496  0.79590442  1
  Fe  Fe5  1  0.46948830  0.52924303  0.10094593  1
  Fe  Fe6  1  0.50353988  0.49306643  0.49895731  1
  Fe  Fe7  1  0.50272009  0.49505107  0.29942539  1
  Fe  Fe8  1  0.45687735  0.52289120  0.69289445  1
  Fe  Fe9  1  0.50263792  0.47994993  0.90664670  1
  O  O10  1  0.18612753  0.80904774  0.10236956  1
  O  O11  1  0.19113012  0.81282838  0.70110706  1
  O  O12  1  0.29584481  0.30004702  0.00178192  1
  O  O13  1  0.30296264  0.30487491  0.20536884  1
  O  O14  1  0.30497963  0.29804621  0.39679148  1
  O  O15  1  0.29355063  0.30055018  0.59486160  1
  O  O16  1  0.32013594  0.32183060  0.80077255  1
  O  O17  1  0.69375004  0.69722803  0.99951030  1
  O  O18  1  0.69290008  0.69530573  0.20535710  1
  O  O19  1  0.69882405  0.69210805  0.39692785  1
  O  O20  1  0.69159346  0.69640249  0.59700284  1
  F  F21  1  0.19227454  0.80566717  0.30121486  1
  F  F22  1  0.18938878  0.80346092  0.49711487  1
  F  F23  1  0.19818732  0.80951827  0.89844109  1
  F  F24  1  0.70828419  0.71184591  0.80218120  1
  F  F25  1  0.80351687  0.19125983  0.10205345  1
  F  F26  1  0.80738578  0.18568994  0.49846121  1
  F  F27  1  0.81056674  0.18762866  0.29961961  1
  F  F28  1  0.81462629  0.18952983  0.89792086  1
  F  F29  1  0.80981779  0.19483469  0.70189114  1
