# generated using pymatgen
data_Na6B4Sb2PO16
_symmetry_space_group_name_H-M   'P 1'
_cell_length_a   10.05324161
_cell_length_b   10.05324180
_cell_length_c   10.05324161
_cell_angle_alpha   60.00000284
_cell_angle_beta   120.00000021
_cell_angle_gamma   119.99999716
_symmetry_Int_Tables_number   1
_chemical_formula_structural   Na6B4Sb2PO16
_chemical_formula_sum   'Na12 B8 Sb4 P2 O32'
_cell_volume   718.46131458
_cell_formula_units_Z   2
loop_
 _symmetry_equiv_pos_site_id
 _symmetry_equiv_pos_as_xyz
  1  'x, y, z'
loop_
 _atom_site_type_symbol
 _atom_site_label
 _atom_site_symmetry_multiplicity
 _atom_site_fract_x
 _atom_site_fract_y
 _atom_site_fract_z
 _atom_site_occupancy
  Na  Na0  1  0.67382624  0.92382624  0.82617376  1
  Na  Na1  1  0.92382624  0.67382624  0.57617376  1
  Na  Na2  1  0.92382624  0.67382624  0.17382624  1
  Na  Na3  1  0.67382624  0.92382624  0.42382624  1
  Na  Na4  1  0.92382624  0.07617376  0.17382624  1
  Na  Na5  1  0.67382624  0.32617376  0.42382624  1
  Na  Na6  1  0.07617376  0.32617376  0.82617376  1
  Na  Na7  1  0.07617376  0.92382624  0.82617376  1
  Na  Na8  1  0.32617376  0.67382624  0.57617376  1
  Na  Na9  1  0.32617376  0.07617376  0.57617376  1
  Na  Na10  1  0.07617376  0.32617376  0.42382624  1
  Na  Na11  1  0.32617376  0.07617376  0.17382624  1
  B  B12  1  0.71535873  0.64607620  0.78464127  1
  B  B13  1  0.71535873  0.28464127  0.78464127  1
  B  B14  1  0.28464127  0.71535873  0.85392380  1
  B  B15  1  0.35392380  0.28464127  0.78464127  1
  B  B16  1  0.64607620  0.71535873  0.21535873  1
  B  B17  1  0.71535873  0.28464127  0.14607620  1
  B  B18  1  0.28464127  0.35392380  0.21535873  1
  B  B19  1  0.28464127  0.71535873  0.21535873  1
  Sb  Sb20  1  0.50000000  0.50000000  0.50000000  1
  Sb  Sb21  1  0.50000000  0.00000000  0.00000000  1
  Sb  Sb22  1  0.50000000  0.50000000  0.00000000  1
  Sb  Sb23  1  0.00000000  0.50000000  0.00000000  1
  P  P24  1  0.87500000  0.12500000  0.62500000  1
  P  P25  1  0.12500000  0.87500000  0.37500000  1
  O  O26  1  0.86515852  0.30821472  0.90797733  1
  O  O27  1  0.93834874  0.06165126  0.81504522  1
  O  O28  1  0.86515852  0.64896648  0.80821472  1
  O  O29  1  0.69178528  0.64896648  0.90797733  1
  O  O30  1  0.93834874  0.06165126  0.56165126  1
  O  O31  1  0.93834874  0.31504522  0.56165126  1
  O  O32  1  0.59202267  0.13484148  0.80821472  1
  O  O33  1  0.69178528  0.40797733  0.63484148  1
  O  O34  1  0.68495478  0.06165126  0.56165126  1
  O  O35  1  0.35103352  0.13484148  0.90797733  1
  O  O36  1  0.40797733  0.69178528  0.85103352  1
  O  O37  1  0.59202267  0.64896648  0.63484148  1
  O  O38  1  0.35103352  0.40797733  0.80821472  1
  O  O39  1  0.30821472  0.86515852  0.85103352  1
  O  O40  1  0.86515852  0.40797733  0.14896648  1
  O  O41  1  0.64896648  0.69178528  0.36515852  1
  O  O42  1  0.35103352  0.30821472  0.63484148  1
  O  O43  1  0.13484148  0.59202267  0.85103352  1
  O  O44  1  0.69178528  0.13484148  0.14896648  1
  O  O45  1  0.64896648  0.59202267  0.19178528  1
  O  O46  1  0.40797733  0.35103352  0.36515852  1
  O  O47  1  0.59202267  0.30821472  0.14896648  1
  O  O48  1  0.64896648  0.86515852  0.09202267  1
  O  O49  1  0.31504522  0.93834874  0.43834874  1
  O  O50  1  0.30821472  0.59202267  0.36515852  1
  O  O51  1  0.40797733  0.86515852  0.19178528  1
  O  O52  1  0.06165126  0.68495478  0.43834874  1
  O  O53  1  0.06165126  0.93834874  0.43834874  1
  O  O54  1  0.30821472  0.35103352  0.09202267  1
  O  O55  1  0.13484148  0.35103352  0.19178528  1
  O  O56  1  0.06165126  0.93834874  0.18495478  1
  O  O57  1  0.13484148  0.69178528  0.09202267  1
