# generated using pymatgen
data_Li4Mn(SiO3)3
_symmetry_space_group_name_H-M   'P 1'
_cell_length_a   6.35353189
_cell_length_b   10.12733894
_cell_length_c   6.35353189
_cell_angle_alpha   89.03917317
_cell_angle_beta   72.53643273
_cell_angle_gamma   90.96082683
_symmetry_Int_Tables_number   1
_chemical_formula_structural   Li4Mn(SiO3)3
_chemical_formula_sum   'Li8 Mn2 Si6 O18'
_cell_volume   389.81423762
_cell_formula_units_Z   2
loop_
 _symmetry_equiv_pos_site_id
 _symmetry_equiv_pos_as_xyz
  1  'x, y, z'
loop_
 _atom_site_type_symbol
 _atom_site_label
 _atom_site_symmetry_multiplicity
 _atom_site_fract_x
 _atom_site_fract_y
 _atom_site_fract_z
 _atom_site_occupancy
  Li  Li0  1  0.38060490  0.20556211  0.81024384  1
  Li  Li1  1  0.18772447  0.79172781  0.46279361  1
  Li  Li2  1  0.99514685  0.50000000  0.99514685  1
  Li  Li3  1  0.54303884  0.50000000  0.54303884  1
  Li  Li4  1  0.62875050  0.00000000  0.62875050  1
  Li  Li5  1  0.99710356  0.00000000  0.99710356  1
  Li  Li6  1  0.46279361  0.20827219  0.18772447  1
  Li  Li7  1  0.81024384  0.79443789  0.38060490  1
  Mn  Mn8  1  0.82882324  0.25609663  0.82591067  1
  Mn  Mn9  1  0.82591067  0.74390337  0.82882324  1
  Si  Si10  1  0.34052283  0.74818708  0.88152814  1
  Si  Si11  1  0.07157882  0.49900937  0.47634422  1
  Si  Si12  1  0.13105879  0.05355015  0.50911005  1
  Si  Si13  1  0.50911005  0.94644985  0.13105879  1
  Si  Si14  1  0.47634422  0.50099063  0.07157882  1
  Si  Si15  1  0.88152814  0.25181292  0.34052283  1
  O  O16  1  0.14158961  0.79690190  0.79676136  1
  O  O17  1  0.31292179  0.58555553  0.95041996  1
  O  O18  1  0.11870950  0.11632342  0.74507921  1
  O  O19  1  0.03518421  0.42186311  0.70869134  1
  O  O20  1  0.50568241  0.05946663  0.95002340  1
  O  O21  1  0.48398793  0.35306650  0.97867282  1
  O  O22  1  0.11857099  0.17945187  0.33603717  1
  O  O23  1  0.57151321  0.77622582  0.68859817  1
  O  O24  1  0.34858105  0.50000000  0.34858105  1
  O  O25  1  0.39035453  0.00000000  0.39035453  1
  O  O26  1  0.68859817  0.22377418  0.57151321  1
  O  O27  1  0.33603717  0.82054813  0.11857099  1
  O  O28  1  0.97867282  0.64693350  0.48398793  1
  O  O29  1  0.95002340  0.94053337  0.50568241  1
  O  O30  1  0.70869134  0.57813689  0.03518421  1
  O  O31  1  0.74507921  0.88367658  0.11870950  1
  O  O32  1  0.95041996  0.41444447  0.31292179  1
  O  O33  1  0.79676136  0.20309810  0.14158961  1
