# generated using pymatgen
data_Ca9La5Cl33
_symmetry_space_group_name_H-M   'P 1'
_cell_length_a   11.18086394
_cell_length_b   11.10640122
_cell_length_c   21.12025642
_cell_angle_alpha   100.50629513
_cell_angle_beta   80.70102059
_cell_angle_gamma   70.43196042
_symmetry_Int_Tables_number   1
_chemical_formula_structural   Ca9La5Cl33
_chemical_formula_sum   'Ca18 La10 Cl66'
_cell_volume   2358.57294027
_cell_formula_units_Z   2
loop_
 _symmetry_equiv_pos_site_id
 _symmetry_equiv_pos_as_xyz
  1  'x, y, z'
loop_
 _atom_site_type_symbol
 _atom_site_label
 _atom_site_symmetry_multiplicity
 _atom_site_fract_x
 _atom_site_fract_y
 _atom_site_fract_z
 _atom_site_occupancy
  Ca  Ca0  1  0.76144718  0.91776214  0.93008760  1
  Ca  Ca1  1  0.91626059  0.31972119  0.97283439  1
  Ca  Ca2  1  0.97892349  0.47526334  0.19319821  1
  Ca  Ca3  1  0.73221198  0.86988860  0.33657329  1
  Ca  Ca4  1  0.85840010  0.23721333  0.38104940  1
  Ca  Ca5  1  0.59495570  0.68648799  0.53950557  1
  Ca  Ca6  1  0.74774899  0.06611283  0.55987201  1
  Ca  Ca7  1  0.65188084  0.76346746  0.11930887  1
  Ca  Ca8  1  0.79424288  0.13001895  0.15425415  1
  Ca  Ca9  1  0.20575712  0.86998105  0.84574585  1
  Ca  Ca10  1  0.34811916  0.23653254  0.88069113  1
  Ca  Ca11  1  0.25225101  0.93388717  0.44012799  1
  Ca  Ca12  1  0.40504430  0.31351201  0.46049443  1
  Ca  Ca13  1  0.14159990  0.76278667  0.61895060  1
  Ca  Ca14  1  0.26778802  0.13011140  0.66342671  1
  Ca  Ca15  1  0.02107651  0.52473666  0.80680179  1
  Ca  Ca16  1  0.08373941  0.68027881  0.02716561  1
  Ca  Ca17  1  0.23855282  0.08223786  0.06991240  1
  La  La18  1  0.95597877  0.37960149  0.58488667  1
  La  La19  1  0.86111257  0.17386746  0.76502831  1
  La  La20  1  0.64548531  0.85953473  0.73443570  1
  La  La21  1  0.54327013  0.63047044  0.92888825  1
  La  La22  1  0.45488500  0.46433014  0.68526888  1
  La  La23  1  0.54511500  0.53566986  0.31473112  1
  La  La24  1  0.45672987  0.36952956  0.07111175  1
  La  La25  1  0.35451469  0.14046527  0.26556430  1
  La  La26  1  0.13888743  0.82613254  0.23497169  1
  La  La27  1  0.04402123  0.62039851  0.41511333  1
  Cl  Cl28  1  0.86138626  0.77014833  0.79193321  1
  Cl  Cl29  1  0.86004502  0.93541499  0.66929285  1
  Cl  Cl30  1  0.80100558  0.62846774  0.91601878  1
  Cl  Cl31  1  0.95339500  0.73219771  0.19305576  1
  Cl  Cl32  1  0.00355448  0.15108010  0.63514559  1
  Cl  Cl33  1  0.93516098  0.05060008  0.87704544  1
  Cl  Cl34  1  0.80715164  0.65746032  0.62001144  1
  Cl  Cl35  1  0.81151968  0.44934571  0.73912699  1
  Cl  Cl36  1  0.77055958  0.81719464  0.47959352  1
  Cl  Cl37  1  0.87550373  0.59732983  0.33079989  1
  Cl  Cl38  1  0.87735319  0.47363635  0.46646748  1
  Cl  Cl39  1  0.95308497  0.15007471  0.48516938  1
  Cl  Cl40  1  0.71703011  0.35479424  0.89005956  1
  Cl  Cl41  1  0.82044929  0.88445699  0.05886846  1
  Cl  Cl42  1  0.53934564  0.82932148  0.85969089  1
  Cl  Cl43  1  0.89369183  0.55793332  0.07078221  1
  Cl  Cl44  1  0.55949939  0.95452114  0.62427545  1
  Cl  Cl45  1  0.95685573  0.24918904  0.09304589  1
  Cl  Cl46  1  0.69391887  0.39275614  0.58599370  1
  Cl  Cl47  1  0.63336628  0.97230066  0.22086023  1
  Cl  Cl48  1  0.80738229  0.33835078  0.26333059  1
  Cl  Cl49  1  0.68221267  0.66185431  0.23335924  1
  Cl  Cl50  1  0.86830690  0.03917424  0.27651096  1
  Cl  Cl51  1  0.64790213  0.23399826  0.70062420  1
  Cl  Cl52  1  0.49591319  0.70909283  0.68544831  1
  Cl  Cl53  1  0.63935200  0.08841404  0.82719929  1
  Cl  Cl54  1  0.53559094  0.75960014  0.41381632  1
  Cl  Cl55  1  0.42611193  0.58649248  0.82126035  1
  Cl  Cl56  1  0.61263324  0.44222730  0.42927653  1
  Cl  Cl57  1  0.27313300  0.81279962  0.97299119  1
  Cl  Cl58  1  0.38615570  0.46232486  0.95627153  1
  Cl  Cl59  1  0.67974320  0.11959941  0.43644433  1
  Cl  Cl60  1  0.46472419  0.14016664  0.97778299  1
  Cl  Cl61  1  0.53527581  0.85983336  0.02221701  1
  Cl  Cl62  1  0.32025680  0.88040059  0.56355567  1
  Cl  Cl63  1  0.61384430  0.53767514  0.04372847  1
  Cl  Cl64  1  0.72686700  0.18720038  0.02700881  1
  Cl  Cl65  1  0.38736676  0.55777270  0.57072347  1
  Cl  Cl66  1  0.57388807  0.41350752  0.17873965  1
  Cl  Cl67  1  0.46440906  0.24039986  0.58618268  1
  Cl  Cl68  1  0.36064800  0.91158596  0.17280071  1
  Cl  Cl69  1  0.50408681  0.29090717  0.31455169  1
  Cl  Cl70  1  0.35209787  0.76600174  0.29937580  1
  Cl  Cl71  1  0.13169310  0.96082576  0.72348904  1
  Cl  Cl72  1  0.31778733  0.33814569  0.76664076  1
  Cl  Cl73  1  0.19261771  0.66164922  0.73666941  1
  Cl  Cl74  1  0.36663372  0.02769934  0.77913977  1
  Cl  Cl75  1  0.30608113  0.60724386  0.41400630  1
  Cl  Cl76  1  0.04314427  0.75081096  0.90695411  1
  Cl  Cl77  1  0.44050061  0.04547886  0.37572455  1
  Cl  Cl78  1  0.10630817  0.44206668  0.92921779  1
  Cl  Cl79  1  0.46065436  0.17067852  0.14030911  1
  Cl  Cl80  1  0.17955071  0.11554301  0.94113154  1
  Cl  Cl81  1  0.28296989  0.64520576  0.10994044  1
  Cl  Cl82  1  0.04691503  0.84992529  0.51483062  1
  Cl  Cl83  1  0.12264681  0.52636365  0.53353252  1
  Cl  Cl84  1  0.12449627  0.40267017  0.66920011  1
  Cl  Cl85  1  0.22944042  0.18280536  0.52040648  1
  Cl  Cl86  1  0.18848032  0.55065429  0.26087301  1
  Cl  Cl87  1  0.19284836  0.34253968  0.37998856  1
  Cl  Cl88  1  0.06483902  0.94939892  0.12295456  1
  Cl  Cl89  1  0.99644552  0.84891990  0.36485441  1
  Cl  Cl90  1  0.04660500  0.26780229  0.80694424  1
  Cl  Cl91  1  0.19899442  0.37153226  0.08398122  1
  Cl  Cl92  1  0.13995498  0.06458501  0.33070715  1
  Cl  Cl93  1  0.13861374  0.22985167  0.20806679  1
