# generated using pymatgen
data_Li4Fe2Ni3Sn(PO4)6
_symmetry_space_group_name_H-M   'P 1'
_cell_length_a   8.46631422
_cell_length_b   8.60606834
_cell_length_c   8.60338437
_cell_angle_alpha   62.38204903
_cell_angle_beta   62.84222532
_cell_angle_gamma   62.76491841
_symmetry_Int_Tables_number   1
_chemical_formula_structural   Li4Fe2Ni3Sn(PO4)6
_chemical_formula_sum   'Li4 Fe2 Ni3 Sn1 P6 O24'
_cell_volume   469.51241677
_cell_formula_units_Z   1
loop_
 _symmetry_equiv_pos_site_id
 _symmetry_equiv_pos_as_xyz
  1  'x, y, z'
loop_
 _atom_site_type_symbol
 _atom_site_label
 _atom_site_symmetry_multiplicity
 _atom_site_fract_x
 _atom_site_fract_y
 _atom_site_fract_z
 _atom_site_occupancy
  Li  Li0  1  0.74507343  0.14949213  0.35293981  1
  Li  Li1  1  0.29879909  0.84190003  0.64120585  1
  Li  Li2  1  0.63740544  0.29892589  0.84754387  1
  Li  Li3  1  0.84815392  0.63793259  0.30299370  1
  Fe  Fe4  1  0.01501055  0.00400137  0.00056221  1
  Fe  Fe5  1  0.48754335  0.50298653  0.49806810  1
  Ni  Ni6  1  0.14254210  0.14845691  0.14699588  1
  Ni  Ni7  1  0.35593884  0.35433548  0.35208466  1
  Ni  Ni8  1  0.64624030  0.64770010  0.65069879  1
  Sn  Sn9  1  0.85303452  0.84738298  0.85163889  1
  P  P10  1  0.25024746  0.54133405  0.95457627  1
  P  P11  1  0.55264777  0.95641800  0.25061545  1
  P  P12  1  0.94427227  0.24758410  0.54116650  1
  P  P13  1  0.05624784  0.74439679  0.44281474  1
  P  P14  1  0.44022988  0.05349444  0.74723981  1
  P  P15  1  0.74587204  0.44221696  0.05365851  1
  O  O16  1  0.11069958  0.29991984  0.49627727  1
  O  O17  1  0.31035011  0.51457952  0.10764600  1
  O  O18  1  0.05350144  0.91160023  0.26230255  1
  O  O19  1  0.54875824  0.10371069  0.30539940  1
  O  O20  1  0.02123761  0.80618323  0.60516551  1
  O  O21  1  0.24931526  0.59597572  0.42752866  1
  O  O22  1  0.25073579  0.07563978  0.90051380  1
  O  O23  1  0.44967398  0.23544132  0.58432399  1
  O  O24  1  0.17411422  0.39723680  0.98818069  1
  O  O25  1  0.59820265  0.42611222  0.24793289  1
  O  O26  1  0.10143919  0.75077593  0.91753156  1
  O  O27  1  0.39370588  0.00803384  0.18402238  1
  O  O28  1  0.60111216  0.01153416  0.81913277  1
  O  O29  1  0.89850268  0.24945995  0.07681411  1
  O  O30  1  0.40733191  0.56205988  0.75802569  1
  O  O31  1  0.81092822  0.60216293  0.01851639  1
  O  O32  1  0.56374309  0.76180738  0.40901525  1
  O  O33  1  0.75824176  0.91449638  0.09809207  1
  O  O34  1  0.74974261  0.40807619  0.56675836  1
  O  O35  1  0.95353456  0.17961606  0.40119661  1
  O  O36  1  0.47472603  0.89382773  0.68812940  1
  O  O37  1  0.91899361  0.09700502  0.74707079  1
  O  O38  1  0.68407843  0.47744148  0.89524758  1
  O  O39  1  0.89807022  0.67574239  0.48337026  1
