# generated using pymatgen
data_Li3Fe3(OF)4
_symmetry_space_group_name_H-M   'P 1'
_cell_length_a   5.07316604
_cell_length_b   9.83596677
_cell_length_c   3.03658656
_cell_angle_alpha   90.00000000
_cell_angle_beta   90.00000000
_cell_angle_gamma   90.53320799
_symmetry_Int_Tables_number   1
_chemical_formula_structural   Li3Fe3(OF)4
_chemical_formula_sum   'Li3 Fe3 O4 F4'
_cell_volume   151.51756703
_cell_formula_units_Z   1
loop_
 _symmetry_equiv_pos_site_id
 _symmetry_equiv_pos_as_xyz
  1  'x, y, z'
loop_
 _atom_site_type_symbol
 _atom_site_label
 _atom_site_symmetry_multiplicity
 _atom_site_fract_x
 _atom_site_fract_y
 _atom_site_fract_z
 _atom_site_occupancy
  Li  Li0  1  0.99844037  0.84018125  0.75000000  1
  Li  Li1  1  0.41458772  0.03619104  0.75000000  1
  Li  Li2  1  0.93423612  0.45925999  0.25000000  1
  Fe  Fe3  1  0.47233073  0.36294658  0.75000000  1
  Fe  Fe4  1  0.53220532  0.62980810  0.25000000  1
  Fe  Fe5  1  0.97611272  0.15419858  0.25000000  1
  O  O6  1  0.19501017  0.21155294  0.75000000  1
  O  O7  1  0.29981256  0.46627995  0.25000000  1
  O  O8  1  0.69805372  0.28364584  0.25000000  1
  O  O9  1  0.71813852  0.53572088  0.75000000  1
  F  F10  1  0.21357408  0.97799083  0.25000000  1
  F  F11  1  0.33446253  0.72812852  0.75000000  1
  F  F12  1  0.78527930  0.03793101  0.75000000  1
  F  F13  1  0.80191613  0.77616252  0.25000000  1
