# generated using pymatgen
data_LiFeP2O7
_symmetry_space_group_name_H-M   'P 1'
_cell_length_a   9.69259562
_cell_length_b   9.74538932
_cell_length_c   11.21361606
_cell_angle_alpha   89.92244353
_cell_angle_beta   101.65772584
_cell_angle_gamma   89.91757237
_symmetry_Int_Tables_number   1
_chemical_formula_structural   LiFeP2O7
_chemical_formula_sum   'Li8 Fe8 P16 O56'
_cell_volume   1037.36517759
_cell_formula_units_Z   8
loop_
 _symmetry_equiv_pos_site_id
 _symmetry_equiv_pos_as_xyz
  1  'x, y, z'
loop_
 _atom_site_type_symbol
 _atom_site_label
 _atom_site_symmetry_multiplicity
 _atom_site_fract_x
 _atom_site_fract_y
 _atom_site_fract_z
 _atom_site_occupancy
  Li  Li0  1  0.16402128  0.42971033  0.53298893  1
  Li  Li1  1  0.41744883  0.59725527  0.97968842  1
  Li  Li2  1  0.33922231  0.92357826  0.46608303  1
  Li  Li3  1  0.62113482  0.04515776  0.50161844  1
  Li  Li4  1  0.65417363  0.12515109  0.03569166  1
  Li  Li5  1  0.91944816  0.90288547  0.97664822  1
  Li  Li6  1  0.82385117  0.59297100  0.45483380  1
  Li  Li7  1  0.88168532  0.28795082  0.54617857  1
  Fe  Fe8  1  0.20368927  0.91721426  0.67475150  1
  Fe  Fe9  1  0.24498857  0.21079154  0.82878148  1
  Fe  Fe10  1  0.23805203  0.72189626  0.17228644  1
  Fe  Fe11  1  0.29963807  0.42042715  0.32170746  1
  Fe  Fe12  1  0.70366115  0.58574099  0.68019818  1
  Fe  Fe13  1  0.74835193  0.28871331  0.82589981  1
  Fe  Fe14  1  0.73889993  0.77201360  0.16929854  1
  Fe  Fe15  1  0.80247211  0.07364550  0.32258550  1
  P  P16  1  0.01869313  0.44704624  0.75408440  1
  P  P17  1  0.11404799  0.71280518  0.88343511  1
  P  P18  1  0.06848912  0.91861229  0.24460507  1
  P  P19  1  0.12479562  0.14648058  0.42036661  1
  P  P20  1  0.37873016  0.64241320  0.57823095  1
  P  P21  1  0.43123524  0.42228461  0.76632823  1
  P  P22  1  0.51729800  0.05271276  0.75136350  1
  P  P23  1  0.38707342  0.21166059  0.11397746  1
  P  P24  1  0.61139962  0.78905427  0.88441047  1
  P  P25  1  0.48001623  0.95129684  0.25029549  1
  P  P26  1  0.56952787  0.58290612  0.24495029  1
  P  P27  1  0.62347220  0.35345189  0.41488789  1
  P  P28  1  0.87704247  0.85737885  0.57765095  1
  P  P29  1  0.92933563  0.07758375  0.76245297  1
  P  P30  1  0.89931991  0.28317189  0.11367450  1
  P  P31  1  0.98055862  0.54723643  0.25124245  1
  O  O32  1  0.02070438  0.42047347  0.62155539  1
  O  O33  1  0.03183804  0.84918046  0.57007295  1
  O  O34  1  0.08380583  0.08315073  0.73980407  1
  O  O35  1  0.10295489  0.58561384  0.78828054  1
  O  O36  1  0.09324491  0.33772398  0.84196263  1
  O  O37  1  0.18813437  0.82146437  0.81919343  1
  O  O38  1  0.21711786  0.66394785  0.00245190  1
  O  O39  1  0.04400069  0.25168102  0.10163891  1
  O  O40  1  0.12163119  0.06856682  0.29261714  1
  O  O41  1  0.08099577  0.89830919  0.11297512  1
  O  O42  1  0.13474178  0.54124652  0.22586550  1
  O  O43  1  0.18348614  0.29023807  0.40521929  1
  O  O44  1  0.17528756  0.81530051  0.31674495  1
  O  O45  1  0.21216455  0.05803260  0.51948358  1
  O  O46  1  0.29017941  0.55849999  0.47632124  1
  O  O47  1  0.32989939  0.30953665  0.70240115  1
  O  O48  1  0.32347367  0.78874803  0.59341320  1
  O  O49  1  0.36324319  0.03779204  0.77367669  1
  O  O50  1  0.36927681  0.56495573  0.70367046  1
  O  O51  1  0.42274385  0.42728003  0.89801481  1
  O  O52  1  0.47003062  0.75330455  0.90432339  1
  O  O53  1  0.28846749  0.16515882  0.99467939  1
  O  O54  1  0.32263610  0.32796401  0.17710915  1
  O  O55  1  0.38853434  0.08489123  0.20890729  1
  O  O56  1  0.41414952  0.58567327  0.26167742  1
  O  O57  1  0.40245958  0.83564744  0.17215673  1
  O  O58  1  0.47126505  0.34693991  0.42811084  1
  O  O59  1  0.52443205  0.08091530  0.62206340  1
  O  O60  1  0.48824157  0.94098538  0.38539488  1
  O  O61  1  0.53477561  0.64808262  0.57088348  1
  O  O62  1  0.59859148  0.15409075  0.84747917  1
  O  O63  1  0.58509511  0.41254192  0.73922196  1
  O  O64  1  0.59877376  0.91030336  0.78506586  1
  O  O65  1  0.68841109  0.67705665  0.82602537  1
  O  O66  1  0.71402953  0.84662857  0.00185633  1
  O  O67  1  0.53447321  0.23464983  0.10015596  1
  O  O68  1  0.58749392  0.60901661  0.11437753  1
  O  O69  1  0.62769501  0.43264581  0.28812555  1
  O  O70  1  0.63213114  0.96258232  0.21897962  1
  O  O71  1  0.68563645  0.20841026  0.40289251  1
  O  O72  1  0.67410641  0.68674179  0.31955949  1
  O  O73  1  0.72256801  0.43342614  0.51504827  1
  O  O74  1  0.78900316  0.94220210  0.47410749  1
  O  O75  1  0.83695420  0.19594191  0.69441101  1
  O  O76  1  0.81840247  0.71315639  0.59372517  1
  O  O77  1  0.86292837  0.46343846  0.77342448  1
  O  O78  1  0.90875901  0.07679721  0.89148848  1
  O  O79  1  0.86561239  0.93649921  0.70146579  1
  O  O80  1  0.97074529  0.74811540  0.89981280  1
  O  O81  1  0.79314167  0.32423320  0.99406601  1
  O  O82  1  0.81952037  0.16866576  0.17264451  1
  O  O83  1  0.90149586  0.66011385  0.16689211  1
  O  O84  1  0.89582333  0.41007834  0.20602272  1
  O  O85  1  0.91287226  0.91147003  0.26455337  1
  O  O86  1  0.96880877  0.16119903  0.43280534  1
  O  O87  1  0.97793369  0.55920159  0.38383189  1
