# generated using pymatgen
data_Na4V2P(CO4)4
_symmetry_space_group_name_H-M   'P 1'
_cell_length_a   10.03061873
_cell_length_b   9.84052011
_cell_length_c   10.03061843
_cell_angle_alpha   60.59920214
_cell_angle_beta   92.10756872
_cell_angle_gamma   60.59920262
_symmetry_Int_Tables_number   1
_chemical_formula_structural   Na4V2P(CO4)4
_chemical_formula_sum   'Na8 V4 P2 C8 O32'
_cell_volume   699.34440112
_cell_formula_units_Z   2
loop_
 _symmetry_equiv_pos_site_id
 _symmetry_equiv_pos_as_xyz
  1  'x, y, z'
loop_
 _atom_site_type_symbol
 _atom_site_label
 _atom_site_symmetry_multiplicity
 _atom_site_fract_x
 _atom_site_fract_y
 _atom_site_fract_z
 _atom_site_occupancy
  Na  Na0  1  0.08437591  0.83124817  0.83437591  1
  Na  Na1  1  0.08324306  0.25000000  0.83324306  1
  Na  Na2  1  0.33324306  0.75000000  0.58324306  1
  Na  Na3  1  0.33437591  0.33124817  0.58437591  1
  Na  Na4  1  0.66562409  0.66875183  0.41562409  1
  Na  Na5  1  0.66675694  0.25000000  0.41675694  1
  Na  Na6  1  0.91675694  0.75000000  0.16675694  1
  Na  Na7  1  0.91562409  0.16875183  0.16562409  1
  V  V8  1  0.00000000  0.50000000  0.00000000  1
  V  V9  1  0.50000000  0.00000000  0.50000000  1
  V  V10  1  0.50000000  0.50000000  0.00000000  1
  V  V11  1  0.50000000  0.00000000  0.00000000  1
  P  P12  1  0.12500000  0.75000000  0.37500000  1
  P  P13  1  0.87500000  0.25000000  0.62500000  1
  C  C14  1  0.36142793  0.92807295  0.77875512  1
  C  C15  1  0.27875512  0.42807295  0.86142793  1
  C  C16  1  0.71049912  0.92807295  0.79317192  1
  C  C17  1  0.70682808  0.57192705  0.78950088  1
  C  C18  1  0.29317192  0.42807295  0.21049912  1
  C  C19  1  0.28950088  0.07192705  0.20682808  1
  C  C20  1  0.72124488  0.57192705  0.13857207  1
  C  C21  1  0.63857207  0.07192705  0.22124488  1
  O  O22  1  0.35731795  0.78695319  0.88721688  1
  O  O23  1  0.06340535  0.88124547  0.43486629  1
  O  O24  1  0.36402071  0.95380650  0.63937556  1
  O  O25  1  0.13937556  0.45380650  0.86402071  1
  O  O26  1  0.68217279  0.95380650  0.90681794  1
  O  O27  1  0.30642774  0.54599364  0.85525757  1
  O  O28  1  0.05535018  0.88124547  0.18388823  1
  O  O29  1  0.06513371  0.61875453  0.43659465  1
  O  O30  1  0.40125021  0.95400636  0.35242138  1
  O  O31  1  0.59318206  0.54619350  0.81782721  1
  O  O32  1  0.38721688  0.28695319  0.85731795  1
  O  O33  1  0.31611177  0.61875453  0.44464982  1
  O  O34  1  0.85572886  0.78695319  0.82582993  1
  O  O35  1  0.67417007  0.71304681  0.64427114  1
  O  O36  1  0.35525757  0.04599364  0.80642774  1
  O  O37  1  0.14757862  0.54599364  0.09874979  1
  O  O38  1  0.85242138  0.45400636  0.90125021  1
  O  O39  1  0.64474243  0.95400636  0.19357226  1
  O  O40  1  0.32582993  0.28695319  0.35572886  1
  O  O41  1  0.14427114  0.21304681  0.17417007  1
  O  O42  1  0.68388823  0.38124547  0.55535018  1
  O  O43  1  0.61278312  0.71304681  0.14268205  1
  O  O44  1  0.40681794  0.45380650  0.18217279  1
  O  O45  1  0.59874979  0.04599364  0.64757862  1
  O  O46  1  0.93486629  0.38124547  0.56340535  1
  O  O47  1  0.94464982  0.11875453  0.81611177  1
  O  O48  1  0.69357226  0.45400636  0.14474243  1
  O  O49  1  0.31782721  0.04619350  0.09318206  1
  O  O50  1  0.86062444  0.54619350  0.13597929  1
  O  O51  1  0.63597929  0.04619350  0.36062444  1
  O  O52  1  0.93659465  0.11875453  0.56513371  1
  O  O53  1  0.64268205  0.21304681  0.11278312  1
