# generated using pymatgen
data_YNb2NO5
_symmetry_space_group_name_H-M   'P 1'
_cell_length_a   15.04335108
_cell_length_b   5.94350951
_cell_length_c   5.29444567
_cell_angle_alpha   90.33429942
_cell_angle_beta   89.30381138
_cell_angle_gamma   90.32575350
_symmetry_Int_Tables_number   1
_chemical_formula_structural   YNb2NO5
_chemical_formula_sum   'Y4 Nb8 N4 O20'
_cell_volume   473.32751341
_cell_formula_units_Z   4
loop_
 _symmetry_equiv_pos_site_id
 _symmetry_equiv_pos_as_xyz
  1  'x, y, z'
loop_
 _atom_site_type_symbol
 _atom_site_label
 _atom_site_symmetry_multiplicity
 _atom_site_fract_x
 _atom_site_fract_y
 _atom_site_fract_z
 _atom_site_occupancy
  Y  Y0  1  0.00141030  0.29817739  0.25052224  1
  Y  Y1  1  0.99858970  0.70182261  0.74947776  1
  Y  Y2  1  0.49701573  0.20651753  0.74977667  1
  Y  Y3  1  0.50298427  0.79348247  0.25022333  1
  Nb  Nb4  1  0.16266118  0.18718155  0.72027524  1
  Nb  Nb5  1  0.16993505  0.81491350  0.23288699  1
  Nb  Nb6  1  0.33401319  0.32176126  0.21629858  1
  Nb  Nb7  1  0.33757467  0.67255455  0.74774610  1
  Nb  Nb8  1  0.66242533  0.32744545  0.25225390  1
  Nb  Nb9  1  0.66598681  0.67823874  0.78370142  1
  Nb  Nb10  1  0.83006495  0.18508650  0.76711301  1
  Nb  Nb11  1  0.83733882  0.81281845  0.27972476  1
  N  N12  1  0.08208508  0.38782461  0.60849445  1
  N  N13  1  0.40213863  0.57781413  0.03447989  1
  N  N14  1  0.59786137  0.42218587  0.96552011  1
  N  N15  1  0.91791492  0.61217539  0.39150555  1
  O  O16  1  0.08552708  0.61488436  0.10279849  1
  O  O17  1  0.10150113  0.08050926  0.03781222  1
  O  O18  1  0.10070411  0.90916190  0.53675749  1
  O  O19  1  0.24263610  0.13126261  0.39583733  1
  O  O20  1  0.24757577  0.85828651  0.91689589  1
  O  O21  1  0.25515340  0.62737625  0.40020278  1
  O  O22  1  0.25660191  0.36765188  0.90368533  1
  O  O23  1  0.39788545  0.40740260  0.53186861  1
  O  O24  1  0.41613780  0.10482771  0.10361757  1
  O  O25  1  0.41911939  0.88195459  0.60111068  1
  O  O26  1  0.58088061  0.11804541  0.39888932  1
  O  O27  1  0.58386220  0.89517229  0.89638243  1
  O  O28  1  0.60211455  0.59259640  0.46813139  1
  O  O29  1  0.74484660  0.37262375  0.59979722  1
  O  O30  1  0.74339809  0.63234812  0.09631467  1
  O  O31  1  0.75242423  0.14171349  0.08310411  1
  O  O32  1  0.75736390  0.86873739  0.60416267  1
  O  O33  1  0.89929589  0.09083810  0.46324251  1
  O  O34  1  0.89849887  0.91949074  0.96218778  1
  O  O35  1  0.91447292  0.38511564  0.89720151  1
