# generated using pymatgen
data_Li5Co4(Si3O10)2
_symmetry_space_group_name_H-M   'P 1'
_cell_length_a   5.41299223
_cell_length_b   5.43804486
_cell_length_c   17.05125573
_cell_angle_alpha   85.79614040
_cell_angle_beta   94.03529951
_cell_angle_gamma   121.02521995
_symmetry_Int_Tables_number   1
_chemical_formula_structural   Li5Co4(Si3O10)2
_chemical_formula_sum   'Li5 Co4 Si6 O20'
_cell_volume   428.64843803
_cell_formula_units_Z   1
loop_
 _symmetry_equiv_pos_site_id
 _symmetry_equiv_pos_as_xyz
  1  'x, y, z'
loop_
 _atom_site_type_symbol
 _atom_site_label
 _atom_site_symmetry_multiplicity
 _atom_site_fract_x
 _atom_site_fract_y
 _atom_site_fract_z
 _atom_site_occupancy
  Li  Li0  1  0.43615297  0.84219903  0.76126120  1
  Li  Li1  1  0.33611192  0.82796820  0.44624151  1
  Li  Li2  1  0.67477085  0.18059075  0.55177659  1
  Li  Li3  1  0.55771625  0.16308091  0.24957125  1
  Li  Li4  1  0.83475427  0.33603278  0.04595183  1
  Co  Co5  1  0.00254403  0.82689020  0.58141679  1
  Co  Co6  1  0.17237847  0.98676877  0.08267319  1
  Co  Co7  1  0.81558747  0.99063935  0.91191011  1
  Co  Co8  1  0.99592138  0.18725155  0.40877826  1
  Si  Si9  1  0.13964024  0.13792511  0.74877746  1
  Si  Si10  1  0.33138523  0.48949949  0.60201476  1
  Si  Si11  1  0.47312550  0.29970842  0.90196464  1
  Si  Si12  1  0.51129759  0.67135624  0.09829538  1
  Si  Si13  1  0.68288191  0.52866471  0.40381382  1
  Si  Si14  1  0.85692703  0.85787648  0.24992245  1
  O  O15  1  0.11564840  0.90015071  0.69164640  1
  O  O16  1  0.14145606  0.95403553  0.19868694  1
  O  O17  1  0.27750888  0.45642258  0.69860388  1
  O  O18  1  0.05896043  0.20396824  0.56119808  1
  O  O19  1  0.33774337  0.78094011  0.56687245  1
  O  O20  1  0.52535254  0.62357911  0.89730826  1
  O  O21  1  0.18795050  0.08860343  0.95448405  1
  O  O22  1  0.21460463  0.67087239  0.06950536  1
  O  O23  1  0.38460202  0.52553049  0.41308750  1
  O  O24  1  0.39438663  0.16651551  0.81354471  1
  O  O25  1  0.56933357  0.76022665  0.19012100  1
  O  O26  1  0.63790723  0.50393208  0.58851170  1
  O  O27  1  0.75463045  0.28747346  0.93552435  1
  O  O28  1  0.79297344  0.93034356  0.05165560  1
  O  O29  1  0.49920871  0.36739804  0.08866872  1
  O  O30  1  0.66343442  0.22900862  0.43740310  1
  O  O31  1  0.95606821  0.80716492  0.44948554  1
  O  O32  1  0.76420698  0.56400027  0.30811318  1
  O  O33  1  0.85717183  0.06454635  0.79510042  1
  O  O34  1  0.87402857  0.10791794  0.29816156  1
