# generated using pymatgen
data_Li2Fe5O5F7
_symmetry_space_group_name_H-M   'P 1'
_cell_length_a   6.17644214
_cell_length_b   5.98719255
_cell_length_c   5.91006084
_cell_angle_alpha   99.47424789
_cell_angle_beta   99.90307490
_cell_angle_gamma   99.48937432
_symmetry_Int_Tables_number   1
_chemical_formula_structural   Li2Fe5O5F7
_chemical_formula_sum   'Li2 Fe5 O5 F7'
_cell_volume   208.11932767
_cell_formula_units_Z   1
loop_
 _symmetry_equiv_pos_site_id
 _symmetry_equiv_pos_as_xyz
  1  'x, y, z'
loop_
 _atom_site_type_symbol
 _atom_site_label
 _atom_site_symmetry_multiplicity
 _atom_site_fract_x
 _atom_site_fract_y
 _atom_site_fract_z
 _atom_site_occupancy
  Li  Li0  1  0.59383901  0.32239295  0.13531734  1
  Li  Li1  1  0.88284901  0.39958388  0.68596904  1
  Fe  Fe2  1  0.16435065  0.61623194  0.35357482  1
  Fe  Fe3  1  0.41301849  0.66002363  0.86101465  1
  Fe  Fe4  1  0.65327967  0.84489847  0.37539665  1
  Fe  Fe5  1  0.98457364  0.99513456  0.01539508  1
  Fe  Fe6  1  0.31903511  0.13566928  0.58919597  1
  O  O7  1  0.10618082  0.93470707  0.32218212  1
  O  O8  1  0.42955262  0.83422214  0.60301951  1
  O  O9  1  0.68555908  0.88543768  0.05767312  1
  O  O10  1  0.20596417  0.41825984  0.59200415  1
  O  O11  1  0.40054350  0.59510641  0.17685590  1
  F  F12  1  0.06129646  0.70183438  0.87591763  1
  F  F13  1  0.60230585  0.40539333  0.81934530  1
  F  F14  1  0.81930705  0.59098579  0.42026569  1
  F  F15  1  0.28357610  0.12095536  0.92479358  1
  F  F16  1  0.55802049  0.16812384  0.39177837  1
  F  F17  1  0.96719371  0.32639983  0.12062304  1
  F  F18  1  0.86955258  0.04464062  0.67967806  1
