# generated using pymatgen
data_LiV6O7F5
_symmetry_space_group_name_H-M   'P 1'
_cell_length_a   5.70326524
_cell_length_b   5.72894598
_cell_length_c   7.71228906
_cell_angle_alpha   69.54504579
_cell_angle_beta   110.06354517
_cell_angle_gamma   109.76181151
_symmetry_Int_Tables_number   1
_chemical_formula_structural   LiV6O7F5
_chemical_formula_sum   'Li1 V6 O7 F5'
_cell_volume   214.84659681
_cell_formula_units_Z   1
loop_
 _symmetry_equiv_pos_site_id
 _symmetry_equiv_pos_as_xyz
  1  'x, y, z'
loop_
 _atom_site_type_symbol
 _atom_site_label
 _atom_site_symmetry_multiplicity
 _atom_site_fract_x
 _atom_site_fract_y
 _atom_site_fract_z
 _atom_site_occupancy
  Li  Li0  1  0.57953857  0.91392532  0.58019410  1
  V  V1  1  0.29483017  0.67486961  0.85433876  1
  V  V2  1  0.66765486  0.34271848  0.68691570  1
  V  V3  1  0.01379185  0.00105449  0.49357072  1
  V  V4  1  0.32772139  0.65154459  0.30984295  1
  V  V5  1  0.67840753  0.30649487  0.15605070  1
  V  V6  1  0.02240055  0.02805883  0.00243870  1
  O  O7  1  0.77288580  0.22437093  0.96617032  1
  O  O8  1  0.94584286  0.64657448  0.66706976  1
  O  O9  1  0.37406454  0.02211897  0.66488057  1
  O  O10  1  0.03239279  0.35532601  0.32872574  1
  O  O11  1  0.63600470  0.94604577  0.34606362  1
  O  O12  1  0.22095763  0.78125094  0.03521644  1
  O  O13  1  0.31659462  0.31963604  0.00331401  1
  F  F14  1  0.41606209  0.56428061  0.62713997  1
  F  F15  1  0.90146780  0.11057914  0.69864893  1
  F  F16  1  0.10913250  0.89407081  0.29891985  1
  F  F17  1  0.56981299  0.41718761  0.37560652  1
  F  F18  1  0.70379777  0.70786051  0.99657467  1
