# generated using pymatgen
data_Li3Mn5(CuO6)2
_symmetry_space_group_name_H-M   'P 1'
_cell_length_a   5.17573997
_cell_length_b   5.17574018
_cell_length_c   9.75420806
_cell_angle_alpha   85.77704936
_cell_angle_beta   94.22295334
_cell_angle_gamma   62.08941178
_symmetry_Int_Tables_number   1
_chemical_formula_structural   Li3Mn5(CuO6)2
_chemical_formula_sum   'Li3 Mn5 Cu2 O12'
_cell_volume   228.53797418
_cell_formula_units_Z   1
loop_
 _symmetry_equiv_pos_site_id
 _symmetry_equiv_pos_as_xyz
  1  'x, y, z'
loop_
 _atom_site_type_symbol
 _atom_site_label
 _atom_site_symmetry_multiplicity
 _atom_site_fract_x
 _atom_site_fract_y
 _atom_site_fract_z
 _atom_site_occupancy
  Li  Li0  1  0.32346507  0.86047946  0.98633984  1
  Li  Li1  1  0.86047946  0.32346507  0.51366016  1
  Li  Li2  1  0.91846440  0.91846440  0.75000000  1
  Mn  Mn3  1  0.07526068  0.07526068  0.25000000  1
  Mn  Mn4  1  0.41045606  0.41045606  0.25000000  1
  Mn  Mn5  1  0.58250991  0.58250991  0.75000000  1
  Mn  Mn6  1  0.50370102  0.99783534  0.50705369  1
  Mn  Mn7  1  0.99783534  0.50370102  0.99294631  1
  Cu  Cu8  1  0.26402613  0.26402613  0.75000000  1
  Cu  Cu9  1  0.74916102  0.74916102  0.25000000  1
  O  O10  1  0.16777959  0.31397818  0.38254790  1
  O  O11  1  0.06889659  0.74320836  0.13857147  1
  O  O12  1  0.31397818  0.16777959  0.11745210  1
  O  O13  1  0.28728248  0.55346014  0.85697396  1
  O  O14  1  0.25570665  0.96281878  0.64469564  1
  O  O15  1  0.55346014  0.28728248  0.64302604  1
  O  O16  1  0.43198069  0.73732848  0.34968028  1
  O  O17  1  0.74320836  0.06889659  0.36142853  1
  O  O18  1  0.73732848  0.43198069  0.15031972  1
  O  O19  1  0.65673208  0.80944988  0.88221747  1
  O  O20  1  0.96281878  0.25570665  0.85530436  1
  O  O21  1  0.80944988  0.65673208  0.61778253  1
