# generated using pymatgen
data_MgBi2
_symmetry_space_group_name_H-M   'P 1'
_cell_length_a   3.57922082
_cell_length_b   16.81280597
_cell_length_c   5.89066445
_cell_angle_alpha   90.00000000
_cell_angle_beta   90.00000000
_cell_angle_gamma   90.00000000
_symmetry_Int_Tables_number   1
_chemical_formula_structural   MgBi2
_chemical_formula_sum   'Mg4 Bi8'
_cell_volume   354.48101349
_cell_formula_units_Z   4
loop_
 _symmetry_equiv_pos_site_id
 _symmetry_equiv_pos_as_xyz
  1  'x, y, z'
loop_
 _atom_site_type_symbol
 _atom_site_label
 _atom_site_symmetry_multiplicity
 _atom_site_fract_x
 _atom_site_fract_y
 _atom_site_fract_z
 _atom_site_occupancy
  Mg  Mg0  1  -0.00000000  0.11420168  0.25000000  1
  Mg  Mg1  1  0.50000000  0.38579832  0.75000000  1
  Mg  Mg2  1  0.50000000  0.61420168  0.25000000  1
  Mg  Mg3  1  0.00000000  0.88579832  0.75000000  1
  Bi  Bi4  1  0.00000000  0.45497264  0.25000000  1
  Bi  Bi5  1  0.50000000  0.26765373  0.25000000  1
  Bi  Bi6  1  0.00000000  0.23234627  0.75000000  1
  Bi  Bi7  1  0.50000000  0.04502736  0.75000000  1
  Bi  Bi8  1  0.50000000  0.95497264  0.25000000  1
  Bi  Bi9  1  0.00000000  0.76765373  0.25000000  1
  Bi  Bi10  1  0.50000000  0.73234627  0.75000000  1
  Bi  Bi11  1  0.00000000  0.54502736  0.75000000  1
