# generated using pymatgen
data_Li2Mn2(SiO3)3
_symmetry_space_group_name_H-M   'P 1'
_cell_length_a   12.76450981
_cell_length_b   10.26990876
_cell_length_c   7.32028411
_cell_angle_alpha   90.00000000
_cell_angle_beta   90.00000000
_cell_angle_gamma   90.00000000
_symmetry_Int_Tables_number   1
_chemical_formula_structural   Li2Mn2(SiO3)3
_chemical_formula_sum   'Li8 Mn8 Si12 O36'
_cell_volume   959.61861424
_cell_formula_units_Z   4
loop_
 _symmetry_equiv_pos_site_id
 _symmetry_equiv_pos_as_xyz
  1  'x, y, z'
loop_
 _atom_site_type_symbol
 _atom_site_label
 _atom_site_symmetry_multiplicity
 _atom_site_fract_x
 _atom_site_fract_y
 _atom_site_fract_z
 _atom_site_occupancy
  Li  Li0  1  0.15801854  0.51024640  0.55380984  1
  Li  Li1  1  0.15801854  0.98975360  0.55380984  1
  Li  Li2  1  0.34198146  0.01024640  0.05380984  1
  Li  Li3  1  0.34198146  0.48975360  0.05380984  1
  Li  Li4  1  0.65801854  0.51024640  0.94619016  1
  Li  Li5  1  0.65801854  0.98975360  0.94619016  1
  Li  Li6  1  0.84198146  0.01024640  0.44619016  1
  Li  Li7  1  0.84198146  0.48975360  0.44619016  1
  Mn  Mn8  1  0.08995046  0.56529788  0.11901539  1
  Mn  Mn9  1  0.08995046  0.93470212  0.11901539  1
  Mn  Mn10  1  0.41004954  0.06529788  0.61901539  1
  Mn  Mn11  1  0.41004954  0.43470212  0.61901539  1
  Mn  Mn12  1  0.58995046  0.56529788  0.38098461  1
  Mn  Mn13  1  0.58995046  0.93470212  0.38098461  1
  Mn  Mn14  1  0.91004954  0.06529788  0.88098461  1
  Mn  Mn15  1  0.91004954  0.43470212  0.88098461  1
  Si  Si16  1  0.02888427  0.75000000  0.46713429  1
  Si  Si17  1  0.05803499  0.25000000  0.14574026  1
  Si  Si18  1  0.20904839  0.25000000  0.46538467  1
  Si  Si19  1  0.29095161  0.75000000  0.96538467  1
  Si  Si20  1  0.44196501  0.75000000  0.64574026  1
  Si  Si21  1  0.47111573  0.25000000  0.96713429  1
  Si  Si22  1  0.52888427  0.75000000  0.03286571  1
  Si  Si23  1  0.55803499  0.25000000  0.35425974  1
  Si  Si24  1  0.70904839  0.25000000  0.03461533  1
  Si  Si25  1  0.79095161  0.75000000  0.53461533  1
  Si  Si26  1  0.94196501  0.75000000  0.85425974  1
  Si  Si27  1  0.97111573  0.25000000  0.53286571  1
  O  O28  1  0.03475521  0.75000000  0.69386223  1
  O  O29  1  0.04536054  0.11895480  0.02462945  1
  O  O30  1  0.04536054  0.38104520  0.02462945  1
  O  O31  1  0.08239207  0.61661298  0.39117615  1
  O  O32  1  0.08239207  0.88338702  0.39117615  1
  O  O33  1  0.09772088  0.25000000  0.58373359  1
  O  O34  1  0.23221514  0.88624562  0.01094738  1
  O  O35  1  0.23221514  0.61375438  0.01094738  1
  O  O36  1  0.17412173  0.25000000  0.24601658  1
  O  O37  1  0.32587827  0.75000000  0.74601658  1
  O  O38  1  0.26778486  0.11375438  0.51094738  1
  O  O39  1  0.26778486  0.38624562  0.51094738  1
  O  O40  1  0.40227912  0.75000000  0.08373359  1
  O  O41  1  0.41760793  0.11661298  0.89117615  1
  O  O42  1  0.41760793  0.38338702  0.89117615  1
  O  O43  1  0.45463946  0.61895480  0.52462945  1
  O  O44  1  0.45463946  0.88104520  0.52462945  1
  O  O45  1  0.46524479  0.25000000  0.19386223  1
  O  O46  1  0.53475521  0.75000000  0.80613777  1
  O  O47  1  0.54536054  0.11895480  0.47537055  1
  O  O48  1  0.54536054  0.38104520  0.47537055  1
  O  O49  1  0.58239207  0.61661298  0.10882385  1
  O  O50  1  0.58239207  0.88338702  0.10882385  1
  O  O51  1  0.59772088  0.25000000  0.91626641  1
  O  O52  1  0.73221514  0.61375438  0.48905262  1
  O  O53  1  0.73221514  0.88624562  0.48905262  1
  O  O54  1  0.67412173  0.25000000  0.25398342  1
  O  O55  1  0.82587827  0.75000000  0.75398342  1
  O  O56  1  0.76778486  0.11375438  0.98905262  1
  O  O57  1  0.76778486  0.38624562  0.98905262  1
  O  O58  1  0.90227912  0.75000000  0.41626641  1
  O  O59  1  0.91760793  0.11661298  0.60882385  1
  O  O60  1  0.91760793  0.38338702  0.60882385  1
  O  O61  1  0.95463946  0.61895480  0.97537055  1
  O  O62  1  0.95463946  0.88104520  0.97537055  1
  O  O63  1  0.96524479  0.25000000  0.30613777  1
