# generated using pymatgen
data_Li2Mn5(CuO6)2
_symmetry_space_group_name_H-M   'P 1'
_cell_length_a   5.37320541
_cell_length_b   8.76543350
_cell_length_c   9.73039045
_cell_angle_alpha   90.00000081
_cell_angle_beta   98.11040277
_cell_angle_gamma   90.00000109
_symmetry_Int_Tables_number   1
_chemical_formula_structural   Li2Mn5(CuO6)2
_chemical_formula_sum   'Li4 Mn10 Cu4 O24'
_cell_volume   453.70279330
_cell_formula_units_Z   2
loop_
 _symmetry_equiv_pos_site_id
 _symmetry_equiv_pos_as_xyz
  1  'x, y, z'
loop_
 _atom_site_type_symbol
 _atom_site_label
 _atom_site_symmetry_multiplicity
 _atom_site_fract_x
 _atom_site_fract_y
 _atom_site_fract_z
 _atom_site_occupancy
  Li  Li0  1  0.77933369  0.09447045  0.51567499  1
  Li  Li1  1  0.50286843  0.42086630  0.74248395  1
  Li  Li2  1  0.72066631  0.59447045  0.98432501  1
  Li  Li3  1  0.99713157  0.92086630  0.75751605  1
  Mn  Mn4  1  0.00378844  0.07548597  0.24823593  1
  Mn  Mn5  1  0.49435236  0.08571313  0.74981869  1
  Mn  Mn6  1  0.25280899  0.25664276  0.50567426  1
  Mn  Mn7  1  0.99243471  0.41297591  0.24980285  1
  Mn  Mn8  1  0.74193480  0.24648775  0.99316383  1
  Mn  Mn9  1  0.00564764  0.58571313  0.75018131  1
  Mn  Mn10  1  0.49621156  0.57548597  0.25176407  1
  Mn  Mn11  1  0.24719101  0.75664276  0.99432574  1
  Mn  Mn12  1  0.75806520  0.74648775  0.50683617  1
  Mn  Mn13  1  0.50756529  0.91297591  0.25019715  1
  Cu  Cu14  1  0.00241758  0.26036005  0.75676814  1
  Cu  Cu15  1  0.49163759  0.24666793  0.24095799  1
  Cu  Cu16  1  0.00836241  0.74666793  0.25904201  1
  Cu  Cu17  1  0.49758242  0.76036005  0.74323186  1
  O  O18  1  0.13961256  0.11094670  0.64744152  1
  O  O19  1  0.34976931  0.08561977  0.34900847  1
  O  O20  1  0.06162253  0.24923643  0.12373866  1
  O  O21  1  0.65942326  0.08050927  0.15045846  1
  O  O22  1  0.42854188  0.23823988  0.87809990  1
  O  O23  1  0.84109835  0.10544461  0.84926573  1
  O  O24  1  0.12831804  0.41214902  0.65093739  1
  O  O25  1  0.57326508  0.23313584  0.61529486  1
  O  O26  1  0.33516361  0.40119333  0.35151298  1
  O  O27  1  0.92967929  0.24222954  0.38366104  1
  O  O28  1  0.15023069  0.58561977  0.15099153  1
  O  O29  1  0.65448089  0.40930374  0.13753669  1
  O  O30  1  0.36038744  0.61094670  0.85255848  1
  O  O31  1  0.87462281  0.41765461  0.85905383  1
  O  O32  1  0.07145812  0.73823988  0.62190010  1
  O  O33  1  0.65890165  0.60544461  0.65073427  1
  O  O34  1  0.43837747  0.74923643  0.37626134  1
  O  O35  1  0.84057674  0.58050927  0.34954154  1
  O  O36  1  0.16483639  0.90119333  0.14848702  1
  O  O37  1  0.57032071  0.74222954  0.11633896  1
  O  O38  1  0.37168196  0.91214902  0.84906261  1
  O  O39  1  0.92673492  0.73313584  0.88470514  1
  O  O40  1  0.62537719  0.91765461  0.64094617  1
  O  O41  1  0.84551911  0.90930374  0.36246331  1
