# generated using pymatgen
data_LiFeP2O7
_symmetry_space_group_name_H-M   'P 1'
_cell_length_a   9.67233599
_cell_length_b   9.79440914
_cell_length_c   11.19216939
_cell_angle_alpha   89.84025335
_cell_angle_beta   101.42779828
_cell_angle_gamma   89.97856425
_symmetry_Int_Tables_number   1
_chemical_formula_structural   LiFeP2O7
_chemical_formula_sum   'Li8 Fe8 P16 O56'
_cell_volume   1039.26356301
_cell_formula_units_Z   8
loop_
 _symmetry_equiv_pos_site_id
 _symmetry_equiv_pos_as_xyz
  1  'x, y, z'
loop_
 _atom_site_type_symbol
 _atom_site_label
 _atom_site_symmetry_multiplicity
 _atom_site_fract_x
 _atom_site_fract_y
 _atom_site_fract_z
 _atom_site_occupancy
  Li  Li0  1  0.40470763  0.60873708  0.97257544  1
  Li  Li1  1  0.33630344  0.91411256  0.46272130  1
  Li  Li2  1  0.38494871  0.21817435  0.54951843  1
  Li  Li3  1  0.59168187  0.39595491  0.03108722  1
  Li  Li4  1  0.65134248  0.10136876  0.04823178  1
  Li  Li5  1  0.91946454  0.90065854  0.97471187  1
  Li  Li6  1  0.84585593  0.57564524  0.47498590  1
  Li  Li7  1  0.88648820  0.28488816  0.54710017  1
  Fe  Fe8  1  0.20637260  0.91106550  0.67804644  1
  Fe  Fe9  1  0.24303739  0.20186227  0.82961997  1
  Fe  Fe10  1  0.24145445  0.72070986  0.17201569  1
  Fe  Fe11  1  0.29136536  0.42873782  0.32852959  1
  Fe  Fe12  1  0.70650527  0.58752374  0.68126457  1
  Fe  Fe13  1  0.75425544  0.28950817  0.82648178  1
  Fe  Fe14  1  0.75339960  0.78842898  0.17418509  1
  Fe  Fe15  1  0.79365559  0.07399234  0.33388287  1
  P  P16  1  0.02137492  0.44732455  0.74921929  1
  P  P17  1  0.11059048  0.70940698  0.88363417  1
  P  P18  1  0.06761851  0.92002025  0.24109079  1
  P  P19  1  0.12398908  0.14713026  0.41816748  1
  P  P20  1  0.37799019  0.63993702  0.57440692  1
  P  P21  1  0.43754731  0.42320765  0.76405676  1
  P  P22  1  0.52133375  0.05366559  0.75224795  1
  P  P23  1  0.38170512  0.21216196  0.11763789  1
  P  P24  1  0.61391199  0.79354006  0.88498918  1
  P  P25  1  0.47629861  0.94687263  0.24679453  1
  P  P26  1  0.55929011  0.57840681  0.23671460  1
  P  P27  1  0.62259299  0.35390642  0.42200477  1
  P  P28  1  0.87696316  0.85790229  0.57395131  1
  P  P29  1  0.93061631  0.07527208  0.76150370  1
  P  P30  1  0.89308289  0.28348571  0.11551970  1
  P  P31  1  0.97424337  0.55159555  0.24539442  1
  O  O32  1  0.01566101  0.42462311  0.61620778  1
  O  O33  1  0.03422930  0.85161627  0.57116989  1
  O  O34  1  0.08597748  0.08010128  0.73861509  1
  O  O35  1  0.10298213  0.58724415  0.78587113  1
  O  O36  1  0.10390746  0.34071180  0.83642623  1
  O  O37  1  0.18418477  0.82183020  0.82253492  1
  O  O38  1  0.21482268  0.66013840  0.00159178  1
  O  O39  1  0.03346604  0.25692559  0.09052855  1
  O  O40  1  0.11825658  0.06826701  0.29080631  1
  O  O41  1  0.07813787  0.90315495  0.10916399  1
  O  O42  1  0.12934388  0.54280042  0.22150126  1
  O  O43  1  0.18900630  0.28612054  0.40212114  1
  O  O44  1  0.17352007  0.81659783  0.31291213  1
  O  O45  1  0.22123303  0.06462834  0.51779663  1
  O  O46  1  0.29282030  0.56341219  0.46742290  1
  O  O47  1  0.34549678  0.30086341  0.70985092  1
  O  O48  1  0.32136545  0.78404362  0.59422789  1
  O  O49  1  0.36677935  0.03506267  0.77739762  1
  O  O50  1  0.36721726  0.55771097  0.69813056  1
  O  O51  1  0.43734506  0.43751048  0.89739750  1
  O  O52  1  0.47285477  0.76307404  0.90984221  1
  O  O53  1  0.28248148  0.16638455  0.99848299  1
  O  O54  1  0.32458299  0.32968592  0.18334280  1
  O  O55  1  0.39101696  0.08697079  0.21263762  1
  O  O56  1  0.40770899  0.59142088  0.26388604  1
  O  O57  1  0.39757215  0.84065229  0.15657266  1
  O  O58  1  0.46979218  0.34183125  0.43810012  1
  O  O59  1  0.52348764  0.08901301  0.62295676  1
  O  O60  1  0.47917817  0.92166650  0.37787129  1
  O  O61  1  0.53582861  0.64719966  0.57269685  1
  O  O62  1  0.60522725  0.15201050  0.85011064  1
  O  O63  1  0.59105024  0.41285525  0.73645336  1
  O  O64  1  0.60146889  0.91067778  0.78150534  1
  O  O65  1  0.68572029  0.67734520  0.82781170  1
  O  O66  1  0.71743102  0.85343007  0.00117198  1
  O  O67  1  0.52812279  0.23449779  0.09421622  1
  O  O68  1  0.56293429  0.56806317  0.10328195  1
  O  O69  1  0.62030886  0.43652939  0.29687197  1
  O  O70  1  0.62938790  0.96688099  0.21548701  1
  O  O71  1  0.68925825  0.21597539  0.40235389  1
  O  O72  1  0.66342554  0.69090949  0.29420753  1
  O  O73  1  0.72069601  0.43362577  0.52224379  1
  O  O74  1  0.79214472  0.93458893  0.46552321  1
  O  O75  1  0.84311145  0.19814057  0.69848973  1
  O  O76  1  0.82004562  0.71406454  0.59411275  1
  O  O77  1  0.86750314  0.46202288  0.77903467  1
  O  O78  1  0.91354399  0.07162390  0.89157669  1
  O  O79  1  0.86302543  0.93974120  0.69602003  1
  O  O80  1  0.96731211  0.74233027  0.90222756  1
  O  O81  1  0.77829678  0.32964196  0.99912837  1
  O  O82  1  0.81795296  0.16815535  0.17645788  1
  O  O83  1  0.89177853  0.65547190  0.15262852  1
  O  O84  1  0.89501566  0.40839854  0.21151738  1
  O  O85  1  0.91170326  0.91101875  0.26226564  1
  O  O86  1  0.97076159  0.15864414  0.43569027  1
  O  O87  1  0.96869139  0.57964605  0.37451382  1
