# generated using pymatgen
data_Li2CuP3(HO5)2
_symmetry_space_group_name_H-M   'P 1'
_cell_length_a   8.23532135
_cell_length_b   7.32518004
_cell_length_c   7.64629765
_cell_angle_alpha   108.50232261
_cell_angle_beta   108.61083049
_cell_angle_gamma   73.79031981
_symmetry_Int_Tables_number   1
_chemical_formula_structural   Li2CuP3(HO5)2
_chemical_formula_sum   'Li4 Cu2 P6 H4 O20'
_cell_volume   406.34778682
_cell_formula_units_Z   2
loop_
 _symmetry_equiv_pos_site_id
 _symmetry_equiv_pos_as_xyz
  1  'x, y, z'
loop_
 _atom_site_type_symbol
 _atom_site_label
 _atom_site_symmetry_multiplicity
 _atom_site_fract_x
 _atom_site_fract_y
 _atom_site_fract_z
 _atom_site_occupancy
  Li  Li0  1  0.01090100  0.67991952  0.40213069  1
  Li  Li1  1  0.37340243  0.58270057  0.66467294  1
  Li  Li2  1  0.62659757  0.41729943  0.33532706  1
  Li  Li3  1  0.98909900  0.32008048  0.59786931  1
  Cu  Cu4  1  0.36142356  0.28740559  0.93752656  1
  Cu  Cu5  1  0.63857644  0.71259441  0.06247344  1
  P  P6  1  0.08545511  0.70444651  0.88848934  1
  P  P7  1  0.28171006  0.24836555  0.29041911  1
  P  P8  1  0.32937944  0.81188474  0.27692158  1
  P  P9  1  0.67062056  0.18811526  0.72307842  1
  P  P10  1  0.71828994  0.75163445  0.70958089  1
  P  P11  1  0.91454489  0.29555349  0.11151066  1
  H  H12  1  0.16323402  0.00657189  0.75891055  1
  H  H13  1  0.26525165  0.00024987  0.62221603  1
  H  H14  1  0.73474835  -0.00024987  0.37778397  1
  H  H15  1  0.83676598  0.99342811  0.24108945  1
  O  O16  1  0.19655074  0.09682713  0.70883516  1
  O  O17  1  0.11847342  0.48680912  0.85929809  1
  O  O18  1  0.11776509  0.20575765  0.11215948  1
  O  O19  1  0.13962344  0.77541473  0.75385520  1
  O  O20  1  0.21967698  0.40383008  0.45248352  1
  O  O21  1  0.34860210  0.04038604  0.34634522  1
  O  O22  1  0.15445089  0.81894734  0.10632974  1
  O  O23  1  0.51749470  0.31847925  0.79719752  1
  O  O24  1  0.29028311  0.76760631  0.43637982  1
  O  O25  1  0.41708050  0.28241326  0.21581849  1
  O  O26  1  0.58291950  0.71758674  0.78418151  1
  O  O27  1  0.70971689  0.23239369  0.56362018  1
  O  O28  1  0.48250530  0.68152075  0.20280248  1
  O  O29  1  0.84554911  0.18105266  0.89367026  1
  O  O30  1  0.65139790  0.95961396  0.65365478  1
  O  O31  1  0.78032302  0.59616992  0.54751648  1
  O  O32  1  0.86037656  0.22458527  0.24614480  1
  O  O33  1  0.88223491  0.79424235  0.88784052  1
  O  O34  1  0.88152658  0.51319188  0.14070191  1
  O  O35  1  0.80344926  0.90317287  0.29116484  1
