# generated using pymatgen
data_Mn6O7F5
_symmetry_space_group_name_H-M   'P 1'
_cell_length_a   4.62448347
_cell_length_b   5.66810261
_cell_length_c   15.31725004
_cell_angle_alpha   89.91490674
_cell_angle_beta   89.31829766
_cell_angle_gamma   89.50288502
_symmetry_Int_Tables_number   1
_chemical_formula_structural   Mn6O7F5
_chemical_formula_sum   'Mn12 O14 F10'
_cell_volume   401.45256350
_cell_formula_units_Z   2
loop_
 _symmetry_equiv_pos_site_id
 _symmetry_equiv_pos_as_xyz
  1  'x, y, z'
loop_
 _atom_site_type_symbol
 _atom_site_label
 _atom_site_symmetry_multiplicity
 _atom_site_fract_x
 _atom_site_fract_y
 _atom_site_fract_z
 _atom_site_occupancy
  Mn  Mn0  1  0.01651169  0.16659925  0.41199428  1
  Mn  Mn1  1  0.99940600  0.84642534  0.24285391  1
  Mn  Mn2  1  0.02068901  0.16050181  0.07899766  1
  Mn  Mn3  1  0.02062613  0.16394850  0.74525063  1
  Mn  Mn4  1  0.04204480  0.85007062  0.58125206  1
  Mn  Mn5  1  0.02612662  0.85350070  0.91140500  1
  Mn  Mn6  1  0.49124383  0.35161103  0.58890993  1
  Mn  Mn7  1  0.49345457  0.34049831  0.92193524  1
  Mn  Mn8  1  0.49281371  0.34475023  0.25366565  1
  Mn  Mn9  1  0.50306706  0.63435839  0.09374202  1
  Mn  Mn10  1  0.49079020  0.63958021  0.42066434  1
  Mn  Mn11  1  0.48374716  0.63338344  0.74990527  1
  O  O12  1  0.21169432  0.10628713  0.30116110  1
  O  O13  1  0.22721140  0.11282914  0.63672306  1
  O  O14  1  0.21908291  0.11374580  0.96950259  1
  O  O15  1  0.22941045  0.88515845  0.13543326  1
  O  O16  1  0.23006533  0.89245855  0.47016720  1
  O  O17  1  0.23488675  0.88752151  0.80121206  1
  O  O18  1  0.28023502  0.39352255  0.14518183  1
  O  O19  1  0.28358184  0.40008258  0.48260357  1
  O  O20  1  0.28091878  0.60910006  0.64330956  1
  O  O21  1  0.27670126  0.40084357  0.81403064  1
  O  O22  1  0.72697356  0.38404615  0.02756581  1
  O  O23  1  0.71920299  0.61680172  0.19640012  1
  O  O24  1  0.71603646  0.38015124  0.36101017  1
  O  O25  1  0.72054984  0.38208715  0.69472166  1
  F  F26  1  0.23403964  0.60776846  0.31132834  1
  F  F27  1  0.26914577  0.61769859  0.98455896  1
  F  F28  1  0.76074022  0.62116985  0.53304527  1
  F  F29  1  0.73138490  0.62539593  0.86192117  1
  F  F30  1  0.76580233  0.11918561  0.18275829  1
  F  F31  1  0.76518921  0.12516393  0.52591765  1
  F  F32  1  0.74643788  0.87169244  0.35641784  1
  F  F33  1  0.75633191  0.86795333  0.02230454  1
  F  F34  1  0.76949197  0.12492701  0.85218759  1
  F  F35  1  0.76436146  0.86918044  0.68995973  1
