# generated using pymatgen
data_Na3(NiO2)2
_symmetry_space_group_name_H-M   'P 1'
_cell_length_a   5.55173636
_cell_length_b   10.06851323
_cell_length_c   8.60744086
_cell_angle_alpha   90.00000000
_cell_angle_beta   90.00000000
_cell_angle_gamma   90.00000000
_symmetry_Int_Tables_number   1
_chemical_formula_structural   Na3(NiO2)2
_chemical_formula_sum   'Na12 Ni8 O16'
_cell_volume   481.13641371
_cell_formula_units_Z   4
loop_
 _symmetry_equiv_pos_site_id
 _symmetry_equiv_pos_as_xyz
  1  'x, y, z'
loop_
 _atom_site_type_symbol
 _atom_site_label
 _atom_site_symmetry_multiplicity
 _atom_site_fract_x
 _atom_site_fract_y
 _atom_site_fract_z
 _atom_site_occupancy
  Na  Na0  1  0.05425742  0.09695217  0.14922722  1
  Na  Na1  1  0.05425742  0.40304783  0.14922722  1
  Na  Na2  1  0.15196472  0.25000000  0.82534616  1
  Na  Na3  1  0.34803528  0.75000000  0.32534616  1
  Na  Na4  1  0.44574258  0.90304783  0.64922722  1
  Na  Na5  1  0.44574258  0.59695217  0.64922722  1
  Na  Na6  1  0.55425742  0.09695217  0.35077278  1
  Na  Na7  1  0.55425742  0.40304783  0.35077278  1
  Na  Na8  1  0.65196472  0.25000000  0.67465384  1
  Na  Na9  1  0.84803528  0.75000000  0.17465384  1
  Na  Na10  1  0.94574258  0.59695217  0.85077278  1
  Na  Na11  1  0.94574258  0.90304783  0.85077278  1
  Ni  Ni12  1  0.05909983  0.12251807  0.48673427  1
  Ni  Ni13  1  0.05909983  0.37748193  0.48673427  1
  Ni  Ni14  1  0.44090017  0.87748193  0.98673427  1
  Ni  Ni15  1  0.44090017  0.62251807  0.98673427  1
  Ni  Ni16  1  0.55909983  0.12251807  0.01326573  1
  Ni  Ni17  1  0.55909983  0.37748193  0.01326573  1
  Ni  Ni18  1  0.94090017  0.62251807  0.51326573  1
  Ni  Ni19  1  0.94090017  0.87748193  0.51326573  1
  O  O20  1  0.10956850  0.75000000  0.64134158  1
  O  O21  1  0.19071087  0.53319381  0.39627372  1
  O  O22  1  0.19071087  0.96680619  0.39627372  1
  O  O23  1  0.22109184  0.75000000  0.06490006  1
  O  O24  1  0.27890816  0.25000000  0.56490006  1
  O  O25  1  0.30928913  0.03319381  0.89627372  1
  O  O26  1  0.30928913  0.46680619  0.89627372  1
  O  O27  1  0.39043150  0.25000000  0.14134158  1
  O  O28  1  0.60956850  0.75000000  0.85865842  1
  O  O29  1  0.69071087  0.53319381  0.10372628  1
  O  O30  1  0.69071087  0.96680619  0.10372628  1
  O  O31  1  0.72109184  0.75000000  0.43509994  1
  O  O32  1  0.77890816  0.25000000  0.93509994  1
  O  O33  1  0.80928913  0.03319381  0.60372628  1
  O  O34  1  0.80928913  0.46680619  0.60372628  1
  O  O35  1  0.89043150  0.25000000  0.35865842  1
