# generated using pymatgen
data_Na2CoO3
_symmetry_space_group_name_H-M   'P 1'
_cell_length_a   5.42085369
_cell_length_b   5.98825750
_cell_length_c   6.60578166
_cell_angle_alpha   68.21953178
_cell_angle_beta   95.48824425
_cell_angle_gamma   83.75930465
_symmetry_Int_Tables_number   1
_chemical_formula_structural   Na2CoO3
_chemical_formula_sum   'Na4 Co2 O6'
_cell_volume   195.78615594
_cell_formula_units_Z   2
loop_
 _symmetry_equiv_pos_site_id
 _symmetry_equiv_pos_as_xyz
  1  'x, y, z'
loop_
 _atom_site_type_symbol
 _atom_site_label
 _atom_site_symmetry_multiplicity
 _atom_site_fract_x
 _atom_site_fract_y
 _atom_site_fract_z
 _atom_site_occupancy
  Na  Na0  1  0.06112469  0.75313451  0.42759998  1
  Na  Na1  1  0.21629621  0.77744429  0.98373334  1
  Na  Na2  1  0.78370379  0.22255571  0.01626666  1
  Na  Na3  1  0.93887531  0.24686549  0.57240002  1
  Co  Co4  1  0.34988573  0.16561014  0.33259366  1
  Co  Co5  1  0.65011427  0.83438986  0.66740634  1
  O  O6  1  0.21351616  0.07602685  0.13422008  1
  O  O7  1  0.21052810  0.44948405  0.31311635  1
  O  O8  1  0.30623617  0.92803032  0.62054166  1
  O  O9  1  0.69376383  0.07196968  0.37945834  1
  O  O10  1  0.78947190  0.55051595  0.68688365  1
  O  O11  1  0.78648384  0.92397315  0.86577992  1
