# generated using pymatgen
data_LiMn(PO3)4
_symmetry_space_group_name_H-M   'P 1'
_cell_length_a   7.37103569
_cell_length_b   13.05249631
_cell_length_c   9.46694003
_cell_angle_alpha   90.00000000
_cell_angle_beta   90.48037221
_cell_angle_gamma   90.00000000
_symmetry_Int_Tables_number   1
_chemical_formula_structural   LiMn(PO3)4
_chemical_formula_sum   'Li4 Mn4 P16 O48'
_cell_volume   910.78622775
_cell_formula_units_Z   4
loop_
 _symmetry_equiv_pos_site_id
 _symmetry_equiv_pos_as_xyz
  1  'x, y, z'
loop_
 _atom_site_type_symbol
 _atom_site_label
 _atom_site_symmetry_multiplicity
 _atom_site_fract_x
 _atom_site_fract_y
 _atom_site_fract_z
 _atom_site_occupancy
  Li  Li0  1  0.97752455  0.21245935  0.02552502  1
  Li  Li1  1  0.52247545  0.71245935  0.47447498  1
  Li  Li2  1  0.47752455  0.28754065  0.52552502  1
  Li  Li3  1  0.02247545  0.78754065  0.97447498  1
  Mn  Mn4  1  0.99579370  0.28894821  0.43109073  1
  Mn  Mn5  1  0.50420630  0.78894821  0.06890927  1
  Mn  Mn6  1  0.49579370  0.21105179  0.93109073  1
  Mn  Mn7  1  0.00420630  0.71105179  0.56890927  1
  P  P8  1  0.07561347  0.62208097  0.25590762  1
  P  P9  1  0.11351882  0.12659768  0.69592638  1
  P  P10  1  0.16892326  0.90739714  0.70855248  1
  P  P11  1  0.29459069  0.90210977  0.22985315  1
  P  P12  1  0.20540931  0.40210977  0.27014685  1
  P  P13  1  0.33107674  0.40739714  0.79144752  1
  P  P14  1  0.38648118  0.62659768  0.80407362  1
  P  P15  1  0.42438653  0.12208097  0.24409238  1
  P  P16  1  0.57561347  0.87791903  0.75590762  1
  P  P17  1  0.61351882  0.37340232  0.19592638  1
  P  P18  1  0.66892326  0.59260286  0.20855248  1
  P  P19  1  0.79459069  0.59789023  0.72985315  1
  P  P20  1  0.70540931  0.09789023  0.77014685  1
  P  P21  1  0.83107674  0.09260286  0.29144752  1
  P  P22  1  0.88648118  0.87340232  0.30407362  1
  P  P23  1  0.92438653  0.37791903  0.74409238  1
  O  O24  1  0.10721288  0.87784647  0.29402354  1
  O  O25  1  0.03798879  0.89546874  0.82588066  1
  O  O26  1  0.12948464  0.41606559  0.73126744  1
  O  O27  1  0.06089928  0.32506024  0.22027469  1
  O  O28  1  0.10343460  0.69378762  0.13655008  1
  O  O29  1  0.19473486  0.13570428  0.83929858  1
  O  O30  1  0.13807398  0.64988457  0.40316923  1
  O  O31  1  0.30513361  0.89269054  0.06783106  1
  O  O32  1  0.17434158  0.51431974  0.21398173  1
  O  O33  1  0.15278286  0.01554400  0.62581009  1
  O  O34  1  0.15175720  0.20630999  0.58485301  1
  O  O35  1  0.33623901  0.32802379  0.91012598  1
  O  O36  1  0.16376099  0.82802379  0.58987402  1
  O  O37  1  0.32565842  0.01431974  0.28601827  1
  O  O38  1  0.34824280  0.70630999  0.91514699  1
  O  O39  1  0.19486639  0.39269054  0.43216894  1
  O  O40  1  0.34721714  0.51554400  0.87418991  1
  O  O41  1  0.36192602  0.14988457  0.09683077  1
  O  O42  1  0.30526514  0.63570428  0.66070142  1
  O  O43  1  0.39656540  0.19378762  0.36344992  1
  O  O44  1  0.43910072  0.82506024  0.27972531  1
  O  O45  1  0.37051536  0.91606559  0.76873256  1
  O  O46  1  0.39278712  0.37784647  0.20597646  1
  O  O47  1  0.46201121  0.39546874  0.67411934  1
  O  O48  1  0.53798879  0.60453126  0.32588066  1
  O  O49  1  0.60721288  0.62215353  0.79402354  1
  O  O50  1  0.62948464  0.08393441  0.23126744  1
  O  O51  1  0.56089928  0.17493976  0.72027469  1
  O  O52  1  0.60343460  0.80621238  0.63655008  1
  O  O53  1  0.69473486  0.36429572  0.33929858  1
  O  O54  1  0.63807398  0.85011543  0.90316923  1
  O  O55  1  0.65278286  0.48445600  0.12581009  1
  O  O56  1  0.80513361  0.60730946  0.56783106  1
  O  O57  1  0.65175720  0.29369001  0.08485301  1
  O  O58  1  0.67434158  0.98568026  0.71398173  1
  O  O59  1  0.83623901  0.17197621  0.41012598  1
  O  O60  1  0.66376099  0.67197621  0.08987402  1
  O  O61  1  0.84824280  0.79369001  0.41514699  1
  O  O62  1  0.84721714  0.98445600  0.37418991  1
  O  O63  1  0.82565842  0.48568026  0.78601827  1
  O  O64  1  0.69486639  0.10730946  0.93216894  1
  O  O65  1  0.86192602  0.35011543  0.59683077  1
  O  O66  1  0.80526514  0.86429572  0.16070142  1
  O  O67  1  0.89656540  0.30621238  0.86344992  1
  O  O68  1  0.93910072  0.67493976  0.77972531  1
  O  O69  1  0.87051536  0.58393441  0.26873256  1
  O  O70  1  0.96201121  0.10453126  0.17411934  1
  O  O71  1  0.89278712  0.12215353  0.70597646  1
