# generated using pymatgen
data_Li7TiCr3(PO4)6
_symmetry_space_group_name_H-M   'P 1'
_cell_length_a   8.87338623
_cell_length_b   8.87338652
_cell_length_c   8.81259605
_cell_angle_alpha   59.77154664
_cell_angle_beta   59.77154745
_cell_angle_gamma   60.00000008
_symmetry_Int_Tables_number   1
_chemical_formula_structural   Li7TiCr3(PO4)6
_chemical_formula_sum   'Li7 Ti1 Cr3 P6 O24'
_cell_volume   488.94424779
_cell_formula_units_Z   1
loop_
 _symmetry_equiv_pos_site_id
 _symmetry_equiv_pos_as_xyz
  1  'x, y, z'
loop_
 _atom_site_type_symbol
 _atom_site_label
 _atom_site_symmetry_multiplicity
 _atom_site_fract_x
 _atom_site_fract_y
 _atom_site_fract_z
 _atom_site_occupancy
  Li  Li0  1  0.24833989  0.79847296  0.32443420  1
  Li  Li1  1  0.79847296  0.62875295  0.32443420  1
  Li  Li2  1  0.62875295  0.24833989  0.32443420  1
  Li  Li3  1  0.47457617  0.47457617  0.57627250  1
  Li  Li4  1  0.23597893  0.80079143  0.90414273  1
  Li  Li5  1  0.05908691  0.23597993  0.90414273  1
  Li  Li6  1  0.80079043  0.05908691  0.90414273  1
  Ti  Ti7  1  0.14364912  0.14364912  0.56905164  1
  Cr  Cr8  1  0.85429521  0.85429521  0.43711537  1
  Cr  Cr9  1  0.35266883  0.35266883  0.94199252  1
  Cr  Cr10  1  0.64448767  0.64448767  0.06653700  1
  P  P11  1  0.53786495  0.95436769  0.25395112  1
  P  P12  1  0.25381624  0.53786495  0.25395112  1
  P  P13  1  0.95436769  0.25381624  0.25395112  1
  P  P14  1  0.04543642  0.74824429  0.75033184  1
  P  P15  1  0.74824429  0.45598645  0.75033184  1
  P  P16  1  0.45598645  0.04543642  0.75033184  1
  O  O17  1  0.72866575  0.91172309  0.25727060  1
  O  O18  1  0.37296776  0.00046920  0.42227534  1
  O  O19  1  0.53988633  0.77263284  0.26229719  1
  O  O20  1  0.29019389  0.52773312  0.06794034  1
  O  O21  1  0.10234056  0.72866575  0.25727060  1
  O  O22  1  0.42518364  0.53988633  0.26229719  1
  O  O23  1  0.11413166  0.29019389  0.06794034  1
  O  O24  1  0.77263284  0.42518364  0.26229719  1
  O  O25  1  0.02709531  0.80023667  0.56354714  1
  O  O26  1  0.06270363  0.91309813  0.75865585  1
  O  O27  1  0.52773312  0.11413166  0.06794034  1
  O  O28  1  0.80023667  0.60912088  0.56354714  1
  O  O29  1  0.20428770  0.37296776  0.42227534  1
  O  O30  1  0.48811627  0.87425326  0.92181068  1
  O  O31  1  0.91172309  0.10234056  0.25727060  1
  O  O32  1  0.00046920  0.20428770  0.42227534  1
  O  O33  1  0.22848736  0.58588042  0.75520197  1
  O  O34  1  0.87425326  0.71581978  0.92181068  1
  O  O35  1  0.58588042  0.43043024  0.75520197  1
  O  O36  1  0.91309813  0.26554339  0.75865585  1
  O  O37  1  0.71581978  0.48811627  0.92181068  1
  O  O38  1  0.60912088  0.02709531  0.56354714  1
  O  O39  1  0.43043024  0.22848736  0.75520197  1
  O  O40  1  0.26554339  0.06270363  0.75865585  1
