# generated using pymatgen
data_Fe4O3F5
_symmetry_space_group_name_H-M   'P 1'
_cell_length_a   4.82675334
_cell_length_b   10.49134692
_cell_length_c   5.74669016
_cell_angle_alpha   84.62896509
_cell_angle_beta   92.84579143
_cell_angle_gamma   89.31983539
_symmetry_Int_Tables_number   1
_chemical_formula_structural   Fe4O3F5
_chemical_formula_sum   'Fe8 O6 F10'
_cell_volume   289.33254690
_cell_formula_units_Z   2
loop_
 _symmetry_equiv_pos_site_id
 _symmetry_equiv_pos_as_xyz
  1  'x, y, z'
loop_
 _atom_site_type_symbol
 _atom_site_label
 _atom_site_symmetry_multiplicity
 _atom_site_fract_x
 _atom_site_fract_y
 _atom_site_fract_z
 _atom_site_occupancy
  Fe  Fe0  1  0.50000000  0.25000000  0.75000000  1
  Fe  Fe1  1  0.50000000  0.75000000  0.25000000  1
  Fe  Fe2  1  0.42308445  0.00237407  0.50547260  1
  Fe  Fe3  1  0.57691555  0.49762593  0.99452740  1
  Fe  Fe4  1  0.00000000  0.75000000  0.75000000  1
  Fe  Fe5  1  0.96974327  0.51059316  0.50533893  1
  Fe  Fe6  1  0.00000000  0.25000000  0.25000000  1
  Fe  Fe7  1  0.03025673  0.98940684  0.99466107  1
  O  O8  1  0.80803986  0.57680286  0.76354985  1
  O  O9  1  0.69777622  0.58413222  0.26872890  1
  O  O10  1  0.70422677  0.32374734  0.03269137  1
  O  O11  1  0.30222378  0.91586778  0.23127110  1
  O  O12  1  0.29577323  0.17625266  0.46730863  1
  O  O13  1  0.19196014  0.92319714  0.73645015  1
  F  F14  1  0.81714606  0.33068366  0.52106801  1
  F  F15  1  0.81662901  0.07380063  0.25500457  1
  F  F16  1  0.79137659  0.82875831  0.03581906  1
  F  F17  1  0.68955441  0.83194813  0.51769863  1
  F  F18  1  0.70238211  0.06288568  0.76676207  1
  F  F19  1  0.29761789  0.43711432  0.73323793  1
  F  F20  1  0.31044559  0.66805187  0.98230137  1
  F  F21  1  0.18285394  0.16931634  0.97893199  1
  F  F22  1  0.20862341  0.67124169  0.46418094  1
  F  F23  1  0.18337099  0.42619937  0.24499543  1
