# generated using pymatgen
data_Fe4O5F3
_symmetry_space_group_name_H-M   'P 1'
_cell_length_a   5.61608090
_cell_length_b   9.40071479
_cell_length_c   5.61608090
_cell_angle_alpha   91.50401421
_cell_angle_beta   66.10214594
_cell_angle_gamma   91.50401421
_symmetry_Int_Tables_number   1
_chemical_formula_structural   Fe4O5F3
_chemical_formula_sum   'Fe8 O10 F6'
_cell_volume   270.94965998
_cell_formula_units_Z   2
loop_
 _symmetry_equiv_pos_site_id
 _symmetry_equiv_pos_as_xyz
  1  'x, y, z'
loop_
 _atom_site_type_symbol
 _atom_site_label
 _atom_site_symmetry_multiplicity
 _atom_site_fract_x
 _atom_site_fract_y
 _atom_site_fract_z
 _atom_site_occupancy
  Fe  Fe0  1  0.96714203  0.00509072  0.96714203  1
  Fe  Fe1  1  0.03285797  0.49490928  0.03285797  1
  Fe  Fe2  1  0.50000000  0.25000000  0.00000000  1
  Fe  Fe3  1  0.00000000  0.25000000  0.50000000  1
  Fe  Fe4  1  0.50000000  0.75000000  0.00000000  1
  Fe  Fe5  1  0.00000000  0.75000000  0.50000000  1
  Fe  Fe6  1  0.51447845  0.48071810  0.51447845  1
  Fe  Fe7  1  0.48552155  0.01928190  0.48552155  1
  O  O8  1  0.16175633  0.65662973  0.16175633  1
  O  O9  1  0.34236816  0.85088600  0.34236816  1
  O  O10  1  0.34727548  0.34363093  0.34727548  1
  O  O11  1  0.64329876  0.10274496  0.14190036  1
  O  O12  1  0.14190036  0.10274496  0.64329876  1
  O  O13  1  0.85809964  0.39725504  0.35670124  1
  O  O14  1  0.35670124  0.39725504  0.85809964  1
  O  O15  1  0.65272452  0.15636907  0.65272452  1
  O  O16  1  0.65763184  0.64911400  0.65763184  1
  O  O17  1  0.83824367  0.84337027  0.83824367  1
  F  F18  1  0.14288020  0.14433949  0.14288020  1
  F  F19  1  0.16174886  0.59324229  0.66522192  1
  F  F20  1  0.66522192  0.59324229  0.16174886  1
  F  F21  1  0.83825114  0.90675771  0.33477808  1
  F  F22  1  0.33477808  0.90675771  0.83825114  1
  F  F23  1  0.85711980  0.35566051  0.85711980  1
