# generated using pymatgen
data_LiMn2(BO3)2
_symmetry_space_group_name_H-M   'P 1'
_cell_length_a   7.77803321
_cell_length_b   5.31843245
_cell_length_c   6.08080338
_cell_angle_alpha   87.08141970
_cell_angle_beta   81.47422520
_cell_angle_gamma   87.79993516
_symmetry_Int_Tables_number   1
_chemical_formula_structural   LiMn2(BO3)2
_chemical_formula_sum   'Li2 Mn4 B4 O12'
_cell_volume   248.32068589
_cell_formula_units_Z   2
loop_
 _symmetry_equiv_pos_site_id
 _symmetry_equiv_pos_as_xyz
  1  'x, y, z'
loop_
 _atom_site_type_symbol
 _atom_site_label
 _atom_site_symmetry_multiplicity
 _atom_site_fract_x
 _atom_site_fract_y
 _atom_site_fract_z
 _atom_site_occupancy
  Li  Li0  1  0.70029627  0.90519488  0.63421184  1
  Li  Li1  1  0.29970373  0.09480512  0.36578816  1
  Mn  Mn2  1  0.82187063  0.41156182  0.42989183  1
  Mn  Mn3  1  0.68199214  0.09093409  0.06583625  1
  Mn  Mn4  1  0.31800786  0.90906591  0.93416375  1
  Mn  Mn5  1  0.17812937  0.58843818  0.57010817  1
  B  B6  1  0.49612698  0.42097667  0.74639954  1
  B  B7  1  0.99501921  0.92730010  0.27280660  1
  B  B8  1  0.00498079  0.07269990  0.72719340  1
  B  B9  1  0.50387302  0.57902333  0.25360046  1
  O  O10  1  0.98581564  0.32305983  0.65009447  1
  O  O11  1  0.87188614  0.94102154  0.83558531  1
  O  O12  1  0.82841501  0.04186719  0.33535296  1
  O  O13  1  0.52250813  0.16520832  0.80528459  1
  O  O14  1  0.62911540  0.56472155  0.64368657  1
  O  O15  1  0.33129190  0.53745538  0.80517701  1
  O  O16  1  0.66870810  0.46254462  0.19482299  1
  O  O17  1  0.37088460  0.43527845  0.35631343  1
  O  O18  1  0.47749187  0.83479168  0.19471541  1
  O  O19  1  0.17158499  0.95813281  0.66464704  1
  O  O20  1  0.12811386  0.05897846  0.16441469  1
  O  O21  1  0.01418436  0.67694017  0.34990553  1
