# generated using pymatgen
data_Li3Mn4(P2O7)4
_symmetry_space_group_name_H-M   'P 1'
_cell_length_a   9.70169084
_cell_length_b   9.76608392
_cell_length_c   11.27468940
_cell_angle_alpha   89.72667855
_cell_angle_beta   102.80551805
_cell_angle_gamma   90.01021226
_symmetry_Int_Tables_number   1
_chemical_formula_structural   Li3Mn4(P2O7)4
_chemical_formula_sum   'Li6 Mn8 P16 O56'
_cell_volume   1041.66718788
_cell_formula_units_Z   2
loop_
 _symmetry_equiv_pos_site_id
 _symmetry_equiv_pos_as_xyz
  1  'x, y, z'
loop_
 _atom_site_type_symbol
 _atom_site_label
 _atom_site_symmetry_multiplicity
 _atom_site_fract_x
 _atom_site_fract_y
 _atom_site_fract_z
 _atom_site_occupancy
  Li  Li0  1  0.14289999  0.44192703  0.52184092  1
  Li  Li1  1  0.41402569  0.59560063  0.97792032  1
  Li  Li2  1  0.39292050  0.95575991  0.50157484  1
  Li  Li3  1  0.91416846  0.90567696  0.97822322  1
  Li  Li4  1  0.82891824  0.59129380  0.45428478  1
  Li  Li5  1  0.87354424  0.27774982  0.54609088  1
  Mn  Mn6  1  0.19881425  0.92994186  0.67144758  1
  Mn  Mn7  1  0.26242346  0.21963945  0.82971171  1
  Mn  Mn8  1  0.22164762  0.73298450  0.16146328  1
  Mn  Mn9  1  0.30075349  0.43179081  0.32607082  1
  Mn  Mn10  1  0.70011092  0.57209471  0.67342201  1
  Mn  Mn11  1  0.75775250  0.28158222  0.82907328  1
  Mn  Mn12  1  0.72758718  0.77035525  0.16536834  1
  Mn  Mn13  1  0.79625514  0.06165403  0.33049852  1
  P  P14  1  0.02148288  0.44493070  0.75859431  1
  P  P15  1  0.11649862  0.71807351  0.87915926  1
  P  P16  1  0.06914870  0.92181131  0.24642228  1
  P  P17  1  0.12289341  0.14492514  0.42660852  1
  P  P18  1  0.37917957  0.64663149  0.57517267  1
  P  P19  1  0.42776586  0.42579422  0.75877399  1
  P  P20  1  0.51910614  0.05397538  0.74923063  1
  P  P21  1  0.38310229  0.21313528  0.11685353  1
  P  P22  1  0.61596621  0.78472791  0.88291054  1
  P  P23  1  0.47704787  0.94518001  0.24671657  1
  P  P24  1  0.57022882  0.58018496  0.24340786  1
  P  P25  1  0.62227338  0.35159027  0.41394056  1
  P  P26  1  0.87551539  0.85592331  0.57385539  1
  P  P27  1  0.92568960  0.07598988  0.75838360  1
  P  P28  1  0.88091854  0.28076436  0.11981430  1
  P  P29  1  0.98299974  0.54648387  0.25354204  1
  O  O30  1  0.01521947  0.41463950  0.62630913  1
  O  O31  1  0.03406070  0.84734983  0.57372008  1
  O  O32  1  0.07470309  0.08978552  0.73388071  1
  O  O33  1  0.10578184  0.34280857  0.85037830  1
  O  O34  1  0.09654550  0.58977801  0.78512672  1
  O  O35  1  0.19406087  0.82410227  0.81663240  1
  O  O36  1  0.22145313  0.66411144  0.99746903  1
  O  O37  1  0.02402886  0.23480015  0.09978019  1
  O  O38  1  0.12877680  0.06806487  0.30012778  1
  O  O39  1  0.07993122  0.90936152  0.11355876  1
  O  O40  1  0.13624593  0.53825992  0.22536847  1
  O  O41  1  0.17937256  0.28815689  0.41456371  1
  O  O42  1  0.17677212  0.81034314  0.30910273  1
  O  O43  1  0.21113828  0.05540885  0.52787392  1
  O  O44  1  0.29266738  0.55692309  0.47373473  1
  O  O45  1  0.32056710  0.31375978  0.69498200  1
  O  O46  1  0.32686017  0.79103124  0.58575371  1
  O  O47  1  0.36554700  0.04607474  0.77999395  1
  O  O48  1  0.36457574  0.56962162  0.69960644  1
  O  O49  1  0.41818643  0.42471194  0.89049942  1
  O  O50  1  0.47545588  0.74869380  0.90485037  1
  O  O51  1  0.29181700  0.15544043  0.99778643  1
  O  O52  1  0.31281273  0.33015415  0.17107715  1
  O  O53  1  0.40275140  0.09369506  0.21589139  1
  O  O54  1  0.42172049  0.59120338  0.26644918  1
  O  O55  1  0.39376933  0.84578974  0.15303490  1
  O  O56  1  0.51397328  0.06881399  0.61739465  1
  O  O57  1  0.46577631  0.34350761  0.41889881  1
  O  O58  1  0.53758159  0.64857404  0.57085352  1
  O  O59  1  0.47818640  0.91806028  0.37619379  1
  O  O60  1  0.60054737  0.16173526  0.83768661  1
  O  O61  1  0.57581785  0.41291111  0.73091375  1
  O  O62  1  0.60031865  0.91291985  0.79175856  1
  O  O63  1  0.69047448  0.67572844  0.82158242  1
  O  O64  1  0.72436900  0.83468255  0.00133782  1
  O  O65  1  0.52680227  0.25188513  0.09200616  1
  O  O66  1  0.58177105  0.60260136  0.11200667  1
  O  O67  1  0.63017525  0.43107173  0.28769196  1
  O  O68  1  0.63082339  0.95424870  0.21937653  1
  O  O69  1  0.68819080  0.21351139  0.40588492  1
  O  O70  1  0.68352692  0.68358875  0.31314413  1
  O  O71  1  0.71577617  0.43725794  0.51667170  1
  O  O72  1  0.79062438  0.93263282  0.46285014  1
  O  O73  1  0.82818316  0.19640697  0.69491917  1
  O  O74  1  0.82025985  0.71198000  0.58795094  1
  O  O75  1  0.86578420  0.45630545  0.78265284  1
  O  O76  1  0.90933641  0.07372144  0.88792013  1
  O  O77  1  0.85836039  0.93789272  0.69321355  1
  O  O78  1  0.97631633  0.75650037  0.90080192  1
  O  O79  1  0.78776285  0.33549826  0.00018211  1
  O  O80  1  0.80816650  0.16891281  0.18036045  1
  O  O81  1  0.90165293  0.40482129  0.21357911  1
  O  O82  1  0.90395224  0.65638079  0.16868240  1
  O  O83  1  0.91925070  0.91023230  0.26657740  1
  O  O84  1  0.96556973  0.15404204  0.43467738  1
  O  O85  1  0.98764877  0.55560960  0.38754133  1
