# generated using pymatgen
data_Li3V4(OF3)3
_symmetry_space_group_name_H-M   'P 1'
_cell_length_a   5.18967937
_cell_length_b   5.54213388
_cell_length_c   17.28372039
_cell_angle_alpha   91.02316736
_cell_angle_beta   97.46133680
_cell_angle_gamma   62.51346661
_symmetry_Int_Tables_number   1
_chemical_formula_structural   Li3V4(OF3)3
_chemical_formula_sum   'Li6 V8 O6 F18'
_cell_volume   436.76354840
_cell_formula_units_Z   2
loop_
 _symmetry_equiv_pos_site_id
 _symmetry_equiv_pos_as_xyz
  1  'x, y, z'
loop_
 _atom_site_type_symbol
 _atom_site_label
 _atom_site_symmetry_multiplicity
 _atom_site_fract_x
 _atom_site_fract_y
 _atom_site_fract_z
 _atom_site_occupancy
  Li  Li0  1  0.06472916  0.55217124  0.68322940  1
  Li  Li1  1  0.36408992  0.32509706  0.05884917  1
  Li  Li2  1  0.67248326  0.10231256  0.45167632  1
  Li  Li3  1  0.19602896  0.82847210  0.20082402  1
  Li  Li4  1  0.31277258  0.91862219  0.55003908  1
  Li  Li5  1  0.56667106  0.82616117  0.92767511  1
  V  V6  1  0.02093766  0.01801831  0.99706252  1
  V  V7  1  0.25209421  0.37913792  0.87179292  1
  V  V8  1  0.46621509  0.24927724  0.24941530  1
  V  V9  1  0.49608879  0.72602564  0.75277374  1
  V  V10  1  0.24159861  0.89490806  0.36792916  1
  V  V11  1  0.75153400  0.11701277  0.61926539  1
  V  V12  1  0.96382100  0.51512693  0.50507694  1
  V  V13  1  0.78581923  0.60919427  0.12961363  1
  O  O14  1  0.21121786  0.20470273  0.96668259  1
  O  O15  1  0.29821795  0.03917795  0.27976946  1
  O  O16  1  0.31249310  0.53450453  0.78354265  1
  O  O17  1  0.19063420  0.41904756  0.15334852  1
  O  O18  1  0.82833515  0.27171779  0.53278610  1
  O  O19  1  0.72500120  0.83599242  0.55811052  1
  F  F20  1  0.27281636  0.05166042  0.81253291  1
  F  F21  1  0.25711475  0.19236459  0.44188957  1
  F  F22  1  0.28059154  0.68041182  0.94369608  1
  F  F23  1  0.29642077  0.35122864  0.60088078  1
  F  F24  1  0.16820847  0.73878510  0.46761112  1
  F  F25  1  0.19969791  0.87049370  0.65136659  1
  F  F26  1  0.68830589  0.13224507  0.90699986  1
  F  F27  1  0.22580024  0.58803741  0.30696504  1
  F  F28  1  0.77339685  0.42086470  0.69167432  1
  F  F29  1  0.32957418  0.84669394  0.09673162  1
  F  F30  1  0.79103712  0.10856415  0.34687698  1
  F  F31  1  0.80869628  0.59951083  0.85185049  1
  F  F32  1  0.65548348  0.48425825  0.21742725  1
  F  F33  1  0.66829220  0.67804674  0.40723992  1
  F  F34  1  0.70708852  0.92670223  0.71448356  1
  F  F35  1  0.74491954  0.31322035  0.06213233  1
  F  F36  1  0.76194954  0.94073152  0.18410374  1
  F  F37  1  0.82802536  0.78200811  0.02852233  1
