# generated using pymatgen
data_Mn6O5F7
_symmetry_space_group_name_H-M   'P 1'
_cell_length_a   4.67736015
_cell_length_b   5.74669351
_cell_length_c   15.67342379
_cell_angle_alpha   90.03079296
_cell_angle_beta   89.38467256
_cell_angle_gamma   88.34778865
_symmetry_Int_Tables_number   1
_chemical_formula_structural   Mn6O5F7
_chemical_formula_sum   'Mn12 O10 F14'
_cell_volume   421.09194008
_cell_formula_units_Z   2
loop_
 _symmetry_equiv_pos_site_id
 _symmetry_equiv_pos_as_xyz
  1  'x, y, z'
loop_
 _atom_site_type_symbol
 _atom_site_label
 _atom_site_symmetry_multiplicity
 _atom_site_fract_x
 _atom_site_fract_y
 _atom_site_fract_z
 _atom_site_occupancy
  Mn  Mn0  1  0.01486441  0.17633572  0.41937274  1
  Mn  Mn1  1  0.01998179  0.84501902  0.24303120  1
  Mn  Mn2  1  0.03428169  0.16678313  0.08133701  1
  Mn  Mn3  1  0.00446810  0.14975457  0.74079672  1
  Mn  Mn4  1  0.02416598  0.85712459  0.57694109  1
  Mn  Mn5  1  0.02075563  0.86059399  0.91127090  1
  Mn  Mn6  1  0.48469564  0.33931952  0.58873323  1
  Mn  Mn7  1  0.50360216  0.32688953  0.92839346  1
  Mn  Mn8  1  0.51073973  0.35230307  0.25281302  1
  Mn  Mn9  1  0.48994365  0.64081324  0.08503203  1
  Mn  Mn10  1  0.49609127  0.64126420  0.42239917  1
  Mn  Mn11  1  0.49734699  0.64723425  0.75218101  1
  O  O12  1  0.21292202  0.10677943  0.63393034  1
  O  O13  1  0.22013717  0.11660511  0.97244027  1
  O  O14  1  0.23550438  0.88693749  0.13404497  1
  O  O15  1  0.22450034  0.89102583  0.47030348  1
  O  O16  1  0.22716498  0.88734743  0.79843399  1
  O  O17  1  0.28865004  0.39431012  0.14815506  1
  O  O18  1  0.28271286  0.40104501  0.48303262  1
  O  O19  1  0.72499202  0.38184087  0.03061483  1
  O  O20  1  0.72226355  0.38782538  0.36230690  1
  O  O21  1  0.70543918  0.37284205  0.69452101  1
  F  F22  1  0.23472624  0.11582228  0.30461257  1
  F  F23  1  0.25908118  0.60894207  0.30961648  1
  F  F24  1  0.25204904  0.60762839  0.64649349  1
  F  F25  1  0.26761104  0.38504512  0.81747304  1
  F  F26  1  0.25434323  0.61317486  0.97295554  1
  F  F27  1  0.73743041  0.61790726  0.19786894  1
  F  F28  1  0.75157798  0.62137339  0.53453181  1
  F  F29  1  0.72885101  0.61509943  0.86382282  1
  F  F30  1  0.78278781  0.12699644  0.18950889  1
  F  F31  1  0.74801479  0.11988088  0.52368259  1
  F  F32  1  0.75762233  0.87885156  0.35711055  1
  F  F33  1  0.75189946  0.87161607  0.02198310  1
  F  F34  1  0.76707074  0.12007837  0.84882722  1
  F  F35  1  0.76171014  0.86759331  0.68142590  1
