# generated using pymatgen
data_Fe2O3F
_symmetry_space_group_name_H-M   'P 1'
_cell_length_a   4.69329920
_cell_length_b   4.69329920
_cell_length_c   15.00823545
_cell_angle_alpha   90.00000000
_cell_angle_beta   90.00000000
_cell_angle_gamma   94.24956644
_symmetry_Int_Tables_number   1
_chemical_formula_structural   Fe2O3F
_chemical_formula_sum   'Fe10 O15 F5'
_cell_volume   329.67839467
_cell_formula_units_Z   5
loop_
 _symmetry_equiv_pos_site_id
 _symmetry_equiv_pos_as_xyz
  1  'x, y, z'
loop_
 _atom_site_type_symbol
 _atom_site_label
 _atom_site_symmetry_multiplicity
 _atom_site_fract_x
 _atom_site_fract_y
 _atom_site_fract_z
 _atom_site_occupancy
  Fe  Fe0  1  0.00219530  0.99780470  0.99990102  1
  Fe  Fe1  1  0.00032051  0.99967949  0.19993084  1
  Fe  Fe2  1  0.00032051  0.99967949  0.40006916  1
  Fe  Fe3  1  0.00219530  0.99780470  0.60009898  1
  Fe  Fe4  1  0.01271779  0.98728221  0.80000000  1
  Fe  Fe5  1  0.53421584  0.46578416  0.10013095  1
  Fe  Fe6  1  0.53421584  0.46578416  0.49986905  1
  Fe  Fe7  1  0.46740144  0.53259856  0.30000000  1
  Fe  Fe8  1  0.47291208  0.52708792  0.69966061  1
  Fe  Fe9  1  0.47291208  0.52708792  0.90033939  1
  O  O10  1  0.17812096  0.82187904  0.30000000  1
  O  O11  1  0.18297198  0.81702802  0.69744108  1
  O  O12  1  0.18297198  0.81702802  0.90255892  1
  O  O13  1  0.31126404  0.30235402  0.99960472  1
  O  O14  1  0.30729222  0.30686486  0.20012480  1
  O  O15  1  0.30729222  0.30686486  0.39987520  1
  O  O16  1  0.31126404  0.30235402  0.60039528  1
  O  O17  1  0.29726643  0.31697815  0.80000000  1
  O  O18  1  0.69764598  0.68873596  0.99960472  1
  O  O19  1  0.69313514  0.69270778  0.20012480  1
  O  O20  1  0.69313514  0.69270778  0.39987520  1
  O  O21  1  0.69764598  0.68873596  0.60039528  1
  O  O22  1  0.68302185  0.70273357  0.80000000  1
  O  O23  1  0.82431970  0.17568030  0.09918236  1
  O  O24  1  0.82431970  0.17568030  0.50081764  1
  F  F25  1  0.20306877  0.79693123  0.10025870  1
  F  F26  1  0.20306877  0.79693123  0.49974130  1
  F  F27  1  0.79877055  0.20122945  0.30000000  1
  F  F28  1  0.80200993  0.19799007  0.89835181  1
  F  F29  1  0.80200993  0.19799007  0.70164819  1
