# generated using pymatgen
data_Li2AlCoO4
_symmetry_space_group_name_H-M   'P 1'
_cell_length_a   5.31354648
_cell_length_b   5.89323099
_cell_length_c   10.76638204
_cell_angle_alpha   90.00000000
_cell_angle_beta   72.95062323
_cell_angle_gamma   90.00000000
_symmetry_Int_Tables_number   1
_chemical_formula_structural   Li2AlCoO4
_chemical_formula_sum   'Li8 Al4 Co4 O16'
_cell_volume   322.32162795
_cell_formula_units_Z   4
loop_
 _symmetry_equiv_pos_site_id
 _symmetry_equiv_pos_as_xyz
  1  'x, y, z'
loop_
 _atom_site_type_symbol
 _atom_site_label
 _atom_site_symmetry_multiplicity
 _atom_site_fract_x
 _atom_site_fract_y
 _atom_site_fract_z
 _atom_site_occupancy
  Li  Li0  1  0.07407639  0.33484493  0.80608631  1
  Li  Li1  1  0.07407639  0.16515507  0.30608631  1
  Li  Li2  1  0.29825853  0.15826645  0.56826363  1
  Li  Li3  1  0.29825853  0.34173355  0.06826363  1
  Li  Li4  1  0.70174147  0.65826645  0.93173637  1
  Li  Li5  1  0.70174147  0.84173355  0.43173637  1
  Li  Li6  1  0.92592361  0.83484493  0.69391369  1
  Li  Li7  1  0.92592361  0.66515507  0.19391369  1
  Al  Al8  1  0.17926172  0.83391057  0.93908609  1
  Al  Al9  1  0.17926172  0.66608943  0.43908609  1
  Al  Al10  1  0.82073828  0.33391057  0.56091391  1
  Al  Al11  1  0.82073828  0.16608943  0.06091391  1
  Co  Co12  1  0.57422908  0.17544030  0.81852178  1
  Co  Co13  1  0.42577092  0.67544030  0.68147822  1
  Co  Co14  1  0.57422908  0.32455970  0.31852178  1
  Co  Co15  1  0.42577092  0.82455970  0.18147822  1
  O  O16  1  0.08060461  0.67020670  0.82031888  1
  O  O17  1  0.08060461  0.82979330  0.32031888  1
  O  O18  1  0.17418599  0.14401977  0.94119612  1
  O  O19  1  0.17418599  0.35598023  0.44119612  1
  O  O20  1  0.30981838  0.81334632  0.55754916  1
  O  O21  1  0.46860563  0.34527642  0.68402389  1
  O  O22  1  0.30981838  0.68665368  0.05754916  1
  O  O23  1  0.46860563  0.15472358  0.18402389  1
  O  O24  1  0.53139437  0.84527642  0.81597611  1
  O  O25  1  0.69018162  0.31334632  0.94245084  1
  O  O26  1  0.53139437  0.65472358  0.31597611  1
  O  O27  1  0.69018162  0.18665368  0.44245084  1
  O  O28  1  0.82581401  0.64401977  0.55880388  1
  O  O29  1  0.82581401  0.85598023  0.05880388  1
  O  O30  1  0.91939539  0.17020670  0.67968112  1
  O  O31  1  0.91939539  0.32979330  0.17968112  1
