# generated using pymatgen
data_Mn3Co3(SbO8)2
_symmetry_space_group_name_H-M   'P 1'
_cell_length_a   5.83081252
_cell_length_b   5.84395475
_cell_length_c   9.27510769
_cell_angle_alpha   89.47203189
_cell_angle_beta   90.10730870
_cell_angle_gamma   119.55007097
_symmetry_Int_Tables_number   1
_chemical_formula_structural   Mn3Co3(SbO8)2
_chemical_formula_sum   'Mn3 Co3 Sb2 O16'
_cell_volume   274.92626014
_cell_formula_units_Z   1
loop_
 _symmetry_equiv_pos_site_id
 _symmetry_equiv_pos_as_xyz
  1  'x, y, z'
loop_
 _atom_site_type_symbol
 _atom_site_label
 _atom_site_symmetry_multiplicity
 _atom_site_fract_x
 _atom_site_fract_y
 _atom_site_fract_z
 _atom_site_occupancy
  Mn  Mn0  1  0.66280609  0.82872346  0.21253113  1
  Mn  Mn1  1  0.82995048  0.66251530  0.71407173  1
  Mn  Mn2  1  0.82909457  0.16791807  0.71337191  1
  Co  Co3  1  0.16680468  0.82378247  0.21549166  1
  Co  Co4  1  0.17097204  0.33043372  0.20690368  1
  Co  Co5  1  0.33284743  0.16608035  0.70929926  1
  Sb  Sb6  1  0.32806512  0.66598395  0.48966838  1
  Sb  Sb7  1  0.66287794  0.32860480  0.99199057  1
  O  O8  1  0.16199773  0.83336853  0.60153939  1
  O  O9  1  0.03613497  0.53338529  0.33629810  1
  O  O10  1  0.33695283  0.68369720  0.10874552  1
  O  O11  1  -0.00038310  0.98312602  0.30713110  1
  O  O12  1  -0.01180314  0.99287631  0.81060227  1
  O  O13  1  0.15955126  0.32890993  0.59801621  1
  O  O14  1  0.47845786  0.96294277  0.33357377  1
  O  O15  1  0.48631224  0.52811534  0.34032927  1
  O  O16  1  0.32417550  0.15499911  0.09940658  1
  O  O17  1  0.66948048  0.83779070  0.60146411  1
  O  O18  1  0.52886241  0.49020415  0.84093225  1
  O  O19  1  0.53043133  0.03964529  0.83957629  1
  O  O20  1  0.68336061  0.34444898  0.60649432  1
  O  O21  1  0.83581482  0.67061070  0.10078924  1
  O  O22  1  0.96416494  0.48001096  0.83539394  1
  O  O23  1  0.83307190  0.16202658  0.10209731  1
