# generated using pymatgen
data_Ta8Cr3O24
_symmetry_space_group_name_H-M   'P 1'
_cell_length_a   6.77372989
_cell_length_b   6.74102213
_cell_length_c   10.43981517
_cell_angle_alpha   108.81096086
_cell_angle_beta   108.89122324
_cell_angle_gamma   90.08729059
_symmetry_Int_Tables_number   1
_chemical_formula_structural   Ta8Cr3O24
_chemical_formula_sum   'Ta8 Cr3 O24'
_cell_volume   423.93713869
_cell_formula_units_Z   1
loop_
 _symmetry_equiv_pos_site_id
 _symmetry_equiv_pos_as_xyz
  1  'x, y, z'
loop_
 _atom_site_type_symbol
 _atom_site_label
 _atom_site_symmetry_multiplicity
 _atom_site_fract_x
 _atom_site_fract_y
 _atom_site_fract_z
 _atom_site_occupancy
  Ta  Ta0  1  0.17616353  0.17603355  0.35211139  1
  Ta  Ta1  1  0.34725355  0.34748772  0.69497900  1
  Ta  Ta2  1  0.99955664  0.99945383  0.99905985  1
  Ta  Ta3  1  0.41572347  0.91571024  0.83140555  1
  Ta  Ta4  1  0.58525884  0.08515716  0.17045406  1
  Ta  Ta5  1  0.07733069  0.57735325  0.15466451  1
  Ta  Ta6  1  0.66544791  0.66548318  0.33087682  1
  Ta  Ta7  1  0.82790280  0.82799987  0.65576190  1
  Cr  Cr8  1  0.24730617  0.74724790  0.49453611  1
  Cr  Cr9  1  0.75723685  0.25722308  0.51439064  1
  Cr  Cr10  1  0.49992078  0.49986425  0.99986599  1
  O  O11  1  0.01195062  0.72491756  0.02134381  1
  O  O12  1  0.50108266  0.19063060  0.00034946  1
  O  O13  1  0.33659368  0.02893724  0.67125993  1
  O  O14  1  0.22699996  0.41637719  0.83534075  1
  O  O15  1  0.05222174  0.24774550  0.49734412  1
  O  O16  1  0.44514463  0.24954777  0.49736610  1
  O  O17  1  0.60801006  0.41869301  0.83514070  1
  O  O18  1  0.11617285  0.91971149  0.83751201  1
  O  O19  1  0.28270333  0.08482945  0.16784883  1
  O  O20  1  0.16301560  0.46298784  0.32785351  1
  O  O21  1  0.82067940  0.10198185  0.64293051  1
  O  O22  1  0.33472889  0.64230329  0.67125804  1
  O  O23  1  0.16474742  0.86479078  0.32784959  1
  O  O24  1  0.66338618  0.36087775  0.32512194  1
  O  O25  1  0.82264602  0.54112276  0.64279246  1
  O  O26  1  0.72143647  0.91781271  0.83753858  1
  O  O27  1  0.88501584  0.08275404  0.16781505  1
  O  O28  1  0.38488672  0.58410690  0.16997691  1
  O  O29  1  0.54843520  0.74324935  0.48833003  1
  O  O30  1  0.93986643  0.74529133  0.48819738  1
  O  O31  1  0.78505767  0.58601855  0.16992689  1
  O  O32  1  0.66148584  0.96441336  0.32523077  1
  O  O33  1  0.49919327  0.80962792  0.00027919  1
  O  O34  1  0.00962828  0.29631372  0.02147662  1
