# generated using pymatgen
data_Li4Co(OF)2
_symmetry_space_group_name_H-M   'P 1'
_cell_length_a   3.80941431
_cell_length_b   5.50512840
_cell_length_c   5.13872616
_cell_angle_alpha   89.20802431
_cell_angle_beta   111.75617580
_cell_angle_gamma   69.75788918
_symmetry_Int_Tables_number   1
_chemical_formula_structural   Li4Co(OF)2
_chemical_formula_sum   'Li4 Co1 O2 F2'
_cell_volume   92.65162668
_cell_formula_units_Z   1
loop_
 _symmetry_equiv_pos_site_id
 _symmetry_equiv_pos_as_xyz
  1  'x, y, z'
loop_
 _atom_site_type_symbol
 _atom_site_label
 _atom_site_symmetry_multiplicity
 _atom_site_fract_x
 _atom_site_fract_y
 _atom_site_fract_z
 _atom_site_occupancy
  Li  Li0  1  0.38552481  0.46300632  0.23405493  1
  Li  Li1  1  0.19167334  0.15867560  0.54202328  1
  Li  Li2  1  0.80832666  0.84132440  0.45797672  1
  Li  Li3  1  0.61447519  0.53699368  0.76594507  1
  Co  Co4  1  0.00000000  0.00000000  0.00000000  1
  O  O5  1  0.73097117  0.18211383  0.64405616  1
  O  O6  1  0.26902883  0.81788617  0.35594384  1
  F  F7  1  0.90136289  0.37931796  0.18204374  1
  F  F8  1  0.09863711  0.62068204  0.81795626  1
