# generated using pymatgen
data_Li4Ti3Fe3(NiO8)2
_symmetry_space_group_name_H-M   'P 1'
_cell_length_a   5.91582981
_cell_length_b   5.92028401
_cell_length_c   9.65407981
_cell_angle_alpha   89.97748084
_cell_angle_beta   89.55843011
_cell_angle_gamma   120.02509980
_symmetry_Int_Tables_number   1
_chemical_formula_structural   Li4Ti3Fe3(NiO8)2
_chemical_formula_sum   'Li4 Ti3 Fe3 Ni2 O16'
_cell_volume   292.73301259
_cell_formula_units_Z   1
loop_
 _symmetry_equiv_pos_site_id
 _symmetry_equiv_pos_as_xyz
  1  'x, y, z'
loop_
 _atom_site_type_symbol
 _atom_site_label
 _atom_site_symmetry_multiplicity
 _atom_site_fract_x
 _atom_site_fract_y
 _atom_site_fract_z
 _atom_site_occupancy
  Li  Li0  1  0.33911803  0.66943974  0.89018922  1
  Li  Li1  1  0.99139893  0.99594825  0.99785719  1
  Li  Li2  1  0.99050356  0.99540963  0.49891729  1
  Li  Li3  1  0.67094978  0.33539628  0.39288482  1
  Ti  Ti4  1  0.17304200  0.83345625  0.21518461  1
  Ti  Ti5  1  0.17339962  0.33956744  0.21523581  1
  Ti  Ti6  1  0.34171728  0.17086018  0.71546757  1
  Fe  Fe7  1  0.66386267  0.83202990  0.21435718  1
  Fe  Fe8  1  0.83234529  0.66246168  0.71416689  1
  Fe  Fe9  1  0.83226697  0.16982543  0.71418927  1
  Ni  Ni10  1  0.33099796  0.66554674  0.48970167  1
  Ni  Ni11  1  0.66875842  0.33442227  0.98946046  1
  O  O12  1  0.15395579  0.83494703  0.60474245  1
  O  O13  1  0.03832256  0.51913345  0.33281927  1
  O  O14  1  0.31751951  0.65881949  0.10051441  1
  O  O15  1  0.01051987  0.00517422  0.31454601  1
  O  O16  1  0.01232088  0.00604308  0.81438243  1
  O  O17  1  0.15384724  0.31910501  0.60477744  1
  O  O18  1  0.48404799  0.96276780  0.33279544  1
  O  O19  1  0.48397872  0.52117015  0.33284238  1
  O  O20  1  0.32209616  0.16113250  0.10381868  1
  O  O21  1  0.67664836  0.83837963  0.60824860  1
  O  O22  1  0.52518399  0.48615105  0.83307200  1
  O  O23  1  0.52523265  0.03889877  0.83307568  1
  O  O24  1  0.65038699  0.32528203  0.59924499  1
  O  O25  1  0.83683120  0.68029533  0.10701459  1
  O  O26  1  0.96384634  0.48184442  0.83129959  1
  O  O27  1  0.83690022  0.15678924  0.10703207  1
