# generated using pymatgen
data_LiCo3OF5
_symmetry_space_group_name_H-M   'P 1'
_cell_length_a   8.56798865
_cell_length_b   8.40263558
_cell_length_c   8.44949158
_cell_angle_alpha   109.14774729
_cell_angle_beta   110.03888120
_cell_angle_gamma   109.39981762
_symmetry_Int_Tables_number   1
_chemical_formula_structural   LiCo3OF5
_chemical_formula_sum   'Li4 Co12 O4 F20'
_cell_volume   467.25353246
_cell_formula_units_Z   4
loop_
 _symmetry_equiv_pos_site_id
 _symmetry_equiv_pos_as_xyz
  1  'x, y, z'
loop_
 _atom_site_type_symbol
 _atom_site_label
 _atom_site_symmetry_multiplicity
 _atom_site_fract_x
 _atom_site_fract_y
 _atom_site_fract_z
 _atom_site_occupancy
  Li  Li0  1  0.51605987  0.99664417  0.99317421  1
  Li  Li1  1  0.99734774  0.51713666  0.00177664  1
  Li  Li2  1  0.97100332  0.00418944  0.50081668  1
  Li  Li3  1  0.50074587  0.49111624  0.47777442  1
  Co  Co4  1  0.95011867  0.23763517  0.19131464  1
  Co  Co5  1  0.77311549  0.02694855  0.74898893  1
  Co  Co6  1  0.70306305  0.46528414  0.24467707  1
  Co  Co7  1  0.76472570  0.79500705  0.01943083  1
  Co  Co8  1  0.74624969  0.25950064  0.52862915  1
  Co  Co9  1  0.46603726  0.25104850  0.71187773  1
  Co  Co10  1  0.54064403  0.74883003  0.28943457  1
  Co  Co11  1  0.24633137  0.70929590  0.46384421  1
  Co  Co12  1  0.26648921  0.23486365  0.98717832  1
  Co  Co13  1  0.19763205  0.95969047  0.24051808  1
  Co  Co14  1  0.28121876  0.53054659  0.74913185  1
  Co  Co15  1  0.03045708  0.75306131  0.80100520  1
  O  O16  1  0.74287271  0.02149255  0.50308128  1
  O  O17  1  0.96588280  0.74465080  0.00047223  1
  O  O18  1  0.47201329  0.47243711  0.22299353  1
  O  O19  1  0.74035162  0.99708987  0.95549271  1
  F  F20  1  0.02346568  0.07151936  0.30385761  1
  F  F21  1  0.95893726  0.50840013  0.23995635  1
  F  F22  1  0.72980323  0.22999392  0.27216275  1
  F  F23  1  0.45666761  0.22219923  0.45094626  1
  F  F24  1  0.79166625  0.73532458  0.25848760  1
  F  F25  1  0.77881824  0.53819646  0.54653533  1
  F  F26  1  0.72997345  0.28850007  0.78410526  1
  F  F27  1  0.48953252  0.75359523  0.02720221  1
  F  F28  1  0.50740082  0.22194235  0.94642756  1
  F  F29  1  0.27569631  0.73122591  0.23269958  1
  F  F30  1  0.20713952  0.44876495  0.46064142  1
  F  F31  1  0.29364275  0.02000426  0.05686367  1
  F  F32  1  0.23182974  0.27050648  0.73467432  1
  F  F33  1  0.51378477  0.74935640  0.55041930  1
  F  F34  1  0.53026700  0.52735142  0.75815754  1
  F  F35  1  0.24796297  0.96266586  0.50931168  1
  F  F36  1  0.25258868  0.76466467  0.72406139  1
  F  F37  1  0.05494637  0.29080293  0.00765710  1
  F  F38  1  0.03944291  0.48362588  0.76109883  1
  F  F39  1  0.01407636  0.96488907  0.74312395  1
