# generated using pymatgen
data_FeOF
_symmetry_space_group_name_H-M   'P 1'
_cell_length_a   7.67011869
_cell_length_b   5.69139836
_cell_length_c   5.68335235
_cell_angle_alpha   69.40649733
_cell_angle_beta   69.83302153
_cell_angle_gamma   69.70758438
_symmetry_Int_Tables_number   1
_chemical_formula_structural   FeOF
_chemical_formula_sum   'Fe6 O6 F6'
_cell_volume   210.70303785
_cell_formula_units_Z   6
loop_
 _symmetry_equiv_pos_site_id
 _symmetry_equiv_pos_as_xyz
  1  'x, y, z'
loop_
 _atom_site_type_symbol
 _atom_site_label
 _atom_site_symmetry_multiplicity
 _atom_site_fract_x
 _atom_site_fract_y
 _atom_site_fract_z
 _atom_site_occupancy
  Fe  Fe0  1  0.83253487  0.66289801  0.66887177  1
  Fe  Fe1  1  0.65302993  0.32756555  0.34041346  1
  Fe  Fe2  1  0.32966168  0.68108991  0.62410558  1
  Fe  Fe3  1  0.17548755  0.34534444  0.36500543  1
  Fe  Fe4  1  0.50838513  0.97515394  0.99618294  1
  Fe  Fe5  1  0.00188030  0.99988885  0.01157893  1
  O  O6  1  0.66616040  0.02573919  0.63966586  1
  O  O7  1  0.37247824  0.44072921  0.43429787  1
  O  O8  1  0.33216372  0.98723323  0.34337462  1
  O  O9  1  0.67091193  0.62614737  0.03301933  1
  O  O10  1  0.99896036  0.29814558  0.71181823  1
  O  O11  1  0.00187480  0.70000923  0.30629301  1
  F  F12  1  0.33272676  0.37690731  0.95620851  1
  F  F13  1  0.29867945  0.89239203  0.88867704  1
  F  F14  1  0.95570334  0.23060627  0.23799384  1
  F  F15  1  0.62483075  0.56618016  0.56824576  1
  F  F16  1  0.04124270  0.76835429  0.77305860  1
  F  F17  1  0.70328710  0.09561641  0.10118922  1
