# generated using pymatgen
data_Li3Cr3FeO8
_symmetry_space_group_name_H-M   'P 1'
_cell_length_a   5.86855404
_cell_length_b   5.86855417
_cell_length_c   5.86855397
_cell_angle_alpha   60.83843718
_cell_angle_beta   60.83843733
_cell_angle_gamma   60.83843769
_symmetry_Int_Tables_number   1
_chemical_formula_structural   Li3Cr3FeO8
_chemical_formula_sum   'Li3 Cr3 Fe1 O8'
_cell_volume   145.61715919
_cell_formula_units_Z   1
loop_
 _symmetry_equiv_pos_site_id
 _symmetry_equiv_pos_as_xyz
  1  'x, y, z'
loop_
 _atom_site_type_symbol
 _atom_site_label
 _atom_site_symmetry_multiplicity
 _atom_site_fract_x
 _atom_site_fract_y
 _atom_site_fract_z
 _atom_site_occupancy
  Li  Li0  1  0.50000200  0.99999900  0.99999900  1
  Li  Li1  1  0.99999900  0.99999900  0.50000200  1
  Li  Li2  1  0.99999900  0.50000200  0.99999900  1
  Cr  Cr3  1  0.50000000  0.99999900  0.50000000  1
  Cr  Cr4  1  0.50000000  0.50000000  0.99999900  1
  Cr  Cr5  1  0.99999900  0.50000000  0.50000000  1
  Fe  Fe6  1  0.49999900  0.49999900  0.49999900  1
  O  O7  1  0.25785285  0.25785285  0.25785285  1
  O  O8  1  0.71736069  0.26989625  0.26989625  1
  O  O9  1  0.26989625  0.26989625  0.71736069  1
  O  O10  1  0.26989625  0.71736069  0.26989625  1
  O  O11  1  0.73010375  0.28263931  0.73010375  1
  O  O12  1  0.73010375  0.73010375  0.28263931  1
  O  O13  1  0.28263931  0.73010375  0.73010375  1
  O  O14  1  0.74214415  0.74214415  0.74214415  1
