# generated using pymatgen
data_Li2FeSi3O8
_symmetry_space_group_name_H-M   'P 1'
_cell_length_a   6.63193032
_cell_length_b   9.99866049
_cell_length_c   6.51872545
_cell_angle_alpha   111.53966841
_cell_angle_beta   100.91274450
_cell_angle_gamma   103.04204073
_symmetry_Int_Tables_number   1
_chemical_formula_structural   Li2FeSi3O8
_chemical_formula_sum   'Li4 Fe2 Si6 O16'
_cell_volume   373.61553095
_cell_formula_units_Z   2
loop_
 _symmetry_equiv_pos_site_id
 _symmetry_equiv_pos_as_xyz
  1  'x, y, z'
loop_
 _atom_site_type_symbol
 _atom_site_label
 _atom_site_symmetry_multiplicity
 _atom_site_fract_x
 _atom_site_fract_y
 _atom_site_fract_z
 _atom_site_occupancy
  Li  Li0  1  0.18262021  0.28566062  0.09646058  1
  Li  Li1  1  0.87503002  0.76017729  0.00167556  1
  Li  Li2  1  0.43230779  0.87439142  0.51632017  1
  Li  Li3  1  0.13860394  0.63174924  0.55054900  1
  Fe  Fe4  1  0.21914833  0.58569316  0.01910542  1
  Fe  Fe5  1  0.91610565  0.89852490  0.59770330  1
  Si  Si6  1  0.70647219  0.10184674  0.98386892  1
  Si  Si7  1  0.75950338  0.40758471  0.01701899  1
  Si  Si8  1  0.08274367  0.09398326  0.30693701  1
  Si  Si9  1  0.60676032  0.59533856  0.42324745  1
  Si  Si10  1  0.39955190  0.40688706  0.62431170  1
  Si  Si11  1  0.28826392  0.91343136  0.96621160  1
  O  O12  1  0.93381127  0.18105280  0.20253293  1
  O  O13  1  0.61295404  0.24376187  0.99555690  1
  O  O14  1  0.72932023  0.01680306  0.72968404  1
  O  O15  1  0.20818212  0.05912800  0.10365524  1
  O  O16  1  0.76957569  0.54887064  0.25895269  1
  O  O17  1  0.55334440  0.98114951  0.05160656  1
  O  O18  1  0.00411074  0.40856089  0.01782537  1
  O  O19  1  0.45946864  0.42515040  0.39749098  1
  O  O20  1  0.95658060  0.94519028  0.32853727  1
  O  O21  1  0.42873418  0.66705684  0.33588858  1
  O  O22  1  0.63146153  0.44548474  0.81363029  1
  O  O23  1  0.19043862  0.78339593  0.04375297  1
  O  O24  1  0.25852564  0.22882376  0.54890045  1
  O  O25  1  0.77171140  0.71590593  0.67410806  1
  O  O26  1  0.26492786  0.52168647  0.70906232  1
  O  O27  1  0.20771170  0.86067857  0.68540564  1
