# generated using pymatgen
data_LiCoPO4
_symmetry_space_group_name_H-M   'P 1'
_cell_length_a   10.85827428
_cell_length_b   10.85827350
_cell_length_c   11.58032236
_cell_angle_alpha   90.00000000
_cell_angle_beta   90.00000000
_cell_angle_gamma   119.99999932
_symmetry_Int_Tables_number   1
_chemical_formula_structural   LiCoPO4
_chemical_formula_sum   'Li12 Co12 P12 O48'
_cell_volume   1182.42299786
_cell_formula_units_Z   12
loop_
 _symmetry_equiv_pos_site_id
 _symmetry_equiv_pos_as_xyz
  1  'x, y, z'
loop_
 _atom_site_type_symbol
 _atom_site_label
 _atom_site_symmetry_multiplicity
 _atom_site_fract_x
 _atom_site_fract_y
 _atom_site_fract_z
 _atom_site_occupancy
  Li  Li0  1  0.00000000  0.50000000  0.01043251  1
  Li  Li1  1  0.00000000  0.50000000  0.65623449  1
  Li  Li2  1  0.00000000  0.50000000  0.33333300  1
  Li  Li3  1  0.00000000  0.00000000  0.16666700  1
  Li  Li4  1  0.00000000  0.00000000  0.50000000  1
  Li  Li5  1  0.00000000  0.00000000  0.83333300  1
  Li  Li6  1  0.50000000  0.50000000  0.34376551  1
  Li  Li7  1  0.50000000  0.50000000  0.66666700  1
  Li  Li8  1  0.50000000  0.50000000  0.98956749  1
  Li  Li9  1  0.50000000  0.00000000  0.32290149  1
  Li  Li10  1  0.50000000  0.00000000  0.00000000  1
  Li  Li11  1  0.50000000  0.00000000  0.67709851  1
  Co  Co12  1  0.00000000  0.75195129  0.33333300  1
  Co  Co13  1  0.24622594  0.75377406  0.66666700  1
  Co  Co14  1  1.00000000  0.24804871  0.33333300  1
  Co  Co15  1  0.24622594  0.49245188  0.00000000  1
  Co  Co16  1  0.24804871  0.24804871  0.66666700  1
  Co  Co17  1  0.50754812  0.75377406  0.33333300  1
  Co  Co18  1  0.24804871  0.00000000  0.00000000  1
  Co  Co19  1  0.49245188  0.24622594  0.33333300  1
  Co  Co20  1  0.75195129  0.75195129  0.66666700  1
  Co  Co21  1  0.75377406  0.50754812  0.00000000  1
  Co  Co22  1  0.75377406  0.24622594  0.66666700  1
  Co  Co23  1  0.75195129  1.00000000  0.00000000  1
  P  P24  1  1.00000000  0.74651116  0.83333300  1
  P  P25  1  0.00000000  0.25348884  0.83333300  1
  P  P26  1  0.25250119  0.74749881  0.16666700  1
  P  P27  1  0.25250119  0.50500337  0.50000000  1
  P  P28  1  0.49499663  0.74749881  0.83333300  1
  P  P29  1  0.25348884  0.25348884  0.16666700  1
  P  P30  1  0.25348884  1.00000000  0.50000000  1
  P  P31  1  0.74651116  0.74651116  0.16666700  1
  P  P32  1  0.50500337  0.25250119  0.83333300  1
  P  P33  1  0.74749881  0.49499663  0.50000000  1
  P  P34  1  0.74749881  0.25250119  0.16666700  1
  P  P35  1  0.74651116  0.00000000  0.50000000  1
  O  O36  1  0.10597829  0.89273051  0.44778451  1
  O  O37  1  0.10726949  0.89402171  0.88554849  1
  O  O38  1  0.06244856  0.69062333  0.74024376  1
  O  O39  1  0.12530979  0.70437027  0.24990877  1
  O  O40  1  0.29562973  0.87469021  0.08342423  1
  O  O41  1  0.30937667  0.93755144  0.59308924  1
  O  O42  1  0.19970697  0.59036748  0.57217272  1
  O  O43  1  0.06244856  0.37182423  0.92642224  1
  O  O44  1  0.19970697  0.60933950  0.09449428  1
  O  O45  1  0.12530979  0.42093952  0.41675823  1
  O  O46  1  0.10597829  0.21324778  0.21888249  1
  O  O47  1  0.40963252  0.80029303  0.76116128  1
  O  O48  1  0.39066050  0.80029303  0.23883872  1
  O  O49  1  0.10726949  0.21324778  0.78111751  1
  O  O50  1  0.29562973  0.42093952  0.58324177  1
  O  O51  1  0.40963252  0.60933950  0.90550572  1
  O  O52  1  0.30937667  0.37182423  0.07357776  1
  O  O53  1  0.39066050  0.59036748  0.42782728  1
  O  O54  1  0.21324778  0.10726949  0.55221549  1
  O  O55  1  0.21324778  0.10597829  0.11445151  1
  O  O56  1  0.62817577  0.93755144  0.40691076  1
  O  O57  1  0.57906048  0.87469021  0.91657577  1
  O  O58  1  0.57906048  0.70437027  0.75009123  1
  O  O59  1  0.37182423  0.30937667  0.25975624  1
  O  O60  1  0.62817577  0.69062333  0.25975624  1
  O  O61  1  0.42093952  0.29562973  0.75009123  1
  O  O62  1  0.42093952  0.12530979  0.91657577  1
  O  O63  1  0.37182423  0.06244856  0.40691076  1
  O  O64  1  0.78675222  0.89402171  0.11445151  1
  O  O65  1  0.78675222  0.89273051  0.55221549  1
  O  O66  1  0.60933950  0.40963252  0.42782728  1
  O  O67  1  0.69062333  0.62817577  0.07357776  1
  O  O68  1  0.59036748  0.39066050  0.90550572  1
  O  O69  1  0.70437027  0.57906048  0.58324177  1
  O  O70  1  0.89273051  0.78675222  0.78111751  1
  O  O71  1  0.60933950  0.19970697  0.23883872  1
  O  O72  1  0.59036748  0.19970697  0.76116128  1
  O  O73  1  0.89402171  0.78675222  0.21888249  1
  O  O74  1  0.87469021  0.57906048  0.41675823  1
  O  O75  1  0.80029303  0.39066050  0.09449428  1
  O  O76  1  0.93755144  0.62817577  0.92642224  1
  O  O77  1  0.80029303  0.40963252  0.57217272  1
  O  O78  1  0.69062333  0.06244856  0.59308924  1
  O  O79  1  0.70437027  0.12530979  0.08342423  1
  O  O80  1  0.87469021  0.29562973  0.24990877  1
  O  O81  1  0.93755144  0.30937667  0.74024376  1
  O  O82  1  0.89273051  0.10597829  0.88554849  1
  O  O83  1  0.89402171  0.10726949  0.44778451  1
