# generated using pymatgen
data_Li4Mn3Co2Ni3O16
_symmetry_space_group_name_H-M   'P 1'
_cell_length_a   5.80695235
_cell_length_b   5.75767629
_cell_length_c   9.29181213
_cell_angle_alpha   90.00101561
_cell_angle_beta   91.37072271
_cell_angle_gamma   119.72655110
_symmetry_Int_Tables_number   1
_chemical_formula_structural   Li4Mn3Co2Ni3O16
_chemical_formula_sum   'Li4 Mn3 Co2 Ni3 O16'
_cell_volume   269.68183683
_cell_formula_units_Z   1
loop_
 _symmetry_equiv_pos_site_id
 _symmetry_equiv_pos_as_xyz
  1  'x, y, z'
loop_
 _atom_site_type_symbol
 _atom_site_label
 _atom_site_symmetry_multiplicity
 _atom_site_fract_x
 _atom_site_fract_y
 _atom_site_fract_z
 _atom_site_occupancy
  Li  Li0  1  0.33282294  0.66635452  0.89642613  1
  Li  Li1  1  0.99094976  0.99543407  0.99211414  1
  Li  Li2  1  0.99633761  0.99807327  0.49666242  1
  Li  Li3  1  0.66567789  0.33298739  0.39814091  1
  Mn  Mn4  1  0.17241405  0.83166725  0.21321364  1
  Mn  Mn5  1  0.17237107  0.34074513  0.21321143  1
  Mn  Mn6  1  0.34387446  0.17193319  0.71393547  1
  Co  Co7  1  0.34050153  0.67024821  0.48743872  1
  Co  Co8  1  0.67737027  0.33867552  0.98295044  1
  Ni  Ni9  1  0.66043202  0.83025707  0.21198974  1
  Ni  Ni10  1  0.82996375  0.66004650  0.71119351  1
  Ni  Ni11  1  0.82993904  0.16999829  0.71119763  1
  O  O12  1  0.17946275  0.83977065  0.59768757  1
  O  O13  1  0.04012232  0.52004970  0.33787817  1
  O  O14  1  0.31921266  0.65964083  0.10564935  1
  O  O15  1  0.01134410  0.00565372  0.30654199  1
  O  O16  1  0.00487099  0.00231916  0.80090729  1
  O  O17  1  0.17944955  0.33962782  0.59768999  1
  O  O18  1  0.46926925  0.95869870  0.34697847  1
  O  O19  1  0.46924658  0.51073207  0.34698024  1
  O  O20  1  0.32805781  0.16403676  0.10219584  1
  O  O21  1  0.66315396  0.83157652  0.59524757  1
  O  O22  1  0.51211573  0.47030368  0.84781381  1
  O  O23  1  0.51217004  0.04178184  0.84774345  1
  O  O24  1  0.66040646  0.33041339  0.60838377  1
  O  O25  1  0.84136330  0.66373503  0.09552527  1
  O  O26  1  0.95568045  0.47793534  0.84667784  1
  O  O27  1  0.84141864  0.17760337  0.09546518  1
