# generated using pymatgen
data_HC6
_symmetry_space_group_name_H-M   'P 1'
_cell_length_a   2.46457041
_cell_length_b   3.75467652
_cell_length_c   14.33747447
_cell_angle_alpha   83.74283915
_cell_angle_beta   84.12202632
_cell_angle_gamma   89.84150706
_symmetry_Int_Tables_number   1
_chemical_formula_structural   HC6
_chemical_formula_sum   'H2 C12'
_cell_volume   131.18566476
_cell_formula_units_Z   2
loop_
 _symmetry_equiv_pos_site_id
 _symmetry_equiv_pos_as_xyz
  1  'x, y, z'
loop_
 _atom_site_type_symbol
 _atom_site_label
 _atom_site_symmetry_multiplicity
 _atom_site_fract_x
 _atom_site_fract_y
 _atom_site_fract_z
 _atom_site_occupancy
  H  H0  1  0.77221118  0.25249647  0.04535546  1
  H  H1  1  0.22778882  0.74750353  0.95464454  1
  C  C2  1  0.19471112  0.05659508  0.16412926  1
  C  C3  1  0.80528888  0.94340492  0.83587074  1
  C  C4  1  0.97408424  0.42047777  0.54814133  1
  C  C5  1  0.02591576  0.57952223  0.45185867  1
  C  C6  1  0.60927183  0.81749776  0.30815187  1
  C  C7  1  0.39072817  0.18250224  0.69184813  1
  C  C8  1  0.72275952  0.13184825  0.11854798  1
  C  C9  1  0.27724048  0.86815175  0.88145202  1
  C  C10  1  0.55246439  0.65816172  0.40425419  1
  C  C11  1  0.44753561  0.34183828  0.59574581  1
  C  C12  1  0.13746931  0.89619131  0.26084505  1
  C  C13  1  0.86253069  0.10380869  0.73915495  1
