# generated using pymatgen
data_Li(CoO2)3
_symmetry_space_group_name_H-M   'P 1'
_cell_length_a   4.96311982
_cell_length_b   4.91377851
_cell_length_c   10.46737889
_cell_angle_alpha   76.76291220
_cell_angle_beta   76.54042399
_cell_angle_gamma   59.90962479
_symmetry_Int_Tables_number   1
_chemical_formula_structural   Li(CoO2)3
_chemical_formula_sum   'Li2 Co6 O12'
_cell_volume   212.88565831
_cell_formula_units_Z   2
loop_
 _symmetry_equiv_pos_site_id
 _symmetry_equiv_pos_as_xyz
  1  'x, y, z'
loop_
 _atom_site_type_symbol
 _atom_site_label
 _atom_site_symmetry_multiplicity
 _atom_site_fract_x
 _atom_site_fract_y
 _atom_site_fract_z
 _atom_site_occupancy
  Li  Li0  1  0.07631728  0.75541542  0.75495172  1
  Li  Li1  1  0.90581254  0.26128787  0.25401643  1
  Co  Co2  1  0.00064022  0.33669933  0.99574409  1
  Co  Co3  1  0.16897044  0.83381381  0.49288407  1
  Co  Co4  1  0.33444457  0.66261276  0.00439559  1
  Co  Co5  1  0.49438174  0.16005152  0.50848122  1
  Co  Co6  1  0.66853505  0.99403485  0.00295583  1
  Co  Co7  1  0.83387684  0.49974180  0.50223946  1
  O  O8  1  0.03191783  0.01825512  0.90546051  1
  O  O9  1  0.11650878  0.49328127  0.59953636  1
  O  O10  1  0.18012964  0.20411029  0.40111732  1
  O  O11  1  0.29773429  0.97407155  0.09516118  1
  O  O12  1  0.36732124  0.36726432  0.90569354  1
  O  O13  1  0.45613284  0.79183215  0.59806288  1
  O  O14  1  0.54428302  0.52681956  0.40344052  1
  O  O15  1  0.64380175  0.29747893  0.09588276  1
  O  O16  1  0.71304276  0.70848489  0.89914867  1
  O  O17  1  0.87903733  0.85563953  0.40139494  1
  O  O18  1  0.82903874  0.12419530  0.59815461  1
  O  O19  1  0.95154709  0.62838273  0.10131131  1
