# generated using pymatgen
data_Fe3Mo
_symmetry_space_group_name_H-M   'P 1'
_cell_length_a   5.12862075
_cell_length_b   5.12934868
_cell_length_c   4.10924388
_cell_angle_alpha   90.00175257
_cell_angle_beta   89.99736541
_cell_angle_gamma   120.00966736
_symmetry_Int_Tables_number   1
_chemical_formula_structural   Fe3Mo
_chemical_formula_sum   'Fe6 Mo2'
_cell_volume   93.60801615
_cell_formula_units_Z   2
loop_
 _symmetry_equiv_pos_site_id
 _symmetry_equiv_pos_as_xyz
  1  'x, y, z'
loop_
 _atom_site_type_symbol
 _atom_site_label
 _atom_site_symmetry_multiplicity
 _atom_site_fract_x
 _atom_site_fract_y
 _atom_site_fract_z
 _atom_site_occupancy
  Fe  Fe0  1  0.83925225  0.16076061  0.74997904  1
  Fe  Fe1  1  0.32146073  0.16071623  0.74999649  1
  Fe  Fe2  1  0.83927579  0.67851112  0.74998770  1
  Fe  Fe3  1  0.16071683  0.83915129  0.25002275  1
  Fe  Fe4  1  0.67845442  0.83923598  0.25000669  1
  Fe  Fe5  1  0.16070425  0.32155739  0.25001579  1
  Mo  Mo6  1  0.66678616  0.33336286  0.25003990  1
  Mo  Mo7  1  0.33334856  0.66670251  0.74996363  1
