# generated using pymatgen
data_CsScBr3
_symmetry_space_group_name_H-M   'P 1'
_cell_length_a   4.03999062
_cell_length_b   9.89068313
_cell_length_c   16.90108013
_cell_angle_alpha   90.00000000
_cell_angle_beta   90.00000000
_cell_angle_gamma   90.00000000
_symmetry_Int_Tables_number   1
_chemical_formula_structural   CsScBr3
_chemical_formula_sum   'Cs4 Sc4 Br12'
_cell_volume   675.33787362
_cell_formula_units_Z   4
loop_
 _symmetry_equiv_pos_site_id
 _symmetry_equiv_pos_as_xyz
  1  'x, y, z'
loop_
 _atom_site_type_symbol
 _atom_site_label
 _atom_site_symmetry_multiplicity
 _atom_site_fract_x
 _atom_site_fract_y
 _atom_site_fract_z
 _atom_site_occupancy
  Cs  Cs0  1  0.74999900  0.06264034  0.66991115  1
  Cs  Cs1  1  0.24999900  0.93735966  0.33008885  1
  Cs  Cs2  1  0.74999900  0.56264034  0.83008885  1
  Cs  Cs3  1  0.24999900  0.43735866  0.16991115  1
  Sc  Sc4  1  0.24999900  0.12774278  0.95243064  1
  Sc  Sc5  1  0.74999900  0.87225722  0.04756936  1
  Sc  Sc6  1  0.24999900  0.62774178  0.54756936  1
  Sc  Sc7  1  0.74999900  0.37225822  0.45243064  1
  Br  Br8  1  0.74999900  0.30843490  0.99948068  1
  Br  Br9  1  0.24999900  0.69156510  0.00051932  1
  Br  Br10  1  0.74999900  0.80843490  0.50051932  1
  Br  Br11  1  0.24999900  0.19156510  0.49948068  1
  Br  Br12  1  0.24999900  0.03749266  0.10516176  1
  Br  Br13  1  0.74999900  0.96250734  0.89483724  1
  Br  Br14  1  0.24999900  0.53749166  0.39483824  1
  Br  Br15  1  0.74999900  0.46250834  0.60516276  1
  Br  Br16  1  0.24999900  0.25657504  0.80860523  1
  Br  Br17  1  0.74999900  0.74342396  0.19139477  1
  Br  Br18  1  0.24999900  0.75657604  0.69139477  1
  Br  Br19  1  0.74999900  0.24342396  0.30860523  1
