# generated using pymatgen
data_Al2(CuSe2)3
_symmetry_space_group_name_H-M   'P 1'
_cell_length_a   5.47962876
_cell_length_b   5.47962878
_cell_length_c   20.46069058
_cell_angle_alpha   113.68566631
_cell_angle_beta   113.68566811
_cell_angle_gamma   90.00000672
_symmetry_Int_Tables_number   1
_chemical_formula_structural   Al2(CuSe2)3
_chemical_formula_sum   'Al4 Cu6 Se12'
_cell_volume   505.58616885
_cell_formula_units_Z   2
loop_
 _symmetry_equiv_pos_site_id
 _symmetry_equiv_pos_as_xyz
  1  'x, y, z'
loop_
 _atom_site_type_symbol
 _atom_site_label
 _atom_site_symmetry_multiplicity
 _atom_site_fract_x
 _atom_site_fract_y
 _atom_site_fract_z
 _atom_site_occupancy
  Al  Al0  1  0.75730119  0.25730119  0.50486746  1
  Al  Al1  1  0.74269881  0.24269881  0.82846554  1
  Al  Al2  1  0.50730119  0.50730119  0.00486746  1
  Al  Al3  1  0.49269881  0.49269881  0.32846554  1
  Cu  Cu4  1  0.25000000  0.75000000  0.16666700  1
  Cu  Cu5  1  0.25573646  0.75573646  0.50382431  1
  Cu  Cu6  1  0.24426354  0.74426354  0.82950869  1
  Cu  Cu7  1  0.00573646  0.00573646  0.00382431  1
  Cu  Cu8  1  0.99426354  0.99426354  0.32950869  1
  Cu  Cu9  1  0.00000000  0.00000000  0.66666700  1
  Se  Se10  1  0.38514013  0.37058389  0.08647832  1
  Se  Se11  1  0.36865639  0.37500000  0.41666700  1
  Se  Se12  1  0.37570417  0.37941611  0.74685468  1
  Se  Se13  1  0.11114794  0.61485987  0.24685468  1
  Se  Se14  1  0.13885206  0.62429583  0.58647832  1
  Se  Se15  1  0.12500000  0.63134361  0.91666700  1
  Se  Se16  1  0.62941611  0.12570417  0.24685468  1
  Se  Se17  1  0.62058389  0.13514013  0.58647832  1
  Se  Se18  1  0.62500000  0.11865639  0.91666700  1
  Se  Se19  1  0.87429583  0.88885206  0.08647832  1
  Se  Se20  1  0.88134361  0.87500000  0.41666700  1
  Se  Se21  1  0.86485987  0.86114794  0.74685468  1
