# generated using pymatgen
data_Ca5Cu2(RhO6)2
_symmetry_space_group_name_H-M   'P 1'
_cell_length_a   6.57109769
_cell_length_b   6.53425891
_cell_length_c   6.40682504
_cell_angle_alpha   90.98684713
_cell_angle_beta   90.52511805
_cell_angle_gamma   91.90318266
_symmetry_Int_Tables_number   1
_chemical_formula_structural   Ca5Cu2(RhO6)2
_chemical_formula_sum   'Ca5 Cu2 Rh2 O12'
_cell_volume   274.88589370
_cell_formula_units_Z   1
loop_
 _symmetry_equiv_pos_site_id
 _symmetry_equiv_pos_as_xyz
  1  'x, y, z'
loop_
 _atom_site_type_symbol
 _atom_site_label
 _atom_site_symmetry_multiplicity
 _atom_site_fract_x
 _atom_site_fract_y
 _atom_site_fract_z
 _atom_site_occupancy
  Ca  Ca0  1  0.75449499  0.61910145  0.37499162  1
  Ca  Ca1  1  0.08131457  0.89449099  0.75201320  1
  Ca  Ca2  1  0.38839442  0.22743054  0.12814555  1
  Ca  Ca3  1  0.89796654  0.09441262  0.23885140  1
  Ca  Ca4  1  0.23911439  0.38907346  0.63141775  1
  Cu  Cu5  1  0.31473184  0.68859782  0.24230964  1
  Cu  Cu6  1  0.68495781  0.32628514  0.75212932  1
  Rh  Rh7  1  0.50189782  0.00096371  0.50804301  1
  Rh  Rh8  1  0.99898420  0.49892988  0.00332989  1
  O  O9  1  0.79105608  0.92771835  0.54739386  1
  O  O10  1  0.46995423  0.13831591  0.78907104  1
  O  O11  1  0.93125077  0.77920216  0.08004902  1
  O  O12  1  0.08480049  0.20759814  0.93694040  1
  O  O13  1  0.71366784  0.36814177  0.04578342  1
  O  O14  1  0.38216778  0.70983073  0.52875141  1
  O  O15  1  0.11882344  0.47326514  0.29346737  1
  O  O16  1  0.21296344  0.08112424  0.43945560  1
  O  O17  1  0.52166776  0.89161508  0.21245894  1
  O  O18  1  0.61138505  0.29634422  0.46168580  1
  O  O19  1  0.28362898  0.60689265  0.95593237  1
  O  O20  1  0.90242957  0.51661603  0.70171638  1
