# generated using pymatgen
data_Ca2CuN2
_symmetry_space_group_name_H-M   'P 1'
_cell_length_a   4.97847774
_cell_length_b   5.97141065
_cell_length_c   6.67124912
_cell_angle_alpha   65.29486344
_cell_angle_beta   68.09126038
_cell_angle_gamma   65.36353484
_symmetry_Int_Tables_number   1
_chemical_formula_structural   Ca2CuN2
_chemical_formula_sum   'Ca4 Cu2 N4'
_cell_volume   158.95087007
_cell_formula_units_Z   2
loop_
 _symmetry_equiv_pos_site_id
 _symmetry_equiv_pos_as_xyz
  1  'x, y, z'
loop_
 _atom_site_type_symbol
 _atom_site_label
 _atom_site_symmetry_multiplicity
 _atom_site_fract_x
 _atom_site_fract_y
 _atom_site_fract_z
 _atom_site_occupancy
  Ca  Ca0  1  0.67598130  0.22867038  0.41936803  1
  Ca  Ca1  1  0.32401870  0.77132962  0.58063197  1
  Ca  Ca2  1  0.04016149  0.68197925  0.23769676  1
  Ca  Ca3  1  0.95983851  0.31802075  0.76230324  1
  Cu  Cu4  1  0.36371314  0.15649783  0.11607688  1
  Cu  Cu5  1  0.63628686  0.84350217  0.88392312  1
  N  N6  1  0.18320347  0.23288180  0.40071225  1
  N  N7  1  0.81679653  0.76711820  0.59928775  1
  N  N8  1  0.47593112  0.24980244  0.79833533  1
  N  N9  1  0.52406888  0.75019756  0.20166467  1
