# generated using pymatgen
data_Ta2MnZnO8
_symmetry_space_group_name_H-M   'P 1'
_cell_length_a   5.10230786
_cell_length_b   5.76054865
_cell_length_c   10.21671061
_cell_angle_alpha   106.38694882
_cell_angle_beta   86.47474570
_cell_angle_gamma   90.01538512
_symmetry_Int_Tables_number   1
_chemical_formula_structural   Ta2MnZnO8
_chemical_formula_sum   'Ta4 Mn2 Zn2 O16'
_cell_volume   287.50131317
_cell_formula_units_Z   2
loop_
 _symmetry_equiv_pos_site_id
 _symmetry_equiv_pos_as_xyz
  1  'x, y, z'
loop_
 _atom_site_type_symbol
 _atom_site_label
 _atom_site_symmetry_multiplicity
 _atom_site_fract_x
 _atom_site_fract_y
 _atom_site_fract_z
 _atom_site_occupancy
  Ta  Ta0  1  0.74119137  0.29180132  0.23332886  1
  Ta  Ta1  1  0.76360237  0.05834531  0.76726868  1
  Ta  Ta2  1  0.25537306  0.70485403  0.76247234  1
  Ta  Ta3  1  0.24914185  0.94257723  0.23832304  1
  Mn  Mn4  1  0.75212381  0.64616667  0.00025644  1
  Mn  Mn5  1  0.25227418  0.35828271  0.00026769  1
  Zn  Zn6  1  0.81552249  0.43695422  0.55076735  1
  Zn  Zn7  1  0.68840893  0.88668341  0.44993544  1
  O  O8  1  0.08112895  0.19489105  0.11942337  1
  O  O9  1  0.42340705  0.07565676  0.88109585  1
  O  O10  1  0.91466985  0.81261511  0.88296431  1
  O  O11  1  0.58959627  0.92986279  0.11756324  1
  O  O12  1  0.56847671  0.44253941  0.10533376  1
  O  O13  1  0.93606488  0.33745126  0.89521988  1
  O  O14  1  0.43858690  0.55817277  0.89588515  1
  O  O15  1  0.06563616  0.66253123  0.10472941  1
  O  O16  1  0.41445921  0.25114044  0.32401398  1
  O  O17  1  0.09022167  0.92701792  0.67643919  1
  O  O18  1  0.36220250  0.79921591  0.36068552  1
  O  O19  1  0.14174455  0.43832857  0.63980042  1
  O  O20  1  0.66667985  0.16850198  0.61836355  1
  O  O21  1  0.83794116  0.55093095  0.38242648  1
  O  O22  1  0.90631443  0.06442114  0.33243039  1
  O  O23  1  0.59801481  0.73185180  0.66807167  1
