# generated using pymatgen
data_EuCuO3
_symmetry_space_group_name_H-M   'P 1'
_cell_length_a   6.30416181
_cell_length_b   6.45701837
_cell_length_c   8.08977613
_cell_angle_alpha   113.52099353
_cell_angle_beta   109.59407005
_cell_angle_gamma   90.00000765
_symmetry_Int_Tables_number   1
_chemical_formula_structural   EuCuO3
_chemical_formula_sum   'Eu4 Cu4 O12'
_cell_volume   281.02289834
_cell_formula_units_Z   4
loop_
 _symmetry_equiv_pos_site_id
 _symmetry_equiv_pos_as_xyz
  1  'x, y, z'
loop_
 _atom_site_type_symbol
 _atom_site_label
 _atom_site_symmetry_multiplicity
 _atom_site_fract_x
 _atom_site_fract_y
 _atom_site_fract_z
 _atom_site_occupancy
  Eu  Eu0  1  0.79406809  0.97641995  0.62659386  1
  Eu  Eu1  1  0.20593191  0.02358005  0.37340614  1
  Eu  Eu2  1  0.70593191  0.34982610  0.37340614  1
  Eu  Eu3  1  0.29406809  0.65017390  0.62659386  1
  Cu  Cu4  1  0.00416622  0.49735398  0.17101981  1
  Cu  Cu5  1  0.99583378  0.50264602  0.82898019  1
  Cu  Cu6  1  0.50416622  0.67366583  0.17101981  1
  Cu  Cu7  1  0.49583378  0.32633417  0.82898019  1
  O  O8  1  0.49380724  0.66537627  0.39660414  1
  O  O9  1  0.00981697  0.70754353  0.07003576  1
  O  O10  1  0.50619276  0.33462373  0.60339586  1
  O  O11  1  0.46727642  0.01273844  0.71545631  1
  O  O12  1  0.53272258  0.98726156  0.28454369  1
  O  O13  1  0.03272358  0.29728212  0.28454369  1
  O  O14  1  0.99018303  0.29245647  0.92996424  1
  O  O15  1  0.49018303  0.63750777  0.92996424  1
  O  O16  1  0.96727642  0.70271788  0.71545631  1
  O  O17  1  0.50981697  0.36249223  0.07003576  1
  O  O18  1  0.00619276  0.26877313  0.60339586  1
  O  O19  1  0.99380724  0.73122687  0.39660414  1
