# generated using pymatgen
data_MnZn2SbO6
_symmetry_space_group_name_H-M   'P 1'
_cell_length_a   5.35885720
_cell_length_b   5.32814319
_cell_length_c   7.66375501
_cell_angle_alpha   90.00000000
_cell_angle_beta   90.00000000
_cell_angle_gamma   93.85971392
_symmetry_Int_Tables_number   1
_chemical_formula_structural   MnZn2SbO6
_chemical_formula_sum   'Mn2 Zn4 Sb2 O12'
_cell_volume   218.32502750
_cell_formula_units_Z   2
loop_
 _symmetry_equiv_pos_site_id
 _symmetry_equiv_pos_as_xyz
  1  'x, y, z'
loop_
 _atom_site_type_symbol
 _atom_site_label
 _atom_site_symmetry_multiplicity
 _atom_site_fract_x
 _atom_site_fract_y
 _atom_site_fract_z
 _atom_site_occupancy
  Mn  Mn0  1  0.50000000  0.00000000  0.50000000  1
  Mn  Mn1  1  0.50000000  0.00000000  0.00000000  1
  Zn  Zn2  1  0.52307595  0.55526314  0.75000000  1
  Zn  Zn3  1  0.47692405  0.44473686  0.25000000  1
  Zn  Zn4  1  0.03831913  0.01485042  0.75000000  1
  Zn  Zn5  1  0.96168087  0.98514958  0.25000000  1
  Sb  Sb6  1  0.00000000  0.50000000  0.50000000  1
  Sb  Sb7  1  0.00000000  0.50000000  0.00000000  1
  O  O8  1  0.32907445  0.67835079  0.43592933  1
  O  O9  1  0.15754772  0.19352295  0.07170107  1
  O  O10  1  0.67092555  0.32164921  0.93592933  1
  O  O11  1  0.84245228  0.80647705  0.57170107  1
  O  O12  1  0.15754772  0.19352295  0.42829893  1
  O  O13  1  0.84245228  0.80647705  0.92829893  1
  O  O14  1  0.87012789  0.58736756  0.25000000  1
  O  O15  1  0.32907445  0.67835079  0.06407067  1
  O  O16  1  0.39730847  0.92043333  0.75000000  1
  O  O17  1  0.67092555  0.32164921  0.56407067  1
  O  O18  1  0.12987211  0.41263244  0.75000000  1
  O  O19  1  0.60269153  0.07956667  0.25000000  1
