# generated using pymatgen
data_Zn2Sn3O8
_symmetry_space_group_name_H-M   'P 1'
_cell_length_a   5.46100632
_cell_length_b   6.21695692
_cell_length_c   5.93764768
_cell_angle_alpha   121.56867771
_cell_angle_beta   99.21740820
_cell_angle_gamma   89.99999669
_symmetry_Int_Tables_number   1
_chemical_formula_structural   Zn2Sn3O8
_chemical_formula_sum   'Zn2 Sn3 O8'
_cell_volume   168.69308997
_cell_formula_units_Z   1
loop_
 _symmetry_equiv_pos_site_id
 _symmetry_equiv_pos_as_xyz
  1  'x, y, z'
loop_
 _atom_site_type_symbol
 _atom_site_label
 _atom_site_symmetry_multiplicity
 _atom_site_fract_x
 _atom_site_fract_y
 _atom_site_fract_z
 _atom_site_occupancy
  Zn  Zn0  1  0.58353296  0.70233350  0.40466601  1
  Zn  Zn1  1  0.41646606  0.29766742  0.59533385  1
  Sn  Sn2  1  0.49999988  0.99999915  0.00000031  1
  Sn  Sn3  1  0.00000011  0.74278415  -0.00000015  1
  Sn  Sn4  1  0.00000011  0.25721570  0.99999985  1
  O  O5  1  0.12279206  0.39044274  0.78088647  1
  O  O6  1  0.87720745  0.60955629  0.21911359  1
  O  O7  1  0.13438918  0.89602690  0.79205380  1
  O  O8  1  0.86561067  0.10397243  0.20794586  1
  O  O9  1  0.36520633  0.35315609  0.24803678  1
  O  O10  1  0.36520633  0.89488069  0.24803678  1
  O  O11  1  0.63479393  0.10511840  0.75196293  1
  O  O12  1  0.63479393  0.64684353  0.75196293  1
