# generated using pymatgen
data_Ti3Zn2O8
_symmetry_space_group_name_H-M   'P 1'
_cell_length_a   5.01700382
_cell_length_b   5.99123805
_cell_length_c   6.04369318
_cell_angle_alpha   119.71330492
_cell_angle_beta   109.37082656
_cell_angle_gamma   89.99999693
_symmetry_Int_Tables_number   1
_chemical_formula_structural   Ti3Zn2O8
_chemical_formula_sum   'Ti3 Zn2 O8'
_cell_volume   145.81775152
_cell_formula_units_Z   1
loop_
 _symmetry_equiv_pos_site_id
 _symmetry_equiv_pos_as_xyz
  1  'x, y, z'
loop_
 _atom_site_type_symbol
 _atom_site_label
 _atom_site_symmetry_multiplicity
 _atom_site_fract_x
 _atom_site_fract_y
 _atom_site_fract_z
 _atom_site_occupancy
  Ti  Ti0  1  0.50000000  0.99999900  0.00000000  1
  Ti  Ti1  1  0.99999900  0.73303098  0.00000000  1
  Ti  Ti2  1  0.99999900  0.26696902  1.00000000  1
  Zn  Zn3  1  0.65188769  0.71499503  0.42998906  1
  Zn  Zn4  1  0.34811131  0.28500597  0.57001094  1
  O  O5  1  0.07331280  0.39465328  0.78930756  1
  O  O6  1  0.92668720  0.60534572  0.21069244  1
  O  O7  1  0.07848214  0.89231184  0.78462369  1
  O  O8  1  0.92151786  0.10768716  0.21537531  1
  O  O9  1  0.40995001  0.34097428  0.22801434  1
  O  O10  1  0.40995001  0.88704006  0.22801434  1
  O  O11  1  0.59005099  0.11295894  0.77198566  1
  O  O12  1  0.59005099  0.65902572  0.77198566  1
