# generated using pymatgen
data_CaCu2(As2O7)2
_symmetry_space_group_name_H-M   'P 1'
_cell_length_a   7.11978348
_cell_length_b   8.87230053
_cell_length_c   9.69237282
_cell_angle_alpha   90.00000000
_cell_angle_beta   106.15721979
_cell_angle_gamma   90.00000000
_symmetry_Int_Tables_number   1
_chemical_formula_structural   CaCu2(As2O7)2
_chemical_formula_sum   'Ca2 Cu4 As8 O28'
_cell_volume   588.07307068
_cell_formula_units_Z   2
loop_
 _symmetry_equiv_pos_site_id
 _symmetry_equiv_pos_as_xyz
  1  'x, y, z'
loop_
 _atom_site_type_symbol
 _atom_site_label
 _atom_site_symmetry_multiplicity
 _atom_site_fract_x
 _atom_site_fract_y
 _atom_site_fract_z
 _atom_site_occupancy
  Ca  Ca0  1  0.72443876  0.06187000  0.04008825  1
  Ca  Ca1  1  0.27556124  0.56187000  0.45991175  1
  Cu  Cu2  1  0.77952873  0.05445958  0.67942407  1
  Cu  Cu3  1  0.22047127  0.55445958  0.82057593  1
  Cu  Cu4  1  0.21896128  0.94634859  0.31923493  1
  Cu  Cu5  1  0.78103872  0.44634859  0.18076507  1
  As  As6  1  0.41517312  0.24089009  0.73914074  1
  As  As7  1  0.58482688  0.74089009  0.76085926  1
  As  As8  1  0.57959331  0.76014537  0.25378116  1
  As  As9  1  0.42040669  0.26014537  0.24621884  1
  As  As10  1  0.04163763  0.29889214  0.96862730  1
  As  As11  1  0.95836237  0.79889214  0.53137270  1
  As  As12  1  0.96859941  0.70182946  0.03313761  1
  As  As13  1  0.03140059  0.20182946  0.46686239  1
  O  O14  1  0.85193501  0.32402189  0.04860898  1
  O  O15  1  0.14806499  0.82402189  0.45139102  1
  O  O16  1  0.16306931  0.67327991  0.96344844  1
  O  O17  1  0.83693069  0.17327991  0.53655156  1
  O  O18  1  0.34603251  0.42986187  0.70966312  1
  O  O19  1  0.65396749  0.92986187  0.79033688  1
  O  O20  1  0.63362768  0.57065033  0.26997446  1
  O  O21  1  0.36637232  0.07065033  0.23002554  1
  O  O22  1  0.41751659  0.16617932  0.89710321  1
  O  O23  1  0.58248341  0.66617932  0.60289679  1
  O  O24  1  0.59111698  0.85149072  0.10763482  1
  O  O25  1  0.40888302  0.35149072  0.39236518  1
  O  O26  1  0.25093318  0.13935945  0.59340021  1
  O  O27  1  0.74906682  0.63935945  0.90659979  1
  O  O28  1  0.73798676  0.85644248  0.40694755  1
  O  O29  1  0.26201324  0.35644248  0.09305245  1
  O  O30  1  0.02694614  0.08533540  0.32049952  1
  O  O31  1  0.97305386  0.58533540  0.17950048  1
  O  O32  1  0.96522886  0.91193366  0.67680298  1
  O  O33  1  0.03477114  0.41193366  0.82319702  1
  O  O34  1  0.64087311  0.26736051  0.20332588  1
  O  O35  1  0.35912689  0.76736051  0.29667412  1
  O  O36  1  0.36264112  0.72699285  0.79804199  1
  O  O37  1  0.63735888  0.22699285  0.70195801  1
  O  O38  1  0.01812907  0.37840515  0.40508021  1
  O  O39  1  0.98187093  0.87840515  0.09491979  1
  O  O40  1  0.01464766  0.62004026  0.58123392  1
  O  O41  1  0.98535234  0.12004026  0.91876608  1
