# generated using pymatgen
data_Ba2YCu3S7
_symmetry_space_group_name_H-M   'P 1'
_cell_length_a   4.44467012
_cell_length_b   4.72127629
_cell_length_c   13.84390782
_cell_angle_alpha   90.00000000
_cell_angle_beta   90.00000000
_cell_angle_gamma   90.00000000
_symmetry_Int_Tables_number   1
_chemical_formula_structural   Ba2YCu3S7
_chemical_formula_sum   'Ba2 Y1 Cu3 S7'
_cell_volume   290.50770037
_cell_formula_units_Z   1
loop_
 _symmetry_equiv_pos_site_id
 _symmetry_equiv_pos_as_xyz
  1  'x, y, z'
loop_
 _atom_site_type_symbol
 _atom_site_label
 _atom_site_symmetry_multiplicity
 _atom_site_fract_x
 _atom_site_fract_y
 _atom_site_fract_z
 _atom_site_occupancy
  Ba  Ba0  1  0.50000000  0.50000000  0.81207437  1
  Ba  Ba1  1  0.50000000  0.50000000  0.18792563  1
  Y  Y2  1  0.50000000  0.50000000  0.50000000  1
  Cu  Cu3  1  -0.00000000  -0.00000000  -0.00000000  1
  Cu  Cu4  1  0.00000000  -0.00000000  0.66074944  1
  Cu  Cu5  1  0.00000000  0.00000000  0.33925056  1
  S  S6  1  0.50000000  0.00000000  0.62090505  1
  S  S7  1  0.50000000  0.00000000  0.37909495  1
  S  S8  1  -0.00000000  0.00000000  0.84026824  1
  S  S9  1  -0.00000000  0.00000000  0.15973176  1
  S  S10  1  0.00000000  0.50000000  -0.00000000  1
  S  S11  1  0.00000000  0.50000000  0.62917020  1
  S  S12  1  0.00000000  0.50000000  0.37082980  1
