# generated using pymatgen
data_CaWF5
_symmetry_space_group_name_H-M   'P 1'
_cell_length_a   5.71659812
_cell_length_b   7.97467346
_cell_length_c   10.85963948
_cell_angle_alpha   90.00000000
_cell_angle_beta   90.00000000
_cell_angle_gamma   109.82238181
_symmetry_Int_Tables_number   1
_chemical_formula_structural   CaWF5
_chemical_formula_sum   'Ca4 W4 F20'
_cell_volume   465.73562099
_cell_formula_units_Z   4
loop_
 _symmetry_equiv_pos_site_id
 _symmetry_equiv_pos_as_xyz
  1  'x, y, z'
loop_
 _atom_site_type_symbol
 _atom_site_label
 _atom_site_symmetry_multiplicity
 _atom_site_fract_x
 _atom_site_fract_y
 _atom_site_fract_z
 _atom_site_occupancy
  Ca  Ca0  1  0.47298162  0.74648214  0.01504035  1
  Ca  Ca1  1  0.52701838  0.75351786  0.51504035  1
  Ca  Ca2  1  0.52701838  0.25351786  0.98495965  1
  Ca  Ca3  1  0.47298162  0.24648214  0.48495965  1
  W  W4  1  0.89247649  0.59975449  0.75299316  1
  W  W5  1  0.10752351  0.90024551  0.25299316  1
  W  W6  1  0.10752351  0.40024551  0.24700684  1
  W  W7  1  0.89247649  0.09975449  0.74700684  1
  F  F8  1  0.60233679  0.55543338  0.88661935  1
  F  F9  1  0.39766321  0.94456662  0.38661935  1
  F  F10  1  0.39766321  0.44456662  0.11338065  1
  F  F11  1  0.60233679  0.05543338  0.61338065  1
  F  F12  1  0.63448924  0.50094653  0.60672007  1
  F  F13  1  0.36551076  0.99905347  0.10672007  1
  F  F14  1  0.36551076  0.49905347  0.39327993  1
  F  F15  1  0.63448924  0.00094653  0.89327993  1
  F  F16  1  0.86051874  0.80730323  0.39837376  1
  F  F17  1  0.13948126  0.69269677  0.89837376  1
  F  F18  1  0.13948126  0.19269677  0.60162624  1
  F  F19  1  0.86051874  0.30730323  0.10162624  1
  F  F20  1  0.81017733  0.85129799  0.13078587  1
  F  F21  1  0.18982267  0.64870201  0.63078587  1
  F  F22  1  0.18982267  0.14870201  0.86921413  1
  F  F23  1  0.81017733  0.35129799  0.36921413  1
  F  F24  1  0.85861784  0.84026754  0.68261684  1
  F  F25  1  0.14138216  0.65973246  0.18261684  1
  F  F26  1  0.14138216  0.15973246  0.31738316  1
  F  F27  1  0.85861784  0.34026754  0.81738316  1
