# generated using pymatgen
data_Ca2Ti2O5
_symmetry_space_group_name_H-M   'P 1'
_cell_length_a   3.94311943
_cell_length_b   5.35137155
_cell_length_c   10.57661002
_cell_angle_alpha   90.02934076
_cell_angle_beta   89.99996411
_cell_angle_gamma   90.00004911
_symmetry_Int_Tables_number   1
_chemical_formula_structural   Ca2Ti2O5
_chemical_formula_sum   'Ca4 Ti4 O10'
_cell_volume   223.17804631
_cell_formula_units_Z   2
loop_
 _symmetry_equiv_pos_site_id
 _symmetry_equiv_pos_as_xyz
  1  'x, y, z'
loop_
 _atom_site_type_symbol
 _atom_site_label
 _atom_site_symmetry_multiplicity
 _atom_site_fract_x
 _atom_site_fract_y
 _atom_site_fract_z
 _atom_site_occupancy
  Ca  Ca0  1  0.50000112  0.23361402  0.88250577  1
  Ca  Ca1  1  0.49999916  0.76617187  0.11686944  1
  Ca  Ca2  1  0.49999725  0.73384012  0.61720092  1
  Ca  Ca3  1  0.50000530  0.26600453  0.38338156  1
  Ti  Ti4  1  0.00000086  0.22371264  0.62731199  1
  Ti  Ti5  1  0.00000172  0.77625280  0.37272217  1
  Ti  Ti6  1  0.00000078  0.27612100  0.12776643  1
  Ti  Ti7  1  0.99999876  0.72382881  0.87223137  1
  O  O8  1  0.00000044  0.49977951  0.49993714  1
  O  O9  1  0.00000256  0.10612175  0.28735524  1
  O  O10  1  0.00000039  0.60615583  0.21263702  1
  O  O11  1  0.99999956  0.39405927  0.78730591  1
  O  O12  1  0.50000045  0.29549087  0.11194696  1
  O  O13  1  0.49999867  0.70472518  0.88754449  1
  O  O14  1  -0.00000002  0.89406042  0.71271528  1
  O  O15  1  0.49999965  0.20492452  0.61264700  1
  O  O16  1  0.99999935  0.99977345  0.00004724  1
  O  O17  1  0.50000198  0.79536241  0.38787407  1
