# generated using pymatgen
data_Mg2CoN2
_symmetry_space_group_name_H-M   'P 1'
_cell_length_a   4.28069511
_cell_length_b   5.46862600
_cell_length_c   6.19850398
_cell_angle_alpha   64.48275910
_cell_angle_beta   69.79985176
_cell_angle_gamma   66.95919035
_symmetry_Int_Tables_number   1
_chemical_formula_structural   Mg2CoN2
_chemical_formula_sum   'Mg4 Co2 N4'
_cell_volume   117.74431543
_cell_formula_units_Z   2
loop_
 _symmetry_equiv_pos_site_id
 _symmetry_equiv_pos_as_xyz
  1  'x, y, z'
loop_
 _atom_site_type_symbol
 _atom_site_label
 _atom_site_symmetry_multiplicity
 _atom_site_fract_x
 _atom_site_fract_y
 _atom_site_fract_z
 _atom_site_occupancy
  Mg  Mg0  1  0.67894577  0.23202078  0.41008869  1
  Mg  Mg1  1  0.32105423  0.76797922  0.58991131  1
  Mg  Mg2  1  0.03081313  0.68581460  0.25255815  1
  Mg  Mg3  1  0.96918687  0.31418540  0.74744185  1
  Co  Co4  1  0.37322376  0.13432259  0.11923089  1
  Co  Co5  1  0.62677624  0.86567741  0.88076911  1
  N  N6  1  0.18123060  0.24305596  0.39448383  1
  N  N7  1  0.81876940  0.75694404  0.60551617  1
  N  N8  1  0.47496628  0.26292599  0.78714145  1
  N  N9  1  0.52503372  0.73707401  0.21285855  1
