# generated using pymatgen
data_Zn2Ni3O8
_symmetry_space_group_name_H-M   'P 1'
_cell_length_a   4.83931233
_cell_length_b   5.65018117
_cell_length_c   5.66913918
_cell_angle_alpha   119.88944152
_cell_angle_beta   102.85877502
_cell_angle_gamma   89.99999732
_symmetry_Int_Tables_number   1
_chemical_formula_structural   Zn2Ni3O8
_chemical_formula_sum   'Zn2 Ni3 O8'
_cell_volume   129.88990741
_cell_formula_units_Z   1
loop_
 _symmetry_equiv_pos_site_id
 _symmetry_equiv_pos_as_xyz
  1  'x, y, z'
loop_
 _atom_site_type_symbol
 _atom_site_label
 _atom_site_symmetry_multiplicity
 _atom_site_fract_x
 _atom_site_fract_y
 _atom_site_fract_z
 _atom_site_occupancy
  Zn  Zn0  1  0.62405765  0.70941322  0.41882544  1
  Zn  Zn1  1  0.37594135  0.29058778  0.58117456  1
  Ni  Ni2  1  0.50000000  0.99999900  0.00000000  1
  Ni  Ni3  1  0.99999900  0.74839165  1.00000000  1
  Ni  Ni4  1  0.99999900  0.25160835  0.00000000  1
  O  O5  1  0.07136667  0.39033565  0.78067229  1
  O  O6  1  0.92863333  0.60966335  0.21932771  1
  O  O7  1  0.11405434  0.89872677  0.79745354  1
  O  O8  1  0.88594566  0.10127223  0.20254546  1
  O  O9  1  0.37686663  0.33852426  0.22633947  1
  O  O10  1  0.37686663  0.88781521  0.22633947  1
  O  O11  1  0.62313437  0.11218379  0.77366053  1
  O  O12  1  0.62313437  0.66147574  0.77366053  1
