# generated using pymatgen
data_YVO3
_symmetry_space_group_name_H-M   'P 1'
_cell_length_a   6.14666000
_cell_length_b   6.14665967
_cell_length_c   12.05651279
_cell_angle_alpha   90.00000000
_cell_angle_beta   90.00000000
_cell_angle_gamma   120.00000176
_symmetry_Int_Tables_number   1
_chemical_formula_structural   YVO3
_chemical_formula_sum   'Y6 V6 O18'
_cell_volume   394.48518150
_cell_formula_units_Z   6
loop_
 _symmetry_equiv_pos_site_id
 _symmetry_equiv_pos_as_xyz
  1  'x, y, z'
loop_
 _atom_site_type_symbol
 _atom_site_label
 _atom_site_symmetry_multiplicity
 _atom_site_fract_x
 _atom_site_fract_y
 _atom_site_fract_z
 _atom_site_occupancy
  Y  Y0  1  0.66666700  0.33333300  0.22949937  1
  Y  Y1  1  0.33333300  0.66666700  0.72949937  1
  Y  Y2  1  0.66666700  0.33333300  0.72949937  1
  Y  Y3  1  0.33333300  0.66666700  0.22949937  1
  Y  Y4  1  0.00000000  0.00000000  0.77307418  1
  Y  Y5  1  0.00000000  0.00000000  0.27307418  1
  V  V6  1  0.66445284  0.00000000  0.49750205  1
  V  V7  1  0.66445284  0.66445284  0.99750205  1
  V  V8  1  1.00000000  0.33554716  0.99750205  1
  V  V9  1  0.00000000  0.66445284  0.49750205  1
  V  V10  1  0.33554716  0.33554716  0.49750205  1
  V  V11  1  0.33554716  0.00000000  0.99750205  1
  O  O12  1  0.66666700  0.33333300  0.02474351  1
  O  O13  1  0.33333300  0.66666700  0.52474351  1
  O  O14  1  0.66666700  0.33333300  0.52474351  1
  O  O15  1  0.33333300  0.66666700  0.02474351  1
  O  O16  1  0.00000000  0.00000000  0.98199545  1
  O  O17  1  0.00000000  0.00000000  0.48199545  1
  O  O18  1  0.36009027  0.00000000  0.83876411  1
  O  O19  1  0.36009027  0.36009027  0.33876411  1
  O  O20  1  0.00000000  0.63990973  0.33876411  1
  O  O21  1  1.00000000  0.36009027  0.83876411  1
  O  O22  1  0.63990973  0.63990973  0.83876411  1
  O  O23  1  0.63990973  0.00000000  0.33876411  1
  O  O24  1  0.30739040  0.00000000  0.16754872  1
  O  O25  1  0.30739040  0.30739040  0.66754872  1
  O  O26  1  1.00000000  0.69260960  0.66754872  1
  O  O27  1  0.00000000  0.30739040  0.16754872  1
  O  O28  1  0.69260960  0.69260960  0.16754872  1
  O  O29  1  0.69260960  0.00000000  0.66754872  1
