# generated using pymatgen
data_Al5(CoO4)3
_symmetry_space_group_name_H-M   'P 1'
_cell_length_a   5.73701292
_cell_length_b   5.73190384
_cell_length_c   17.18162312
_cell_angle_alpha   59.77923021
_cell_angle_beta   59.98100126
_cell_angle_gamma   59.91482703
_symmetry_Int_Tables_number   1
_chemical_formula_structural   Al5(CoO4)3
_chemical_formula_sum   'Al10 Co6 O24'
_cell_volume   398.53140764
_cell_formula_units_Z   2
loop_
 _symmetry_equiv_pos_site_id
 _symmetry_equiv_pos_as_xyz
  1  'x, y, z'
loop_
 _atom_site_type_symbol
 _atom_site_label
 _atom_site_symmetry_multiplicity
 _atom_site_fract_x
 _atom_site_fract_y
 _atom_site_fract_z
 _atom_site_occupancy
  Al  Al0  1  0.13623818  0.62793828  0.20477546  1
  Al  Al1  1  0.62403648  0.13634014  0.20548686  1
  Al  Al2  1  0.62726819  0.62553970  0.20442272  1
  Al  Al3  1  0.12324384  0.62573485  0.54050245  1
  Al  Al4  1  0.62823641  0.61245268  0.37632207  1
  Al  Al5  1  0.62329063  0.62512251  0.54077987  1
  Al  Al6  1  0.12545826  0.61616582  0.88012711  1
  Al  Al7  1  0.62013286  0.63720450  0.70649066  1
  Al  Al8  1  0.61853842  0.12469735  0.87961215  1
  Al  Al9  1  0.61740747  0.61679221  0.87992213  1
  Co  Co10  1  0.99786957  0.99330643  0.00379310  1
  Co  Co11  1  0.00402975  0.99137192  0.33433275  1
  Co  Co12  1  0.61870154  0.61671210  0.04902149  1
  Co  Co13  1  0.23465372  0.25972062  0.42260383  1
  Co  Co14  1  0.00883228  0.98575974  0.66410954  1
  Co  Co15  1  0.25165690  0.26556102  0.74347827  1
  O  O16  1  0.38723197  0.39008390  0.13263515  1
  O  O17  1  0.38183155  0.38193801  0.28578119  1
  O  O18  1  0.38984648  0.82876450  0.13188927  1
  O  O19  1  0.82774709  0.38815370  0.13221255  1
  O  O20  1  0.41471479  0.86660771  0.28565786  1
  O  O21  1  0.36935473  0.41362448  0.45498280  1
  O  O22  1  0.86379881  0.41257003  0.28723949  1
  O  O23  1  0.37082791  0.40508857  0.61564366  1
  O  O24  1  0.38394021  0.83867720  0.46239411  1
  O  O25  1  0.86345905  0.86424396  0.13697140  1
  O  O26  1  0.84774561  0.41223121  0.45555936  1
  O  O27  1  0.86205142  0.86622329  0.28602378  1
  O  O28  1  0.38712513  0.38194895  0.79560157  1
  O  O29  1  0.39432491  0.83761386  0.62878364  1
  O  O30  1  0.85943701  0.41207903  0.62135658  1
  O  O31  1  0.39452486  0.39387250  0.93917856  1
  O  O32  1  0.87631933  0.84631416  0.46458222  1
  O  O33  1  0.38579835  0.84556124  0.79349583  1
  O  O34  1  0.84256294  0.38269866  0.79536005  1
  O  O35  1  0.87699960  0.83832666  0.62858734  1
  O  O36  1  0.40503453  0.86635800  0.95337415  1
  O  O37  1  0.86768787  0.40367360  0.95359531  1
  O  O38  1  0.86008582  0.85846924  0.80670350  1
  O  O39  1  0.86879754  0.86521168  0.95348918  1
