# generated using pymatgen
data_Y4Be6Fe3(SiO5)6
_symmetry_space_group_name_H-M   'P 1'
_cell_length_a   14.06178300
_cell_length_b   7.74987373
_cell_length_c   10.14519841
_cell_angle_alpha   89.86869930
_cell_angle_beta   90.59428241
_cell_angle_gamma   89.95347977
_symmetry_Int_Tables_number   1
_chemical_formula_structural   Y4Be6Fe3(SiO5)6
_chemical_formula_sum   'Y8 Be12 Fe6 Si12 O60'
_cell_volume   1105.53096164
_cell_formula_units_Z   2
loop_
 _symmetry_equiv_pos_site_id
 _symmetry_equiv_pos_as_xyz
  1  'x, y, z'
loop_
 _atom_site_type_symbol
 _atom_site_label
 _atom_site_symmetry_multiplicity
 _atom_site_fract_x
 _atom_site_fract_y
 _atom_site_fract_z
 _atom_site_occupancy
  Y  Y0  1  0.33772579  0.39582268  0.83105778  1
  Y  Y1  1  0.99790331  0.39664395  0.83182752  1
  Y  Y2  1  0.32959543  0.89306950  0.66605171  1
  Y  Y3  1  0.66632186  0.89263722  0.66910566  1
  Y  Y4  1  0.32944326  0.60151752  0.16685192  1
  Y  Y5  1  0.66259713  0.60002443  0.17089143  1
  Y  Y6  1  0.66550422  0.10455989  0.33376599  1
  Y  Y7  1  0.00635287  0.10493767  0.32921170  1
  Be  Be8  1  0.14739887  0.09460327  0.84579067  1
  Be  Be9  1  0.48639585  0.09478476  0.84225615  1
  Be  Be10  1  0.81747108  0.08265932  0.84345827  1
  Be  Be11  1  0.18216762  0.59183136  0.65029848  1
  Be  Be12  1  0.51890384  0.58564572  0.66082579  1
  Be  Be13  1  0.84844663  0.59200582  0.65747739  1
  Be  Be14  1  0.18476415  0.90123015  0.15113024  1
  Be  Be15  1  0.51183491  0.91395713  0.15760938  1
  Be  Be16  1  0.85100051  0.91447656  0.15955314  1
  Be  Be17  1  0.15059434  0.40854927  0.34598099  1
  Be  Be18  1  0.48217355  0.41024351  0.34204277  1
  Be  Be19  1  0.81691974  0.41165469  0.34439349  1
  Fe  Fe20  1  0.00198562  0.00050762  0.99906413  1
  Fe  Fe21  1  0.33254814  0.99635641  0.00205303  1
  Fe  Fe22  1  0.66583381  0.00312103  0.99742127  1
  Fe  Fe23  1  0.99764286  0.50554462  0.49977137  1
  Fe  Fe24  1  0.33617225  0.49227632  0.49783574  1
  Fe  Fe25  1  0.66648182  0.49930714  0.50689290  1
  Si  Si26  1  0.16836667  0.23059320  0.59486348  1
  Si  Si27  1  0.50783304  0.23382090  0.58373157  1
  Si  Si28  1  0.83934037  0.21858979  0.57874910  1
  Si  Si29  1  0.15809499  0.72856949  0.90496169  1
  Si  Si30  1  0.49390913  0.73342281  0.91459650  1
  Si  Si31  1  0.83368851  0.72334033  0.92272240  1
  Si  Si32  1  0.16253074  0.76286695  0.40511710  1
  Si  Si33  1  0.49213359  0.77826749  0.42273062  1
  Si  Si34  1  0.82808378  0.77658527  0.41637254  1
  Si  Si35  1  0.17720283  0.26423622  0.08764259  1
  Si  Si36  1  0.50616760  0.28677441  0.08607282  1
  Si  Si37  1  0.83241064  0.26800350  0.08142202  1
  O  O38  1  0.24007601  0.39943452  0.63354653  1
  O  O39  1  0.57181520  0.40205628  0.63362844  1
  O  O40  1  0.89956665  0.39016245  0.63506714  1
  O  O41  1  0.09873908  0.90721032  0.86991418  1
  O  O42  1  0.42496835  0.90469033  0.86827937  1
  O  O43  1  0.76360791  0.88174803  0.86396577  1
  O  O44  1  0.09283939  0.59258044  0.37797537  1
  O  O45  1  0.43017991  0.61009136  0.36481609  1
  O  O46  1  0.76503730  0.60359445  0.35897143  1
  O  O47  1  0.24131720  0.08786545  0.12427087  1
  O  O48  1  0.56295366  0.10699394  0.13950125  1
  O  O49  1  0.90601820  0.11498657  0.13850018  1
  O  O50  1  0.06978749  0.55962384  0.64833358  1
  O  O51  1  0.40364495  0.57279283  0.65813923  1
  O  O52  1  0.73694431  0.61448314  0.63927899  1
  O  O53  1  0.26533687  0.09287577  0.85062953  1
  O  O54  1  0.59454196  0.05080715  0.84196545  1
  O  O55  1  0.93028757  0.10501544  0.86620730  1
  O  O56  1  0.26216512  0.44475705  0.34602067  1
  O  O57  1  0.59767283  0.41199813  0.34548114  1
  O  O58  1  0.92899939  0.39637204  0.36438384  1
  O  O59  1  0.23284937  0.78724486  0.02578126  1
  O  O60  1  0.56694998  0.79655782  0.03741723  1
  O  O61  1  0.90340048  0.82198969  0.03054648  1
  O  O62  1  0.25348445  0.40417589  0.03139582  1
  O  O63  1  0.58657727  0.42209966  0.04613261  1
  O  O64  1  0.90126429  0.41516085  0.01803769  1
  O  O65  1  0.09597584  0.92462563  0.43991468  1
  O  O66  1  0.42170910  0.90245250  0.49946583  1
  O  O67  1  0.74449591  0.90978855  0.46482390  1
  O  O68  1  0.10474025  0.20273151  0.72528437  1
  O  O69  1  0.44007757  0.17526408  0.70882886  1
  O  O70  1  0.78231929  0.12586007  0.69705485  1
  O  O71  1  0.24072585  0.07568317  0.56371208  1
  O  O72  1  0.58515954  0.09234524  0.53153895  1
  O  O73  1  0.91259741  0.09680756  0.50067679  1
  O  O74  1  0.10180739  0.29238396  0.46892072  1
  O  O75  1  0.43560786  0.30652648  0.46613392  1
  O  O76  1  0.76080084  0.30010785  0.46834215  1
  O  O77  1  0.08746056  0.57399766  0.93823348  1
  O  O78  1  0.41694383  0.58761337  0.95765921  1
  O  O79  1  0.76470363  0.59522003  0.00684576  1
  O  O80  1  0.23382036  0.70443129  0.53137762  1
  O  O81  1  0.57007381  0.69863231  0.53134442  1
  O  O82  1  0.89870561  0.69198357  0.53109387  1
  O  O83  1  0.09856723  0.20525336  0.97200957  1
  O  O84  1  0.43731341  0.21038029  0.96374721  1
  O  O85  1  0.76315655  0.18313981  0.96730130  1
  O  O86  1  0.11642145  0.30863473  0.21834640  1
  O  O87  1  0.43772022  0.36505956  0.20012839  1
  O  O88  1  0.76994994  0.32819707  0.21033271  1
  O  O89  1  0.22461375  0.79106636  0.27275283  1
  O  O90  1  0.55587435  0.84780089  0.29746724  1
  O  O91  1  0.89102831  0.85640614  0.29816419  1
  O  O92  1  0.22964027  0.67673133  0.78216246  1
  O  O93  1  0.55590510  0.69637369  0.78332441  1
  O  O94  1  0.88829924  0.63252643  0.80200072  1
  O  O95  1  0.07257152  0.94020400  0.14789198  1
  O  O96  1  0.40196046  0.88376603  0.13442088  1
  O  O97  1  0.73428599  0.92759926  0.15890947  1
