# generated using pymatgen
data_Mg2CuWO6
_symmetry_space_group_name_H-M   'P 1'
_cell_length_a   5.00121865
_cell_length_b   5.17574556
_cell_length_c   8.52887676
_cell_angle_alpha   90.00000000
_cell_angle_beta   91.00504578
_cell_angle_gamma   90.00000000
_symmetry_Int_Tables_number   1
_chemical_formula_structural   Mg2CuWO6
_chemical_formula_sum   'Mg4 Cu2 W2 O12'
_cell_volume   220.73631093
_cell_formula_units_Z   2
loop_
 _symmetry_equiv_pos_site_id
 _symmetry_equiv_pos_as_xyz
  1  'x, y, z'
loop_
 _atom_site_type_symbol
 _atom_site_label
 _atom_site_symmetry_multiplicity
 _atom_site_fract_x
 _atom_site_fract_y
 _atom_site_fract_z
 _atom_site_occupancy
  Mg  Mg0  1  0.97338720  0.05199431  0.26779716  1
  Mg  Mg1  1  0.52661280  0.55199531  0.23220284  1
  Mg  Mg2  1  0.02661380  0.94800669  0.73220284  1
  Mg  Mg3  1  0.47338620  0.44800569  0.76779716  1
  Cu  Cu4  1  0.50000000  0.00000000  0.00000000  1
  Cu  Cu5  1  0.00000100  0.49999900  0.50000000  1
  W  W6  1  0.50000000  0.00000000  0.49999900  1
  W  W7  1  0.00000000  0.49999900  0.00000000  1
  O  O8  1  0.69034644  0.28970760  0.39112311  1
  O  O9  1  0.80965356  0.78970860  0.10887689  1
  O  O10  1  0.30965256  0.71029240  0.60887689  1
  O  O11  1  0.19034744  0.21029140  0.89112311  1
  O  O12  1  0.19104697  0.20087322  0.55234738  1
  O  O13  1  0.30895303  0.70087222  0.94765262  1
  O  O14  1  0.80895403  0.79912678  0.44765262  1
  O  O15  1  0.69104597  0.29912778  0.05234738  1
  O  O16  1  0.15876312  0.39255901  0.19724125  1
  O  O17  1  0.34123788  0.89256001  0.30275775  1
  O  O18  1  0.65876312  0.10743999  0.69724225  1
  O  O19  1  0.84123788  0.60744099  0.80275875  1
