# generated using pymatgen
data_BiO2
_symmetry_space_group_name_H-M   'P 1'
_cell_length_a   3.44719210
_cell_length_b   10.59486640
_cell_length_c   12.03641205
_cell_angle_alpha   90.00703549
_cell_angle_beta   90.00003545
_cell_angle_gamma   90.00004997
_symmetry_Int_Tables_number   1
_chemical_formula_structural   BiO2
_chemical_formula_sum   'Bi8 O16'
_cell_volume   439.60033444
_cell_formula_units_Z   8
loop_
 _symmetry_equiv_pos_site_id
 _symmetry_equiv_pos_as_xyz
  1  'x, y, z'
loop_
 _atom_site_type_symbol
 _atom_site_label
 _atom_site_symmetry_multiplicity
 _atom_site_fract_x
 _atom_site_fract_y
 _atom_site_fract_z
 _atom_site_occupancy
  Bi  Bi0  1  0.24999900  0.39872430  0.09368722  1
  Bi  Bi1  1  0.74999998  0.10112948  0.59026856  1
  Bi  Bi2  1  0.25000002  0.89876774  0.40630451  1
  Bi  Bi3  1  0.75000000  0.60109812  0.90977577  1
  Bi  Bi4  1  0.74999900  0.55123548  0.38734759  1
  Bi  Bi5  1  0.25000000  0.45872974  0.63007422  1
  Bi  Bi6  1  0.74999998  0.05119727  0.11264516  1
  Bi  Bi7  1  0.25000002  0.95868382  0.86989552  1
  O  O8  1  0.24999902  0.92635490  0.04657272  1
  O  O9  1  0.74999998  0.07823324  0.92260846  1
  O  O10  1  0.24999903  0.42642018  0.45340745  1
  O  O11  1  0.74999997  0.57828667  0.57740551  1
  O  O12  1  0.24999999  0.03573167  0.70887002  1
  O  O13  1  0.74999901  0.92550316  0.29419078  1
  O  O14  1  0.24999901  0.53575563  0.79115404  1
  O  O15  1  0.74999899  0.42548952  0.20580171  1
  O  O16  1  0.24999997  0.59301942  0.03941358  1
  O  O17  1  0.74999903  0.39759695  0.97507984  1
  O  O18  1  0.24999999  0.09306014  0.46062251  1
  O  O19  1  0.74999901  0.89763876  0.52490377  1
  O  O20  1  0.74999902  0.83158080  0.84472259  1
  O  O21  1  0.24999998  0.20204696  0.11135860  1
  O  O22  1  0.25000000  0.70207303  0.38864250  1
  O  O23  1  0.74999900  0.33164301  0.65524638  1
