# generated using pymatgen
data_Ca2Mn2O5
_symmetry_space_group_name_H-M   'P 1'
_cell_length_a   5.28857165
_cell_length_b   5.42744646
_cell_length_c   8.30526355
_cell_angle_alpha   90.00000000
_cell_angle_beta   90.00000000
_cell_angle_gamma   90.00000000
_symmetry_Int_Tables_number   1
_chemical_formula_structural   Ca2Mn2O5
_chemical_formula_sum   'Ca4 Mn4 O10'
_cell_volume   238.38962967
_cell_formula_units_Z   2
loop_
 _symmetry_equiv_pos_site_id
 _symmetry_equiv_pos_as_xyz
  1  'x, y, z'
loop_
 _atom_site_type_symbol
 _atom_site_label
 _atom_site_symmetry_multiplicity
 _atom_site_fract_x
 _atom_site_fract_y
 _atom_site_fract_z
 _atom_site_occupancy
  Ca  Ca0  1  0.04065395  0.95206095  0.25000000  1
  Ca  Ca1  1  0.54065295  0.54793905  0.75000000  1
  Ca  Ca2  1  0.46512901  0.46339695  0.25000000  1
  Ca  Ca3  1  0.96512901  0.03660305  0.75000000  1
  Mn  Mn4  1  0.49585161  0.99878196  0.97973696  1
  Mn  Mn5  1  0.99585261  0.50121904  0.02026304  1
  Mn  Mn6  1  0.99585261  0.50121904  0.47973696  1
  Mn  Mn7  1  0.49585161  0.99878196  0.52026304  1
  O  O8  1  0.29268153  0.72370365  0.43890009  1
  O  O9  1  0.79268253  0.77629435  0.56110091  1
  O  O10  1  0.22917993  0.22012408  0.06068038  1
  O  O11  1  0.72918093  0.27987692  0.93931962  1
  O  O12  1  0.72918093  0.27987692  0.56068138  1
  O  O13  1  0.22917993  0.22012408  0.43931962  1
  O  O14  1  0.79268253  0.77629435  0.93890009  1
  O  O15  1  0.29268153  0.72370365  0.06109991  1
  O  O16  1  0.87930493  0.54145059  0.25000000  1
  O  O17  1  0.37930493  0.95854941  0.75000000  1
