# generated using pymatgen
data_ZnCr(GeO3)2
_symmetry_space_group_name_H-M   'P 1'
_cell_length_a   5.57675781
_cell_length_b   9.10405054
_cell_length_c   10.04680034
_cell_angle_alpha   90.00000000
_cell_angle_beta   105.86917573
_cell_angle_gamma   90.00000000
_symmetry_Int_Tables_number   1
_chemical_formula_structural   ZnCr(GeO3)2
_chemical_formula_sum   'Zn4 Cr4 Ge8 O24'
_cell_volume   490.64680324
_cell_formula_units_Z   4
loop_
 _symmetry_equiv_pos_site_id
 _symmetry_equiv_pos_as_xyz
  1  'x, y, z'
loop_
 _atom_site_type_symbol
 _atom_site_label
 _atom_site_symmetry_multiplicity
 _atom_site_fract_x
 _atom_site_fract_y
 _atom_site_fract_z
 _atom_site_occupancy
  Zn  Zn0  1  0.44950045  0.48859193  0.24426035  1
  Zn  Zn1  1  0.05049955  0.98859193  0.75573965  1
  Zn  Zn2  1  0.55049955  0.51140807  0.75573965  1
  Zn  Zn3  1  0.94950045  0.01140807  0.24426035  1
  Cr  Cr4  1  0.95910294  0.65686577  0.24710009  1
  Cr  Cr5  1  0.54089706  0.15686577  0.75289991  1
  Cr  Cr6  1  0.04089706  0.34313423  0.75289991  1
  Cr  Cr7  1  0.45910294  0.84313423  0.24710009  1
  Ge  Ge8  1  0.81419877  0.33704479  0.05811913  1
  Ge  Ge9  1  0.68580123  0.83704479  0.94188087  1
  Ge  Ge10  1  0.18580123  0.66295521  0.94188087  1
  Ge  Ge11  1  0.31419877  0.16295521  0.05811913  1
  Ge  Ge12  1  0.25163217  0.34199915  0.45431125  1
  Ge  Ge13  1  0.24836783  0.84199915  0.54568875  1
  Ge  Ge14  1  0.74836783  0.65800085  0.54568875  1
  Ge  Ge15  1  0.75163217  0.15800085  0.45431125  1
  O  O16  1  0.49994941  0.28292200  0.38125901  1
  O  O17  1  0.00005059  0.78292200  0.61874099  1
  O  O18  1  0.50005059  0.71707800  0.61874099  1
  O  O19  1  -0.00005059  0.21707800  0.38125901  1
  O  O20  1  0.15724643  0.32239238  0.10895907  1
  O  O21  1  0.34275357  0.82239238  0.89104193  1
  O  O22  1  0.84275357  0.67760762  0.89104193  1
  O  O23  1  0.65724643  0.17760762  0.10895907  1
  O  O24  1  0.70451914  0.98787686  0.37207066  1
  O  O25  1  0.79548086  0.48787686  0.62792934  1
  O  O26  1  0.29548086  0.01212314  0.62792934  1
  O  O27  1  0.20451914  0.51212314  0.37207066  1
  O  O28  1  0.22608598  0.01538731  0.14479876  1
  O  O29  1  0.27391402  0.51538731  0.85520124  1
  O  O30  1  0.77391402  0.98461269  0.85520124  1
  O  O31  1  0.72608598  0.48461269  0.14479876  1
  O  O32  1  0.73444595  0.33590218  0.87589527  1
  O  O33  1  0.76555405  0.83590218  0.12410473  1
  O  O34  1  0.26555405  0.66409782  0.12410473  1
  O  O35  1  0.23444595  0.16409782  0.87589527  1
  O  O36  1  0.33790751  0.33851536  0.63479500  1
  O  O37  1  0.16209249  0.83851536  0.36520500  1
  O  O38  1  0.66209249  0.66148464  0.36520500  1
  O  O39  1  0.83790751  0.16148464  0.63479500  1
