# generated using pymatgen
data_Zn2FeIrO6
_symmetry_space_group_name_H-M   'P 1'
_cell_length_a   5.22986672
_cell_length_b   5.25767154
_cell_length_c   7.66894653
_cell_angle_alpha   90.00000000
_cell_angle_beta   90.03729079
_cell_angle_gamma   90.00000000
_symmetry_Int_Tables_number   1
_chemical_formula_structural   Zn2FeIrO6
_chemical_formula_sum   'Zn4 Fe2 Ir2 O12'
_cell_volume   210.87237515
_cell_formula_units_Z   2
loop_
 _symmetry_equiv_pos_site_id
 _symmetry_equiv_pos_as_xyz
  1  'x, y, z'
loop_
 _atom_site_type_symbol
 _atom_site_label
 _atom_site_symmetry_multiplicity
 _atom_site_fract_x
 _atom_site_fract_y
 _atom_site_fract_z
 _atom_site_occupancy
  Zn  Zn0  1  0.99746962  0.96140604  0.24741075  1
  Zn  Zn1  1  0.50253038  0.46140604  0.25258925  1
  Zn  Zn2  1  0.49746962  0.53859396  0.74741075  1
  Zn  Zn3  1  0.00253038  0.03859396  0.75258925  1
  Fe  Fe4  1  0.00000000  0.50000000  0.00000000  1
  Fe  Fe5  1  0.50000000  0.00000000  0.50000000  1
  Ir  Ir6  1  0.00000000  0.50000000  0.50000000  1
  Ir  Ir7  1  0.50000000  0.00000000  0.00000000  1
  O  O8  1  0.12180272  0.42040080  0.74387310  1
  O  O9  1  0.18020906  0.17709468  0.06568326  1
  O  O10  1  0.17229166  0.18135801  0.43032003  1
  O  O11  1  0.32770834  0.68135801  0.06967997  1
  O  O12  1  0.31979094  0.67709468  0.43431674  1
  O  O13  1  0.37819728  0.92040080  0.75612690  1
  O  O14  1  0.62180272  0.07959920  0.24387310  1
  O  O15  1  0.68020906  0.32290532  0.56568326  1
  O  O16  1  0.67229166  0.31864199  0.93032003  1
  O  O17  1  0.81979094  0.82290532  0.93431674  1
  O  O18  1  0.82770834  0.81864199  0.56967997  1
  O  O19  1  0.87819728  0.57959920  0.25612690  1
