# generated using pymatgen
data_Mg(CoS2)2
_symmetry_space_group_name_H-M   'P 1'
_cell_length_a   6.93319511
_cell_length_b   6.93256913
_cell_length_c   6.93248437
_cell_angle_alpha   60.00166092
_cell_angle_beta   60.00426432
_cell_angle_gamma   60.00583575
_symmetry_Int_Tables_number   1
_chemical_formula_structural   Mg(CoS2)2
_chemical_formula_sum   'Mg2 Co4 S8'
_cell_volume   235.63517973
_cell_formula_units_Z   2
loop_
 _symmetry_equiv_pos_site_id
 _symmetry_equiv_pos_as_xyz
  1  'x, y, z'
loop_
 _atom_site_type_symbol
 _atom_site_label
 _atom_site_symmetry_multiplicity
 _atom_site_fract_x
 _atom_site_fract_y
 _atom_site_fract_z
 _atom_site_occupancy
  Mg  Mg0  1  0.87499032  0.87502198  0.87500491  1
  Mg  Mg1  1  0.12501001  0.12497753  0.12499538  1
  Co  Co2  1  0.50000029  0.49999994  0.50000017  1
  Co  Co3  1  0.49999994  0.49999984  0.00000041  1
  Co  Co4  1  0.00000018  0.49999926  0.50000013  1
  Co  Co5  1  0.50000037  0.99999924  0.50000030  1
  S  S6  1  0.73156046  0.73156476  0.73157871  1
  S  S7  1  0.26843489  0.26842923  0.69472138  1
  S  S8  1  0.26843990  0.69471416  0.26842271  1
  S  S9  1  0.69469811  0.26844213  0.26842851  1
  S  S10  1  0.73155937  0.30528601  0.73157765  1
  S  S11  1  0.30530329  0.73155620  0.73157171  1
  S  S12  1  0.26844091  0.26843400  0.26842103  1
  S  S13  1  0.73156595  0.73157072  0.30527900  1
