# generated using pymatgen
data_Ca2Co2O5
_symmetry_space_group_name_H-M   'P 1'
_cell_length_a   3.74960855
_cell_length_b   5.42782998
_cell_length_c   10.27633252
_cell_angle_alpha   89.99393366
_cell_angle_beta   90.00004816
_cell_angle_gamma   90.00000145
_symmetry_Int_Tables_number   1
_chemical_formula_structural   Ca2Co2O5
_chemical_formula_sum   'Ca4 Co4 O10'
_cell_volume   209.14636097
_cell_formula_units_Z   2
loop_
 _symmetry_equiv_pos_site_id
 _symmetry_equiv_pos_as_xyz
  1  'x, y, z'
loop_
 _atom_site_type_symbol
 _atom_site_label
 _atom_site_symmetry_multiplicity
 _atom_site_fract_x
 _atom_site_fract_y
 _atom_site_fract_z
 _atom_site_occupancy
  Ca  Ca0  1  0.50000203  0.19225030  0.86854398  1
  Ca  Ca1  1  0.50000024  0.80768338  0.13142612  1
  Ca  Ca2  1  0.49999979  0.69214543  0.63150308  1
  Ca  Ca3  1  0.49999956  0.30780576  0.36849860  1
  Co  Co4  1  -0.00000002  0.22235096  0.62272047  1
  Co  Co5  1  0.00000273  0.77763545  0.37730260  1
  Co  Co6  1  -0.00000096  0.27763012  0.12270376  1
  Co  Co7  1  -0.00000088  0.72233066  0.87727665  1
  O  O8  1  -0.00000004  0.49997932  0.49998200  1
  O  O9  1  0.00000101  0.07865278  0.28962842  1
  O  O10  1  0.00000011  0.57872738  0.21036505  1
  O  O11  1  -0.00000102  0.42138100  0.78963682  1
  O  O12  1  0.50000030  0.28767388  0.10517533  1
  O  O13  1  0.50000035  0.71233937  0.89480892  1
  O  O14  1  0.00000124  0.92135762  0.71040189  1
  O  O15  1  0.49999885  0.21245770  0.60519284  1
  O  O16  1  0.00000227  -0.00004771  -0.00003927  1
  O  O17  1  0.50000244  0.78764560  0.39487275  1
