# generated using pymatgen
data_Zn2FeWO6
_symmetry_space_group_name_H-M   'P 1'
_cell_length_a   5.29987958
_cell_length_b   5.26438463
_cell_length_c   7.99886339
_cell_angle_alpha   90.00000000
_cell_angle_beta   88.12541836
_cell_angle_gamma   90.00000000
_symmetry_Int_Tables_number   1
_chemical_formula_structural   Zn2FeWO6
_chemical_formula_sum   'Zn4 Fe2 W2 O12'
_cell_volume   223.05368813
_cell_formula_units_Z   2
loop_
 _symmetry_equiv_pos_site_id
 _symmetry_equiv_pos_as_xyz
  1  'x, y, z'
loop_
 _atom_site_type_symbol
 _atom_site_label
 _atom_site_symmetry_multiplicity
 _atom_site_fract_x
 _atom_site_fract_y
 _atom_site_fract_z
 _atom_site_occupancy
  Zn  Zn0  1  0.01708196  0.02222042  0.26085643  1
  Zn  Zn1  1  0.48291804  0.52222142  0.23914357  1
  Zn  Zn2  1  0.98291904  0.97778058  0.73914357  1
  Zn  Zn3  1  0.51708096  0.47777958  0.76085643  1
  Fe  Fe4  1  0.50000000  0.00000000  0.00000000  1
  Fe  Fe5  1  0.00000100  0.49999900  0.50000000  1
  W  W6  1  0.50000000  0.00000000  0.49999900  1
  W  W7  1  0.00000000  0.49999900  0.00000000  1
  O  O8  1  0.64475495  0.31152613  0.41226109  1
  O  O9  1  0.85524505  0.81152713  0.08773891  1
  O  O10  1  0.35524405  0.68847387  0.58773891  1
  O  O11  1  0.14475595  0.18847287  0.91226109  1
  O  O12  1  0.17777553  0.16696464  0.55128164  1
  O  O13  1  0.32222447  0.66696364  0.94871836  1
  O  O14  1  0.82222547  0.83303536  0.44871836  1
  O  O15  1  0.67777453  0.33303636  0.05128164  1
  O  O16  1  0.11449090  0.39623267  0.22668203  1
  O  O17  1  0.38551010  0.89623367  0.27331697  1
  O  O18  1  0.61449090  0.10376633  0.72668303  1
  O  O19  1  0.88551010  0.60376733  0.77331797  1
