# generated using pymatgen
data_CaMn4O8
_symmetry_space_group_name_H-M   'P 1'
_cell_length_a   6.26568531
_cell_length_b   10.37990643
_cell_length_c   10.66016568
_cell_angle_alpha   71.77148844
_cell_angle_beta   87.40723415
_cell_angle_gamma   89.43797409
_symmetry_Int_Tables_number   1
_chemical_formula_structural   CaMn4O8
_chemical_formula_sum   'Ca4 Mn16 O32'
_cell_volume   657.83400715
_cell_formula_units_Z   4
loop_
 _symmetry_equiv_pos_site_id
 _symmetry_equiv_pos_as_xyz
  1  'x, y, z'
loop_
 _atom_site_type_symbol
 _atom_site_label
 _atom_site_symmetry_multiplicity
 _atom_site_fract_x
 _atom_site_fract_y
 _atom_site_fract_z
 _atom_site_occupancy
  Ca  Ca0  1  0.26824677  0.56616204  0.54290342  1
  Ca  Ca1  1  0.75190142  0.08802500  0.55687950  1
  Ca  Ca2  1  0.79495642  0.55347049  0.03764083  1
  Ca  Ca3  1  0.23062184  0.07968929  0.05923663  1
  Mn  Mn4  1  0.25781657  0.99607750  0.74958424  1
  Mn  Mn5  1  0.74368831  0.50653364  0.75049423  1
  Mn  Mn6  1  0.74054239  0.99581556  0.25371997  1
  Mn  Mn7  1  0.26924629  0.49783751  0.23672882  1
  Mn  Mn8  1  0.28498357  0.75025604  0.98603644  1
  Mn  Mn9  1  0.71285451  0.25004083  0.00983189  1
  Mn  Mn10  1  0.77066405  0.76047189  0.48705555  1
  Mn  Mn11  1  0.22806227  0.23912231  0.50757888  1
  Mn  Mn12  1  0.51544325  0.76206886  0.73692820  1
  Mn  Mn13  1  0.97922016  0.24737438  0.76355951  1
  Mn  Mn14  1  0.02254509  0.75736223  0.23914310  1
  Mn  Mn15  1  0.46867110  0.23848943  0.26506513  1
  Mn  Mn16  1  0.01965153  0.76318293  0.73290854  1
  Mn  Mn17  1  0.48071690  0.24535191  0.76651017  1
  Mn  Mn18  1  0.52747165  0.75512463  0.23296681  1
  Mn  Mn19  1  0.97410241  0.24044154  0.26823543  1
  O  O20  1  0.47702718  0.87819189  0.85104885  1
  O  O21  1  0.89338391  0.39179688  0.89841361  1
  O  O22  1  0.95133201  0.89509194  0.36566131  1
  O  O23  1  0.42734042  0.36073147  0.37384922  1
  O  O24  1  0.06589408  0.85801582  0.86421055  1
  O  O25  1  0.47639926  0.32072411  0.90770276  1
  O  O26  1  0.54938900  0.85562362  0.36466305  1
  O  O27  1  0.98946246  0.31411579  0.40969864  1
  O  O28  1  0.27887253  0.86851464  0.64818424  1
  O  O29  1  0.72923625  0.35792950  0.67813987  1
  O  O30  1  0.77319015  0.87272623  0.15199017  1
  O  O31  1  0.22834561  0.34253289  0.17292841  1
  O  O32  1  0.31455383  0.65026772  0.86187830  1
  O  O33  1  0.77546238  0.14581573  0.89490922  1
  O  O34  1  0.81608191  0.65436907  0.37079692  1
  O  O35  1  0.26801680  0.13162374  0.39114622  1
  O  O36  1  0.98759249  0.66286235  0.60896718  1
  O  O37  1  0.45115121  0.13979191  0.63888891  1
  O  O38  1  0.50925186  0.65664492  0.10357366  1
  O  O39  1  0.93274531  0.14052673  0.14073169  1
  O  O40  1  0.55698993  0.63952268  0.62412907  1
  O  O41  1  0.05225505  0.10654750  0.64189135  1
  O  O42  1  0.08813622  0.62185166  0.11026036  1
  O  O43  1  0.52188832  0.11780160  0.15175334  1
  O  O44  1  0.73387081  0.86507553  0.61318611  1
  O  O45  1  0.19983885  0.34750432  0.63231615  1
  O  O46  1  0.24571369  0.85597014  0.11006339  1
  O  O47  1  0.68160476  0.34769091  0.14350850  1
  O  O48  1  0.76083672  0.65906188  0.82472515  1
  O  O49  1  0.23098852  0.12720235  0.84592148  1
  O  O50  1  0.27824790  0.63981540  0.32375233  1
  O  O51  1  0.71343009  0.13117704  0.34812369  1
