# generated using pymatgen
data_CaMg6Cd
_symmetry_space_group_name_H-M   'P 1'
_cell_length_a   6.61242710
_cell_length_b   6.61242652
_cell_length_c   5.20163742
_cell_angle_alpha   90.00000000
_cell_angle_beta   90.00000000
_cell_angle_gamma   119.82567386
_symmetry_Int_Tables_number   1
_chemical_formula_structural   CaMg6Cd
_chemical_formula_sum   'Ca1 Mg6 Cd1'
_cell_volume   197.31162805
_cell_formula_units_Z   1
loop_
 _symmetry_equiv_pos_site_id
 _symmetry_equiv_pos_as_xyz
  1  'x, y, z'
loop_
 _atom_site_type_symbol
 _atom_site_label
 _atom_site_symmetry_multiplicity
 _atom_site_fract_x
 _atom_site_fract_y
 _atom_site_fract_z
 _atom_site_occupancy
  Ca  Ca0  1  0.16904103  0.33095897  0.25000000  1
  Mg  Mg1  1  0.17164581  0.83493247  0.25000000  1
  Mg  Mg2  1  0.66506753  0.32835419  0.25000000  1
  Mg  Mg3  1  0.66399241  0.83600759  0.25000000  1
  Mg  Mg4  1  0.33756212  0.67634466  0.75000000  1
  Mg  Mg5  1  0.82365534  0.16243788  0.75000000  1
  Mg  Mg6  1  0.83304808  0.66695192  0.75000000  1
  Cd  Cd7  1  0.33598768  0.16401232  0.75000000  1
