# generated using pymatgen
data_Mg6AlSn
_symmetry_space_group_name_H-M   'P 1'
_cell_length_a   6.24682776
_cell_length_b   6.35799583
_cell_length_c   5.20439057
_cell_angle_alpha   90.00000000
_cell_angle_beta   90.00000000
_cell_angle_gamma   120.59045667
_symmetry_Int_Tables_number   1
_chemical_formula_structural   Mg6AlSn
_chemical_formula_sum   'Mg6 Al1 Sn1'
_cell_volume   177.93665888
_cell_formula_units_Z   1
loop_
 _symmetry_equiv_pos_site_id
 _symmetry_equiv_pos_as_xyz
  1  'x, y, z'
loop_
 _atom_site_type_symbol
 _atom_site_label
 _atom_site_symmetry_multiplicity
 _atom_site_fract_x
 _atom_site_fract_y
 _atom_site_fract_z
 _atom_site_occupancy
  Mg  Mg0  1  0.66697308  0.33323465  0.25000000  1
  Mg  Mg1  1  0.66697308  0.83373743  0.25000000  1
  Mg  Mg2  1  0.33239773  0.17155730  0.75000000  1
  Mg  Mg3  1  0.33239773  0.66084143  0.75000000  1
  Mg  Mg4  1  0.83763658  0.16881879  0.75000000  1
  Mg  Mg5  1  0.83150054  0.66575077  0.75000000  1
  Al  Al6  1  0.16545237  0.33272568  0.25000000  1
  Sn  Sn7  1  0.16666890  0.83333395  0.25000000  1
