# generated using pymatgen
data_La2Ti2O5
_symmetry_space_group_name_H-M   'P 1'
_cell_length_a   5.52656518
_cell_length_b   5.59613268
_cell_length_c   8.84462166
_cell_angle_alpha   108.44194822
_cell_angle_beta   108.20560452
_cell_angle_gamma   90.00854877
_symmetry_Int_Tables_number   1
_chemical_formula_structural   La2Ti2O5
_chemical_formula_sum   'La4 Ti4 O10'
_cell_volume   245.01189591
_cell_formula_units_Z   2
loop_
 _symmetry_equiv_pos_site_id
 _symmetry_equiv_pos_as_xyz
  1  'x, y, z'
loop_
 _atom_site_type_symbol
 _atom_site_label
 _atom_site_symmetry_multiplicity
 _atom_site_fract_x
 _atom_site_fract_y
 _atom_site_fract_z
 _atom_site_occupancy
  La  La0  1  0.39049920  0.86892467  0.74738864  1
  La  La1  1  0.64341523  0.13120638  0.25268083  1
  La  La2  1  0.89072186  0.37844613  0.74738969  1
  La  La3  1  0.14316450  0.62152331  0.25262468  1
  Ti  Ti4  1  0.01682232  0.99998313  0.00006495  1
  Ti  Ti5  1  0.51677097  0.49997853  0.99998831  1
  Ti  Ti6  1  0.76772619  0.76709423  0.50000174  1
  Ti  Ti7  1  0.26789184  0.23225502  0.49996774  1
  O  O8  1  0.78090237  0.26416560  0.02842965  1
  O  O9  1  0.75226704  0.73572939  0.97128131  1
  O  O10  1  0.28104452  0.26436241  0.02872668  1
  O  O11  1  0.25248251  0.73565498  0.97164998  1
  O  O12  1  0.89049265  0.92567942  0.74636252  1
  O  O13  1  0.14355573  0.07428174  0.25368014  1
  O  O14  1  0.38989922  0.32060469  0.74634051  1
  O  O15  1  0.64406086  0.67936179  0.25361729  1
  O  O16  1  0.02071986  0.50306466  0.49986542  1
  O  O17  1  0.52076513  0.49768190  0.49994292  1
