# generated using pymatgen
data_Mg6GaBi
_symmetry_space_group_name_H-M   'P 1'
_cell_length_a   6.41551257
_cell_length_b   6.41551205
_cell_length_c   5.30616266
_cell_angle_alpha   90.00000000
_cell_angle_beta   90.00000000
_cell_angle_gamma   121.29590671
_symmetry_Int_Tables_number   1
_chemical_formula_structural   Mg6GaBi
_chemical_formula_sum   'Mg6 Ga1 Bi1'
_cell_volume   186.61787922
_cell_formula_units_Z   1
loop_
 _symmetry_equiv_pos_site_id
 _symmetry_equiv_pos_as_xyz
  1  'x, y, z'
loop_
 _atom_site_type_symbol
 _atom_site_label
 _atom_site_symmetry_multiplicity
 _atom_site_fract_x
 _atom_site_fract_y
 _atom_site_fract_z
 _atom_site_occupancy
  Mg  Mg0  1  0.16398247  0.82761140  0.25000000  1
  Mg  Mg1  1  0.67238860  0.33601753  0.25000000  1
  Mg  Mg2  1  0.66830753  0.83169247  0.25000000  1
  Mg  Mg3  1  0.33342274  0.65847949  0.75000000  1
  Mg  Mg4  1  0.84152051  0.16657726  0.75000000  1
  Mg  Mg5  1  0.83206308  0.66793692  0.75000000  1
  Ga  Ga6  1  0.15119882  0.34880118  0.25000000  1
  Bi  Bi7  1  0.33711625  0.16288375  0.75000000  1
