# generated using pymatgen
data_CaMg6Cd
_symmetry_space_group_name_H-M   'P 1'
_cell_length_a   6.65213982
_cell_length_b   6.51496794
_cell_length_c   5.19616647
_cell_angle_alpha   90.00000000
_cell_angle_beta   90.00000000
_cell_angle_gamma   119.32019041
_symmetry_Int_Tables_number   1
_chemical_formula_structural   CaMg6Cd
_chemical_formula_sum   'Ca1 Mg6 Cd1'
_cell_volume   196.34587166
_cell_formula_units_Z   1
loop_
 _symmetry_equiv_pos_site_id
 _symmetry_equiv_pos_as_xyz
  1  'x, y, z'
loop_
 _atom_site_type_symbol
 _atom_site_label
 _atom_site_symmetry_multiplicity
 _atom_site_fract_x
 _atom_site_fract_y
 _atom_site_fract_z
 _atom_site_occupancy
  Ca  Ca0  1  0.16377166  0.33188533  0.25000000  1
  Mg  Mg1  1  0.66418362  0.32752843  0.25000000  1
  Mg  Mg2  1  0.66418362  0.83665419  0.25000000  1
  Mg  Mg3  1  0.33672041  0.16145824  0.75000000  1
  Mg  Mg4  1  0.33672041  0.67526317  0.75000000  1
  Mg  Mg5  1  0.82548847  0.16274474  0.75000000  1
  Mg  Mg6  1  0.83495340  0.66747720  0.75000000  1
  Cd  Cd7  1  0.17397842  0.83698871  0.25000000  1
