# generated using pymatgen
data_MgMn3O6
_symmetry_space_group_name_H-M   'P 1'
_cell_length_a   2.94847237
_cell_length_b   5.17830123
_cell_length_c   7.19415729
_cell_angle_alpha   94.89945712
_cell_angle_beta   101.82203995
_cell_angle_gamma   90.01320650
_symmetry_Int_Tables_number   1
_chemical_formula_structural   MgMn3O6
_chemical_formula_sum   'Mg1 Mn3 O6'
_cell_volume   107.10054581
_cell_formula_units_Z   1
loop_
 _symmetry_equiv_pos_site_id
 _symmetry_equiv_pos_as_xyz
  1  'x, y, z'
loop_
 _atom_site_type_symbol
 _atom_site_label
 _atom_site_symmetry_multiplicity
 _atom_site_fract_x
 _atom_site_fract_y
 _atom_site_fract_z
 _atom_site_occupancy
  Mg  Mg0  1  0.80675106  0.93632454  0.61370903  1
  Mn  Mn1  1  0.00675652  0.99781326  0.01335897  1
  Mn  Mn2  1  0.34458160  0.45095314  0.68964241  1
  Mn  Mn3  1  0.64767848  0.53175887  0.29495332  1
  O  O4  1  0.57286923  0.85431475  0.14553410  1
  O  O5  1  0.41284442  0.11224062  0.82576591  1
  O  O6  1  0.08581035  0.34694809  0.17105264  1
  O  O7  1  0.90330541  0.65290146  0.80706759  1
  O  O8  1  0.23732045  0.71193158  0.47490591  1
  O  O9  1  0.76804449  0.29115269  0.53575612  1
