# generated using pymatgen
data_Na2Zn3S4
_symmetry_space_group_name_H-M   'P 1'
_cell_length_a   6.85549545
_cell_length_b   7.76559039
_cell_length_c   14.13141552
_cell_angle_alpha   90.00000000
_cell_angle_beta   90.00000000
_cell_angle_gamma   90.00000000
_symmetry_Int_Tables_number   1
_chemical_formula_structural   Na2Zn3S4
_chemical_formula_sum   'Na8 Zn12 S16'
_cell_volume   752.31373823
_cell_formula_units_Z   4
loop_
 _symmetry_equiv_pos_site_id
 _symmetry_equiv_pos_as_xyz
  1  'x, y, z'
loop_
 _atom_site_type_symbol
 _atom_site_label
 _atom_site_symmetry_multiplicity
 _atom_site_fract_x
 _atom_site_fract_y
 _atom_site_fract_z
 _atom_site_occupancy
  Na  Na0  1  0.96271144  0.88474331  0.39898563  1
  Na  Na1  1  0.46271144  0.11525669  0.10101437  1
  Na  Na2  1  0.03728856  0.61525669  0.89898563  1
  Na  Na3  1  0.53728856  0.38474331  0.60101437  1
  Na  Na4  1  0.03728856  0.11525669  0.60101437  1
  Na  Na5  1  0.53728856  0.88474331  0.89898563  1
  Na  Na6  1  0.96271144  0.38474331  0.10101437  1
  Na  Na7  1  0.46271144  0.61525669  0.39898563  1
  Zn  Zn8  1  0.78456472  0.65783631  0.70195761  1
  Zn  Zn9  1  0.28456472  0.34216369  0.79804239  1
  Zn  Zn10  1  0.21543528  0.84216369  0.20195761  1
  Zn  Zn11  1  0.71543528  0.15783631  0.29804239  1
  Zn  Zn12  1  0.21543528  0.34216369  0.29804239  1
  Zn  Zn13  1  0.71543528  0.65783631  0.20195761  1
  Zn  Zn14  1  0.78456472  0.15783631  0.79804239  1
  Zn  Zn15  1  0.28456472  0.84216369  0.70195761  1
  Zn  Zn16  1  0.00000000  0.50000000  0.50000000  1
  Zn  Zn17  1  0.50000000  0.50000000  0.00000000  1
  Zn  Zn18  1  0.00000000  -0.00000000  0.00000000  1
  Zn  Zn19  1  0.50000000  -0.00000000  0.50000000  1
  S  S20  1  0.25391530  0.83409336  0.53539677  1
  S  S21  1  0.75391530  0.16590664  0.96460323  1
  S  S22  1  0.74608470  0.66590664  0.03539677  1
  S  S23  1  0.24608470  0.33409336  0.46460323  1
  S  S24  1  0.74608470  0.16590664  0.46460323  1
  S  S25  1  0.24608470  0.83409336  0.03539677  1
  S  S26  1  0.25391530  0.33409336  0.96460323  1
  S  S27  1  0.75391530  0.66590664  0.53539677  1
  S  S28  1  0.03595297  0.61603649  0.26885599  1
  S  S29  1  0.53595297  0.38396351  0.23114401  1
  S  S30  1  0.96404703  0.88396351  0.76885599  1
  S  S31  1  0.46404703  0.11603649  0.73114401  1
  S  S32  1  0.96404703  0.38396351  0.73114401  1
  S  S33  1  0.46404703  0.61603649  0.76885599  1
  S  S34  1  0.03595297  0.11603649  0.23114401  1
  S  S35  1  0.53595297  0.88396351  0.26885599  1
