# generated using pymatgen
data_YMg6Sn
_symmetry_space_group_name_H-M   'P 1'
_cell_length_a   6.67356234
_cell_length_b   6.32133238
_cell_length_c   5.19164067
_cell_angle_alpha   90.00000000
_cell_angle_beta   90.00000000
_cell_angle_gamma   118.26889468
_symmetry_Int_Tables_number   1
_chemical_formula_structural   YMg6Sn
_chemical_formula_sum   'Y1 Mg6 Sn1'
_cell_volume   192.89280686
_cell_formula_units_Z   1
loop_
 _symmetry_equiv_pos_site_id
 _symmetry_equiv_pos_as_xyz
  1  'x, y, z'
loop_
 _atom_site_type_symbol
 _atom_site_label
 _atom_site_symmetry_multiplicity
 _atom_site_fract_x
 _atom_site_fract_y
 _atom_site_fract_z
 _atom_site_occupancy
  Y  Y0  1  0.15271733  0.32635817  0.25000000  1
  Mg  Mg1  1  0.65825265  0.32903265  0.25000000  1
  Mg  Mg2  1  0.65825265  0.82921901  0.25000000  1
  Mg  Mg3  1  0.35106675  0.17869665  0.75000000  1
  Mg  Mg4  1  0.35106675  0.67237110  0.75000000  1
  Mg  Mg5  1  0.82744794  0.16372447  0.75000000  1
  Mg  Mg6  1  0.83521870  0.66760985  0.75000000  1
  Sn  Sn7  1  0.16597722  0.83298811  0.25000000  1
