# generated using pymatgen
data_Eu2Ni2O5
_symmetry_space_group_name_H-M   'P 1'
_cell_length_a   5.38016201
_cell_length_b   5.66372520
_cell_length_c   8.66217636
_cell_angle_alpha   109.08987156
_cell_angle_beta   107.74734279
_cell_angle_gamma   89.85463321
_symmetry_Int_Tables_number   1
_chemical_formula_structural   Eu2Ni2O5
_chemical_formula_sum   'Eu4 Ni4 O10'
_cell_volume   236.17736302
_cell_formula_units_Z   2
loop_
 _symmetry_equiv_pos_site_id
 _symmetry_equiv_pos_as_xyz
  1  'x, y, z'
loop_
 _atom_site_type_symbol
 _atom_site_label
 _atom_site_symmetry_multiplicity
 _atom_site_fract_x
 _atom_site_fract_y
 _atom_site_fract_z
 _atom_site_occupancy
  Eu  Eu0  1  0.40012196  0.91229352  0.78379162  1
  Eu  Eu1  1  0.61349930  0.08719446  0.21727397  1
  Eu  Eu2  1  0.89790431  0.36967616  0.78226097  1
  Eu  Eu3  1  0.11312856  0.62756327  0.21622133  1
  Ni  Ni4  1  0.99494530  0.99863589  0.99330710  1
  Ni  Ni5  1  0.50060015  0.50471918  0.00541453  1
  Ni  Ni6  1  0.78989906  0.68786327  0.49965587  1
  Ni  Ni7  1  0.29368402  0.31799961  0.49970844  1
  O  O8  1  0.76491587  0.26882501  0.02680305  1
  O  O9  1  0.73866179  0.73376411  0.97422453  1
  O  O10  1  0.26461460  0.25883490  0.02570019  1
  O  O11  1  0.23715216  0.73988265  0.97335761  1
  O  O12  1  0.83977660  0.93245008  0.72709904  1
  O  O13  1  0.11639161  0.07814488  0.28933544  1
  O  O14  1  0.32814147  0.28684094  0.71098736  1
  O  O15  1  0.61031600  0.70418715  0.27269651  1
  O  O16  1  0.16359734  0.62899839  0.50241051  1
  O  O17  1  0.64585189  0.36212452  0.49975291  1
