# generated using pymatgen
data_Te2MoW3(Se2S)2
_symmetry_space_group_name_H-M   'P 1'
_cell_length_a   3.34483074
_cell_length_b   3.34484498
_cell_length_c   38.12653789
_cell_angle_alpha   89.99969947
_cell_angle_beta   90.00000000
_cell_angle_gamma   119.99985913
_symmetry_Int_Tables_number   1
_chemical_formula_structural   Te2MoW3(Se2S)2
_chemical_formula_sum   'Te2 Mo1 W3 Se4 S2'
_cell_volume   369.41009551
_cell_formula_units_Z   1
loop_
 _symmetry_equiv_pos_site_id
 _symmetry_equiv_pos_as_xyz
  1  'x, y, z'
loop_
 _atom_site_type_symbol
 _atom_site_label
 _atom_site_symmetry_multiplicity
 _atom_site_fract_x
 _atom_site_fract_y
 _atom_site_fract_z
 _atom_site_occupancy
  Te  Te0  1  0.33335012  0.66670123  0.33175386  1
  Te  Te1  1  0.33335255  0.66670611  0.23172125  1
  Mo  Mo2  1  0.33329137  0.66658274  0.09392407  1
  W  W3  1  0.33331303  0.66662606  0.46972546  1
  W  W4  1  0.66668740  0.33337481  0.28177857  1
  W  W5  1  0.66669249  0.33338498  0.65754127  1
  Se  Se6  1  0.33335711  0.66671522  0.70148572  1
  Se  Se7  1  0.66665032  0.33329965  0.42574786  1
  Se  Se8  1  0.66664389  0.33328678  0.51364646  1
  Se  Se9  1  0.33336320  0.66672740  0.61358747  1
  S  S10  1  0.66665110  0.33330120  0.05414665  1
  S  S11  1  0.66664742  0.33329384  0.13368936  1
