# generated using pymatgen
data_TeMoWSe2S
_symmetry_space_group_name_H-M   'P 1'
_cell_length_a   3.34549955
_cell_length_b   3.34571318
_cell_length_c   38.12488406
_cell_angle_alpha   90.00019898
_cell_angle_beta   89.99999971
_cell_angle_gamma   119.99899615
_symmetry_Int_Tables_number   1
_chemical_formula_structural   TeMoWSe2S
_chemical_formula_sum   'Te2 Mo2 W2 Se4 S2'
_cell_volume   369.56704705
_cell_formula_units_Z   2
loop_
 _symmetry_equiv_pos_site_id
 _symmetry_equiv_pos_as_xyz
  1  'x, y, z'
loop_
 _atom_site_type_symbol
 _atom_site_label
 _atom_site_symmetry_multiplicity
 _atom_site_fract_x
 _atom_site_fract_y
 _atom_site_fract_z
 _atom_site_occupancy
  Te  Te0  1  0.33335878  0.66671742  0.70762593  1
  Te  Te1  1  0.33335486  0.66670956  0.60752388  1
  Mo  Mo2  1  0.33331550  0.66662967  0.09391484  1
  Mo  Mo3  1  0.66671379  0.33340371  0.28179441  1
  W  W4  1  0.33331283  0.66662438  0.46961666  1
  W  W5  1  0.66668915  0.33337840  0.65759259  1
  Se  Se6  1  0.66664417  0.33328724  0.05018572  1
  Se  Se7  1  0.66664394  0.33328689  0.42566910  1
  Se  Se8  1  0.66664975  0.33329850  0.13765863  1
  Se  Se9  1  0.66663876  0.33327652  0.51357627  1
  S  S10  1  0.33333787  0.66669109  0.32159687  1
  S  S11  1  0.33334059  0.66669662  0.24199310  1
