# generated using pymatgen
data_Mg14TiBi
_symmetry_space_group_name_H-M   'P 1'
_cell_length_a   6.37211088
_cell_length_b   6.37211036
_cell_length_c   10.41139335
_cell_angle_alpha   90.00000000
_cell_angle_beta   90.00000000
_cell_angle_gamma   120.00000269
_symmetry_Int_Tables_number   1
_chemical_formula_structural   Mg14TiBi
_chemical_formula_sum   'Mg14 Ti1 Bi1'
_cell_volume   366.10536059
_cell_formula_units_Z   1
loop_
 _symmetry_equiv_pos_site_id
 _symmetry_equiv_pos_as_xyz
  1  'x, y, z'
loop_
 _atom_site_type_symbol
 _atom_site_label
 _atom_site_symmetry_multiplicity
 _atom_site_fract_x
 _atom_site_fract_y
 _atom_site_fract_z
 _atom_site_occupancy
  Mg  Mg0  1  0.16826855  0.83413378  0.12500000  1
  Mg  Mg1  1  0.16471142  0.83235521  0.62500000  1
  Mg  Mg2  1  0.66586622  0.33173145  0.12500000  1
  Mg  Mg3  1  0.66764479  0.33528858  0.62500000  1
  Mg  Mg4  1  0.66586622  0.83413378  0.12500000  1
  Mg  Mg5  1  0.66764479  0.83235521  0.62500000  1
  Mg  Mg6  1  0.33234135  0.16765865  0.36724218  1
  Mg  Mg7  1  0.33234135  0.16765865  0.88275782  1
  Mg  Mg8  1  0.33234135  0.66468369  0.36724218  1
  Mg  Mg9  1  0.33234135  0.66468369  0.88275782  1
  Mg  Mg10  1  0.83531631  0.16765865  0.36724218  1
  Mg  Mg11  1  0.83531631  0.16765865  0.88275782  1
  Mg  Mg12  1  0.83333300  0.66666700  0.37260679  1
  Mg  Mg13  1  0.83333300  0.66666700  0.87739321  1
  Ti  Ti14  1  0.16666700  0.33333300  0.12500000  1
  Bi  Bi15  1  0.16666700  0.33333300  0.62500000  1
