# generated using pymatgen
data_Te2MoW3(Se2S)2
_symmetry_space_group_name_H-M   'P 1'
_cell_length_a   3.34483021
_cell_length_b   3.34471388
_cell_length_c   38.12580497
_cell_angle_alpha   90.00027308
_cell_angle_beta   90.00000000
_cell_angle_gamma   120.00115065
_symmetry_Int_Tables_number   1
_chemical_formula_structural   Te2MoW3(Se2S)2
_chemical_formula_sum   'Te2 Mo1 W3 Se4 S2'
_cell_volume   369.38364889
_cell_formula_units_Z   1
loop_
 _symmetry_equiv_pos_site_id
 _symmetry_equiv_pos_as_xyz
  1  'x, y, z'
loop_
 _atom_site_type_symbol
 _atom_site_label
 _atom_site_symmetry_multiplicity
 _atom_site_fract_x
 _atom_site_fract_y
 _atom_site_fract_z
 _atom_site_occupancy
  Te  Te0  1  0.33335622  0.66671345  0.70757778  1
  Te  Te1  1  0.33335076  0.66670252  0.60756586  1
  Mo  Mo2  1  0.33333126  0.66666253  0.09392714  1
  W  W3  1  0.33331043  0.66662085  0.46963266  1
  W  W4  1  0.66669255  0.33338511  0.28179121  1
  W  W5  1  0.66668924  0.33337848  0.65759686  1
  Se  Se6  1  0.33336323  0.66672745  0.32574966  1
  Se  Se7  1  0.66664340  0.33328579  0.42566007  1
  Se  Se8  1  0.66665033  0.33329966  0.51359834  1
  Se  Se9  1  0.33334895  0.66669889  0.23779982  1
  S  S10  1  0.66662873  0.33325646  0.05418131  1
  S  S11  1  0.66663491  0.33326881  0.13366730  1
