# generated using pymatgen
data_TeMoS
_symmetry_space_group_name_H-M   'P 1'
_cell_length_a   3.36168479
_cell_length_b   3.36194529
_cell_length_c   39.73002716
_cell_angle_alpha   90.00019212
_cell_angle_beta   90.00000000
_cell_angle_gamma   119.99743695
_symmetry_Int_Tables_number   1
_chemical_formula_structural   TeMoS
_chemical_formula_sum   'Te4 Mo4 S4'
_cell_volume   388.87349241
_cell_formula_units_Z   4
loop_
 _symmetry_equiv_pos_site_id
 _symmetry_equiv_pos_as_xyz
  1  'x, y, z'
loop_
 _atom_site_type_symbol
 _atom_site_label
 _atom_site_symmetry_multiplicity
 _atom_site_fract_x
 _atom_site_fract_y
 _atom_site_fract_z
 _atom_site_occupancy
  Te  Te0  1  0.33333366  0.66666832  0.70681719  1
  Te  Te1  1  0.66669462  0.33338825  0.42035163  1
  Te  Te2  1  0.66663369  0.33326639  0.51544555  1
  Te  Te3  1  0.33328740  0.66657579  0.61186378  1
  Mo  Mo4  1  0.33339927  0.66679853  0.09396586  1
  Mo  Mo5  1  0.33336031  0.66672061  0.46792267  1
  Mo  Mo6  1  0.66670195  0.33340389  0.28169545  1
  Mo  Mo7  1  0.66662092  0.33324185  0.65937676  1
  S  S8  1  0.33336142  0.66672384  0.31979396  1
  S  S9  1  0.66662116  0.33324132  0.05584654  1
  S  S10  1  0.66665148  0.33330195  0.13207979  1
  S  S11  1  0.33333413  0.66666926  0.24358883  1
