# generated using pymatgen
data_Te4Mo3WS4
_symmetry_space_group_name_H-M   'P 1'
_cell_length_a   3.35550681
_cell_length_b   3.35535674
_cell_length_c   39.75299501
_cell_angle_alpha   90.00079752
_cell_angle_beta   90.00000000
_cell_angle_gamma   120.00147962
_symmetry_Int_Tables_number   1
_chemical_formula_structural   Te4Mo3WS4
_chemical_formula_sum   'Te4 Mo3 W1 S4'
_cell_volume   387.60630779
_cell_formula_units_Z   1
loop_
 _symmetry_equiv_pos_site_id
 _symmetry_equiv_pos_as_xyz
  1  'x, y, z'
loop_
 _atom_site_type_symbol
 _atom_site_label
 _atom_site_symmetry_multiplicity
 _atom_site_fract_x
 _atom_site_fract_y
 _atom_site_fract_z
 _atom_site_occupancy
  Te  Te0  1  0.33335403  0.66670906  0.70677884  1
  Te  Te1  1  0.66668679  0.33337259  0.42063896  1
  Te  Te2  1  0.66667919  0.33335738  0.51577218  1
  Te  Te3  1  0.33334124  0.66668347  0.61165999  1
  Mo  Mo4  1  0.33326960  0.66653921  0.09398358  1
  Mo  Mo5  1  0.33333985  0.66667970  0.46814657  1
  Mo  Mo6  1  0.66669397  0.33338794  0.65924615  1
  W  W7  1  0.66668642  0.33337283  0.28150629  1
  S  S8  1  0.33335241  0.66670582  0.31973181  1
  S  S9  1  0.66662459  0.33324818  0.05593223  1
  S  S10  1  0.66662820  0.33325541  0.13204249  1
  S  S11  1  0.33334370  0.66668840  0.24330890  1
