# generated using pymatgen
data_TeMoWSe2S
_symmetry_space_group_name_H-M   'P 1'
_cell_length_a   3.34658085
_cell_length_b   3.34655911
_cell_length_c   38.10739707
_cell_angle_alpha   89.99982885
_cell_angle_beta   90.00000000
_cell_angle_gamma   120.00021496
_symmetry_Int_Tables_number   1
_chemical_formula_structural   TeMoWSe2S
_chemical_formula_sum   'Te2 Mo2 W2 Se4 S2'
_cell_volume   369.60581777
_cell_formula_units_Z   2
loop_
 _symmetry_equiv_pos_site_id
 _symmetry_equiv_pos_as_xyz
  1  'x, y, z'
loop_
 _atom_site_type_symbol
 _atom_site_label
 _atom_site_symmetry_multiplicity
 _atom_site_fract_x
 _atom_site_fract_y
 _atom_site_fract_z
 _atom_site_occupancy
  Te  Te0  1  0.33335268  0.66670636  0.70761958  1
  Te  Te1  1  0.33335270  0.66670640  0.60750808  1
  Mo  Mo2  1  0.33332686  0.66665371  0.09393362  1
  Mo  Mo3  1  0.33331419  0.66662837  0.46961741  1
  W  W4  1  0.66669121  0.33338243  0.28179378  1
  W  W5  1  0.66669296  0.33338592  0.65757899  1
  Se  Se6  1  0.33335144  0.66670388  0.32575083  1
  Se  Se7  1  0.66664619  0.33329137  0.42589212  1
  Se  Se8  1  0.66664802  0.33329504  0.51337220  1
  Se  Se9  1  0.33335124  0.66670349  0.23781825  1
  S  S10  1  0.66664069  0.33328037  0.05413596  1
  S  S11  1  0.66663183  0.33326265  0.13372718  1
