# generated using pymatgen
data_Te4Mo3WS4
_symmetry_space_group_name_H-M   'P 1'
_cell_length_a   3.35669009
_cell_length_b   3.35678829
_cell_length_c   38.31488338
_cell_angle_alpha   90.00011600
_cell_angle_beta   90.00000000
_cell_angle_gamma   119.99903237
_symmetry_Int_Tables_number   1
_chemical_formula_structural   Te4Mo3WS4
_chemical_formula_sum   'Te4 Mo3 W1 S4'
_cell_volume   373.88459565
_cell_formula_units_Z   1
loop_
 _symmetry_equiv_pos_site_id
 _symmetry_equiv_pos_as_xyz
  1  'x, y, z'
loop_
 _atom_site_type_symbol
 _atom_site_label
 _atom_site_symmetry_multiplicity
 _atom_site_fract_x
 _atom_site_fract_y
 _atom_site_fract_z
 _atom_site_occupancy
  Te  Te0  1  0.33335365  0.66670830  0.33122189  1
  Te  Te1  1  0.33335757  0.66671614  0.70693883  1
  Te  Te2  1  0.33334791  0.66669683  0.23233627  1
  Te  Te3  1  0.33336452  0.66673003  0.60814807  1
  Mo  Mo4  1  0.33329732  0.66659463  0.09391523  1
  Mo  Mo5  1  0.66668487  0.33336973  0.28178830  1
  Mo  Mo6  1  0.66669462  0.33338924  0.65755954  1
  W  W7  1  0.33330682  0.66661365  0.46967230  1
  S  S8  1  0.66665366  0.33330632  0.05441098  1
  S  S9  1  0.66664515  0.33328930  0.43003448  1
  S  S10  1  0.66665508  0.33330917  0.13342240  1
  S  S11  1  0.66663883  0.33327667  0.50929972  1
