# generated using pymatgen
data_Te2Mo3W(Se2S)2
_symmetry_space_group_name_H-M   'P 1'
_cell_length_a   3.34684612
_cell_length_b   3.34687004
_cell_length_c   38.08036010
_cell_angle_alpha   90.00011362
_cell_angle_beta   90.00000000
_cell_angle_gamma   119.99976360
_symmetry_Int_Tables_number   1
_chemical_formula_structural   Te2Mo3W(Se2S)2
_chemical_formula_sum   'Te2 Mo3 W1 Se4 S2'
_cell_volume   369.40885904
_cell_formula_units_Z   1
loop_
 _symmetry_equiv_pos_site_id
 _symmetry_equiv_pos_as_xyz
  1  'x, y, z'
loop_
 _atom_site_type_symbol
 _atom_site_label
 _atom_site_symmetry_multiplicity
 _atom_site_fract_x
 _atom_site_fract_y
 _atom_site_fract_z
 _atom_site_occupancy
  Te  Te0  1  0.33335937  0.66671974  0.70764311  1
  Te  Te1  1  0.33335762  0.66671624  0.60749579  1
  Mo  Mo2  1  0.33330569  0.66661137  0.09393092  1
  Mo  Mo3  1  0.33331238  0.66662477  0.46962352  1
  Mo  Mo4  1  0.66668888  0.33337777  0.28178672  1
  W  W5  1  0.66669324  0.33338649  0.65759382  1
  Se  Se6  1  0.33335003  0.66670106  0.32556714  1
  Se  Se7  1  0.66664750  0.33329400  0.42584200  1
  Se  Se8  1  0.66664945  0.33329790  0.51341141  1
  Se  Se9  1  0.33334891  0.66669882  0.23799493  1
  S  S10  1  0.66664728  0.33329356  0.05408278  1
  S  S11  1  0.66663964  0.33327829  0.13377586  1
