# generated using pymatgen
data_TeMoWSe2S
_symmetry_space_group_name_H-M   'P 1'
_cell_length_a   3.34565104
_cell_length_b   3.34564911
_cell_length_c   38.11494282
_cell_angle_alpha   89.99979034
_cell_angle_beta   90.00000000
_cell_angle_gamma   120.00001912
_symmetry_Int_Tables_number   1
_chemical_formula_structural   TeMoWSe2S
_chemical_formula_sum   'Te2 Mo2 W2 Se4 S2'
_cell_volume   369.47652599
_cell_formula_units_Z   2
loop_
 _symmetry_equiv_pos_site_id
 _symmetry_equiv_pos_as_xyz
  1  'x, y, z'
loop_
 _atom_site_type_symbol
 _atom_site_label
 _atom_site_symmetry_multiplicity
 _atom_site_fract_x
 _atom_site_fract_y
 _atom_site_fract_z
 _atom_site_occupancy
  Te  Te0  1  0.33336377  0.66672853  0.70762375  1
  Te  Te1  1  0.33335670  0.66671440  0.60754093  1
  Mo  Mo2  1  0.33331915  0.66663831  0.09392804  1
  Mo  Mo3  1  0.66668995  0.33337990  0.28177219  1
  W  W4  1  0.33330832  0.66661663  0.46962535  1
  W  W5  1  0.66669052  0.33338105  0.65760347  1
  Se  Se6  1  0.33335366  0.66670832  0.32552573  1
  Se  Se7  1  0.66664926  0.33329752  0.42565174  1
  Se  Se8  1  0.66664588  0.33329077  0.51360757  1
  Se  Se9  1  0.33334775  0.66669649  0.23801170  1
  S  S10  1  0.66663897  0.33327693  0.05413892  1
  S  S11  1  0.66663607  0.33327114  0.13371861  1
