# generated using pymatgen
data_Te4Mo3WS4
_symmetry_space_group_name_H-M   'P 1'
_cell_length_a   3.35796162
_cell_length_b   3.35800196
_cell_length_c   40.34375543
_cell_angle_alpha   90.00430031
_cell_angle_beta   90.00000000
_cell_angle_gamma   119.99960266
_symmetry_Int_Tables_number   1
_chemical_formula_structural   Te4Mo3WS4
_chemical_formula_sum   'Te4 Mo3 W1 S4'
_cell_volume   393.97200619
_cell_formula_units_Z   1
loop_
 _symmetry_equiv_pos_site_id
 _symmetry_equiv_pos_as_xyz
  1  'x, y, z'
loop_
 _atom_site_type_symbol
 _atom_site_label
 _atom_site_symmetry_multiplicity
 _atom_site_fract_x
 _atom_site_fract_y
 _atom_site_fract_z
 _atom_site_occupancy
  Te  Te0  1  0.33340615  0.66681331  0.32687349  1
  Te  Te1  1  0.66662537  0.33324975  0.42449992  1
  Te  Te2  1  0.66667167  0.33334233  0.51815907  1
  Te  Te3  1  0.33329315  0.66658729  0.23314998  1
  Mo  Mo4  1  0.33336698  0.66673395  0.09373099  1
  Mo  Mo5  1  0.33332694  0.66665387  0.47134801  1
  Mo  Mo6  1  0.66667940  0.33335880  0.28001670  1
  W  W7  1  0.66664167  0.33328335  0.65782559  1
  S  S8  1  0.33332946  0.66665992  0.69546079  1
  S  S9  1  0.66667187  0.33334274  0.05622590  1
  S  S10  1  0.66669971  0.33339842  0.13129169  1
  S  S11  1  0.33328763  0.66657626  0.62016587  1
