# generated using pymatgen
data_Te6MoW3S2
_symmetry_space_group_name_H-M   'P 1'
_cell_length_a   3.45761523
_cell_length_b   3.45762223
_cell_length_c   39.34071101
_cell_angle_alpha   90.00081176
_cell_angle_beta   89.99996643
_cell_angle_gamma   119.99994233
_symmetry_Int_Tables_number   1
_chemical_formula_structural   Te6MoW3S2
_chemical_formula_sum   'Te6 Mo1 W3 S2'
_cell_volume   407.31208262
_cell_formula_units_Z   1
loop_
 _symmetry_equiv_pos_site_id
 _symmetry_equiv_pos_as_xyz
  1  'x, y, z'
loop_
 _atom_site_type_symbol
 _atom_site_label
 _atom_site_symmetry_multiplicity
 _atom_site_fract_x
 _atom_site_fract_y
 _atom_site_fract_z
 _atom_site_occupancy
  Te  Te0  1  0.33337561  0.66675469  0.32893059  1
  Te  Te1  1  0.33335734  0.66671507  0.70475058  1
  Te  Te2  1  0.66663728  0.33327312  0.04654471  1
  Te  Te3  1  0.66664596  0.33329156  0.14105460  1
  Te  Te4  1  0.33335650  0.66671392  0.23494902  1
  Te  Te5  1  0.33334304  0.66668555  0.61031043  1
  Mo  Mo6  1  0.66669436  0.33339117  0.28196569  1
  W  W7  1  0.33330143  0.66660178  0.09376952  1
  W  W8  1  0.33331211  0.66662307  0.46964212  1
  W  W9  1  0.66668114  0.33336229  0.65754303  1
  S  S10  1  0.66664530  0.33328885  0.43181176  1
  S  S11  1  0.66664994  0.33329891  0.50747596  1
