# generated using pymatgen
data_Mg14ZnNi
_symmetry_space_group_name_H-M   'P 1'
_cell_length_a   6.25921198
_cell_length_b   6.25921148
_cell_length_c   9.79587569
_cell_angle_alpha   90.00000000
_cell_angle_beta   90.00000000
_cell_angle_gamma   120.00000262
_symmetry_Int_Tables_number   1
_chemical_formula_structural   Mg14ZnNi
_chemical_formula_sum   'Mg14 Zn1 Ni1'
_cell_volume   332.36338322
_cell_formula_units_Z   1
loop_
 _symmetry_equiv_pos_site_id
 _symmetry_equiv_pos_as_xyz
  1  'x, y, z'
loop_
 _atom_site_type_symbol
 _atom_site_label
 _atom_site_symmetry_multiplicity
 _atom_site_fract_x
 _atom_site_fract_y
 _atom_site_fract_z
 _atom_site_occupancy
  Mg  Mg0  1  0.16646326  0.83323113  0.12500000  1
  Mg  Mg1  1  0.16425678  0.83212789  0.62500000  1
  Mg  Mg2  1  0.66676887  0.33353674  0.12500000  1
  Mg  Mg3  1  0.66787211  0.33574322  0.62500000  1
  Mg  Mg4  1  0.66676887  0.83323113  0.12500000  1
  Mg  Mg5  1  0.66787211  0.83212789  0.62500000  1
  Mg  Mg6  1  0.32606895  0.17393105  0.37971437  1
  Mg  Mg7  1  0.32606895  0.17393105  0.87028563  1
  Mg  Mg8  1  0.32606895  0.65213891  0.37971437  1
  Mg  Mg9  1  0.32606895  0.65213891  0.87028563  1
  Mg  Mg10  1  0.84786109  0.17393105  0.37971437  1
  Mg  Mg11  1  0.84786109  0.17393105  0.87028563  1
  Mg  Mg12  1  0.83333300  0.66666700  0.37343234  1
  Mg  Mg13  1  0.83333300  0.66666700  0.87656766  1
  Zn  Zn14  1  0.16666700  0.33333300  0.12500000  1
  Ni  Ni15  1  0.16666700  0.33333300  0.62500000  1
