# generated using pymatgen
data_Te6MoW3S2
_symmetry_space_group_name_H-M   'P 1'
_cell_length_a   3.45158979
_cell_length_b   3.45159423
_cell_length_c   39.41352445
_cell_angle_alpha   89.99981127
_cell_angle_beta   90.00000000
_cell_angle_gamma   119.99995759
_symmetry_Int_Tables_number   1
_chemical_formula_structural   Te6MoW3S2
_chemical_formula_sum   'Te6 Mo1 W3 S2'
_cell_volume   406.64459006
_cell_formula_units_Z   1
loop_
 _symmetry_equiv_pos_site_id
 _symmetry_equiv_pos_as_xyz
  1  'x, y, z'
loop_
 _atom_site_type_symbol
 _atom_site_label
 _atom_site_symmetry_multiplicity
 _atom_site_fract_x
 _atom_site_fract_y
 _atom_site_fract_z
 _atom_site_occupancy
  Te  Te0  1  0.33334947  0.66669994  0.32898358  1
  Te  Te1  1  0.33335162  0.66670425  0.70479209  1
  Te  Te2  1  0.66664767  0.33329435  0.42269539  1
  Te  Te3  1  0.66664578  0.33329056  0.51660729  1
  Te  Te4  1  0.33336224  0.66672548  0.23450301  1
  Te  Te5  1  0.33335562  0.66671224  0.61034055  1
  Mo  Mo6  1  0.33331049  0.66662098  0.46967609  1
  W  W7  1  0.33331117  0.66662234  0.09393359  1
  W  W8  1  0.66668941  0.33337882  0.28175122  1
  W  W9  1  0.66668653  0.33337307  0.65759121  1
  S  S10  1  0.66664658  0.33329216  0.05603104  1
  S  S11  1  0.66664341  0.33328583  0.13184293  1
