# generated using pymatgen
data_TeMoWSe2S
_symmetry_space_group_name_H-M   'P 1'
_cell_length_a   3.34620670
_cell_length_b   3.34622930
_cell_length_c   38.08755124
_cell_angle_alpha   90.00019346
_cell_angle_beta   90.00000000
_cell_angle_gamma   119.99977654
_symmetry_Int_Tables_number   1
_chemical_formula_structural   TeMoWSe2S
_chemical_formula_sum   'Te2 Mo2 W2 Se4 S2'
_cell_volume   369.33726069
_cell_formula_units_Z   2
loop_
 _symmetry_equiv_pos_site_id
 _symmetry_equiv_pos_as_xyz
  1  'x, y, z'
loop_
 _atom_site_type_symbol
 _atom_site_label
 _atom_site_symmetry_multiplicity
 _atom_site_fract_x
 _atom_site_fract_y
 _atom_site_fract_z
 _atom_site_occupancy
  Te  Te0  1  0.33335393  0.66670886  0.70763206  1
  Te  Te1  1  0.33334932  0.66669964  0.60751323  1
  Mo  Mo2  1  0.33330783  0.66661566  0.46962707  1
  Mo  Mo3  1  0.66670316  0.33340633  0.28179828  1
  W  W4  1  0.33330802  0.66661605  0.09391354  1
  W  W5  1  0.66668810  0.33337621  0.65760117  1
  Se  Se6  1  0.66664287  0.33328473  0.04993111  1
  Se  Se7  1  0.66664604  0.33329107  0.42585492  1
  Se  Se8  1  0.66664867  0.33329634  0.13790768  1
  Se  Se9  1  0.66664290  0.33328480  0.51338521  1
  S  S10  1  0.33335307  0.66670714  0.32161622  1
  S  S11  1  0.33335608  0.66671316  0.24196751  1
