# generated using pymatgen
data_Te2MoW3(Se2S)2
_symmetry_space_group_name_H-M   'P 1'
_cell_length_a   3.34476080
_cell_length_b   3.34473325
_cell_length_c   38.10734284
_cell_angle_alpha   89.99977416
_cell_angle_beta   90.00000000
_cell_angle_gamma   120.00027248
_symmetry_Int_Tables_number   1
_chemical_formula_structural   Te2MoW3(Se2S)2
_chemical_formula_sum   'Te2 Mo1 W3 Se4 S2'
_cell_volume   369.20252173
_cell_formula_units_Z   1
loop_
 _symmetry_equiv_pos_site_id
 _symmetry_equiv_pos_as_xyz
  1  'x, y, z'
loop_
 _atom_site_type_symbol
 _atom_site_label
 _atom_site_symmetry_multiplicity
 _atom_site_fract_x
 _atom_site_fract_y
 _atom_site_fract_z
 _atom_site_occupancy
  Te  Te0  1  0.66664770  0.33329440  0.41954886  1
  Te  Te1  1  0.66664831  0.33329562  0.51969299  1
  Mo  Mo2  1  0.66667321  0.33334642  0.28178814  1
  W  W3  1  0.33330909  0.66661817  0.09391698  1
  W  W4  1  0.33331106  0.66662213  0.46962705  1
  W  W5  1  0.66668636  0.33337271  0.65758604  1
  Se  Se6  1  0.33334838  0.66669777  0.70148876  1
  Se  Se7  1  0.66664615  0.33329131  0.05000626  1
  Se  Se8  1  0.66664003  0.33327906  0.13784361  1
  Se  Se9  1  0.33335664  0.66671427  0.61365831  1
  S  S10  1  0.33336461  0.66673022  0.32160927  1
  S  S11  1  0.33336846  0.66673792  0.24198172  1
