# generated using pymatgen
data_Te2MoWSeS
_symmetry_space_group_name_H-M   'P 1'
_cell_length_a   3.39539765
_cell_length_b   3.39539467
_cell_length_c   39.92691662
_cell_angle_alpha   89.99769903
_cell_angle_beta   90.00000000
_cell_angle_gamma   120.00002910
_symmetry_Int_Tables_number   1
_chemical_formula_structural   Te2MoWSeS
_chemical_formula_sum   'Te4 Mo2 W2 Se2 S2'
_cell_volume   398.63661232
_cell_formula_units_Z   2
loop_
 _symmetry_equiv_pos_site_id
 _symmetry_equiv_pos_as_xyz
  1  'x, y, z'
loop_
 _atom_site_type_symbol
 _atom_site_label
 _atom_site_symmetry_multiplicity
 _atom_site_fract_x
 _atom_site_fract_y
 _atom_site_fract_z
 _atom_site_occupancy
  Te  Te0  1  0.33334167  0.66668434  0.32830231  1
  Te  Te1  1  0.66667760  0.33335420  0.42361209  1
  Te  Te2  1  0.66665064  0.33330028  0.51746752  1
  Te  Te3  1  0.33336841  0.66673782  0.23389075  1
  Mo  Mo4  1  0.33327884  0.66655769  0.09366398  1
  Mo  Mo5  1  0.33332865  0.66665729  0.47055184  1
  W  W6  1  0.66669222  0.33338444  0.28108105  1
  W  W7  1  0.66669738  0.33339477  0.65761492  1
  Se  Se8  1  0.66663721  0.33327341  0.05235740  1
  Se  Se9  1  0.66660239  0.33320377  0.13498680  1
  S  S10  1  0.33335995  0.66672090  0.69534833  1
  S  S11  1  0.33336505  0.66673110  0.61987102  1
