# generated using pymatgen
data_Te2MoW3(Se2S)2
_symmetry_space_group_name_H-M   'P 1'
_cell_length_a   3.34538061
_cell_length_b   3.34536222
_cell_length_c   38.12395770
_cell_angle_alpha   89.99997134
_cell_angle_beta   90.00000000
_cell_angle_gamma   120.00018191
_symmetry_Int_Tables_number   1
_chemical_formula_structural   Te2MoW3(Se2S)2
_chemical_formula_sum   'Te2 Mo1 W3 Se4 S2'
_cell_volume   369.50174906
_cell_formula_units_Z   1
loop_
 _symmetry_equiv_pos_site_id
 _symmetry_equiv_pos_as_xyz
  1  'x, y, z'
loop_
 _atom_site_type_symbol
 _atom_site_label
 _atom_site_symmetry_multiplicity
 _atom_site_fract_x
 _atom_site_fract_y
 _atom_site_fract_z
 _atom_site_occupancy
  Te  Te0  1  0.33335074  0.66670248  0.70760480  1
  Te  Te1  1  0.33335503  0.66671106  0.60755338  1
  Mo  Mo2  1  0.66667249  0.33334497  0.28178726  1
  W  W3  1  0.33331178  0.66662356  0.09391159  1
  W  W4  1  0.33330780  0.66661561  0.46962225  1
  W  W5  1  0.66668831  0.33337661  0.65760773  1
  Se  Se6  1  0.66664731  0.33329362  0.04997284  1
  Se  Se7  1  0.66663449  0.33326798  0.42567697  1
  Se  Se8  1  0.66664727  0.33329354  0.13785904  1
  Se  Se9  1  0.66664880  0.33329660  0.51357801  1
  S  S10  1  0.33336760  0.66673620  0.32158320  1
  S  S11  1  0.33336839  0.66673777  0.24199092  1
