# generated using pymatgen
data_SrCeMg14
_symmetry_space_group_name_H-M   'P 1'
_cell_length_a   6.61735356
_cell_length_b   7.06767455
_cell_length_c   10.72773020
_cell_angle_alpha   90.00000000
_cell_angle_beta   90.00000000
_cell_angle_gamma   122.27786947
_symmetry_Int_Tables_number   1
_chemical_formula_structural   SrCeMg14
_chemical_formula_sum   'Sr1 Ce1 Mg14'
_cell_volume   424.19542847
_cell_formula_units_Z   1
loop_
 _symmetry_equiv_pos_site_id
 _symmetry_equiv_pos_as_xyz
  1  'x, y, z'
loop_
 _atom_site_type_symbol
 _atom_site_label
 _atom_site_symmetry_multiplicity
 _atom_site_fract_x
 _atom_site_fract_y
 _atom_site_fract_z
 _atom_site_occupancy
  Sr  Sr0  1  0.17453275  0.83726587  0.12500000  1
  Ce  Ce1  1  0.18250223  0.34125062  0.12500000  1
  Mg  Mg2  1  0.16510263  0.33255081  0.62500000  1
  Mg  Mg3  1  0.16777111  0.83388506  0.62500000  1
  Mg  Mg4  1  0.66818093  0.33069316  0.12500000  1
  Mg  Mg5  1  0.66948402  0.33311437  0.62500000  1
  Mg  Mg6  1  0.66818093  0.83748677  0.12500000  1
  Mg  Mg7  1  0.66948402  0.83636864  0.62500000  1
  Mg  Mg8  1  0.33335809  0.17284730  0.38597023  1
  Mg  Mg9  1  0.33335809  0.17284730  0.86402977  1
  Mg  Mg10  1  0.33335809  0.66051179  0.38597023  1
  Mg  Mg11  1  0.33335809  0.66051179  0.86402977  1
  Mg  Mg12  1  0.82922694  0.16461397  0.37487369  1
  Mg  Mg13  1  0.82922694  0.16461397  0.87512631  1
  Mg  Mg14  1  0.82143758  0.66071929  0.38123591  1
  Mg  Mg15  1  0.82143758  0.66071929  0.86876409  1
