# generated using pymatgen
data_Te6MoW3S2
_symmetry_space_group_name_H-M   'P 1'
_cell_length_a   3.45169668
_cell_length_b   3.45170608
_cell_length_c   39.42402212
_cell_angle_alpha   90.00001166
_cell_angle_beta   90.00000000
_cell_angle_gamma   119.99990996
_symmetry_Int_Tables_number   1
_chemical_formula_structural   Te6MoW3S2
_chemical_formula_sum   'Te6 Mo1 W3 S2'
_cell_volume   406.77887169
_cell_formula_units_Z   1
loop_
 _symmetry_equiv_pos_site_id
 _symmetry_equiv_pos_as_xyz
  1  'x, y, z'
loop_
 _atom_site_type_symbol
 _atom_site_label
 _atom_site_symmetry_multiplicity
 _atom_site_fract_x
 _atom_site_fract_y
 _atom_site_fract_z
 _atom_site_occupancy
  Te  Te0  1  0.33335031  0.66670162  0.32902202  1
  Te  Te1  1  0.66664792  0.33329483  0.04690611  1
  Te  Te2  1  0.66664982  0.33329865  0.42248082  1
  Te  Te3  1  0.66664845  0.33329590  0.14085876  1
  Te  Te4  1  0.66663364  0.33326627  0.51693926  1
  Te  Te5  1  0.33335571  0.66671241  0.23456448  1
  Mo  Mo6  1  0.33331259  0.66662517  0.09386242  1
  W  W7  1  0.33330843  0.66661686  0.46971864  1
  W  W8  1  0.66668813  0.33337627  0.28179709  1
  W  W9  1  0.66669191  0.33338382  0.65753354  1
  S  S10  1  0.33335586  0.66671273  0.69542127  1
  S  S11  1  0.33335723  0.66671546  0.61964358  1
