# generated using pymatgen
data_Te6MoW3S2
_symmetry_space_group_name_H-M   'P 1'
_cell_length_a   3.45512319
_cell_length_b   3.45509578
_cell_length_c   39.44108543
_cell_angle_alpha   89.99985976
_cell_angle_beta   89.99999928
_cell_angle_gamma   120.00027603
_symmetry_Int_Tables_number   1
_chemical_formula_structural   Te6MoW3S2
_chemical_formula_sum   'Te6 Mo1 W3 S2'
_cell_volume   407.75745465
_cell_formula_units_Z   1
loop_
 _symmetry_equiv_pos_site_id
 _symmetry_equiv_pos_as_xyz
  1  'x, y, z'
loop_
 _atom_site_type_symbol
 _atom_site_label
 _atom_site_symmetry_multiplicity
 _atom_site_fract_x
 _atom_site_fract_y
 _atom_site_fract_z
 _atom_site_occupancy
  Te  Te0  1  0.33335725  0.66671494  0.32865415  1
  Te  Te1  1  0.33335744  0.66671528  0.70479397  1
  Te  Te2  1  0.66664251  0.33328470  0.42247527  1
  Te  Te3  1  0.66664989  0.33329946  0.51680926  1
  Te  Te4  1  0.33335094  0.66670233  0.23476595  1
  Te  Te5  1  0.33335160  0.66670360  0.61043300  1
  Mo  Mo6  1  0.66668763  0.33337588  0.28169943  1
  W  W7  1  0.33331282  0.66662495  0.09393685  1
  W  W8  1  0.33331366  0.66662688  0.46965414  1
  W  W9  1  0.66668719  0.33337495  0.65763196  1
  S  S10  1  0.66664734  0.33329412  0.05619919  1
  S  S11  1  0.66664174  0.33328293  0.13169482  1
