# generated using pymatgen
data_Te2MoWSeS
_symmetry_space_group_name_H-M   'P 1'
_cell_length_a   3.39543414
_cell_length_b   3.39543429
_cell_length_c   38.69259557
_cell_angle_alpha   90.00023941
_cell_angle_beta   90.00000000
_cell_angle_gamma   119.99999850
_symmetry_Int_Tables_number   1
_chemical_formula_structural   Te2MoWSeS
_chemical_formula_sum   'Te4 Mo2 W2 Se2 S2'
_cell_volume   386.32173602
_cell_formula_units_Z   2
loop_
 _symmetry_equiv_pos_site_id
 _symmetry_equiv_pos_as_xyz
  1  'x, y, z'
loop_
 _atom_site_type_symbol
 _atom_site_label
 _atom_site_symmetry_multiplicity
 _atom_site_fract_x
 _atom_site_fract_y
 _atom_site_fract_z
 _atom_site_occupancy
  Te  Te0  1  0.33335424  0.66670948  0.70620012  1
  Te  Te1  1  0.66664290  0.33328480  0.04557912  1
  Te  Te2  1  0.66664893  0.33329686  0.14225716  1
  Te  Te3  1  0.33336550  0.66673201  0.60884995  1
  Mo  Mo4  1  0.33330940  0.66661881  0.09391829  1
  Mo  Mo5  1  0.66668702  0.33337404  0.28182363  1
  W  W6  1  0.33330875  0.66661751  0.46966014  1
  W  W7  1  0.66669024  0.33338049  0.65754497  1
  Se  Se8  1  0.33335199  0.66670497  0.32437119  1
  Se  Se9  1  0.33334975  0.66670051  0.23923435  1
  S  S10  1  0.66664571  0.33329042  0.43073452  1
  S  S11  1  0.66664555  0.33329011  0.50857454  1
