# generated using pymatgen
data_Te2MoWSeS
_symmetry_space_group_name_H-M   'P 1'
_cell_length_a   3.39571223
_cell_length_b   3.39572894
_cell_length_c   38.83733462
_cell_angle_alpha   90.00002025
_cell_angle_beta   90.00000000
_cell_angle_gamma   119.99983729
_symmetry_Int_Tables_number   1
_chemical_formula_structural   Te2MoWSeS
_chemical_formula_sum   'Te4 Mo2 W2 Se2 S2'
_cell_volume   387.83290716
_cell_formula_units_Z   2
loop_
 _symmetry_equiv_pos_site_id
 _symmetry_equiv_pos_as_xyz
  1  'x, y, z'
loop_
 _atom_site_type_symbol
 _atom_site_label
 _atom_site_symmetry_multiplicity
 _atom_site_fract_x
 _atom_site_fract_y
 _atom_site_fract_z
 _atom_site_occupancy
  Te  Te0  1  0.33334878  0.66669857  0.33010960  1
  Te  Te1  1  0.33335048  0.66670195  0.70609967  1
  Te  Te2  1  0.33336091  0.66672281  0.23346682  1
  Te  Te3  1  0.33336169  0.66672439  0.60898680  1
  Mo  Mo4  1  0.33331309  0.66662619  0.46964268  1
  Mo  Mo5  1  0.66668778  0.33337555  0.28176120  1
  W  W6  1  0.33330924  0.66661847  0.09391271  1
  W  W7  1  0.66668380  0.33336761  0.65754736  1
  Se  Se8  1  0.66664962  0.33329823  0.42715546  1
  Se  Se9  1  0.66664741  0.33329382  0.51219843  1
  S  S10  1  0.66664430  0.33328760  0.05511250  1
  S  S11  1  0.66664291  0.33328481  0.13275476  1
