# generated using pymatgen
data_Te6MoW3S2
_symmetry_space_group_name_H-M   'P 1'
_cell_length_a   3.45391924
_cell_length_b   3.45387488
_cell_length_c   39.35658370
_cell_angle_alpha   90.00018871
_cell_angle_beta   90.00000000
_cell_angle_gamma   120.00042488
_symmetry_Int_Tables_number   1
_chemical_formula_structural   Te6MoW3S2
_chemical_formula_sum   'Te6 Mo1 W3 S2'
_cell_volume   406.59772515
_cell_formula_units_Z   1
loop_
 _symmetry_equiv_pos_site_id
 _symmetry_equiv_pos_as_xyz
  1  'x, y, z'
loop_
 _atom_site_type_symbol
 _atom_site_label
 _atom_site_symmetry_multiplicity
 _atom_site_fract_x
 _atom_site_fract_y
 _atom_site_fract_z
 _atom_site_occupancy
  Te  Te0  1  0.33335258  0.66670616  0.70483210  1
  Te  Te1  1  0.66664805  0.33329510  0.04693935  1
  Te  Te2  1  0.66665054  0.33330009  0.42235593  1
  Te  Te3  1  0.66665257  0.33330413  0.14092651  1
  Te  Te4  1  0.66665266  0.33330431  0.51685319  1
  Te  Te5  1  0.33335135  0.66670370  0.61032102  1
  Mo  Mo6  1  0.33330757  0.66661514  0.09392707  1
  W  W7  1  0.33330945  0.66661890  0.46960678  1
  W  W8  1  0.66668494  0.33336988  0.28180118  1
  W  W9  1  0.66669451  0.33338903  0.65759456  1
  S  S10  1  0.33334780  0.66669660  0.31964449  1
  S  S11  1  0.33334799  0.66669698  0.24394580  1
