# generated using pymatgen
data_Te2MoWSeS
_symmetry_space_group_name_H-M   'P 1'
_cell_length_a   3.39559909
_cell_length_b   3.39556350
_cell_length_c   42.14960149
_cell_angle_alpha   90.00143968
_cell_angle_beta   90.00030320
_cell_angle_gamma   120.00032668
_symmetry_Int_Tables_number   1
_chemical_formula_structural   Te2MoWSeS
_chemical_formula_sum   'Te4 Mo2 W2 Se2 S2'
_cell_volume   420.87287865
_cell_formula_units_Z   2
loop_
 _symmetry_equiv_pos_site_id
 _symmetry_equiv_pos_as_xyz
  1  'x, y, z'
loop_
 _atom_site_type_symbol
 _atom_site_label
 _atom_site_symmetry_multiplicity
 _atom_site_fract_x
 _atom_site_fract_y
 _atom_site_fract_z
 _atom_site_occupancy
  Te  Te0  1  0.33329621  0.66658101  0.32917553  1
  Te  Te1  1  0.66659942  0.33320643  0.04599981  1
  Te  Te2  1  0.66662621  0.33324863  0.13485066  1
  Te  Te3  1  0.33329091  0.66657994  0.23980900  1
  Mo  Mo4  1  0.33325559  0.66651448  0.09039835  1
  Mo  Mo5  1  0.33343418  0.66685663  0.47051585  1
  W  W6  1  0.66663416  0.33326527  0.28449736  1
  W  W7  1  0.66668164  0.33337544  0.65749128  1
  Se  Se8  1  0.66674766  0.33349469  0.43140672  1
  Se  Se9  1  0.66677920  0.33354889  0.50962865  1
  S  S10  1  0.33333252  0.66666935  0.69324003  1
  S  S11  1  0.33332231  0.66665925  0.62173475  1
