# generated using pymatgen
data_Te2MoWSeS
_symmetry_space_group_name_H-M   'P 1'
_cell_length_a   3.39700676
_cell_length_b   3.39702067
_cell_length_c   38.71870370
_cell_angle_alpha   89.99917551
_cell_angle_beta   90.00000000
_cell_angle_gamma   119.99986457
_symmetry_Int_Tables_number   1
_chemical_formula_structural   Te2MoWSeS
_chemical_formula_sum   'Te4 Mo2 W2 Se2 S2'
_cell_volume   386.94267823
_cell_formula_units_Z   2
loop_
 _symmetry_equiv_pos_site_id
 _symmetry_equiv_pos_as_xyz
  1  'x, y, z'
loop_
 _atom_site_type_symbol
 _atom_site_label
 _atom_site_symmetry_multiplicity
 _atom_site_fract_x
 _atom_site_fract_y
 _atom_site_fract_z
 _atom_site_occupancy
  Te  Te0  1  0.66664585  0.33329070  0.04557837  1
  Te  Te1  1  0.66664861  0.33329622  0.42100464  1
  Te  Te2  1  0.66663563  0.33327027  0.14227211  1
  Te  Te3  1  0.66664149  0.33328198  0.51835265  1
  Mo  Mo4  1  0.33331069  0.66662138  0.09390636  1
  Mo  Mo5  1  0.66668652  0.33337305  0.28177234  1
  W  W6  1  0.33331103  0.66662206  0.46964621  1
  W  W7  1  0.66669055  0.33338110  0.65753066  1
  Se  Se8  1  0.33335134  0.66670368  0.32438416  1
  Se  Se9  1  0.33335823  0.66671746  0.23922772  1
  S  S10  1  0.33336252  0.66672604  0.69645231  1
  S  S11  1  0.33335753  0.66671606  0.61862047  1
