# generated using pymatgen
data_Te4Mo3WS4
_symmetry_space_group_name_H-M   'P 1'
_cell_length_a   3.36121887
_cell_length_b   3.36110558
_cell_length_c   41.19133124
_cell_angle_alpha   90.00160124
_cell_angle_beta   90.00000000
_cell_angle_gamma   120.00111509
_symmetry_Int_Tables_number   1
_chemical_formula_structural   Te4Mo3WS4
_chemical_formula_sum   'Te4 Mo3 W1 S4'
_cell_volume   403.00508625
_cell_formula_units_Z   1
loop_
 _symmetry_equiv_pos_site_id
 _symmetry_equiv_pos_as_xyz
  1  'x, y, z'
loop_
 _atom_site_type_symbol
 _atom_site_label
 _atom_site_symmetry_multiplicity
 _atom_site_fract_x
 _atom_site_fract_y
 _atom_site_fract_z
 _atom_site_occupancy
  Te  Te0  1  0.33331120  0.66662341  0.33067461  1
  Te  Te1  1  0.66673584  0.33347068  0.04486706  1
  Te  Te2  1  0.66672146  0.33344191  0.13663379  1
  Te  Te3  1  0.33332416  0.66664932  0.23886287  1
  Mo  Mo4  1  0.33340661  0.66681323  0.09073903  1
  Mo  Mo5  1  0.33330008  0.66660016  0.46992104  1
  Mo  Mo6  1  0.66663915  0.33327829  0.28476225  1
  W  W7  1  0.66667864  0.33335727  0.65747322  1
  S  S8  1  0.33335452  0.66671005  0.69434150  1
  S  S9  1  0.66656423  0.33312746  0.43317384  1
  S  S10  1  0.66662431  0.33324762  0.50669444  1
  S  S11  1  0.33333980  0.66668061  0.62060434  1
