# generated using pymatgen
data_Sm2Ni2O5
_symmetry_space_group_name_H-M   'P 1'
_cell_length_a   5.36154463
_cell_length_b   5.67314666
_cell_length_c   8.60460734
_cell_angle_alpha   109.24798835
_cell_angle_beta   108.15271391
_cell_angle_gamma   90.00000000
_symmetry_Int_Tables_number   1
_chemical_formula_structural   Sm2Ni2O5
_chemical_formula_sum   'Sm4 Ni4 O10'
_cell_volume   233.25281533
_cell_formula_units_Z   2
loop_
 _symmetry_equiv_pos_site_id
 _symmetry_equiv_pos_as_xyz
  1  'x, y, z'
loop_
 _atom_site_type_symbol
 _atom_site_label
 _atom_site_symmetry_multiplicity
 _atom_site_fract_x
 _atom_site_fract_y
 _atom_site_fract_z
 _atom_site_occupancy
  Sm  Sm0  1  0.60750355  0.12740927  0.21761797  1
  Sm  Sm1  1  0.38988558  0.87259073  0.78238203  1
  Sm  Sm2  1  0.10750355  0.59020870  0.21761797  1
  Sm  Sm3  1  0.88988558  0.40979130  0.78238203  1
  Ni  Ni4  1  0.01290184  0.00000000  0.00000000  1
  Ni  Ni5  1  0.51290184  0.50000000  0.00000000  1
  Ni  Ni6  1  0.21568120  0.19353933  0.50000000  1
  Ni  Ni7  1  0.71568120  0.80646067  0.50000000  1
  O  O8  1  0.23225609  0.23638104  0.95558929  1
  O  O9  1  0.27666680  0.76361896  0.04441071  1
  O  O10  1  0.73225609  0.21920825  0.95558929  1
  O  O11  1  0.77666680  0.78079175  0.04441071  1
  O  O12  1  0.18480608  0.22083040  0.27562818  1
  O  O13  1  0.90917790  0.77916960  0.72437182  1
  O  O14  1  0.68480608  0.55479778  0.27562818  1
  O  O15  1  0.40917790  0.44520222  0.72437182  1
  O  O16  1  0.83512096  0.14605540  0.50000000  1
  O  O17  1  0.33512096  0.85394460  0.50000000  1
