# generated using pymatgen
data_Te6MoW3S2
_symmetry_space_group_name_H-M   'P 1'
_cell_length_a   3.45142291
_cell_length_b   3.45141862
_cell_length_c   39.36777097
_cell_angle_alpha   90.00359357
_cell_angle_beta   90.00000000
_cell_angle_gamma   120.00004099
_symmetry_Int_Tables_number   1
_chemical_formula_structural   Te6MoW3S2
_chemical_formula_sum   'Te6 Mo1 W3 S2'
_cell_volume   406.13189014
_cell_formula_units_Z   1
loop_
 _symmetry_equiv_pos_site_id
 _symmetry_equiv_pos_as_xyz
  1  'x, y, z'
loop_
 _atom_site_type_symbol
 _atom_site_label
 _atom_site_symmetry_multiplicity
 _atom_site_fract_x
 _atom_site_fract_y
 _atom_site_fract_z
 _atom_site_occupancy
  Te  Te0  1  0.33335136  0.66670372  0.32952571  1
  Te  Te1  1  0.33341156  0.66682413  0.70480532  1
  Te  Te2  1  0.66662151  0.33324202  0.04636061  1
  Te  Te3  1  0.66667652  0.33335203  0.14031998  1
  Te  Te4  1  0.33329746  0.66659591  0.23507357  1
  Te  Te5  1  0.33336373  0.66672845  0.61032231  1
  Mo  Mo6  1  0.33331966  0.66663931  0.09332695  1
  W  W7  1  0.33330589  0.66661178  0.46972772  1
  W  W8  1  0.66665498  0.33330995  0.28235906  1
  W  W9  1  0.66673304  0.33346607  0.65755222  1
  S  S10  1  0.66660674  0.33321249  0.43181281  1
  S  S11  1  0.66665757  0.33331414  0.50756175  1
