# generated using pymatgen
data_Te2MoWSeS
_symmetry_space_group_name_H-M   'P 1'
_cell_length_a   3.39800446
_cell_length_b   3.39805928
_cell_length_c   40.80267935
_cell_angle_alpha   90.00000800
_cell_angle_beta   90.00000000
_cell_angle_gamma   119.99946629
_symmetry_Int_Tables_number   1
_chemical_formula_structural   Te2MoWSeS
_chemical_formula_sum   'Te4 Mo2 W2 Se2 S2'
_cell_volume   408.01539111
_cell_formula_units_Z   2
loop_
 _symmetry_equiv_pos_site_id
 _symmetry_equiv_pos_as_xyz
  1  'x, y, z'
loop_
 _atom_site_type_symbol
 _atom_site_label
 _atom_site_symmetry_multiplicity
 _atom_site_fract_x
 _atom_site_fract_y
 _atom_site_fract_z
 _atom_site_occupancy
  Te  Te0  1  0.33334143  0.66668386  0.70566310  1
  Te  Te1  1  0.66660731  0.33321362  0.42189699  1
  Te  Te2  1  0.66658114  0.33316128  0.51371400  1
  Te  Te3  1  0.33337426  0.66674952  0.61332448  1
  Mo  Mo4  1  0.33336222  0.66672444  0.09382915  1
  Mo  Mo5  1  0.33325833  0.66651666  0.46780463  1
  W  W6  1  0.66668118  0.33336236  0.28177641  1
  W  W7  1  0.66669559  0.33339118  0.65949775  1
  Se  Se8  1  0.66669735  0.33339370  0.05341518  1
  Se  Se9  1  0.66670460  0.33340820  0.13422550  1
  S  S10  1  0.33333964  0.66668029  0.31872378  1
  S  S11  1  0.33335694  0.66671489  0.24487704  1
