# generated using pymatgen
data_Te2MoWSeS
_symmetry_space_group_name_H-M   'P 1'
_cell_length_a   3.39761089
_cell_length_b   3.39761027
_cell_length_c   38.71278539
_cell_angle_alpha   90.00060396
_cell_angle_beta   89.99998053
_cell_angle_gamma   119.99993692
_symmetry_Int_Tables_number   1
_chemical_formula_structural   Te2MoWSeS
_chemical_formula_sum   'Te4 Mo2 W2 Se2 S2'
_cell_volume   387.01921548
_cell_formula_units_Z   2
loop_
 _symmetry_equiv_pos_site_id
 _symmetry_equiv_pos_as_xyz
  1  'x, y, z'
loop_
 _atom_site_type_symbol
 _atom_site_label
 _atom_site_symmetry_multiplicity
 _atom_site_fract_x
 _atom_site_fract_y
 _atom_site_fract_z
 _atom_site_occupancy
  Te  Te0  1  0.33335431  0.66670890  0.70619274  1
  Te  Te1  1  0.66663250  0.33326428  0.04552611  1
  Te  Te2  1  0.66664497  0.33328957  0.14233531  1
  Te  Te3  1  0.33335241  0.66670444  0.60887380  1
  Mo  Mo4  1  0.33331242  0.66662306  0.09390206  1
  Mo  Mo5  1  0.33331218  0.66662275  0.46964956  1
  W  W6  1  0.66669320  0.33338706  0.28179328  1
  W  W7  1  0.66668805  0.33337595  0.65757783  1
  Se  Se8  1  0.66665072  0.33330065  0.42704821  1
  Se  Se9  1  0.66664854  0.33329727  0.51225155  1
  S  S10  1  0.33335641  0.66671677  0.32069855  1
  S  S11  1  0.33335429  0.66670929  0.24289900  1
