# generated using pymatgen
data_Te4Mo3WS4
_symmetry_space_group_name_H-M   'P 1'
_cell_length_a   3.35787400
_cell_length_b   3.35786528
_cell_length_c   38.29683479
_cell_angle_alpha   90.00010202
_cell_angle_beta   90.00000000
_cell_angle_gamma   120.00008588
_symmetry_Int_Tables_number   1
_chemical_formula_structural   Te4Mo3WS4
_chemical_formula_sum   'Te4 Mo3 W1 S4'
_cell_volume   373.95625431
_cell_formula_units_Z   1
loop_
 _symmetry_equiv_pos_site_id
 _symmetry_equiv_pos_as_xyz
  1  'x, y, z'
loop_
 _atom_site_type_symbol
 _atom_site_label
 _atom_site_symmetry_multiplicity
 _atom_site_fract_x
 _atom_site_fract_y
 _atom_site_fract_z
 _atom_site_occupancy
  Te  Te0  1  0.66664486  0.33328872  0.04453342  1
  Te  Te1  1  0.66664373  0.33328646  0.42024635  1
  Te  Te2  1  0.66664858  0.33329616  0.14331853  1
  Te  Te3  1  0.66664534  0.33328967  0.51906143  1
  Mo  Mo4  1  0.33331142  0.66662284  0.09390431  1
  Mo  Mo5  1  0.33330592  0.66661185  0.46966165  1
  Mo  Mo6  1  0.66668757  0.33337514  0.28178777  1
  W  W7  1  0.66669132  0.33338263  0.65755732  1
  S  S8  1  0.33335746  0.66671593  0.32131488  1
  S  S9  1  0.33335467  0.66671034  0.69722323  1
  S  S10  1  0.33335425  0.66670950  0.24226806  1
  S  S11  1  0.33335488  0.66671077  0.61787104  1
