# generated using pymatgen
data_Te2MoWSeS
_symmetry_space_group_name_H-M   'P 1'
_cell_length_a   3.39465530
_cell_length_b   3.39479096
_cell_length_c   38.72364913
_cell_angle_alpha   89.99819517
_cell_angle_beta   90.00000000
_cell_angle_gamma   119.99867812
_symmetry_Int_Tables_number   1
_chemical_formula_structural   Te2MoWSeS
_chemical_formula_sum   'Te4 Mo2 W2 Se2 S2'
_cell_volume   386.47500458
_cell_formula_units_Z   2
loop_
 _symmetry_equiv_pos_site_id
 _symmetry_equiv_pos_as_xyz
  1  'x, y, z'
loop_
 _atom_site_type_symbol
 _atom_site_label
 _atom_site_symmetry_multiplicity
 _atom_site_fract_x
 _atom_site_fract_y
 _atom_site_fract_z
 _atom_site_occupancy
  Te  Te0  1  0.33335832  0.66671765  0.33018347  1
  Te  Te1  1  0.33337407  0.66674914  0.70619254  1
  Te  Te2  1  0.33335258  0.66670616  0.23344079  1
  Te  Te3  1  0.33335657  0.66671414  0.60887074  1
  Mo  Mo4  1  0.33330927  0.66661854  0.09390370  1
  Mo  Mo5  1  0.66668915  0.33337831  0.28180469  1
  W  W6  1  0.33331851  0.66663702  0.46965374  1
  W  W7  1  0.66668642  0.33337285  0.65753445  1
  Se  Se8  1  0.66662897  0.33325693  0.05130376  1
  Se  Se9  1  0.66664693  0.33329287  0.13652413  1
  S  S10  1  0.66664123  0.33328147  0.43077096  1
  S  S11  1  0.66663797  0.33327493  0.50856503  1
