# generated using pymatgen
data_Mg6CdCuO8
_symmetry_space_group_name_H-M   'P 1'
_cell_length_a   8.60428691
_cell_length_b   4.37287291
_cell_length_c   4.37287291
_cell_angle_alpha   90.00000000
_cell_angle_beta   90.00000000
_cell_angle_gamma   90.00000000
_symmetry_Int_Tables_number   1
_chemical_formula_structural   Mg6CdCuO8
_chemical_formula_sum   'Mg6 Cd1 Cu1 O8'
_cell_volume   164.53132476
_cell_formula_units_Z   1
loop_
 _symmetry_equiv_pos_site_id
 _symmetry_equiv_pos_as_xyz
  1  'x, y, z'
loop_
 _atom_site_type_symbol
 _atom_site_label
 _atom_site_symmetry_multiplicity
 _atom_site_fract_x
 _atom_site_fract_y
 _atom_site_fract_z
 _atom_site_occupancy
  Mg  Mg0  1  0.00000000  0.50000000  0.50000000  1
  Mg  Mg1  1  0.50000000  0.50000000  0.50000000  1
  Mg  Mg2  1  0.24175016  0.00000000  0.50000000  1
  Mg  Mg3  1  0.75824984  -0.00000000  0.50000000  1
  Mg  Mg4  1  0.24175016  0.50000000  -0.00000000  1
  Mg  Mg5  1  0.75824984  0.50000000  0.00000000  1
  Cd  Cd6  1  0.50000000  0.00000000  -0.00000000  1
  Cu  Cu7  1  0.00000000  0.00000000  -0.00000000  1
  O  O8  1  0.23417294  -0.00000000  -0.00000000  1
  O  O9  1  0.76582706  0.00000000  0.00000000  1
  O  O10  1  0.24923583  0.50000000  0.50000000  1
  O  O11  1  0.75076417  0.50000000  0.50000000  1
  O  O12  1  0.00000000  0.00000000  0.50000000  1
  O  O13  1  0.50000000  0.00000000  0.50000000  1
  O  O14  1  0.00000000  0.50000000  -0.00000000  1
  O  O15  1  0.50000000  0.50000000  -0.00000000  1
