# generated using pymatgen
data_Te4Mo3WS4
_symmetry_space_group_name_H-M   'P 1'
_cell_length_a   3.35764458
_cell_length_b   3.35758048
_cell_length_c   38.28142581
_cell_angle_alpha   89.99996176
_cell_angle_beta   90.00000000
_cell_angle_gamma   120.00063150
_symmetry_Int_Tables_number   1
_chemical_formula_structural   Te4Mo3WS4
_chemical_formula_sum   'Te4 Mo3 W1 S4'
_cell_volume   373.74649380
_cell_formula_units_Z   1
loop_
 _symmetry_equiv_pos_site_id
 _symmetry_equiv_pos_as_xyz
  1  'x, y, z'
loop_
 _atom_site_type_symbol
 _atom_site_label
 _atom_site_symmetry_multiplicity
 _atom_site_fract_x
 _atom_site_fract_y
 _atom_site_fract_z
 _atom_site_occupancy
  Te  Te0  1  0.33335172  0.66670443  0.70695672  1
  Te  Te1  1  0.66664332  0.33328564  0.04451070  1
  Te  Te2  1  0.66664865  0.33329630  0.14334193  1
  Te  Te3  1  0.33335280  0.66670660  0.60814513  1
  Mo  Mo4  1  0.33331213  0.66662426  0.09389554  1
  Mo  Mo5  1  0.66669907  0.33339814  0.28178953  1
  Mo  Mo6  1  0.66669058  0.33338116  0.65756919  1
  W  W7  1  0.33330888  0.66661777  0.46965227  1
  S  S8  1  0.33335100  0.66670299  0.32130450  1
  S  S9  1  0.66664587  0.33329075  0.42996654  1
  S  S10  1  0.66664613  0.33329126  0.50933087  1
  S  S11  1  0.33334985  0.66670069  0.24228507  1
