# generated using pymatgen
data_La5Sm3V2Cr6O24
_symmetry_space_group_name_H-M   'P 1'
_cell_length_a   7.84362812
_cell_length_b   7.83362843
_cell_length_c   7.83362843
_cell_angle_alpha   90.18620484
_cell_angle_beta   90.00000000
_cell_angle_gamma   90.00000000
_symmetry_Int_Tables_number   1
_chemical_formula_structural   La5Sm3V2Cr6O24
_chemical_formula_sum   'La5 Sm3 V2 Cr6 O24'
_cell_volume   481.32745820
_cell_formula_units_Z   1
loop_
 _symmetry_equiv_pos_site_id
 _symmetry_equiv_pos_as_xyz
  1  'x, y, z'
loop_
 _atom_site_type_symbol
 _atom_site_label
 _atom_site_symmetry_multiplicity
 _atom_site_fract_x
 _atom_site_fract_y
 _atom_site_fract_z
 _atom_site_occupancy
  La  La0  1  0.25000000  0.24945583  0.25056285  1
  La  La1  1  0.25000000  0.25028117  0.74971883  1
  La  La2  1  0.25000000  0.74817571  0.25182429  1
  La  La3  1  0.25000000  0.74943715  0.75054417  1
  La  La4  1  0.75000000  0.74979700  0.25020300  1
  Sm  Sm5  1  0.75000000  0.25132244  0.25004833  1
  Sm  Sm6  1  0.75000000  0.25168988  0.74831012  1
  Sm  Sm7  1  0.75000000  0.74995167  0.74867756  1
  V  V8  1  0.99876977  0.00067115  0.99932885  1
  V  V9  1  0.50123023  0.00067115  0.99932885  1
  Cr  Cr10  1  0.99881428  0.00038556  0.50026856  1
  Cr  Cr11  1  0.99881428  0.49973144  0.99961444  1
  Cr  Cr12  1  0.99888070  0.49958835  0.50041165  1
  Cr  Cr13  1  0.50118572  0.00038556  0.50026856  1
  Cr  Cr14  1  0.50118572  0.49973144  0.99961444  1
  Cr  Cr15  1  0.50111930  0.49958835  0.50041165  1
  O  O16  1  0.25000000  0.99823146  0.00176854  1
  O  O17  1  0.25000000  0.00013382  0.50052567  1
  O  O18  1  0.25000000  0.49947433  0.99986618  1
  O  O19  1  0.25000000  0.49979864  0.50020136  1
  O  O20  1  0.75000000  0.00357460  0.99642540  1
  O  O21  1  0.75000000  0.00192506  0.50154831  1
  O  O22  1  0.75000000  0.49845169  0.99807494  1
  O  O23  1  0.75000000  0.49813523  0.50186477  1
  O  O24  1  0.99505530  0.25198819  0.99918351  1
  O  O25  1  0.99593615  0.25020740  0.49999471  1
  O  O26  1  0.99892141  0.74829028  0.99909772  1
  O  O27  1  0.99761610  0.74972212  0.50222640  1
  O  O28  1  0.50494470  0.25198819  0.99918351  1
  O  O29  1  0.50406385  0.25020740  0.49999471  1
  O  O30  1  0.50107859  0.74829028  0.99909772  1
  O  O31  1  0.50238390  0.74972212  0.50222640  1
  O  O32  1  0.99892141  0.00090228  0.25170972  1
  O  O33  1  0.99505530  0.00081649  0.74801181  1
  O  O34  1  0.99761610  0.49777360  0.25027788  1
  O  O35  1  0.99593615  0.50000529  0.74979260  1
  O  O36  1  0.50107859  0.00090228  0.25170972  1
  O  O37  1  0.50494470  0.00081649  0.74801181  1
  O  O38  1  0.50238390  0.49777360  0.25027788  1
  O  O39  1  0.50406385  0.50000529  0.74979260  1
