# generated using pymatgen
data_BaMg30FeO32
_symmetry_space_group_name_H-M   'P 1'
_cell_length_a   8.64323499
_cell_length_b   8.66267750
_cell_length_c   8.66267750
_cell_angle_alpha   90.00000000
_cell_angle_beta   90.00000000
_cell_angle_gamma   90.00000000
_symmetry_Int_Tables_number   1
_chemical_formula_structural   BaMg30FeO32
_chemical_formula_sum   'Ba1 Mg30 Fe1 O32'
_cell_volume   648.60547995
_cell_formula_units_Z   1
loop_
 _symmetry_equiv_pos_site_id
 _symmetry_equiv_pos_as_xyz
  1  'x, y, z'
loop_
 _atom_site_type_symbol
 _atom_site_label
 _atom_site_symmetry_multiplicity
 _atom_site_fract_x
 _atom_site_fract_y
 _atom_site_fract_z
 _atom_site_occupancy
  Ba  Ba0  1  -0.00000000  0.50000000  0.50000000  1
  Mg  Mg1  1  -0.00000000  -0.00000000  0.50000000  1
  Mg  Mg2  1  -0.00000000  0.50000000  0.00000000  1
  Mg  Mg3  1  0.50000000  -0.00000000  0.00000000  1
  Mg  Mg4  1  0.50000000  -0.00000000  0.50000000  1
  Mg  Mg5  1  0.50000000  0.50000000  0.00000000  1
  Mg  Mg6  1  0.50000000  0.50000000  0.50000000  1
  Mg  Mg7  1  -0.00000000  0.24224324  0.24224324  1
  Mg  Mg8  1  -0.00000000  0.24224324  0.75775676  1
  Mg  Mg9  1  -0.00000000  0.75775676  0.24224324  1
  Mg  Mg10  1  -0.00000000  0.75775676  0.75775676  1
  Mg  Mg11  1  0.50000000  0.24948962  0.24948962  1
  Mg  Mg12  1  0.50000000  0.24948962  0.75051038  1
  Mg  Mg13  1  0.50000000  0.75051038  0.24948962  1
  Mg  Mg14  1  0.50000000  0.75051038  0.75051038  1
  Mg  Mg15  1  0.25079556  -0.00000000  0.25086690  1
  Mg  Mg16  1  0.25079556  -0.00000000  0.74913310  1
  Mg  Mg17  1  0.25721051  0.50000000  0.24244721  1
  Mg  Mg18  1  0.25721051  0.50000000  0.75755279  1
  Mg  Mg19  1  0.74920444  -0.00000000  0.25086690  1
  Mg  Mg20  1  0.74920444  -0.00000000  0.74913310  1
  Mg  Mg21  1  0.74278949  0.50000000  0.24244721  1
  Mg  Mg22  1  0.74278949  0.50000000  0.75755279  1
  Mg  Mg23  1  0.25079556  0.25086690  0.00000000  1
  Mg  Mg24  1  0.25721051  0.24244721  0.50000000  1
  Mg  Mg25  1  0.25079556  0.74913310  0.00000000  1
  Mg  Mg26  1  0.25721051  0.75755279  0.50000000  1
  Mg  Mg27  1  0.74920444  0.25086690  0.00000000  1
  Mg  Mg28  1  0.74278949  0.24244721  0.50000000  1
  Mg  Mg29  1  0.74920444  0.74913310  0.00000000  1
  Mg  Mg30  1  0.74278949  0.75755279  0.50000000  1
  Fe  Fe31  1  -0.00000000  -0.00000000  0.00000000  1
  O  O32  1  0.25250450  -0.00000000  0.00000000  1
  O  O33  1  0.25627435  -0.00000000  0.50000000  1
  O  O34  1  0.25627435  0.50000000  0.00000000  1
  O  O35  1  0.27928366  0.50000000  0.50000000  1
  O  O36  1  0.74749550  -0.00000000  0.00000000  1
  O  O37  1  0.74372565  -0.00000000  0.50000000  1
  O  O38  1  0.74372565  0.50000000  0.00000000  1
  O  O39  1  0.72071634  0.50000000  0.50000000  1
  O  O40  1  0.24949505  0.25021683  0.25021683  1
  O  O41  1  0.24949505  0.25021683  0.74978317  1
  O  O42  1  0.24949505  0.74978317  0.25021683  1
  O  O43  1  0.24949505  0.74978317  0.74978317  1
  O  O44  1  0.75050495  0.25021683  0.25021683  1
  O  O45  1  0.75050495  0.25021683  0.74978317  1
  O  O46  1  0.75050495  0.74978317  0.25021683  1
  O  O47  1  0.75050495  0.74978317  0.74978317  1
  O  O48  1  -0.00000000  -0.00000000  0.25050774  1
  O  O49  1  -0.00000000  -0.00000000  0.74949226  1
  O  O50  1  -0.00000000  0.50000000  0.22126859  1
  O  O51  1  -0.00000000  0.50000000  0.77873141  1
  O  O52  1  0.50000000  -0.00000000  0.24872297  1
  O  O53  1  0.50000000  -0.00000000  0.75127703  1
  O  O54  1  0.50000000  0.50000000  0.24429029  1
  O  O55  1  0.50000000  0.50000000  0.75570971  1
  O  O56  1  -0.00000000  0.25050774  0.00000000  1
  O  O57  1  -0.00000000  0.22126859  0.50000000  1
  O  O58  1  -0.00000000  0.74949226  0.00000000  1
  O  O59  1  -0.00000000  0.77873141  0.50000000  1
  O  O60  1  0.50000000  0.24872297  0.00000000  1
  O  O61  1  0.50000000  0.24429029  0.50000000  1
  O  O62  1  0.50000000  0.75127703  0.00000000  1
  O  O63  1  0.50000000  0.75570971  0.50000000  1
