# generated using pymatgen
data_KLiMg30O31
_symmetry_space_group_name_H-M   'P 1'
_cell_length_a   8.57500330
_cell_length_b   8.64544516
_cell_length_c   8.55524684
_cell_angle_alpha   90.00000000
_cell_angle_beta   90.00000000
_cell_angle_gamma   90.00000000
_symmetry_Int_Tables_number   1
_chemical_formula_structural   KLiMg30O31
_chemical_formula_sum   'K1 Li1 Mg30 O31'
_cell_volume   634.24083566
_cell_formula_units_Z   1
loop_
 _symmetry_equiv_pos_site_id
 _symmetry_equiv_pos_as_xyz
  1  'x, y, z'
loop_
 _atom_site_type_symbol
 _atom_site_label
 _atom_site_symmetry_multiplicity
 _atom_site_fract_x
 _atom_site_fract_y
 _atom_site_fract_z
 _atom_site_occupancy
  K  K0  1  0.99561975  0.00000000  0.00000000  1
  Li  Li1  1  0.97609561  0.00000000  0.50000000  1
  Mg  Mg2  1  0.99840332  0.50000000  0.00000000  1
  Mg  Mg3  1  0.99549737  0.50000000  0.50000000  1
  Mg  Mg4  1  0.50006265  0.00000000  0.00000000  1
  Mg  Mg5  1  0.51959008  0.00000000  0.50000000  1
  Mg  Mg6  1  0.50116469  0.50000000  0.00000000  1
  Mg  Mg7  1  0.50270981  0.50000000  0.50000000  1
  Mg  Mg8  1  0.00143749  0.24832726  0.25557264  1
  Mg  Mg9  1  0.00143749  0.24832726  0.74442736  1
  Mg  Mg10  1  0.00143749  0.75167274  0.25557264  1
  Mg  Mg11  1  0.00143749  0.75167274  0.74442736  1
  Mg  Mg12  1  0.49953528  0.24899425  0.25077039  1
  Mg  Mg13  1  0.49953528  0.24899425  0.74922961  1
  Mg  Mg14  1  0.49953528  0.75100575  0.25077039  1
  Mg  Mg15  1  0.49953528  0.75100575  0.74922961  1
  Mg  Mg16  1  0.24706653  0.00000000  0.23134577  1
  Mg  Mg17  1  0.24706653  0.00000000  0.76865423  1
  Mg  Mg18  1  0.24882926  0.50000000  0.24710620  1
  Mg  Mg19  1  0.24882926  0.50000000  0.75289380  1
  Mg  Mg20  1  0.75503418  0.00000000  0.25359404  1
  Mg  Mg21  1  0.75503418  0.00000000  0.74640596  1
  Mg  Mg22  1  0.75142964  0.50000000  0.24941769  1
  Mg  Mg23  1  0.75142964  0.50000000  0.75058231  1
  Mg  Mg24  1  0.24981345  0.25467264  0.00000000  1
  Mg  Mg25  1  0.24490358  0.27059411  0.50000000  1
  Mg  Mg26  1  0.24981345  0.74532736  0.00000000  1
  Mg  Mg27  1  0.24490358  0.72940589  0.50000000  1
  Mg  Mg28  1  0.74950500  0.25149232  0.00000000  1
  Mg  Mg29  1  0.75694309  0.24813761  0.50000000  1
  Mg  Mg30  1  0.74950500  0.74850768  0.00000000  1
  Mg  Mg31  1  0.75694309  0.75186239  0.50000000  1
  O  O32  1  0.27272637  0.00000000  0.00000000  1
  O  O33  1  0.25549598  0.50000000  0.00000000  1
  O  O34  1  0.25430376  0.50000000  0.50000000  1
  O  O35  1  0.72465050  0.00000000  0.00000000  1
  O  O36  1  0.74735360  0.00000000  0.50000000  1
  O  O37  1  0.74512979  0.50000000  0.00000000  1
  O  O38  1  0.74587239  0.50000000  0.50000000  1
  O  O39  1  0.25078639  0.24642662  0.25458718  1
  O  O40  1  0.25078639  0.24642662  0.74541282  1
  O  O41  1  0.25078639  0.75357338  0.25458718  1
  O  O42  1  0.25078639  0.75357338  0.74541282  1
  O  O43  1  0.75002313  0.24740782  0.25113207  1
  O  O44  1  0.75002313  0.24740782  0.74886793  1
  O  O45  1  0.75002313  0.75259218  0.25113207  1
  O  O46  1  0.75002313  0.75259218  0.74886793  1
  O  O47  1  0.01349248  0.00000000  0.28056879  1
  O  O48  1  0.01349248  0.00000000  0.71943121  1
  O  O49  1  0.00113913  0.50000000  0.25346714  1
  O  O50  1  0.00113913  0.50000000  0.74653286  1
  O  O51  1  0.49062338  0.00000000  0.26147277  1
  O  O52  1  0.49062338  0.00000000  0.73852723  1
  O  O53  1  0.49924928  0.50000000  0.25245923  1
  O  O54  1  0.49924928  0.50000000  0.74754077  1
  O  O55  1  0.00218355  0.27284041  0.00000000  1
  O  O56  1  0.00305126  0.26235640  0.50000000  1
  O  O57  1  0.00218355  0.72715959  0.00000000  1
  O  O58  1  0.00305126  0.73764360  0.50000000  1
  O  O59  1  0.49830323  0.25327941  0.00000000  1
  O  O60  1  0.49253053  0.24479621  0.50000000  1
  O  O61  1  0.49830323  0.74672059  0.00000000  1
  O  O62  1  0.49253053  0.75520379  0.50000000  1
