# generated using pymatgen
data_CaHfMg30O32
_symmetry_space_group_name_H-M   'P 1'
_cell_length_a   8.61486103
_cell_length_b   8.65620908
_cell_length_c   8.65620908
_cell_angle_alpha   90.00000000
_cell_angle_beta   90.00000000
_cell_angle_gamma   90.00000000
_symmetry_Int_Tables_number   1
_chemical_formula_structural   CaHfMg30O32
_chemical_formula_sum   'Ca1 Hf1 Mg30 O32'
_cell_volume   645.51115479
_cell_formula_units_Z   1
loop_
 _symmetry_equiv_pos_site_id
 _symmetry_equiv_pos_as_xyz
  1  'x, y, z'
loop_
 _atom_site_type_symbol
 _atom_site_label
 _atom_site_symmetry_multiplicity
 _atom_site_fract_x
 _atom_site_fract_y
 _atom_site_fract_z
 _atom_site_occupancy
  Ca  Ca0  1  -0.00000000  -0.00000000  -0.00000000  1
  Hf  Hf1  1  -0.00000000  0.50000000  0.50000000  1
  Mg  Mg2  1  -0.00000000  -0.00000000  0.50000000  1
  Mg  Mg3  1  -0.00000000  0.50000000  -0.00000000  1
  Mg  Mg4  1  0.50000000  -0.00000000  -0.00000000  1
  Mg  Mg5  1  0.50000000  -0.00000000  0.50000000  1
  Mg  Mg6  1  0.50000000  0.50000000  -0.00000000  1
  Mg  Mg7  1  0.50000000  0.50000000  0.50000000  1
  Mg  Mg8  1  -0.00000000  0.24987431  0.24987431  1
  Mg  Mg9  1  -0.00000000  0.24987431  0.75012569  1
  Mg  Mg10  1  -0.00000000  0.75012569  0.24987431  1
  Mg  Mg11  1  -0.00000000  0.75012569  0.75012569  1
  Mg  Mg12  1  0.50000000  0.24933663  0.24933663  1
  Mg  Mg13  1  0.50000000  0.24933663  0.75066337  1
  Mg  Mg14  1  0.50000000  0.75066337  0.24933663  1
  Mg  Mg15  1  0.50000000  0.75066337  0.75066337  1
  Mg  Mg16  1  0.25317617  -0.00000000  0.25174008  1
  Mg  Mg17  1  0.25317617  -0.00000000  0.74825992  1
  Mg  Mg18  1  0.25425658  0.50000000  0.24342636  1
  Mg  Mg19  1  0.25425658  0.50000000  0.75657364  1
  Mg  Mg20  1  0.74682383  -0.00000000  0.25174008  1
  Mg  Mg21  1  0.74682383  -0.00000000  0.74825992  1
  Mg  Mg22  1  0.74574342  0.50000000  0.24342636  1
  Mg  Mg23  1  0.74574342  0.50000000  0.75657364  1
  Mg  Mg24  1  0.25317617  0.25174008  -0.00000000  1
  Mg  Mg25  1  0.25425658  0.24342636  0.50000000  1
  Mg  Mg26  1  0.25317617  0.74825992  -0.00000000  1
  Mg  Mg27  1  0.25425658  0.75657364  0.50000000  1
  Mg  Mg28  1  0.74682383  0.25174008  -0.00000000  1
  Mg  Mg29  1  0.74574342  0.24342636  0.50000000  1
  Mg  Mg30  1  0.74682383  0.74825992  -0.00000000  1
  Mg  Mg31  1  0.74574342  0.75657364  0.50000000  1
  O  O32  1  0.26253503  -0.00000000  -0.00000000  1
  O  O33  1  0.25306875  -0.00000000  0.50000000  1
  O  O34  1  0.25306875  0.50000000  -0.00000000  1
  O  O35  1  0.24589086  0.50000000  0.50000000  1
  O  O36  1  0.73746497  -0.00000000  -0.00000000  1
  O  O37  1  0.74693125  -0.00000000  0.50000000  1
  O  O38  1  0.74693125  0.50000000  -0.00000000  1
  O  O39  1  0.75410914  0.50000000  0.50000000  1
  O  O40  1  0.24996506  0.25053365  0.25053365  1
  O  O41  1  0.24996506  0.25053365  0.74946635  1
  O  O42  1  0.24996506  0.74946635  0.25053365  1
  O  O43  1  0.24996506  0.74946635  0.74946635  1
  O  O44  1  0.75003494  0.25053365  0.25053365  1
  O  O45  1  0.75003494  0.25053365  0.74946635  1
  O  O46  1  0.75003494  0.74946635  0.25053365  1
  O  O47  1  0.75003494  0.74946635  0.74946635  1
  O  O48  1  -0.00000000  -0.00000000  0.26162870  1
  O  O49  1  -0.00000000  -0.00000000  0.73837130  1
  O  O50  1  -0.00000000  0.50000000  0.24429141  1
  O  O51  1  -0.00000000  0.50000000  0.75570859  1
  O  O52  1  0.50000000  -0.00000000  0.25269641  1
  O  O53  1  0.50000000  -0.00000000  0.74730359  1
  O  O54  1  0.50000000  0.50000000  0.25197735  1
  O  O55  1  0.50000000  0.50000000  0.74802265  1
  O  O56  1  -0.00000000  0.26162870  -0.00000000  1
  O  O57  1  -0.00000000  0.24429141  0.50000000  1
  O  O58  1  -0.00000000  0.73837130  -0.00000000  1
  O  O59  1  -0.00000000  0.75570859  0.50000000  1
  O  O60  1  0.50000000  0.25269641  -0.00000000  1
  O  O61  1  0.50000000  0.25197735  0.50000000  1
  O  O62  1  0.50000000  0.74730359  -0.00000000  1
  O  O63  1  0.50000000  0.74802265  0.50000000  1
