# generated using pymatgen
data_Ce2Mg
_symmetry_space_group_name_H-M   'P 1'
_cell_length_a   10.74377467
_cell_length_b   5.46529030
_cell_length_c   5.24150289
_cell_angle_alpha   90.00000000
_cell_angle_beta   90.00000000
_cell_angle_gamma   90.00000000
_symmetry_Int_Tables_number   1
_chemical_formula_structural   Ce2Mg
_chemical_formula_sum   'Ce8 Mg4'
_cell_volume   307.76976731
_cell_formula_units_Z   4
loop_
 _symmetry_equiv_pos_site_id
 _symmetry_equiv_pos_as_xyz
  1  'x, y, z'
loop_
 _atom_site_type_symbol
 _atom_site_label
 _atom_site_symmetry_multiplicity
 _atom_site_fract_x
 _atom_site_fract_y
 _atom_site_fract_z
 _atom_site_occupancy
  Ce  Ce0  1  0.68667296  0.65039914  0.75000000  1
  Ce  Ce1  1  0.81332704  0.15039914  0.75000000  1
  Ce  Ce2  1  0.68667296  0.34960086  0.25000000  1
  Ce  Ce3  1  0.81332704  0.84960086  0.25000000  1
  Ce  Ce4  1  0.18667296  0.15039914  0.75000000  1
  Ce  Ce5  1  0.31332704  0.65039914  0.75000000  1
  Ce  Ce6  1  0.18667296  0.84960086  0.25000000  1
  Ce  Ce7  1  0.31332704  0.34960086  0.25000000  1
  Mg  Mg8  1  0.50000000  0.16114473  0.75000000  1
  Mg  Mg9  1  0.50000000  0.83885527  0.25000000  1
  Mg  Mg10  1  -0.00000000  0.66114473  0.75000000  1
  Mg  Mg11  1  -0.00000000  0.33885527  0.25000000  1
