# generated using pymatgen
data_CaMg2
_symmetry_space_group_name_H-M   'P 1'
_cell_length_a   10.73341291
_cell_length_b   5.79177198
_cell_length_c   5.42343136
_cell_angle_alpha   90.00000000
_cell_angle_beta   90.00000000
_cell_angle_gamma   90.00000000
_symmetry_Int_Tables_number   1
_chemical_formula_structural   CaMg2
_chemical_formula_sum   'Ca4 Mg8'
_cell_volume   337.15021451
_cell_formula_units_Z   4
loop_
 _symmetry_equiv_pos_site_id
 _symmetry_equiv_pos_as_xyz
  1  'x, y, z'
loop_
 _atom_site_type_symbol
 _atom_site_label
 _atom_site_symmetry_multiplicity
 _atom_site_fract_x
 _atom_site_fract_y
 _atom_site_fract_z
 _atom_site_occupancy
  Ca  Ca0  1  -0.00000000  0.70372572  0.75000000  1
  Ca  Ca1  1  -0.00000000  0.29627428  0.25000000  1
  Ca  Ca2  1  0.50000000  0.20372572  0.75000000  1
  Ca  Ca3  1  0.50000000  0.79627428  0.25000000  1
  Mg  Mg4  1  0.18451116  0.16566263  0.75000000  1
  Mg  Mg5  1  0.31548884  0.66566263  0.75000000  1
  Mg  Mg6  1  0.18451116  0.83433737  0.25000000  1
  Mg  Mg7  1  0.31548884  0.33433737  0.25000000  1
  Mg  Mg8  1  0.68451116  0.66566263  0.75000000  1
  Mg  Mg9  1  0.81548884  0.16566263  0.75000000  1
  Mg  Mg10  1  0.68451116  0.33433737  0.25000000  1
  Mg  Mg11  1  0.81548884  0.83433737  0.25000000  1
