# generated using pymatgen
data_CaBi3P3O13
_symmetry_space_group_name_H-M   'P 1'
_cell_length_a   7.13093895
_cell_length_b   8.47222505
_cell_length_c   11.11193406
_cell_angle_alpha   100.00524861
_cell_angle_beta   90.00000000
_cell_angle_gamma   90.00000000
_symmetry_Int_Tables_number   1
_chemical_formula_structural   CaBi3P3O13
_chemical_formula_sum   'Ca2 Bi6 P6 O26'
_cell_volume   661.11696190
_cell_formula_units_Z   2
loop_
 _symmetry_equiv_pos_site_id
 _symmetry_equiv_pos_as_xyz
  1  'x, y, z'
loop_
 _atom_site_type_symbol
 _atom_site_label
 _atom_site_symmetry_multiplicity
 _atom_site_fract_x
 _atom_site_fract_y
 _atom_site_fract_z
 _atom_site_occupancy
  Ca  Ca0  1  0.75000000  0.61833519  0.18227990  1
  Ca  Ca1  1  0.25000000  0.38166481  0.81772010  1
  Bi  Bi2  1  0.25000000  0.35723828  0.22241715  1
  Bi  Bi3  1  0.75000000  0.64276172  0.77758285  1
  Bi  Bi4  1  0.25000000  0.79733857  0.44035504  1
  Bi  Bi5  1  0.50000000  -0.00000000  -0.00000000  1
  Bi  Bi6  1  0.75000000  0.20266143  0.55964496  1
  Bi  Bi7  1  0.00000000  -0.00000000  -0.00000000  1
  P  P8  1  0.25000000  0.22360684  0.51477938  1
  P  P9  1  0.75000000  0.77639316  0.48522062  1
  P  P10  1  0.25000000  0.72791170  0.76576171  1
  P  P11  1  0.75000000  0.27208830  0.23423829  1
  P  P12  1  0.75000000  0.32225510  0.89090932  1
  P  P13  1  0.25000000  0.67774490  0.10909068  1
  O  O14  1  0.75000000  0.34964500  0.75371870  1
  O  O15  1  0.57757785  0.75515732  0.39699688  1
  O  O16  1  0.25000000  0.78181683  0.64172622  1
  O  O17  1  0.56460204  0.23137145  0.90780851  1
  O  O18  1  0.75000000  0.65060383  0.57048540  1
  O  O19  1  0.75000000  0.87403294  0.89706288  1
  O  O20  1  0.25000000  0.34939617  0.42951460  1
  O  O21  1  0.06460204  0.76862855  0.09219149  1
  O  O22  1  0.25000000  0.05457106  0.43034575  1
  O  O23  1  0.75000000  0.94542894  0.56965425  1
  O  O24  1  0.08065102  0.61906138  0.78476021  1
  O  O25  1  0.25000000  0.12596706  0.10293712  1
  O  O26  1  0.58065102  0.38093862  0.21523979  1
  O  O27  1  0.75000000  0.49416292  0.96745045  1
  O  O28  1  0.75000000  0.21818317  0.35827378  1
  O  O29  1  0.43539796  0.76862855  0.09219149  1
  O  O30  1  0.92242215  0.75515732  0.39699688  1
  O  O31  1  0.42242215  0.24484268  0.60300312  1
  O  O32  1  0.41934898  0.61906138  0.78476021  1
  O  O33  1  0.25000000  0.65035500  0.24628130  1
  O  O34  1  0.75000000  0.11473568  0.13519769  1
  O  O35  1  0.25000000  0.88526432  0.86480231  1
  O  O36  1  0.91934898  0.38093862  0.21523979  1
  O  O37  1  0.93539796  0.23137145  0.90780851  1
  O  O38  1  0.07757785  0.24484268  0.60300312  1
  O  O39  1  0.25000000  0.50583708  0.03254955  1
