# generated using pymatgen
data_Sr2AlCoCu2O7
_symmetry_space_group_name_H-M   'P 1'
_cell_length_a   5.31598845
_cell_length_b   5.37992893
_cell_length_c   12.11531296
_cell_angle_alpha   102.82554136
_cell_angle_beta   102.63829943
_cell_angle_gamma   89.98916068
_symmetry_Int_Tables_number   1
_chemical_formula_structural   Sr2AlCoCu2O7
_chemical_formula_sum   'Sr4 Al2 Co2 Cu4 O14'
_cell_volume   329.23643635
_cell_formula_units_Z   2
loop_
 _symmetry_equiv_pos_site_id
 _symmetry_equiv_pos_as_xyz
  1  'x, y, z'
loop_
 _atom_site_type_symbol
 _atom_site_label
 _atom_site_symmetry_multiplicity
 _atom_site_fract_x
 _atom_site_fract_y
 _atom_site_fract_z
 _atom_site_occupancy
  Sr  Sr0  1  0.33413220  0.33926107  0.70020359  1
  Sr  Sr1  1  0.63592201  0.66014236  0.30215981  1
  Sr  Sr2  1  0.83362640  0.86119881  0.69934555  1
  Sr  Sr3  1  0.13628840  0.13847110  0.30199107  1
  Al  Al4  1  0.98770107  0.00064792  0.00017234  1
  Al  Al5  1  0.48856374  0.49739772  0.00041789  1
  Co  Co6  1  0.26951015  0.68425375  0.50062290  1
  Co  Co7  1  0.77180229  0.31306974  0.50086909  1
  Cu  Cu8  1  0.92551303  0.44320422  0.88342517  1
  Cu  Cu9  1  0.04427460  0.55687026  0.11774005  1
  Cu  Cu10  1  0.42508411  0.93973383  0.88321001  1
  Cu  Cu11  1  0.54424465  0.05796966  0.11755672  1
  O  O12  1  0.13572398  0.34968408  0.50092840  1
  O  O13  1  0.63350336  0.64616386  0.50080060  1
  O  O14  1  0.25183156  0.26846804  0.89380380  1
  O  O15  1  0.36165235  0.73130797  0.10745065  1
  O  O16  1  0.75240134  0.12598701  0.89394111  1
  O  O17  1  0.86080053  0.87511568  0.10763389  1
  O  O18  1  0.60417548  0.61977722  0.89004045  1
  O  O19  1  0.71646043  0.37755703  0.11187290  1
  O  O20  1  0.10253521  0.76889402  0.88928908  1
  O  O21  1  0.21768927  0.23022965  0.11154680  1
  O  O22  1  0.29274656  0.85024348  0.65291746  1
  O  O23  1  0.64545517  0.14850380  0.34832998  1
  O  O24  1  0.79691646  0.30283955  0.65396502  1
  O  O25  1  0.14240666  0.69590617  0.34801766  1
