# generated using pymatgen
data_Zn2AgWO6
_symmetry_space_group_name_H-M   'P 1'
_cell_length_a   6.04057283
_cell_length_b   6.13384300
_cell_length_c   7.54754708
_cell_angle_alpha   85.38418331
_cell_angle_beta   131.11567126
_cell_angle_gamma   130.23766501
_symmetry_Int_Tables_number   1
_chemical_formula_structural   Zn2AgWO6
_chemical_formula_sum   'Zn2 Ag1 W1 O6'
_cell_volume   128.82571503
_cell_formula_units_Z   1
loop_
 _symmetry_equiv_pos_site_id
 _symmetry_equiv_pos_as_xyz
  1  'x, y, z'
loop_
 _atom_site_type_symbol
 _atom_site_label
 _atom_site_symmetry_multiplicity
 _atom_site_fract_x
 _atom_site_fract_y
 _atom_site_fract_z
 _atom_site_occupancy
  Zn  Zn0  1  0.04437656  0.58309315  0.26935435  1
  Zn  Zn1  1  -0.00062483  0.52526760  0.80326893  1
  Ag  Ag2  1  0.99891998  0.97864955  0.49923411  1
  W  W3  1  0.99075327  0.98476838  0.98888710  1
  O  O4  1  0.27929049  0.06121420  0.37313286  1
  O  O5  1  0.68701719  0.84190427  0.60788152  1
  O  O6  1  0.28535944  0.43579483  0.10705099  1
  O  O7  1  0.42054597  0.74534399  0.81154867  1
  O  O8  1  0.51119311  0.13774591  0.13804992  1
  O  O9  1  0.73286082  0.50870910  0.88526353  1
