# generated using pymatgen
data_CaAs2WO7
_symmetry_space_group_name_H-M   'P 1'
_cell_length_a   9.61859592
_cell_length_b   8.29612765
_cell_length_c   11.48318346
_cell_angle_alpha   90.00000000
_cell_angle_beta   125.81944483
_cell_angle_gamma   90.00000000
_symmetry_Int_Tables_number   1
_chemical_formula_structural   CaAs2WO7
_chemical_formula_sum   'Ca4 As8 W4 O28'
_cell_volume   743.01588568
_cell_formula_units_Z   4
loop_
 _symmetry_equiv_pos_site_id
 _symmetry_equiv_pos_as_xyz
  1  'x, y, z'
loop_
 _atom_site_type_symbol
 _atom_site_label
 _atom_site_symmetry_multiplicity
 _atom_site_fract_x
 _atom_site_fract_y
 _atom_site_fract_z
 _atom_site_occupancy
  Ca  Ca0  1  0.28118963  0.92743684  0.87997349  1
  Ca  Ca1  1  0.71881037  0.42743684  0.62002651  1
  Ca  Ca2  1  0.71881037  0.07256316  0.12002651  1
  Ca  Ca3  1  0.28118963  0.57256316  0.37997349  1
  As  As4  1  0.45748946  0.26599413  0.78649021  1
  As  As5  1  0.54251054  0.76599413  0.71350979  1
  As  As6  1  0.54251054  0.73400587  0.21350979  1
  As  As7  1  0.45748946  0.23400587  0.28648921  1
  As  As8  1  0.06982770  0.27522632  0.97753402  1
  As  As9  1  0.93017130  0.77522632  0.52246598  1
  As  As10  1  0.93017130  0.72477368  0.02246598  1
  As  As11  1  0.06982770  0.22477368  0.47753402  1
  W  W12  1  0.82948200  0.05023773  0.70391336  1
  W  W13  1  0.17051800  0.55023773  0.79608664  1
  W  W14  1  0.17051800  0.94976227  0.29608664  1
  W  W15  1  0.82948200  0.44976227  0.20391336  1
  O  O16  1  0.75786100  0.33123892  0.04737394  1
  O  O17  1  0.24213900  0.83123892  0.45262606  1
  O  O18  1  0.24213900  0.66876108  0.95262606  1
  O  O19  1  0.75786100  0.16876108  0.54737394  1
  O  O20  1  0.29563809  0.36837071  0.81421628  1
  O  O21  1  0.70436191  0.86837071  0.68578372  1
  O  O22  1  0.70436191  0.63162929  0.18578372  1
  O  O23  1  0.29563809  0.13162929  0.31421628  1
  O  O24  1  0.47318179  0.09014433  0.87682144  1
  O  O25  1  0.52681821  0.59014433  0.62317856  1
  O  O26  1  0.52681821  0.90985567  0.12317856  1
  O  O27  1  0.47318179  0.40985567  0.37682144  1
  O  O28  1  0.29991794  0.20442997  0.59462943  1
  O  O29  1  0.70008206  0.70442997  0.90537057  1
  O  O30  1  0.70008206  0.79557003  0.40537057  1
  O  O31  1  0.29991794  0.29557003  0.09462943  1
  O  O32  1  0.01999854  0.08967311  0.33473070  1
  O  O33  1  0.98000146  0.58967311  0.16526930  1
  O  O34  1  0.98000146  0.91032689  0.66526930  1
  O  O35  1  0.01999854  0.41032689  0.83473070  1
  O  O36  1  0.74977300  0.30537679  0.27148508  1
  O  O37  1  0.25022700  0.80537679  0.22851492  1
  O  O38  1  0.25022700  0.69462321  0.72851492  1
  O  O39  1  0.74977300  0.19462321  0.77148508  1
  O  O40  1  0.06397324  0.41253471  0.37804925  1
  O  O41  1  0.93602676  0.91253471  0.12195075  1
  O  O42  1  0.93602676  0.58746529  0.62195075  1
  O  O43  1  0.06397324  0.08746529  0.87804925  1
