# generated using pymatgen
data_HoMgCr2O6
_symmetry_space_group_name_H-M   'P 1'
_cell_length_a   5.15683372
_cell_length_b   5.40130234
_cell_length_c   7.53689908
_cell_angle_alpha   89.99286558
_cell_angle_beta   90.24204322
_cell_angle_gamma   89.99140941
_symmetry_Int_Tables_number   1
_chemical_formula_structural   HoMgCr2O6
_chemical_formula_sum   'Ho2 Mg2 Cr4 O12'
_cell_volume   209.92803091
_cell_formula_units_Z   2
loop_
 _symmetry_equiv_pos_site_id
 _symmetry_equiv_pos_as_xyz
  1  'x, y, z'
loop_
 _atom_site_type_symbol
 _atom_site_label
 _atom_site_symmetry_multiplicity
 _atom_site_fract_x
 _atom_site_fract_y
 _atom_site_fract_z
 _atom_site_occupancy
  Ho  Ho0  1  0.01448633  0.93211792  0.74982988  1
  Ho  Ho1  1  0.51466865  0.56786975  0.24977296  1
  Mg  Mg2  1  0.48676599  0.44468273  0.75018869  1
  Mg  Mg3  1  0.98712569  0.05509030  0.24973708  1
  Cr  Cr4  1  0.99939350  0.49442202  0.99986982  1
  Cr  Cr5  1  0.99872910  0.49142176  0.49994720  1
  Cr  Cr6  1  0.49928190  0.00562791  0.49989559  1
  Cr  Cr7  1  0.49892480  0.00846086  0.00001362  1
  O  O8  1  0.10878635  0.43950701  0.25272076  1
  O  O9  1  0.19979173  0.19492889  0.93893169  1
  O  O10  1  0.18787668  0.20199262  0.56170145  1
  O  O11  1  0.32160332  0.69316223  0.93996783  1
  O  O12  1  0.30926676  0.68519465  0.56121606  1
  O  O13  1  0.37304218  0.96173989  0.24647655  1
  O  O14  1  0.60838680  0.06094506  0.75276199  1
  O  O15  1  0.70018670  0.30456823  0.43840873  1
  O  O16  1  0.68800526  0.29810018  0.06146960  1
  O  O17  1  0.80981345  0.81508409  0.06090713  1
  O  O18  1  0.82133899  0.80653733  0.43971071  1
  O  O19  1  0.87252282  0.53854556  0.74647364  1
