# generated using pymatgen
data_Mg(MoO2)2
_symmetry_space_group_name_H-M   'P 1'
_cell_length_a   6.40626395
_cell_length_b   6.33234696
_cell_length_c   19.06666184
_cell_angle_alpha   60.11317900
_cell_angle_beta   59.10538589
_cell_angle_gamma   60.23787083
_symmetry_Int_Tables_number   1
_chemical_formula_structural   Mg(MoO2)2
_chemical_formula_sum   'Mg6 Mo12 O24'
_cell_volume   544.54968940
_cell_formula_units_Z   6
loop_
 _symmetry_equiv_pos_site_id
 _symmetry_equiv_pos_as_xyz
  1  'x, y, z'
loop_
 _atom_site_type_symbol
 _atom_site_label
 _atom_site_symmetry_multiplicity
 _atom_site_fract_x
 _atom_site_fract_y
 _atom_site_fract_z
 _atom_site_occupancy
  Mg  Mg0  1  0.12473197  0.11874378  0.04561676  1
  Mg  Mg1  1  0.12625318  0.12478636  0.37470308  1
  Mg  Mg2  1  0.49669431  0.49447406  0.00417404  1
  Mg  Mg3  1  0.12016653  0.12854763  0.70805084  1
  Mg  Mg4  1  0.87927543  0.87626940  0.28952114  1
  Mg  Mg5  1  0.87379945  0.87586326  0.62472721  1
  Mo  Mo6  1  0.01118358  0.49619430  0.16589188  1
  Mo  Mo7  1  0.50588777  0.49893587  0.16442798  1
  Mo  Mo8  1  0.99958666  0.50033859  0.49966114  1
  Mo  Mo9  1  0.50577229  0.00330298  0.16445593  1
  Mo  Mo10  1  0.50256082  0.50143550  0.33169278  1
  Mo  Mo11  1  0.49982306  0.50038825  0.49960296  1
  Mo  Mo12  1  0.99211597  0.50096289  0.83483146  1
  Mo  Mo13  1  0.50000559  0.00069853  0.49934320  1
  Mo  Mo14  1  0.49292056  0.00139811  0.83432087  1
  Mo  Mo15  1  0.49549429  0.50250426  0.66710571  1
  Mo  Mo16  1  0.49351442  0.50142736  0.83485366  1
  Mo  Mo17  1  0.88086699  0.87089347  0.95589743  1
  O  O18  1  0.26674758  0.25204539  0.08505169  1
  O  O19  1  0.26111141  0.25757927  0.24219995  1
  O  O20  1  0.26649105  0.72568388  0.08549667  1
  O  O21  1  0.73265335  0.26218934  0.08122479  1
  O  O22  1  0.27608343  0.74202183  0.24753904  1
  O  O23  1  0.25967797  0.25272430  0.41934921  1
  O  O24  1  0.74512249  0.27135995  0.24593632  1
  O  O25  1  0.76442789  0.73189076  0.09115785  1
  O  O26  1  0.25812949  0.72903643  0.41997473  1
  O  O27  1  0.25142574  0.25996924  0.57630633  1
  O  O28  1  0.74360770  0.74686247  0.24640320  1
  O  O29  1  0.72998798  0.25816313  0.41735129  1
  O  O30  1  0.26896125  0.74200759  0.58271185  1
  O  O31  1  0.25136415  0.25582367  0.75395351  1
  O  O32  1  0.73862727  0.27178482  0.58093094  1
  O  O33  1  0.74787481  0.74003680  0.42324470  1
  O  O34  1  0.24590074  0.26190393  0.91070720  1
  O  O35  1  0.24944056  0.73175874  0.75516113  1
  O  O36  1  0.73826026  0.74746428  0.58094734  1
  O  O37  1  0.72217322  0.26078156  0.75208690  1
  O  O38  1  0.28249284  0.72735533  0.92197669  1
  O  O39  1  0.74199711  0.74123296  0.75798634  1
  O  O40  1  0.73074833  0.27651869  0.91160155  1
  O  O41  1  0.72603947  0.75663903  0.91182275  1
