# generated using pymatgen
data_HoMgMn2O6
_symmetry_space_group_name_H-M   'P 1'
_cell_length_a   5.17290037
_cell_length_b   5.44232379
_cell_length_c   7.52032365
_cell_angle_alpha   90.00120451
_cell_angle_beta   89.99998568
_cell_angle_gamma   90.02137259
_symmetry_Int_Tables_number   1
_chemical_formula_structural   HoMgMn2O6
_chemical_formula_sum   'Ho2 Mg2 Mn4 O12'
_cell_volume   211.71663959
_cell_formula_units_Z   2
loop_
 _symmetry_equiv_pos_site_id
 _symmetry_equiv_pos_as_xyz
  1  'x, y, z'
loop_
 _atom_site_type_symbol
 _atom_site_label
 _atom_site_symmetry_multiplicity
 _atom_site_fract_x
 _atom_site_fract_y
 _atom_site_fract_z
 _atom_site_occupancy
  Ho  Ho0  1  0.01809698  0.93210766  0.75000465  1
  Ho  Ho1  1  0.51817882  0.56784514  0.24999447  1
  Mg  Mg2  1  0.48294006  0.43733772  0.74997878  1
  Mg  Mg3  1  0.98291919  0.06266230  0.25000140  1
  Mn  Mn4  1  0.00002871  0.49412272  0.99919542  1
  Mn  Mn5  1  0.00006090  0.49412737  0.50074160  1
  Mn  Mn6  1  0.49999981  0.00590813  0.49926014  1
  Mn  Mn7  1  0.49994712  0.00590724  0.00080522  1
  O  O8  1  0.10633103  0.44397252  0.24997616  1
  O  O9  1  0.19967818  0.20110492  0.93904420  1
  O  O10  1  0.19970388  0.20108140  0.56094860  1
  O  O11  1  0.31117449  0.69000588  0.93855489  1
  O  O12  1  0.31118252  0.68996078  0.56143815  1
  O  O13  1  0.37106171  0.96334944  0.25002152  1
  O  O14  1  0.60630780  0.05604113  0.75002593  1
  O  O15  1  0.69961747  0.29882454  0.43901344  1
  O  O16  1  0.69958842  0.29879914  0.06099546  1
  O  O17  1  0.81109264  0.81010671  0.06142183  1
  O  O18  1  0.81111525  0.81013089  0.43859498  1
  O  O19  1  0.87097298  0.53660335  0.74998217  1
