# generated using pymatgen
data_MgCr2O4
_symmetry_space_group_name_H-M   'P 1'
_cell_length_a   5.98659887
_cell_length_b   5.98662466
_cell_length_c   18.04923714
_cell_angle_alpha   60.16657277
_cell_angle_beta   60.16617321
_cell_angle_gamma   60.00065621
_symmetry_Int_Tables_number   1
_chemical_formula_structural   MgCr2O4
_chemical_formula_sum   'Mg6 Cr12 O24'
_cell_volume   458.55958347
_cell_formula_units_Z   6
loop_
 _symmetry_equiv_pos_site_id
 _symmetry_equiv_pos_as_xyz
  1  'x, y, z'
loop_
 _atom_site_type_symbol
 _atom_site_label
 _atom_site_symmetry_multiplicity
 _atom_site_fract_x
 _atom_site_fract_y
 _atom_site_fract_z
 _atom_site_occupancy
  Mg  Mg0  1  0.12055125  0.12054796  0.04610145  1
  Mg  Mg1  1  0.12038050  0.12037296  0.37962413  1
  Mg  Mg2  1  0.49610850  0.49610763  0.33723764  1
  Mg  Mg3  1  0.12590985  0.12590795  0.70741831  1
  Mg  Mg4  1  0.49712237  0.49712530  0.00286579  1
  Mg  Mg5  1  0.87770875  0.87770732  0.62230230  1
  Cr  Cr6  1  0.49846289  0.49844713  0.16614389  1
  Cr  Cr7  1  0.49845563  0.00466386  0.16614700  1
  Cr  Cr8  1  0.49909917  0.49910151  0.49996511  1
  Cr  Cr9  1  0.00467031  0.49844794  0.16614514  1
  Cr  Cr10  1  0.49907441  0.00198238  0.49996409  1
  Cr  Cr11  1  0.50137519  0.50142627  0.66527087  1
  Cr  Cr12  1  0.87891922  0.87891169  0.28775276  1
  Cr  Cr13  1  0.50037067  0.50036823  0.83188274  1
  Cr  Cr14  1  0.00196680  0.49905445  0.49998062  1
  Cr  Cr15  1  0.50037409  0.00358591  0.83187834  1
  Cr  Cr16  1  0.00356331  0.50038223  0.83188257  1
  Cr  Cr17  1  0.87841282  0.87841056  0.95491062  1
  O  O18  1  0.25643028  0.25642618  0.08977263  1
  O  O19  1  0.26019853  0.26018972  0.23980190  1
  O  O20  1  0.25644626  0.71779695  0.08977180  1
  O  O21  1  0.71780427  0.25644051  0.08977186  1
  O  O22  1  0.25481441  0.25480876  0.42403998  1
  O  O23  1  0.27392491  0.74762280  0.24362583  1
  O  O24  1  0.26020822  0.26019303  0.57314314  1
  O  O25  1  0.74762647  0.27392589  0.24362159  1
  O  O26  1  0.74024136  0.74023286  0.09308274  1
  O  O27  1  0.25482044  0.71826636  0.42404306  1
  O  O28  1  0.71827656  0.25481586  0.42404130  1
  O  O29  1  0.74758425  0.74758373  0.24365000  1
  O  O30  1  0.26120346  0.26121473  0.75379987  1
  O  O31  1  0.28401416  0.73735308  0.58044224  1
  O  O32  1  0.73734750  0.28401331  0.58044593  1
  O  O33  1  0.26097783  0.26098568  0.90567087  1
  O  O34  1  0.74089605  0.74087338  0.42576157  1
  O  O35  1  0.26118502  0.71616739  0.75380828  1
  O  O36  1  0.71616128  0.26120220  0.75380649  1
  O  O37  1  0.73734195  0.73734119  0.58044398  1
  O  O38  1  0.27294105  0.74915463  0.90957966  1
  O  O39  1  0.74914732  0.27294324  0.90957958  1
  O  O40  1  0.73875543  0.73876144  0.76123072  1
  O  O41  1  0.74912724  0.74913581  0.90959061  1
