# generated using pymatgen
data_CaTi3P3O13
_symmetry_space_group_name_H-M   'P 1'
_cell_length_a   6.47357294
_cell_length_b   7.75499131
_cell_length_c   10.40547557
_cell_angle_alpha   99.77846420
_cell_angle_beta   90.00000000
_cell_angle_gamma   90.00000000
_symmetry_Int_Tables_number   1
_chemical_formula_structural   CaTi3P3O13
_chemical_formula_sum   'Ca2 Ti6 P6 O26'
_cell_volume   514.79165532
_cell_formula_units_Z   2
loop_
 _symmetry_equiv_pos_site_id
 _symmetry_equiv_pos_as_xyz
  1  'x, y, z'
loop_
 _atom_site_type_symbol
 _atom_site_label
 _atom_site_symmetry_multiplicity
 _atom_site_fract_x
 _atom_site_fract_y
 _atom_site_fract_z
 _atom_site_occupancy
  Ca  Ca0  1  0.75000000  0.65032169  0.19141972  1
  Ca  Ca1  1  0.25000000  0.34967831  0.80858028  1
  Ti  Ti2  1  0.25000000  0.35121180  0.19988938  1
  Ti  Ti3  1  0.75000000  0.64878820  0.80011062  1
  Ti  Ti4  1  0.25000000  0.79260758  0.43640519  1
  Ti  Ti5  1  0.50000000  -0.00000000  -0.00000000  1
  Ti  Ti6  1  0.75000000  0.20739242  0.56359481  1
  Ti  Ti7  1  0.00000000  -0.00000000  -0.00000000  1
  P  P8  1  0.25000000  0.21928016  0.49068357  1
  P  P9  1  0.75000000  0.78071984  0.50931643  1
  P  P10  1  0.25000000  0.73714519  0.76148465  1
  P  P11  1  0.75000000  0.26285481  0.23851535  1
  P  P12  1  0.75000000  0.31783110  0.88474742  1
  P  P13  1  0.25000000  0.68216890  0.11525258  1
  O  O14  1  0.75000000  0.35996311  0.74244755  1
  O  O15  1  0.56146927  0.75055266  0.41631498  1
  O  O16  1  0.25000000  0.78490581  0.62487746  1
  O  O17  1  0.55108758  0.21329074  0.90268191  1
  O  O18  1  0.75000000  0.65919310  0.60994676  1
  O  O19  1  0.75000000  0.86637383  0.90490377  1
  O  O20  1  0.25000000  0.34080690  0.39005324  1
  O  O21  1  0.05108758  0.78670926  0.09731809  1
  O  O22  1  0.25000000  0.02585998  0.41609451  1
  O  O23  1  0.75000000  0.97414002  0.58390549  1
  O  O24  1  0.06353959  0.62105805  0.78533927  1
  O  O25  1  0.25000000  0.13362617  0.09509623  1
  O  O26  1  0.56353959  0.37894195  0.21466073  1
  O  O27  1  0.75000000  0.50493882  0.96498210  1
  O  O28  1  0.75000000  0.21509419  0.37512254  1
  O  O29  1  0.44891242  0.78670926  0.09731809  1
  O  O30  1  0.93853073  0.75055266  0.41631498  1
  O  O31  1  0.43853073  0.24944734  0.58368502  1
  O  O32  1  0.43646041  0.62105805  0.78533927  1
  O  O33  1  0.25000000  0.64003689  0.25755245  1
  O  O34  1  0.75000000  0.09058607  0.13495567  1
  O  O35  1  0.25000000  0.90941393  0.86504433  1
  O  O36  1  0.93646041  0.37894195  0.21466073  1
  O  O37  1  0.94891242  0.21329074  0.90268191  1
  O  O38  1  0.06146927  0.24944734  0.58368502  1
  O  O39  1  0.25000000  0.49506118  0.03501790  1
