# generated using pymatgen
data_LaMgFeAgO6
_symmetry_space_group_name_H-M   'P 1'
_cell_length_a   5.51836940
_cell_length_b   5.23124119
_cell_length_c   8.67634220
_cell_angle_alpha   92.07195355
_cell_angle_beta   90.00000000
_cell_angle_gamma   90.00000000
_symmetry_Int_Tables_number   1
_chemical_formula_structural   LaMgFeAgO6
_chemical_formula_sum   'La2 Mg2 Fe2 Ag2 O12'
_cell_volume   250.30421073
_cell_formula_units_Z   2
loop_
 _symmetry_equiv_pos_site_id
 _symmetry_equiv_pos_as_xyz
  1  'x, y, z'
loop_
 _atom_site_type_symbol
 _atom_site_label
 _atom_site_symmetry_multiplicity
 _atom_site_fract_x
 _atom_site_fract_y
 _atom_site_fract_z
 _atom_site_occupancy
  La  La0  1  0.06340763  0.97555382  0.25593511  1
  La  La1  1  0.43659237  0.47555382  0.75593511  1
  Mg  Mg2  1  0.56778711  0.54086864  0.24397763  1
  Mg  Mg3  1  0.93221289  0.04086864  0.74397763  1
  Fe  Fe4  1  0.51039064  0.00525554  0.00293591  1
  Fe  Fe5  1  0.98960936  0.50525554  0.50293591  1
  Ag  Ag6  1  0.49860902  0.99171473  0.50455885  1
  Ag  Ag7  1  0.00139098  0.49171473  0.00455885  1
  O  O8  1  0.03477781  0.66453021  0.69484628  1
  O  O9  1  0.20096885  0.18639263  0.91269789  1
  O  O10  1  0.18916430  0.19810442  0.56506326  1
  O  O11  1  0.31083570  0.69810442  0.06506326  1
  O  O12  1  0.29903115  0.68639263  0.41269789  1
  O  O13  1  0.46522219  0.16453021  0.19484528  1
  O  O14  1  0.56799723  0.89291646  0.80101436  1
  O  O15  1  0.72775794  0.27341763  0.59240444  1
  O  O16  1  0.72794549  0.27124590  0.92656628  1
  O  O17  1  0.77205451  0.77124590  0.42656628  1
  O  O18  1  0.77224206  0.77341763  0.09240444  1
  O  O19  1  0.93200277  0.39291646  0.30101436  1
