# generated using pymatgen
data_CaSn2S5
_symmetry_space_group_name_H-M   'P 1'
_cell_length_a   4.12415783
_cell_length_b   15.72554019
_cell_length_c   6.36443943
_cell_angle_alpha   90.00000000
_cell_angle_beta   90.00000000
_cell_angle_gamma   90.00000000
_symmetry_Int_Tables_number   1
_chemical_formula_structural   CaSn2S5
_chemical_formula_sum   'Ca2 Sn4 S10'
_cell_volume   412.76323523
_cell_formula_units_Z   2
loop_
 _symmetry_equiv_pos_site_id
 _symmetry_equiv_pos_as_xyz
  1  'x, y, z'
loop_
 _atom_site_type_symbol
 _atom_site_label
 _atom_site_symmetry_multiplicity
 _atom_site_fract_x
 _atom_site_fract_y
 _atom_site_fract_z
 _atom_site_occupancy
  Ca  Ca0  1  0.25000000  0.75000000  0.11114158  1
  Ca  Ca1  1  0.75000000  0.25000000  0.88885842  1
  Sn  Sn2  1  0.25000000  0.10473103  0.38423642  1
  Sn  Sn3  1  0.25000000  0.39526897  0.38423642  1
  Sn  Sn4  1  0.75000000  0.89526897  0.61576358  1
  Sn  Sn5  1  0.75000000  0.60473103  0.61576358  1
  S  S6  1  0.25000000  0.12785640  0.02123562  1
  S  S7  1  0.25000000  0.37214360  0.02123562  1
  S  S8  1  0.75000000  0.87214360  0.97876438  1
  S  S9  1  0.75000000  0.62785640  0.97876438  1
  S  S10  1  0.25000000  0.92548071  0.39796435  1
  S  S11  1  0.25000000  0.57451929  0.39796435  1
  S  S12  1  0.75000000  0.07451929  0.60203565  1
  S  S13  1  0.75000000  0.42548071  0.60203565  1
  S  S14  1  0.25000000  0.25000000  0.56341032  1
  S  S15  1  0.75000000  0.75000000  0.43658968  1
