# generated using pymatgen
data_LaMnZnFeO6
_symmetry_space_group_name_H-M   'P 1'
_cell_length_a   5.47931668
_cell_length_b   5.33961362
_cell_length_c   7.67615705
_cell_angle_alpha   90.16874593
_cell_angle_beta   90.00000000
_cell_angle_gamma   90.00000000
_symmetry_Int_Tables_number   1
_chemical_formula_structural   LaMnZnFeO6
_chemical_formula_sum   'La2 Mn2 Zn2 Fe2 O12'
_cell_volume   224.58368401
_cell_formula_units_Z   2
loop_
 _symmetry_equiv_pos_site_id
 _symmetry_equiv_pos_as_xyz
  1  'x, y, z'
loop_
 _atom_site_type_symbol
 _atom_site_label
 _atom_site_symmetry_multiplicity
 _atom_site_fract_x
 _atom_site_fract_y
 _atom_site_fract_z
 _atom_site_occupancy
  La  La0  1  0.02905397  0.99177807  0.25017102  1
  La  La1  1  0.47094603  0.49177807  0.75017102  1
  Mn  Mn2  1  0.50408106  0.99994759  0.50028326  1
  Mn  Mn3  1  0.99591894  0.49994759  0.00028326  1
  Zn  Zn4  1  0.52885778  0.51908424  0.25053780  1
  Zn  Zn5  1  0.97114222  0.01908424  0.75053780  1
  Fe  Fe6  1  0.50376070  0.00124913  0.00101214  1
  Fe  Fe7  1  0.99623930  0.50124913  0.50101214  1
  O  O8  1  0.01695586  0.62940363  0.75537916  1
  O  O9  1  0.19721273  0.20195387  0.94303161  1
  O  O10  1  0.20549536  0.19147505  0.55688747  1
  O  O11  1  0.29450464  0.69147505  0.05688747  1
  O  O12  1  0.30278727  0.70195387  0.44303161  1
  O  O13  1  0.48304414  0.12940363  0.25537816  1
  O  O14  1  0.53557298  0.92470004  0.74451605  1
  O  O15  1  0.72810310  0.26523116  0.55112166  1
  O  O16  1  0.73443983  0.27517724  0.94705782  1
  O  O17  1  0.76556017  0.77517724  0.44705782  1
  O  O18  1  0.77189690  0.76523116  0.05112166  1
  O  O19  1  0.96442702  0.42470004  0.24451605  1
