# generated using pymatgen
data_NiSbP2O9
_symmetry_space_group_name_H-M   'P 1'
_cell_length_a   6.39852086
_cell_length_b   7.88102718
_cell_length_c   14.06983242
_cell_angle_alpha   89.93321200
_cell_angle_beta   89.90732527
_cell_angle_gamma   89.81034042
_symmetry_Int_Tables_number   1
_chemical_formula_structural   NiSbP2O9
_chemical_formula_sum   'Ni4 Sb4 P8 O36'
_cell_volume   709.49297635
_cell_formula_units_Z   4
loop_
 _symmetry_equiv_pos_site_id
 _symmetry_equiv_pos_as_xyz
  1  'x, y, z'
loop_
 _atom_site_type_symbol
 _atom_site_label
 _atom_site_symmetry_multiplicity
 _atom_site_fract_x
 _atom_site_fract_y
 _atom_site_fract_z
 _atom_site_occupancy
  Ni  Ni0  1  0.49999282  0.99997855  0.00000025  1
  Ni  Ni1  1  0.50002075  0.49997191  0.50001082  1
  Ni  Ni2  1  0.00003062  0.49997632  0.50002136  1
  Ni  Ni3  1  -0.00004609  -0.00000876  -0.00002151  1
  Sb  Sb4  1  0.75121387  0.34784171  0.87670238  1
  Sb  Sb5  1  0.24876634  0.65212867  0.12335262  1
  Sb  Sb6  1  0.24964964  0.84672008  0.62283203  1
  Sb  Sb7  1  0.75035822  0.15327745  0.37711272  1
  P  P8  1  0.25046437  0.34494566  0.94042651  1
  P  P9  1  0.74952615  0.65499608  0.05961866  1
  P  P10  1  0.74989036  0.84451761  0.55955630  1
  P  P11  1  0.25011426  0.15542433  0.44037112  1
  P  P12  1  0.75007101  0.39299312  0.68557248  1
  P  P13  1  0.24992695  0.60710919  0.31429782  1
  P  P14  1  0.24941473  0.89218406  0.81378444  1
  P  P15  1  0.75059523  0.10794631  0.18637458  1
  O  O16  1  0.05024570  0.59378274  0.37403099  1
  O  O17  1  0.55054165  0.40669187  0.62630794  1
  O  O18  1  0.94978684  0.09438000  0.12622012  1
  O  O19  1  0.44853387  0.90577212  0.87325480  1
  O  O20  1  0.94968279  0.40614990  0.62605399  1
  O  O21  1  0.44955252  0.59327080  0.37376471  1
  O  O22  1  0.05027897  0.90565895  0.87367977  1
  O  O23  1  0.55132852  0.09415551  0.12671793  1
  O  O24  1  0.24977393  0.33491747  0.48212442  1
  O  O25  1  0.75027238  0.66517096  0.51785178  1
  O  O26  1  0.75007855  0.83484211  0.01782172  1
  O  O27  1  0.24990360  0.16526492  0.98220861  1
  O  O28  1  0.75147342  0.14524785  0.95355652  1
  O  O29  1  0.24848291  0.85472434  0.04645426  1
  O  O30  1  0.25027643  0.64451681  0.54610216  1
  O  O31  1  0.74976523  0.35546713  0.45390059  1
  O  O32  1  0.75102968  0.22480941  0.74763600  1
  O  O33  1  0.24896967  0.77510774  0.25242706  1
  O  O34  1  0.24851703  0.72405623  0.75189304  1
  O  O35  1  0.75154533  0.27586708  0.24805812  1
  O  O36  1  0.43991380  0.13070732  0.37334105  1
  O  O37  1  0.93911017  0.86939226  0.62663555  1
  O  O38  1  0.55957566  0.63069489  0.12656400  1
  O  O39  1  0.06159353  0.37074149  0.87299356  1
  O  O40  1  0.56004588  0.86929294  0.62666904  1
  O  O41  1  0.06093731  0.13062473  0.37338989  1
  O  O42  1  0.44045154  0.36927478  0.87339356  1
  O  O43  1  0.93834729  0.62923278  0.12696359  1
  O  O44  1  0.75049457  0.97413703  0.27211084  1
  O  O45  1  0.24956496  0.02597596  0.72788504  1
  O  O46  1  0.25028846  0.47339979  0.22865450  1
  O  O47  1  0.74967750  0.52669279  0.77135975  1
  O  O48  1  0.75001881  0.98015475  0.48115369  1
  O  O49  1  0.24996197  0.01980789  0.51885729  1
  O  O50  1  0.25003469  0.48030157  0.01871349  1
  O  O51  1  0.74995462  0.51971381  0.98123610  1
