# generated using pymatgen
data_LaMgFeWO6
_symmetry_space_group_name_H-M   'P 1'
_cell_length_a   5.58439568
_cell_length_b   5.46108972
_cell_length_c   8.10958522
_cell_angle_alpha   89.50133889
_cell_angle_beta   90.00000000
_cell_angle_gamma   90.00000000
_symmetry_Int_Tables_number   1
_chemical_formula_structural   LaMgFeWO6
_chemical_formula_sum   'La2 Mg2 Fe2 W2 O12'
_cell_volume   247.30772801
_cell_formula_units_Z   2
loop_
 _symmetry_equiv_pos_site_id
 _symmetry_equiv_pos_as_xyz
  1  'x, y, z'
loop_
 _atom_site_type_symbol
 _atom_site_label
 _atom_site_symmetry_multiplicity
 _atom_site_fract_x
 _atom_site_fract_y
 _atom_site_fract_z
 _atom_site_occupancy
  La  La0  1  0.04963761  0.99380835  0.24657992  1
  La  La1  1  0.45036239  0.49380835  0.74657992  1
  Mg  Mg2  1  0.55326083  0.52455066  0.25406163  1
  Mg  Mg3  1  0.94673917  0.02455066  0.75406163  1
  Fe  Fe4  1  0.49550841  0.99893725  0.99656529  1
  Fe  Fe5  1  0.00449159  0.49893725  0.49656529  1
  W  W6  1  0.50960459  0.00219512  0.49899800  1
  W  W7  1  0.99039541  0.50219512  0.99899800  1
  O  O8  1  0.04023825  0.65003114  0.76638755  1
  O  O9  1  0.18652284  0.18864732  0.93286085  1
  O  O10  1  0.21103357  0.16294855  0.56884306  1
  O  O11  1  0.28896643  0.66294855  0.06884306  1
  O  O12  1  0.31347716  0.68864732  0.43286085  1
  O  O13  1  0.45976175  0.15003114  0.26638655  1
  O  O14  1  0.57274276  0.90026255  0.73866217  1
  O  O15  1  0.72386260  0.28071439  0.56513795  1
  O  O16  1  0.72584917  0.29790268  0.93190258  1
  O  O17  1  0.77415083  0.79790268  0.43190258  1
  O  O18  1  0.77613740  0.78071439  0.06513795  1
  O  O19  1  0.92725724  0.40026255  0.23866217  1
