# generated using pymatgen
data_ZnNiMoP2O9
_symmetry_space_group_name_H-M   'P 1'
_cell_length_a   6.43820389
_cell_length_b   7.61643926
_cell_length_c   14.34196690
_cell_angle_alpha   90.01505142
_cell_angle_beta   90.02908163
_cell_angle_gamma   89.98922274
_symmetry_Int_Tables_number   1
_chemical_formula_structural   ZnNiMoP2O9
_chemical_formula_sum   'Zn4 Ni4 Mo4 P8 O36'
_cell_volume   703.27526983
_cell_formula_units_Z   4
loop_
 _symmetry_equiv_pos_site_id
 _symmetry_equiv_pos_as_xyz
  1  'x, y, z'
loop_
 _atom_site_type_symbol
 _atom_site_label
 _atom_site_symmetry_multiplicity
 _atom_site_fract_x
 _atom_site_fract_y
 _atom_site_fract_z
 _atom_site_occupancy
  Zn  Zn0  1  0.74977749  0.93922818  0.78065628  1
  Zn  Zn1  1  0.75150081  0.56023058  0.28043016  1
  Zn  Zn2  1  0.25023765  0.06076767  0.21929771  1
  Zn  Zn3  1  0.24849205  0.43975417  0.71961942  1
  Ni  Ni4  1  0.49999902  0.99996719  -0.00000653  1
  Ni  Ni5  1  0.50010366  0.49988472  0.50003675  1
  Ni  Ni6  1  0.00009648  0.50012309  0.49997150  1
  Ni  Ni7  1  -0.00003344  0.00000146  -0.00000096  1
  Mo  Mo8  1  0.74936566  0.35600145  0.88492328  1
  Mo  Mo9  1  0.25062243  0.64399184  0.11507049  1
  Mo  Mo10  1  0.25026504  0.85642212  0.61496488  1
  Mo  Mo11  1  0.75007871  0.14360836  0.38505023  1
  P  P12  1  0.24963073  0.34641088  0.92764444  1
  P  P13  1  0.75034500  0.65358833  0.07233927  1
  P  P14  1  0.75014078  0.84630202  0.57249441  1
  P  P15  1  0.24991177  0.15371657  0.42752418  1
  P  P16  1  0.75005820  0.37651161  0.69248368  1
  P  P17  1  0.24995981  0.62349480  0.30751427  1
  P  P18  1  0.25002067  0.87626506  0.80747130  1
  P  P19  1  0.74994621  0.12373107  0.19252661  1
  O  O20  1  0.04088741  0.61479881  0.36233905  1
  O  O21  1  0.54239434  0.38530339  0.63682167  1
  O  O22  1  0.95812905  0.11524228  0.13712685  1
  O  O23  1  0.45842511  0.88431533  0.86280685  1
  O  O24  1  0.95911270  0.38522363  0.63766142  1
  O  O25  1  0.45758315  0.61468239  0.36318712  1
  O  O26  1  0.04185955  0.88473093  0.86286581  1
  O  O27  1  0.54157145  0.11567364  0.13718723  1
  O  O28  1  0.24943640  0.33538478  0.47251725  1
  O  O29  1  0.75053606  0.66462174  0.52750502  1
  O  O30  1  0.75029367  0.83564861  0.02783134  1
  O  O31  1  0.24970922  0.16433203  0.97213848  1
  O  O32  1  0.74936607  0.13069703  0.94383326  1
  O  O33  1  0.25064839  0.86927167  0.05613356  1
  O  O34  1  0.24951550  0.63170960  0.55552406  1
  O  O35  1  0.75018217  0.36831987  0.44449428  1
  O  O36  1  0.74942275  0.20406072  0.75579532  1
  O  O37  1  0.25057142  0.79594137  0.24419414  1
  O  O38  1  0.24981679  0.70410886  0.74392954  1
  O  O39  1  0.75019460  0.29589442  0.25606713  1
  O  O40  1  0.43213401  0.12679323  0.35885421  1
  O  O41  1  0.93230931  0.87440287  0.64111470  1
  O  O42  1  0.56845681  0.62555070  0.14102801  1
  O  O43  1  0.06710442  0.37455242  0.85927435  1
  O  O44  1  0.56787960  0.87328804  0.64113912  1
  O  O45  1  0.06768039  0.12557144  0.35891416  1
  O  O46  1  0.43152062  0.37442215  0.85896508  1
  O  O47  1  0.93288309  0.62545541  0.14071462  1
  O  O48  1  0.74979181  0.97689314  0.26841363  1
  O  O49  1  0.25001180  0.02312653  0.73159922  1
  O  O50  1  0.25038846  0.47691326  0.23137165  1
  O  O51  1  0.74959921  0.52309209  0.76862578  1
  O  O52  1  0.74941023  0.98606935  0.49541294  1
  O  O53  1  0.25066788  0.01395078  0.50458913  1
  O  O54  1  0.25032312  0.48545072  0.00515125  1
  O  O55  1  0.74966669  0.51450656  0.99485940  1
