# generated using pymatgen
data_TiZnBiO5
_symmetry_space_group_name_H-M   'P 1'
_cell_length_a   5.31034897
_cell_length_b   8.50759635
_cell_length_c   10.89310208
_cell_angle_alpha   90.00000000
_cell_angle_beta   90.00000000
_cell_angle_gamma   108.36919192
_symmetry_Int_Tables_number   1
_chemical_formula_structural   TiZnBiO5
_chemical_formula_sum   'Ti4 Zn4 Bi4 O20'
_cell_volume   467.05560823
_cell_formula_units_Z   4
loop_
 _symmetry_equiv_pos_site_id
 _symmetry_equiv_pos_as_xyz
  1  'x, y, z'
loop_
 _atom_site_type_symbol
 _atom_site_label
 _atom_site_symmetry_multiplicity
 _atom_site_fract_x
 _atom_site_fract_y
 _atom_site_fract_z
 _atom_site_occupancy
  Ti  Ti0  1  0.80645812  0.94280713  0.61797991  1
  Ti  Ti1  1  0.19354188  0.05719287  0.38202009  1
  Ti  Ti2  1  0.69354188  0.55719287  0.11797991  1
  Ti  Ti3  1  0.30645812  0.44280713  0.88202009  1
  Zn  Zn4  1  0.63072706  0.15712210  0.89804200  1
  Zn  Zn5  1  0.36927294  0.84287790  0.10195800  1
  Zn  Zn6  1  0.86927294  0.34287790  0.39804200  1
  Zn  Zn7  1  0.13072706  0.65712210  0.60195800  1
  Bi  Bi8  1  0.11427080  0.15993709  0.10470325  1
  Bi  Bi9  1  0.88572920  0.84006291  0.89529675  1
  Bi  Bi10  1  0.61427080  0.65993709  0.39529675  1
  Bi  Bi11  1  0.38572920  0.34006291  0.60470325  1
  O  O12  1  0.48866263  0.35590837  0.04608383  1
  O  O13  1  0.99493170  0.31266204  0.95537457  1
  O  O14  1  0.50136975  0.68253245  0.19684843  1
  O  O15  1  0.75987518  0.51697723  0.53398224  1
  O  O16  1  0.78738135  0.49460300  0.26935056  1
  O  O17  1  0.28738135  0.99460300  0.23064944  1
  O  O18  1  0.49493170  0.81266204  0.54462543  1
  O  O19  1  0.50506830  0.18733796  0.45537457  1
  O  O20  1  0.24012482  0.48302277  0.46601776  1
  O  O21  1  0.01133737  0.14409163  0.54608383  1
  O  O22  1  0.21261865  0.50539700  0.73064944  1
  O  O23  1  0.51133737  0.64409163  0.95391617  1
  O  O24  1  0.98866263  0.85590837  0.45391617  1
  O  O25  1  0.71261865  0.00539700  0.76935056  1
  O  O26  1  0.74012482  0.98302277  0.03398224  1
  O  O27  1  0.25987518  0.01697723  0.96601776  1
  O  O28  1  0.49863025  0.31746755  0.80315157  1
  O  O29  1  0.00506830  0.68733796  0.04462543  1
  O  O30  1  0.99863025  0.81746755  0.69684843  1
  O  O31  1  0.00136975  0.18253245  0.30315157  1
