# generated using pymatgen
data_PrMg(CuO3)2
_symmetry_space_group_name_H-M   'P 1'
_cell_length_a   5.25528476
_cell_length_b   5.44195782
_cell_length_c   7.54998292
_cell_angle_alpha   90.00767707
_cell_angle_beta   90.00163311
_cell_angle_gamma   89.99423587
_symmetry_Int_Tables_number   1
_chemical_formula_structural   PrMg(CuO3)2
_chemical_formula_sum   'Pr2 Mg2 Cu4 O12'
_cell_volume   215.92224506
_cell_formula_units_Z   2
loop_
 _symmetry_equiv_pos_site_id
 _symmetry_equiv_pos_as_xyz
  1  'x, y, z'
loop_
 _atom_site_type_symbol
 _atom_site_label
 _atom_site_symmetry_multiplicity
 _atom_site_fract_x
 _atom_site_fract_y
 _atom_site_fract_z
 _atom_site_occupancy
  Pr  Pr0  1  0.01066950  0.95498636  0.75000376  1
  Pr  Pr1  1  0.51045409  0.54455872  0.24993930  1
  Mg  Mg2  1  0.47240302  0.43560061  0.74996377  1
  Mg  Mg3  1  0.97242333  0.06480760  0.25001928  1
  Cu  Cu4  1  0.99866065  0.49906199  0.99813373  1
  Cu  Cu5  1  0.99869639  0.49917920  0.50190518  1
  Cu  Cu6  1  0.49882558  0.00081796  0.49811737  1
  Cu  Cu7  1  0.49901572  0.00098362  0.00181798  1
  O  O8  1  0.07246084  0.44994570  0.24999125  1
  O  O9  1  0.22971755  0.23375591  0.94556583  1
  O  O10  1  0.22907927  0.23415534  0.55433716  1
  O  O11  1  0.30959910  0.69733260  0.55686255  1
  O  O12  1  0.30956726  0.69729807  0.94317378  1
  O  O13  1  0.37036582  0.97928583  0.25015571  1
  O  O14  1  0.57249071  0.05030817  0.75003547  1
  O  O15  1  0.72851623  0.26508804  0.05445973  1
  O  O16  1  0.72891338  0.26558328  0.44532766  1
  O  O17  1  0.80905636  0.80326347  0.05679843  1
  O  O18  1  0.80893075  0.80339467  0.44319736  1
  O  O19  1  0.87014945  0.52059286  0.75019572  1
