# generated using pymatgen
data_V3Zn(P2O7)2
_symmetry_space_group_name_H-M   'P 1'
_cell_length_a   7.44267066
_cell_length_b   7.78320808
_cell_length_c   9.53749749
_cell_angle_alpha   90.00000000
_cell_angle_beta   111.54199467
_cell_angle_gamma   90.00000000
_symmetry_Int_Tables_number   1
_chemical_formula_structural   V3Zn(P2O7)2
_chemical_formula_sum   'V6 Zn2 P8 O28'
_cell_volume   513.89484330
_cell_formula_units_Z   2
loop_
 _symmetry_equiv_pos_site_id
 _symmetry_equiv_pos_as_xyz
  1  'x, y, z'
loop_
 _atom_site_type_symbol
 _atom_site_label
 _atom_site_symmetry_multiplicity
 _atom_site_fract_x
 _atom_site_fract_y
 _atom_site_fract_z
 _atom_site_occupancy
  V  V0  1  0.18935420  0.87100546  0.52368661  1
  V  V1  1  0.81064580  0.37100546  0.97631339  1
  V  V2  1  0.81064580  0.12899454  0.47631339  1
  V  V3  1  0.18935420  0.62899454  0.02368661  1
  V  V4  1  -0.00000000  0.00000000  -0.00000000  1
  V  V5  1  -0.00000000  0.50000000  0.50000000  1
  Zn  Zn6  1  0.50000000  0.00000000  -0.00000000  1
  Zn  Zn7  1  0.50000000  0.50000000  0.50000000  1
  P  P8  1  0.59218837  0.06720137  0.70902388  1
  P  P9  1  0.40781163  0.56720137  0.79097612  1
  P  P10  1  0.40781163  0.93279863  0.29097612  1
  P  P11  1  0.59218837  0.43279863  0.20902388  1
  P  P12  1  0.86271322  0.79104455  0.68551047  1
  P  P13  1  0.13728678  0.29104455  0.81448953  1
  P  P14  1  0.13728678  0.20895545  0.31448953  1
  P  P15  1  0.86271322  0.70895545  0.18551047  1
  O  O16  1  0.80026684  0.62036675  0.59869798  1
  O  O17  1  0.19973316  0.12036675  0.90130202  1
  O  O18  1  0.19973316  0.37963325  0.40130202  1
  O  O19  1  0.80026684  0.87963325  0.09869798  1
  O  O20  1  0.28139128  0.61546438  0.62380647  1
  O  O21  1  0.71860872  0.11546438  0.87619353  1
  O  O22  1  0.71860872  0.38453562  0.37619353  1
  O  O23  1  0.28139128  0.88453562  0.12380647  1
  O  O24  1  0.61882287  0.19525389  0.59674336  1
  O  O25  1  0.38117713  0.69525389  0.90325664  1
  O  O26  1  0.38117713  0.80474611  0.40325664  1
  O  O27  1  0.61882287  0.30474611  0.09674336  1
  O  O28  1  0.66642466  0.88164155  0.67690838  1
  O  O29  1  0.33357534  0.38164155  0.82309162  1
  O  O30  1  0.33357534  0.11835845  0.32309162  1
  O  O31  1  0.66642466  0.61835845  0.17690838  1
  O  O32  1  0.38976824  0.47400220  0.20177555  1
  O  O33  1  0.61023176  0.97400220  0.29822445  1
  O  O34  1  0.61023176  0.52599780  0.79822445  1
  O  O35  1  0.38976824  0.02599780  0.70177555  1
  O  O36  1  0.01840390  0.21969280  0.14513637  1
  O  O37  1  0.98159610  0.71969280  0.35486363  1
  O  O38  1  0.98159610  0.78030720  0.85486363  1
  O  O39  1  0.01840390  0.28030720  0.64513637  1
  O  O40  1  0.95978726  0.58875228  0.10717489  1
  O  O41  1  0.04021274  0.08875228  0.39282511  1
  O  O42  1  0.04021274  0.41124772  0.89282511  1
  O  O43  1  0.95978726  0.91124772  0.60717489  1
