# generated using pymatgen
data_LaMgTaFeO6
_symmetry_space_group_name_H-M   'P 1'
_cell_length_a   5.63394924
_cell_length_b   5.46100058
_cell_length_c   8.00891839
_cell_angle_alpha   90.28261785
_cell_angle_beta   90.00000000
_cell_angle_gamma   90.00000000
_symmetry_Int_Tables_number   1
_chemical_formula_structural   LaMgTaFeO6
_chemical_formula_sum   'La2 Mg2 Ta2 Fe2 O12'
_cell_volume   246.40739478
_cell_formula_units_Z   2
loop_
 _symmetry_equiv_pos_site_id
 _symmetry_equiv_pos_as_xyz
  1  'x, y, z'
loop_
 _atom_site_type_symbol
 _atom_site_label
 _atom_site_symmetry_multiplicity
 _atom_site_fract_x
 _atom_site_fract_y
 _atom_site_fract_z
 _atom_site_occupancy
  La  La0  1  0.04876498  0.99118192  0.24981555  1
  La  La1  1  0.45123502  0.49118192  0.74981555  1
  Mg  Mg2  1  0.55398284  0.52695718  0.25412594  1
  Mg  Mg3  1  0.94601716  0.02695718  0.75412594  1
  Ta  Ta4  1  0.50995834  0.00254348  0.49821688  1
  Ta  Ta5  1  0.99004166  0.50254348  0.99821688  1
  Fe  Fe6  1  0.49498455  0.99696819  0.99947186  1
  Fe  Fe7  1  0.00501545  0.49696819  0.49947186  1
  O  O8  1  0.03216348  0.64791279  0.76834365  1
  O  O9  1  0.18365618  0.19441339  0.93690944  1
  O  O10  1  0.20475360  0.16700981  0.56930450  1
  O  O11  1  0.29524640  0.66700981  0.06930450  1
  O  O12  1  0.31634382  0.69441339  0.43690944  1
  O  O13  1  0.46783652  0.14791279  0.26834265  1
  O  O14  1  0.56046275  0.90219222  0.73542669  1
  O  O15  1  0.71873405  0.27946420  0.56027586  1
  O  O16  1  0.72382919  0.29135582  0.92811062  1
  O  O17  1  0.77617081  0.79135582  0.42811062  1
  O  O18  1  0.78126595  0.77946420  0.06027586  1
  O  O19  1  0.93953725  0.40219222  0.23542669  1
