# generated using pymatgen
data_TiZnSn(PO4)3
_symmetry_space_group_name_H-M   'P 1'
_cell_length_a   8.69228317
_cell_length_b   8.69228280
_cell_length_c   8.69228286
_cell_angle_alpha   60.57345238
_cell_angle_beta   60.57345255
_cell_angle_gamma   60.57345398
_symmetry_Int_Tables_number   1
_chemical_formula_structural   TiZnSn(PO4)3
_chemical_formula_sum   'Ti2 Zn2 Sn2 P6 O24'
_cell_volume   470.40960313
_cell_formula_units_Z   2
loop_
 _symmetry_equiv_pos_site_id
 _symmetry_equiv_pos_as_xyz
  1  'x, y, z'
loop_
 _atom_site_type_symbol
 _atom_site_label
 _atom_site_symmetry_multiplicity
 _atom_site_fract_x
 _atom_site_fract_y
 _atom_site_fract_z
 _atom_site_occupancy
  Ti  Ti0  1  0.14499613  0.14499613  0.14499613  1
  Ti  Ti1  1  0.64499613  0.64499613  0.64499613  1
  Zn  Zn2  1  0.00496458  0.00496458  0.00496458  1
  Zn  Zn3  1  0.50496458  0.50496458  0.50496458  1
  Sn  Sn4  1  0.35480552  0.35480552  0.35480552  1
  Sn  Sn5  1  0.85480552  0.85480552  0.85480552  1
  P  P6  1  0.04449804  0.45035745  0.75098971  1
  P  P7  1  0.45035745  0.75098971  0.04449804  1
  P  P8  1  0.75098971  0.04449804  0.45035745  1
  P  P9  1  0.25098971  0.95035745  0.54449804  1
  P  P10  1  0.54449804  0.25098971  0.95035745  1
  P  P11  1  0.95035745  0.54449804  0.25098971  1
  O  O12  1  0.10425916  0.51252269  0.31410802  1
  O  O13  1  0.31410802  0.10425916  0.51252269  1
  O  O14  1  0.05925552  0.25889770  0.91227645  1
  O  O15  1  0.51252269  0.31410802  0.10425916  1
  O  O16  1  0.01252269  0.60425916  0.81410802  1
  O  O17  1  0.24119214  0.43433944  0.59177619  1
  O  O18  1  0.25889770  0.91227645  0.05925552  1
  O  O19  1  0.43433944  0.59177619  0.24119214  1
  O  O20  1  0.18526547  0.99664708  0.38884570  1
  O  O21  1  0.59177619  0.24119214  0.43433944  1
  O  O22  1  0.09177619  0.93433944  0.74119214  1
  O  O23  1  0.38884570  0.18526547  0.99664708  1
  O  O24  1  0.60425916  0.81410802  0.01252269  1
  O  O25  1  0.91227645  0.05925552  0.25889770  1
  O  O26  1  0.41227645  0.75889770  0.55925552  1
  O  O27  1  0.81410802  0.01252269  0.60425916  1
  O  O28  1  0.55925552  0.41227645  0.75889770  1
  O  O29  1  0.74119214  0.09177619  0.93433944  1
  O  O30  1  0.75889770  0.55925552  0.41227645  1
  O  O31  1  0.99664708  0.38884570  0.18526547  1
  O  O32  1  0.49664708  0.68526547  0.88884570  1
  O  O33  1  0.93433944  0.74119214  0.09177619  1
  O  O34  1  0.68526547  0.88884570  0.49664708  1
  O  O35  1  0.88884570  0.49664708  0.68526547  1
