# generated using pymatgen
data_Nb2Zn2CuO8
_symmetry_space_group_name_H-M   'P 1'
_cell_length_a   5.23151382
_cell_length_b   6.02304070
_cell_length_c   10.10066712
_cell_angle_alpha   106.84925449
_cell_angle_beta   91.68992295
_cell_angle_gamma   90.36580842
_symmetry_Int_Tables_number   1
_chemical_formula_structural   Nb2Zn2CuO8
_chemical_formula_sum   'Nb4 Zn4 Cu2 O16'
_cell_volume   304.43557361
_cell_formula_units_Z   2
loop_
 _symmetry_equiv_pos_site_id
 _symmetry_equiv_pos_as_xyz
  1  'x, y, z'
loop_
 _atom_site_type_symbol
 _atom_site_label
 _atom_site_symmetry_multiplicity
 _atom_site_fract_x
 _atom_site_fract_y
 _atom_site_fract_z
 _atom_site_occupancy
  Nb  Nb0  1  0.73516830  0.27738058  0.22855663  1
  Nb  Nb1  1  0.76802388  0.04576091  0.77145061  1
  Nb  Nb2  1  0.26690548  0.72162859  0.77085123  1
  Nb  Nb3  1  0.23401597  0.95278474  0.22980355  1
  Zn  Zn4  1  0.75836424  0.43292550  0.55760698  1
  Zn  Zn5  1  0.74251080  0.87479425  0.44231448  1
  Zn  Zn6  1  0.24231734  0.56400421  0.44133646  1
  Zn  Zn7  1  0.25997576  0.12411103  0.55925272  1
  Cu  Cu8  1  0.75285436  0.64892180  0.99935006  1
  Cu  Cu9  1  0.25238532  0.35065698  0.00026612  1
  O  O10  1  0.06839563  0.19022628  0.14245333  1
  O  O11  1  0.43543224  0.04310224  0.85741222  1
  O  O12  1  0.93412134  0.80896874  0.85927489  1
  O  O13  1  0.56604180  0.95882892  0.14336860  1
  O  O14  1  0.56779221  0.42390793  0.11030816  1
  O  O15  1  0.94120028  0.30447436  0.88794091  1
  O  O16  1  0.43763317  0.57869048  0.88926210  1
  O  O17  1  0.06424858  0.69254797  0.11192196  1
  O  O18  1  0.44282420  0.28386535  0.36191943  1
  O  O19  1  0.06067141  0.91960114  0.63938976  1
  O  O20  1  0.36704725  0.83582116  0.38592838  1
  O  O21  1  0.13435317  0.44920306  0.61493774  1
  O  O22  1  0.63556441  0.16201527  0.61453792  1
  O  O23  1  0.86724133  0.54944775  0.38541482  1
  O  O24  1  0.94196924  0.07847708  0.36129011  1
  O  O25  1  0.56112927  0.71527668  0.63947785  1
