# generated using pymatgen
data_Sr2YTi2AlO7
_symmetry_space_group_name_H-M   'P 1'
_cell_length_a   12.12821307
_cell_length_b   12.12821307
_cell_length_c   12.12821307
_cell_angle_alpha   38.03188063
_cell_angle_beta   153.01248025
_cell_angle_gamma   153.70986092
_symmetry_Int_Tables_number   1
_chemical_formula_structural   Sr2YTi2AlO7
_chemical_formula_sum   'Sr4 Y2 Ti4 Al2 O14'
_cell_volume   358.00634809
_cell_formula_units_Z   2
loop_
 _symmetry_equiv_pos_site_id
 _symmetry_equiv_pos_as_xyz
  1  'x, y, z'
loop_
 _atom_site_type_symbol
 _atom_site_label
 _atom_site_symmetry_multiplicity
 _atom_site_fract_x
 _atom_site_fract_y
 _atom_site_fract_z
 _atom_site_occupancy
  Sr  Sr0  1  0.03594876  0.85518222  0.86702570  1
  Sr  Sr1  1  0.98815652  0.16892306  0.13297430  1
  Sr  Sr2  1  0.03594876  0.66892306  0.68076654  1
  Sr  Sr3  1  0.98815652  0.35518222  0.31923346  1
  Y  Y4  1  0.01811473  0.51811473  0.50000000  1
  Y  Y5  1  0.01811473  0.01811473  0.00000000  1
  Ti  Ti6  1  0.51725807  0.45588882  0.93732681  1
  Ti  Ti7  1  0.51856101  0.57993126  0.06267319  1
  Ti  Ti8  1  0.51725807  0.07993126  0.56137026  1
  Ti  Ti9  1  0.51856101  0.95588882  0.43862974  1
  Al  Al10  1  0.56756868  0.74461170  0.32295697  1
  Al  Al11  1  0.42165473  0.24461170  0.67704303  1
  O  O12  1  0.01751578  0.92676698  0.59074880  1
  O  O13  1  0.33601818  0.42676698  0.40925120  1
  O  O14  1  0.50710562  0.19509840  0.17688344  1
  O  O15  1  0.01821595  0.33022217  0.82311656  1
  O  O16  1  0.50710562  0.83022217  0.81200622  1
  O  O17  1  0.01821595  0.69509840  0.18799378  1
  O  O18  1  0.52640483  0.70279554  0.68446206  1
  O  O19  1  0.01833448  0.84194277  0.31553794  1
  O  O20  1  0.52640483  0.34194277  0.32361029  1
  O  O21  1  0.01833448  0.20279554  0.67638971  1
  O  O22  1  0.49018641  0.86847729  0.25814235  1
  O  O23  1  0.61033494  0.23204306  0.74185765  1
  O  O24  1  0.49018641  0.73204306  0.12170912  1
  O  O25  1  0.61033494  0.36847729  0.87829088  1
