# generated using pymatgen
data_ZnSn3(P2O7)2
_symmetry_space_group_name_H-M   'P 1'
_cell_length_a   8.13510633
_cell_length_b   8.26691478
_cell_length_c   10.04028311
_cell_angle_alpha   90.00000000
_cell_angle_beta   103.76834252
_cell_angle_gamma   90.00000000
_symmetry_Int_Tables_number   1
_chemical_formula_structural   ZnSn3(P2O7)2
_chemical_formula_sum   'Zn2 Sn6 P8 O28'
_cell_volume   655.82928801
_cell_formula_units_Z   2
loop_
 _symmetry_equiv_pos_site_id
 _symmetry_equiv_pos_as_xyz
  1  'x, y, z'
loop_
 _atom_site_type_symbol
 _atom_site_label
 _atom_site_symmetry_multiplicity
 _atom_site_fract_x
 _atom_site_fract_y
 _atom_site_fract_z
 _atom_site_occupancy
  Zn  Zn0  1  0.50000000  0.00000000  -0.00000000  1
  Zn  Zn1  1  0.50000000  0.50000000  0.50000000  1
  Sn  Sn2  1  0.19694374  0.86262981  0.51716380  1
  Sn  Sn3  1  0.80305626  0.36262981  0.98283620  1
  Sn  Sn4  1  0.80305626  0.13737019  0.48283620  1
  Sn  Sn5  1  0.19694374  0.63737019  0.01716380  1
  Sn  Sn6  1  0.00000000  0.00000000  -0.00000000  1
  Sn  Sn7  1  0.00000000  0.50000000  0.50000000  1
  P  P8  1  0.56069774  0.03814105  0.70590894  1
  P  P9  1  0.43930226  0.53814105  0.79409106  1
  P  P10  1  0.43930226  0.96185895  0.29409106  1
  P  P11  1  0.56069774  0.46185895  0.20590894  1
  P  P12  1  0.81927657  0.79691391  0.67407142  1
  P  P13  1  0.18072343  0.29691391  0.82592858  1
  P  P14  1  0.18072343  0.20308609  0.32592858  1
  P  P15  1  0.81927657  0.70308609  0.17407142  1
  O  O16  1  0.78240898  0.63428233  0.59981128  1
  O  O17  1  0.21759102  0.13428233  0.90018872  1
  O  O18  1  0.21759102  0.36571767  0.40018872  1
  O  O19  1  0.78240898  0.86571767  0.09981128  1
  O  O20  1  0.39040795  0.55700594  0.63536210  1
  O  O21  1  0.60959205  0.05700594  0.86463790  1
  O  O22  1  0.60959205  0.44299406  0.36463790  1
  O  O23  1  0.39040795  0.94299406  0.13536210  1
  O  O24  1  0.65154813  0.16917546  0.64253640  1
  O  O25  1  0.34845187  0.66917546  0.85746360  1
  O  O26  1  0.34845187  0.83082454  0.35746360  1
  O  O27  1  0.65154813  0.33082454  0.14253640  1
  O  O28  1  0.62928905  0.86411108  0.67105285  1
  O  O29  1  0.37071095  0.36411108  0.82894715  1
  O  O30  1  0.37071095  0.13588892  0.32894715  1
  O  O31  1  0.62928905  0.63588892  0.17105285  1
  O  O32  1  0.37034973  0.46990379  0.14862826  1
  O  O33  1  0.62965027  0.96990379  0.35137174  1
  O  O34  1  0.62965027  0.53009621  0.85137174  1
  O  O35  1  0.37034973  0.03009621  0.64862826  1
  O  O36  1  0.07816512  0.20743286  0.17853290  1
  O  O37  1  0.92183488  0.70743286  0.32146710  1
  O  O38  1  0.92183488  0.79256714  0.82146710  1
  O  O39  1  0.07816512  0.29256714  0.67853290  1
  O  O40  1  0.90035685  0.57796094  0.09162822  1
  O  O41  1  0.09964315  0.07796094  0.40837178  1
  O  O42  1  0.09964315  0.42203906  0.90837178  1
  O  O43  1  0.90035685  0.92203906  0.59162822  1
