# generated using pymatgen
data_Ba2YV2F11
_symmetry_space_group_name_H-M   'P 1'
_cell_length_a   7.95439637
_cell_length_b   7.95439624
_cell_length_c   13.80849604
_cell_angle_alpha   90.00000000
_cell_angle_beta   90.00000000
_cell_angle_gamma   120.00000056
_symmetry_Int_Tables_number   1
_chemical_formula_structural   Ba2YV2F11
_chemical_formula_sum   'Ba6 Y3 V6 F33'
_cell_volume   756.64376643
_cell_formula_units_Z   3
loop_
 _symmetry_equiv_pos_site_id
 _symmetry_equiv_pos_as_xyz
  1  'x, y, z'
loop_
 _atom_site_type_symbol
 _atom_site_label
 _atom_site_symmetry_multiplicity
 _atom_site_fract_x
 _atom_site_fract_y
 _atom_site_fract_z
 _atom_site_occupancy
  Ba  Ba0  1  0.55845932  0.19455924  0.66396384  1
  Ba  Ba1  1  0.19516686  0.52254884  0.81288657  1
  Ba  Ba2  1  0.63609992  0.44154068  0.99729684  1
  Ba  Ba3  1  0.47745116  0.67261602  0.47955257  1
  Ba  Ba4  1  0.32738398  0.80483314  0.14621957  1
  Ba  Ba5  1  0.80544076  0.36390008  0.33062984  1
  Y  Y6  1  0.13248216  0.99996765  0.89260592  1
  Y  Y7  1  0.86748549  0.86751784  0.22593892  1
  Y  Y8  1  0.00003235  0.13251451  0.55927192  1
  V  V9  1  0.63384789  0.99486404  0.88200193  1
  V  V10  1  0.78363077  0.73930342  0.72099875  1
  V  V11  1  0.26069658  0.04432735  0.38766475  1
  V  V12  1  0.36101715  0.36615211  0.21533493  1
  V  V13  1  0.95567265  0.21636923  0.05433175  1
  V  V14  1  0.00513596  0.63898285  0.54866793  1
  F  F15  1  0.65908581  0.08641828  0.02662730  1
  F  F16  1  0.51006871  0.70444995  0.92787689  1
  F  F17  1  0.42733247  0.34091419  0.35996030  1
  F  F18  1  0.09337513  0.42997190  0.49966926  1
  F  F19  1  0.56726252  0.28989211  0.17665160  1
  F  F20  1  0.94476404  0.64961634  0.19108776  1
  F  F21  1  0.57002810  0.66340323  0.16633626  1
  F  F22  1  0.35038366  0.29514770  0.85775476  1
  F  F23  1  0.72262860  0.43273748  0.50998460  1
  F  F24  1  0.25779529  0.34235845  0.07296797  1
  F  F25  1  0.33659677  0.90662487  0.83300326  1
  F  F26  1  0.91358172  0.57266753  0.69329430  1
  F  F27  1  0.29944957  0.01699773  0.01460521  1
  F  F28  1  0.02185967  0.49847185  0.01050932  1
  F  F29  1  0.71754816  0.70055043  0.34793821  1
  F  F30  1  0.29555005  0.80561876  0.59454289  1
  F  F31  1  0.95791623  0.15038258  0.90244868  1
  F  F32  1  0.08456316  0.74220471  0.40630097  1
  F  F33  1  0.00520630  0.07596071  0.39485897  1
  F  F34  1  0.98300227  0.28245184  0.68127121  1
  F  F35  1  0.07075441  0.99479370  0.72819297  1
  F  F36  1  0.50152815  0.52338782  0.67717632  1
  F  F37  1  0.47661218  0.97814033  0.34384232  1
  F  F38  1  0.19246635  0.04208377  0.23578168  1
  F  F39  1  0.65764155  0.91543684  0.73963497  1
  F  F40  1  0.71010789  0.27737140  0.84331860  1
  F  F41  1  0.19438124  0.48993129  0.26120989  1
  F  F42  1  0.86762966  0.71716522  0.86821003  1
  F  F43  1  0.84953456  0.13237034  0.20154303  1
  F  F44  1  0.92403929  0.92924559  0.06152597  1
  F  F45  1  0.70485230  0.05523596  0.52442076  1
  F  F46  1  0.84961742  0.80753365  0.56911468  1
  F  F47  1  0.28283478  0.15046544  0.53487603  1
