# generated using pymatgen
data_ZnCoPO5
_symmetry_space_group_name_H-M   'P 1'
_cell_length_a   5.39188185
_cell_length_b   6.97911076
_cell_length_c   8.13500384
_cell_angle_alpha   89.59322719
_cell_angle_beta   40.22178223
_cell_angle_gamma   74.11056682
_symmetry_Int_Tables_number   1
_chemical_formula_structural   ZnCoPO5
_chemical_formula_sum   'Zn2 Co2 P2 O10'
_cell_volume   179.79493276
_cell_formula_units_Z   2
loop_
 _symmetry_equiv_pos_site_id
 _symmetry_equiv_pos_as_xyz
  1  'x, y, z'
loop_
 _atom_site_type_symbol
 _atom_site_label
 _atom_site_symmetry_multiplicity
 _atom_site_fract_x
 _atom_site_fract_y
 _atom_site_fract_z
 _atom_site_occupancy
  Zn  Zn0  1  0.48298515  0.22767174  0.68061879  1
  Zn  Zn1  1  0.53800281  0.72922084  0.29927629  1
  Co  Co2  1  0.49960497  0.48534188  0.99549649  1
  Co  Co3  1  0.49952117  0.98544717  0.99580856  1
  P  P4  1  0.50663638  0.23386933  0.33510804  1
  P  P5  1  0.48623696  0.73949312  0.65899288  1
  O  O6  1  0.35124663  0.09853492  0.30614878  1
  O  O7  1  0.68181912  0.36315206  0.13828087  1
  O  O8  1  0.63894812  0.87843314  0.68691603  1
  O  O9  1  0.30686836  0.61466507  0.86068108  1
  O  O10  1  0.84559504  0.59071045  0.36213840  1
  O  O11  1  0.15205204  0.87421821  0.69701746  1
  O  O12  1  0.15263032  0.37823241  0.63309667  1
  O  O13  1  0.84725008  0.09530991  0.29070614  1
  O  O14  1  0.49771558  0.73531007  0.08494455  1
  O  O15  1  0.49961826  0.23751868  0.90678495  1
