# generated using pymatgen
data_SrCo(PO4)2
_symmetry_space_group_name_H-M   'P 1'
_cell_length_a   6.01721451
_cell_length_b   7.16816072
_cell_length_c   8.93814797
_cell_angle_alpha   109.59100387
_cell_angle_beta   102.80686285
_cell_angle_gamma   101.80885188
_symmetry_Int_Tables_number   1
_chemical_formula_structural   SrCo(PO4)2
_chemical_formula_sum   'Sr2 Co2 P4 O16'
_cell_volume   337.44523066
_cell_formula_units_Z   2
loop_
 _symmetry_equiv_pos_site_id
 _symmetry_equiv_pos_as_xyz
  1  'x, y, z'
loop_
 _atom_site_type_symbol
 _atom_site_label
 _atom_site_symmetry_multiplicity
 _atom_site_fract_x
 _atom_site_fract_y
 _atom_site_fract_z
 _atom_site_occupancy
  Sr  Sr0  1  0.25452726  0.77513997  0.04306556  1
  Sr  Sr1  1  0.74547274  0.22486003  0.95693444  1
  Co  Co2  1  0.69843293  0.82362242  0.54729790  1
  Co  Co3  1  0.30156707  0.17637758  0.45270210  1
  P  P4  1  0.40382946  0.42304603  0.23236227  1
  P  P5  1  0.59617054  0.57695397  0.76763773  1
  P  P6  1  0.84879732  0.02693725  0.30613614  1
  P  P7  1  0.15120268  0.97306275  0.69386386  1
  O  O8  1  0.81972259  0.56762970  0.88404680  1
  O  O9  1  0.62219348  0.45116270  0.17596375  1
  O  O10  1  0.65125458  0.78820952  0.74104676  1
  O  O11  1  0.94422466  0.08042249  0.69849513  1
  O  O12  1  0.37780652  0.54883730  0.82403625  1
  O  O13  1  0.98699122  0.74958527  0.56144433  1
  O  O14  1  0.01300878  0.25041473  0.43855567  1
  O  O15  1  0.27945347  0.98815044  0.86588999  1
  O  O16  1  0.34874542  0.21179048  0.25895324  1
  O  O17  1  0.72054653  0.01184956  0.13411001  1
  O  O18  1  0.18027741  0.43237030  0.11595320  1
  O  O19  1  0.44017507  0.60370189  0.40634273  1
  O  O20  1  0.55982493  0.39629811  0.59365727  1
  O  O21  1  0.65392027  0.93245316  0.37281196  1
  O  O22  1  0.05577534  0.91957751  0.30150487  1
  O  O23  1  0.34607973  0.06754684  0.62718804  1
