# generated using pymatgen
data_Ca3Cr3(AsO4)4
_symmetry_space_group_name_H-M   'P 1'
_cell_length_a   5.22903137
_cell_length_b   9.34354740
_cell_length_c   15.56813658
_cell_angle_alpha   95.60327352
_cell_angle_beta   90.00000000
_cell_angle_gamma   90.00000000
_symmetry_Int_Tables_number   1
_chemical_formula_structural   Ca3Cr3(AsO4)4
_chemical_formula_sum   'Ca6 Cr6 As8 O32'
_cell_volume   756.98899157
_cell_formula_units_Z   2
loop_
 _symmetry_equiv_pos_site_id
 _symmetry_equiv_pos_as_xyz
  1  'x, y, z'
loop_
 _atom_site_type_symbol
 _atom_site_label
 _atom_site_symmetry_multiplicity
 _atom_site_fract_x
 _atom_site_fract_y
 _atom_site_fract_z
 _atom_site_occupancy
  Ca  Ca0  1  0.96684802  0.03810085  0.73385921  1
  Ca  Ca1  1  0.46684802  0.46189915  0.76614079  1
  Ca  Ca2  1  0.03315198  0.96189915  0.26614079  1
  Ca  Ca3  1  0.53315198  0.53810085  0.23385921  1
  Ca  Ca4  1  -0.00000000  -0.00000000  -0.00000000  1
  Ca  Ca5  1  0.50000000  0.50000000  0.50000000  1
  Cr  Cr6  1  0.02259715  0.32683655  0.11943504  1
  Cr  Cr7  1  0.97740285  0.67316345  0.88056496  1
  Cr  Cr8  1  0.52259715  0.17316345  0.38056496  1
  Cr  Cr9  1  0.47740285  0.82683655  0.61943504  1
  Cr  Cr10  1  0.50000000  0.50000000  -0.00000000  1
  Cr  Cr11  1  -0.00000000  -0.00000000  0.50000000  1
  As  As12  1  0.49319515  0.88279040  0.84155774  1
  As  As13  1  0.00760200  0.33835402  0.90310269  1
  As  As14  1  0.50760200  0.16164598  0.59689731  1
  As  As15  1  0.49239800  0.83835402  0.40310269  1
  As  As16  1  0.50680485  0.11720960  0.15844226  1
  As  As17  1  0.99239800  0.66164598  0.09689731  1
  As  As18  1  0.00680485  0.38279040  0.34155774  1
  As  As19  1  0.99319515  0.61720960  0.65844226  1
  O  O20  1  0.05737696  0.57356610  0.76252759  1
  O  O21  1  0.55908628  0.25363757  0.50809795  1
  O  O22  1  0.11045538  0.24770051  0.81085456  1
  O  O23  1  0.08723751  0.79382185  0.65055267  1
  O  O24  1  0.88954462  0.75229949  0.18914544  1
  O  O25  1  0.44262304  0.07356610  0.26252759  1
  O  O26  1  0.61045538  0.25229949  0.68914544  1
  O  O27  1  0.80309428  0.90071903  0.39608369  1
  O  O28  1  0.83445184  0.50390944  0.40475736  1
  O  O29  1  0.94262304  0.42643390  0.23747241  1
  O  O30  1  0.41276249  0.29382185  0.15055267  1
  O  O31  1  0.19690572  0.09928097  0.60391631  1
  O  O32  1  0.19503361  0.49567886  0.91878882  1
  O  O33  1  0.16554816  0.49608956  0.59524264  1
  O  O34  1  0.83425067  0.10285861  0.14233815  1
  O  O35  1  0.33425067  0.39714139  0.35766185  1
  O  O36  1  0.69503361  0.00432114  0.58121118  1
  O  O37  1  0.38954462  0.74770051  0.31085456  1
  O  O38  1  0.33445184  0.99609056  0.09524264  1
  O  O39  1  0.30309428  0.59928097  0.10391631  1
  O  O40  1  0.66574933  0.60285861  0.64233815  1
  O  O41  1  0.16574933  0.89714139  0.85766185  1
  O  O42  1  0.44091372  0.74636243  0.49190205  1
  O  O43  1  0.05908628  0.24636243  0.99190205  1
  O  O44  1  0.80496639  0.50432114  0.08121118  1
  O  O45  1  0.55737696  0.92643390  0.73747241  1
  O  O46  1  0.91276249  0.20617815  0.34944733  1
  O  O47  1  0.66554816  0.00390944  0.90475736  1
  O  O48  1  0.94091372  0.75363757  0.00809795  1
  O  O49  1  0.69690572  0.40071903  0.89608369  1
  O  O50  1  0.30496639  0.99567886  0.41878882  1
  O  O51  1  0.58723751  0.70617815  0.84944733  1
