# generated using pymatgen
data_Ca(BiO2)2
_symmetry_space_group_name_H-M   'P 1'
_cell_length_a   7.05937309
_cell_length_b   7.05937870
_cell_length_c   21.19219091
_cell_angle_alpha   60.02381612
_cell_angle_beta   60.02391291
_cell_angle_gamma   59.99809192
_symmetry_Int_Tables_number   1
_chemical_formula_structural   Ca(BiO2)2
_chemical_formula_sum   'Ca6 Bi12 O24'
_cell_volume   747.03984953
_cell_formula_units_Z   6
loop_
 _symmetry_equiv_pos_site_id
 _symmetry_equiv_pos_as_xyz
  1  'x, y, z'
loop_
 _atom_site_type_symbol
 _atom_site_label
 _atom_site_symmetry_multiplicity
 _atom_site_fract_x
 _atom_site_fract_y
 _atom_site_fract_z
 _atom_site_occupancy
  Ca  Ca0  1  0.12308346  0.12308308  0.04358558  1
  Ca  Ca1  1  0.12238678  0.12238170  0.37762466  1
  Ca  Ca2  1  0.49976088  0.49976149  0.33357271  1
  Ca  Ca3  1  0.12498125  0.12498268  0.70835155  1
  Ca  Ca4  1  0.49866625  0.49866977  0.00132715  1
  Ca  Ca5  1  0.87521606  0.87521700  0.62478850  1
  Bi  Bi6  1  0.49863659  0.49863684  0.16524351  1
  Bi  Bi7  1  0.49863137  0.00704348  0.16524007  1
  Bi  Bi8  1  0.49970536  0.49970610  0.49731728  1
  Bi  Bi9  1  0.00704178  0.49863207  0.16524062  1
  Bi  Bi10  1  0.49968180  0.00864984  0.49732790  1
  Bi  Bi11  1  0.50413668  0.50414088  0.66251380  1
  Bi  Bi12  1  0.87786457  0.87786416  0.28877828  1
  Bi  Bi13  1  0.50007011  0.50007290  0.83253883  1
  Bi  Bi14  1  0.00865092  0.49967524  0.49732909  1
  Bi  Bi15  1  0.50011753  0.00219540  0.83251735  1
  Bi  Bi16  1  0.00219325  0.50011782  0.83251820  1
  Bi  Bi17  1  0.87754563  0.87754523  0.95578609  1
  O  O18  1  0.25915980  0.25915953  0.08823976  1
  O  O19  1  0.25897951  0.25897718  0.24105431  1
  O  O20  1  0.25912885  0.71697099  0.08825008  1
  O  O21  1  0.71696996  0.25913139  0.08825020  1
  O  O22  1  0.25847139  0.25846891  0.42096912  1
  O  O23  1  0.27148202  0.74139759  0.24858262  1
  O  O24  1  0.25982110  0.25981403  0.57351884  1
  O  O25  1  0.74139427  0.27148448  0.24858317  1
  O  O26  1  0.74702030  0.74701814  0.08632993  1
  O  O27  1  0.25847822  0.72016895  0.42096630  1
  O  O28  1  0.72017377  0.25847526  0.42096613  1
  O  O29  1  0.74138540  0.74138631  0.24858969  1
  O  O30  1  0.25461985  0.25462367  0.75499360  1
  O  O31  1  0.27246499  0.74003067  0.58252530  1
  O  O32  1  0.74003019  0.27246357  0.58252696  1
  O  O33  1  0.25743988  0.25743962  0.90921566  1
  O  O34  1  0.74739765  0.74739192  0.41925494  1
  O  O35  1  0.25453183  0.72576736  0.75503225  1
  O  O36  1  0.72576265  0.25453632  0.75503134  1
  O  O37  1  0.73997777  0.73997337  0.58253854  1
  O  O38  1  0.27190073  0.74120385  0.91522375  1
  O  O39  1  0.74120308  0.27190021  0.91522394  1
  O  O40  1  0.74265323  0.74265296  0.75731134  1
  O  O41  1  0.74118431  0.74118702  0.91522105  1
