# generated using pymatgen
data_SrZnSn(PO4)2
_symmetry_space_group_name_H-M   'P 1'
_cell_length_a   5.56493718
_cell_length_b   7.20214696
_cell_length_c   10.05384478
_cell_angle_alpha   110.40493292
_cell_angle_beta   101.91092067
_cell_angle_gamma   96.90517798
_symmetry_Int_Tables_number   1
_chemical_formula_structural   SrZnSn(PO4)2
_chemical_formula_sum   'Sr2 Zn2 Sn2 P4 O16'
_cell_volume   361.33160560
_cell_formula_units_Z   2
loop_
 _symmetry_equiv_pos_site_id
 _symmetry_equiv_pos_as_xyz
  1  'x, y, z'
loop_
 _atom_site_type_symbol
 _atom_site_label
 _atom_site_symmetry_multiplicity
 _atom_site_fract_x
 _atom_site_fract_y
 _atom_site_fract_z
 _atom_site_occupancy
  Sr  Sr0  1  0.23589709  0.78828131  0.03749728  1
  Sr  Sr1  1  0.76410291  0.21171869  0.96250272  1
  Zn  Zn2  1  0.01932570  0.35645216  0.63841191  1
  Zn  Zn3  1  0.98067430  0.64354784  0.36158809  1
  Sn  Sn4  1  0.62127202  0.82688645  0.57943912  1
  Sn  Sn5  1  0.37872798  0.17311355  0.42056088  1
  P  P6  1  0.36815915  0.41414447  0.21270141  1
  P  P7  1  0.63184085  0.58585553  0.78729859  1
  P  P8  1  0.81604861  0.01154358  0.27999326  1
  P  P9  1  0.18395139  0.98845642  0.72000674  1
  O  O10  1  0.79383798  0.56193250  0.92117392  1
  O  O11  1  0.65404855  0.48019121  0.22958208  1
  O  O12  1  0.68082814  0.81215252  0.80075589  1
  O  O13  1  0.97512262  0.11839037  0.70287391  1
  O  O14  1  0.34595145  0.51980879  0.77041792  1
  O  O15  1  0.07262437  0.77527151  0.58929924  1
  O  O16  1  0.92737563  0.22472849  0.41070076  1
  O  O17  1  0.22999148  0.97988714  0.87180834  1
  O  O18  1  0.31917186  0.18784748  0.19924411  1
  O  O19  1  0.77000852  0.02011286  0.12819166  1
  O  O20  1  0.20616202  0.43806750  0.07882608  1
  O  O21  1  0.28945469  0.53457320  0.35518656  1
  O  O22  1  0.71054531  0.46542680  0.64481344  1
  O  O23  1  0.56728646  0.91464902  0.30039742  1
  O  O24  1  0.02487738  0.88160963  0.29712609  1
  O  O25  1  0.43271354  0.08535098  0.69960258  1
