# generated using pymatgen
data_Sr2YMn2GaO7
_symmetry_space_group_name_H-M   'P 1'
_cell_length_a   5.69126895
_cell_length_b   5.82704387
_cell_length_c   11.94199684
_cell_angle_alpha   104.11149978
_cell_angle_beta   103.77953742
_cell_angle_gamma   89.99420651
_symmetry_Int_Tables_number   1
_chemical_formula_structural   Sr2YMn2GaO7
_chemical_formula_sum   'Sr4 Y2 Mn4 Ga2 O14'
_cell_volume   372.32322117
_cell_formula_units_Z   2
loop_
 _symmetry_equiv_pos_site_id
 _symmetry_equiv_pos_as_xyz
  1  'x, y, z'
loop_
 _atom_site_type_symbol
 _atom_site_label
 _atom_site_symmetry_multiplicity
 _atom_site_fract_x
 _atom_site_fract_y
 _atom_site_fract_z
 _atom_site_occupancy
  Sr  Sr0  1  0.13865914  0.17839504  0.30245763  1
  Sr  Sr1  1  0.83587403  0.82251033  0.69763588  1
  Sr  Sr2  1  0.63868812  0.62502202  0.30249282  1
  Sr  Sr3  1  0.33613427  0.37599172  0.69752198  1
  Y  Y4  1  0.49939032  0.50036909  0.00004542  1
  Y  Y5  1  0.99932030  0.00048582  0.00010746  1
  Mn  Mn6  1  0.41485390  0.92197537  0.83814703  1
  Mn  Mn7  1  0.07723813  0.58418617  0.16210772  1
  Mn  Mn8  1  0.91490603  0.41667737  0.83804953  1
  Mn  Mn9  1  0.57723424  0.07894217  0.16204415  1
  Ga  Ga10  1  0.20856211  0.82714564  0.50009135  1
  Ga  Ga11  1  0.70858543  0.17382987  0.50001237  1
  O  O12  1  0.80353511  0.31854539  0.12473792  1
  O  O13  1  0.87228409  0.88469500  0.50010139  1
  O  O14  1  0.30350872  0.30733028  0.12470995  1
  O  O15  1  0.84783732  0.38008796  0.64542518  1
  O  O16  1  0.68324057  0.18117139  0.86813004  1
  O  O17  1  0.18318625  0.18742290  0.86810793  1
  O  O18  1  0.37230961  0.11618551  0.49998431  1
  O  O19  1  0.17882826  0.69338329  0.87565970  1
  O  O20  1  0.67864313  0.68253981  0.87539066  1
  O  O21  1  0.34806316  0.76634378  0.64547411  1
  O  O22  1  0.20272196  0.62072524  0.35472585  1
  O  O23  1  0.70315108  0.23478465  0.35466929  1
  O  O24  1  0.81598225  0.82004063  0.13198037  1
  O  O25  1  0.31618946  0.81327758  0.13245995  1
