# generated using pymatgen
data_Sr2Ca6Mn5(FeO8)3
_symmetry_space_group_name_H-M   'P 1'
_cell_length_a   7.72216984
_cell_length_b   7.68521690
_cell_length_c   7.68521690
_cell_angle_alpha   90.01943394
_cell_angle_beta   90.00000000
_cell_angle_gamma   90.00000000
_symmetry_Int_Tables_number   1
_chemical_formula_structural   Sr2Ca6Mn5(FeO8)3
_chemical_formula_sum   'Sr2 Ca6 Mn5 Fe3 O24'
_cell_volume   456.09108406
_cell_formula_units_Z   1
loop_
 _symmetry_equiv_pos_site_id
 _symmetry_equiv_pos_as_xyz
  1  'x, y, z'
loop_
 _atom_site_type_symbol
 _atom_site_label
 _atom_site_symmetry_multiplicity
 _atom_site_fract_x
 _atom_site_fract_y
 _atom_site_fract_z
 _atom_site_occupancy
  Sr  Sr0  1  0.25046486  0.25062719  0.74937281  1
  Sr  Sr1  1  0.74953514  0.25062719  0.74937281  1
  Ca  Ca2  1  0.25126426  0.25092029  0.25085363  1
  Ca  Ca3  1  0.25087433  0.74907225  0.25092775  1
  Ca  Ca4  1  0.25126426  0.74914637  0.74907971  1
  Ca  Ca5  1  0.74873574  0.25092029  0.25085363  1
  Ca  Ca6  1  0.74912567  0.74907225  0.25092775  1
  Ca  Ca7  1  0.74873574  0.74914637  0.74907971  1
  Mn  Mn8  1  -0.00000000  0.50102361  0.49897639  1
  Mn  Mn9  1  0.50000000  0.99909506  0.00090494  1
  Mn  Mn10  1  0.50000000  0.99881904  0.49877490  1
  Mn  Mn11  1  0.50000000  0.50122510  0.00118096  1
  Mn  Mn12  1  0.50000000  0.50083766  0.49916234  1
  Fe  Fe13  1  -0.00000000  0.99863496  0.00136504  1
  Fe  Fe14  1  -0.00000000  0.99864934  0.49869889  1
  Fe  Fe15  1  -0.00000000  0.50130111  0.00135066  1
  O  O16  1  0.25251171  0.99591413  0.00408587  1
  O  O17  1  0.25402007  0.99614891  0.49624286  1
  O  O18  1  0.25402007  0.50375714  0.00385109  1
  O  O19  1  0.25025252  0.50421979  0.49578021  1
  O  O20  1  0.74748829  0.99591413  0.00408587  1
  O  O21  1  0.74597993  0.99614891  0.49624286  1
  O  O22  1  0.74597993  0.50375714  0.00385109  1
  O  O23  1  0.74974748  0.50421979  0.49578021  1
  O  O24  1  -0.00000000  0.24851846  0.00543941  1
  O  O25  1  -0.00000000  0.25274604  0.49421170  1
  O  O26  1  -0.00000000  0.75124487  0.00206695  1
  O  O27  1  -0.00000000  0.74770619  0.49794749  1
  O  O28  1  0.50000000  0.24950828  0.00690721  1
  O  O29  1  0.50000000  0.25012563  0.49308441  1
  O  O30  1  0.50000000  0.75054351  0.00124913  1
  O  O31  1  0.50000000  0.74995275  0.49863746  1
  O  O32  1  -0.00000000  0.99793305  0.24875513  1
  O  O33  1  -0.00000000  0.99456059  0.75148154  1
  O  O34  1  -0.00000000  0.50205251  0.25229381  1
  O  O35  1  -0.00000000  0.50578830  0.74725396  1
  O  O36  1  0.50000000  0.99875087  0.24945649  1
  O  O37  1  0.50000000  0.99309279  0.75049172  1
  O  O38  1  0.50000000  0.50136254  0.25004725  1
  O  O39  1  0.50000000  0.50691559  0.74987437  1
