# generated using pymatgen
data_CaHo(BiO3)2
_symmetry_space_group_name_H-M   'P 1'
_cell_length_a   5.81583034
_cell_length_b   6.11010567
_cell_length_c   8.55695652
_cell_angle_alpha   89.99979321
_cell_angle_beta   90.00069035
_cell_angle_gamma   89.92199887
_symmetry_Int_Tables_number   1
_chemical_formula_structural   CaHo(BiO3)2
_chemical_formula_sum   'Ca2 Ho2 Bi4 O12'
_cell_volume   304.07405999
_cell_formula_units_Z   2
loop_
 _symmetry_equiv_pos_site_id
 _symmetry_equiv_pos_as_xyz
  1  'x, y, z'
loop_
 _atom_site_type_symbol
 _atom_site_label
 _atom_site_symmetry_multiplicity
 _atom_site_fract_x
 _atom_site_fract_y
 _atom_site_fract_z
 _atom_site_occupancy
  Ca  Ca0  1  0.49787220  0.45912519  0.74999622  1
  Ca  Ca1  1  0.99808626  0.04015593  0.25000556  1
  Ho  Ho2  1  0.02929564  0.93289489  0.74997816  1
  Ho  Ho3  1  0.52987893  0.56808499  0.25003648  1
  Bi  Bi4  1  0.00391220  0.49533933  0.00036072  1
  Bi  Bi5  1  0.00392243  0.49533052  0.49964349  1
  Bi  Bi6  1  0.50393788  0.00493363  0.50029718  1
  Bi  Bi7  1  0.50394587  0.00494325  0.99970483  1
  O  O8  1  0.16634454  0.42847311  0.25000089  1
  O  O9  1  0.16464559  0.16883969  0.92719655  1
  O  O10  1  0.16464368  0.16883443  0.57279449  1
  O  O11  1  0.29995779  0.70522434  0.91596081  1
  O  O12  1  0.29997206  0.70522510  0.58401205  1
  O  O13  1  0.36492400  0.91157479  0.25000459  1
  O  O14  1  0.66774041  0.07167746  0.75000435  1
  O  O15  1  0.66619097  0.33231547  0.42722905  1
  O  O16  1  0.66619605  0.33231535  0.07278675  1
  O  O17  1  0.80124904  0.79372722  0.08394963  1
  O  O18  1  0.80124146  0.79372870  0.41603556  1
  O  O19  1  0.86604000  0.58725462  0.75000465  1
