# generated using pymatgen
data_La7SmCo6(CuO12)2
_symmetry_space_group_name_H-M   'P 1'
_cell_length_a   7.68449630
_cell_length_b   7.63077987
_cell_length_c   7.68449630
_cell_angle_alpha   90.00000000
_cell_angle_beta   89.89592554
_cell_angle_gamma   90.00000000
_symmetry_Int_Tables_number   1
_chemical_formula_structural   La7SmCo6(CuO12)2
_chemical_formula_sum   'La7 Sm1 Co6 Cu2 O24'
_cell_volume   450.60812724
_cell_formula_units_Z   1
loop_
 _symmetry_equiv_pos_site_id
 _symmetry_equiv_pos_as_xyz
  1  'x, y, z'
loop_
 _atom_site_type_symbol
 _atom_site_label
 _atom_site_symmetry_multiplicity
 _atom_site_fract_x
 _atom_site_fract_y
 _atom_site_fract_z
 _atom_site_occupancy
  La  La0  1  0.25000000  0.24974060  0.25000000  1
  La  La1  1  0.25000000  0.24983075  0.75000000  1
  La  La2  1  0.25000000  0.75044539  0.25000000  1
  La  La3  1  0.25000000  0.75121059  0.75000000  1
  La  La4  1  0.75000000  0.24974060  0.75000000  1
  La  La5  1  0.75000000  0.75025918  0.25000000  1
  La  La6  1  0.75000000  0.75044539  0.75000000  1
  Sm  Sm7  1  0.75000000  0.24750432  0.25000000  1
  Co  Co8  1  0.99971535  0.00034765  0.00028465  1
  Co  Co9  1  0.99948276  0.00041246  0.49948276  1
  Co  Co10  1  0.99948325  0.49940569  0.00051675  1
  Co  Co11  1  0.50051724  0.00041246  0.00051724  1
  Co  Co12  1  0.50028465  0.00034765  0.49971535  1
  Co  Co13  1  0.50051675  0.49940569  0.49948325  1
  Cu  Cu14  1  0.99955155  0.49959946  0.49955155  1
  Cu  Cu15  1  0.50044845  0.49959946  0.00044845  1
  O  O16  1  0.24772169  0.00112616  0.99960092  1
  O  O17  1  0.25227831  0.00112616  0.50039908  1
  O  O18  1  0.24549633  0.49984193  0.00108457  1
  O  O19  1  0.25450367  0.49984193  0.49891543  1
  O  O20  1  0.75234033  0.00224043  0.00367754  1
  O  O21  1  0.74765967  0.00224043  0.49632246  1
  O  O22  1  0.75449002  0.49706356  0.00214904  1
  O  O23  1  0.74550998  0.49706356  0.49785096  1
  O  O24  1  0.99681243  0.25082258  0.00318757  1
  O  O25  1  0.99738882  0.24621014  0.49738882  1
  O  O26  1  0.99996526  0.74919068  0.00003474  1
  O  O27  1  0.99939674  0.75387877  0.49939674  1
  O  O28  1  0.50261118  0.24621014  0.00261118  1
  O  O29  1  0.50318757  0.25082258  0.49681243  1
  O  O30  1  0.50060326  0.75387877  0.00060326  1
  O  O31  1  0.50003474  0.74919068  0.49996526  1
  O  O32  1  0.99632246  0.00224043  0.24765967  1
  O  O33  1  0.00039908  0.00112616  0.75227831  1
  O  O34  1  0.99785096  0.49706356  0.24550998  1
  O  O35  1  0.99891543  0.49984193  0.75450367  1
  O  O36  1  0.50367754  0.00224043  0.25234033  1
  O  O37  1  0.49960092  0.00112616  0.74772169  1
  O  O38  1  0.50214904  0.49706356  0.25449002  1
  O  O39  1  0.50108457  0.49984193  0.74549633  1
