# generated using pymatgen
data_LaSm(NiO3)2
_symmetry_space_group_name_H-M   'P 1'
_cell_length_a   7.65253764
_cell_length_b   7.65112833
_cell_length_c   7.65112833
_cell_angle_alpha   90.00000000
_cell_angle_beta   90.00000000
_cell_angle_gamma   90.00000000
_symmetry_Int_Tables_number   1
_chemical_formula_structural   LaSm(NiO3)2
_chemical_formula_sum   'La4 Sm4 Ni8 O24'
_cell_volume   447.97775297
_cell_formula_units_Z   4
loop_
 _symmetry_equiv_pos_site_id
 _symmetry_equiv_pos_as_xyz
  1  'x, y, z'
loop_
 _atom_site_type_symbol
 _atom_site_label
 _atom_site_symmetry_multiplicity
 _atom_site_fract_x
 _atom_site_fract_y
 _atom_site_fract_z
 _atom_site_occupancy
  La  La0  1  0.25000000  0.25000000  0.25000000  1
  La  La1  1  0.25000000  0.25000000  0.75000000  1
  La  La2  1  0.25000000  0.75000000  0.75000000  1
  La  La3  1  0.75000000  0.75000000  0.25000000  1
  Sm  Sm4  1  0.25000000  0.75000000  0.25000000  1
  Sm  Sm5  1  0.75000000  0.25000000  0.25000000  1
  Sm  Sm6  1  0.75000000  0.25000000  0.75000000  1
  Sm  Sm7  1  0.75000000  0.75000000  0.75000000  1
  Ni  Ni8  1  0.99897016  -0.00000355  0.00000355  1
  Ni  Ni9  1  0.99897016  -0.00000355  0.49999645  1
  Ni  Ni10  1  0.99897016  0.50000355  0.00000355  1
  Ni  Ni11  1  0.99897016  0.50000355  0.49999645  1
  Ni  Ni12  1  0.50102984  -0.00000355  0.00000355  1
  Ni  Ni13  1  0.50102984  -0.00000355  0.49999645  1
  Ni  Ni14  1  0.50102984  0.50000355  0.00000355  1
  Ni  Ni15  1  0.50102984  0.50000355  0.49999645  1
  O  O16  1  0.25000000  0.99757648  0.00242352  1
  O  O17  1  0.25000000  0.99757648  0.49757648  1
  O  O18  1  0.25000000  0.50242352  0.00242352  1
  O  O19  1  0.25000000  0.50242352  0.49757648  1
  O  O20  1  0.75000000  0.00197338  0.99802662  1
  O  O21  1  0.75000000  0.00197338  0.50197338  1
  O  O22  1  0.75000000  0.49802662  0.99802662  1
  O  O23  1  0.75000000  0.49802662  0.50197338  1
  O  O24  1  0.99437312  0.25000000  -0.00001021  1
  O  O25  1  0.99437312  0.25000000  0.50001021  1
  O  O26  1  0.99867800  0.75000000  0.99982508  1
  O  O27  1  0.99867800  0.75000000  0.50017492  1
  O  O28  1  0.50562688  0.25000000  -0.00001021  1
  O  O29  1  0.50562688  0.25000000  0.50001021  1
  O  O30  1  0.50132200  0.75000000  0.99982508  1
  O  O31  1  0.50132200  0.75000000  0.50017492  1
  O  O32  1  0.99867800  0.00017492  0.25000000  1
  O  O33  1  0.99437312  0.00001021  0.75000000  1
  O  O34  1  0.99867800  0.49982508  0.25000000  1
  O  O35  1  0.99437312  0.49998979  0.75000000  1
  O  O36  1  0.50132200  0.00017492  0.25000000  1
  O  O37  1  0.50562688  0.00001021  0.75000000  1
  O  O38  1  0.50132200  0.49982508  0.25000000  1
  O  O39  1  0.50562688  0.49998979  0.75000000  1
