# generated using pymatgen
data_Li9Mn2Co5O16
_symmetry_space_group_name_H-M   'P 1'
_cell_length_a   2.89633877
_cell_length_b   5.20576858
_cell_length_c   19.49261428
_cell_angle_alpha   98.31879691
_cell_angle_beta   90.00000000
_cell_angle_gamma   90.00000000
_symmetry_Int_Tables_number   1
_chemical_formula_structural   Li9Mn2Co5O16
_chemical_formula_sum   'Li9 Mn2 Co5 O16'
_cell_volume   290.81085440
_cell_formula_units_Z   1
loop_
 _symmetry_equiv_pos_site_id
 _symmetry_equiv_pos_as_xyz
  1  'x, y, z'
loop_
 _atom_site_type_symbol
 _atom_site_label
 _atom_site_symmetry_multiplicity
 _atom_site_fract_x
 _atom_site_fract_y
 _atom_site_fract_z
 _atom_site_occupancy
  Li  Li0  1  0.50000000  0.24269321  0.12659563  1
  Li  Li1  1  0.50000000  0.77450639  0.38031799  1
  Li  Li2  1  0.50000000  0.24092493  0.62175044  1
  Li  Li3  1  0.50000000  0.74565610  0.87224333  1
  Li  Li4  1  0.00000000  0.75689931  0.12489227  1
  Li  Li5  1  0.00000000  0.26172721  0.38171011  1
  Li  Li6  1  -0.00000000  0.73304559  0.61956187  1
  Li  Li7  1  -0.00000000  0.24749504  0.87354121  1
  Li  Li8  1  -0.00000000  0.00042364  0.50090530  1
  Mn  Mn9  1  0.00000000  0.99914079  0.99894456  1
  Mn  Mn10  1  -0.00000000  0.50546112  0.25178486  1
  Co  Co11  1  0.00000000  0.49572175  0.74793792  1
  Co  Co12  1  0.50000000  0.49919928  0.99971254  1
  Co  Co13  1  0.50000000  0.00603764  0.25286623  1
  Co  Co14  1  0.50000000  0.50035050  0.50040814  1
  Co  Co15  1  0.50000000  0.99545783  0.74744489  1
  O  O16  1  0.50000000  0.89192990  0.05703776  1
  O  O17  1  0.50000000  0.38470613  0.30743978  1
  O  O18  1  0.50000000  0.81474876  0.55329973  1
  O  O19  1  0.50000000  0.36676076  0.80551786  1
  O  O20  1  -0.00000000  0.39912734  0.05687998  1
  O  O21  1  -0.00000000  0.90116001  0.31362271  1
  O  O22  1  -0.00000000  0.38605741  0.55531896  1
  O  O23  1  -0.00000000  0.86841572  0.80531296  1
  O  O24  1  0.50000000  0.62567694  0.19512265  1
  O  O25  1  0.50000000  0.18483714  0.44792602  1
  O  O26  1  0.50000000  0.62226104  0.69157286  1
  O  O27  1  0.50000000  0.10577901  0.94088519  1
  O  O28  1  -0.00000000  0.10813817  0.19173467  1
  O  O29  1  -0.00000000  0.61402601  0.44549400  1
  O  O30  1  -0.00000000  0.12287843  0.68964390  1
  O  O31  1  -0.00000000  0.59875692  0.94257366  1
