# generated using pymatgen
data_ZnBiF5
_symmetry_space_group_name_H-M   'P 1'
_cell_length_a   5.79744387
_cell_length_b   5.78319338
_cell_length_c   8.34735812
_cell_angle_alpha   100.14105611
_cell_angle_beta   107.66286395
_cell_angle_gamma   107.95839115
_symmetry_Int_Tables_number   1
_chemical_formula_structural   ZnBiF5
_chemical_formula_sum   'Zn2 Bi2 F10'
_cell_volume   242.19973655
_cell_formula_units_Z   2
loop_
 _symmetry_equiv_pos_site_id
 _symmetry_equiv_pos_as_xyz
  1  'x, y, z'
loop_
 _atom_site_type_symbol
 _atom_site_label
 _atom_site_symmetry_multiplicity
 _atom_site_fract_x
 _atom_site_fract_y
 _atom_site_fract_z
 _atom_site_occupancy
  Zn  Zn0  1  0.25747102  0.50570319  0.74935572  1
  Zn  Zn1  1  0.74034603  0.48987170  0.24760582  1
  Bi  Bi2  1  0.00027371  0.00039633  0.99721771  1
  Bi  Bi3  1  0.49637157  0.99592948  0.49751655  1
  F  F4  1  0.38771625  0.13380788  0.24477729  1
  F  F5  1  0.60625836  0.85780354  0.74693814  1
  F  F6  1  0.56511723  0.67088614  0.35239393  1
  F  F7  1  0.83048959  0.21591570  0.15076542  1
  F  F8  1  0.77917594  0.66219105  0.06392747  1
  F  F9  1  0.09447237  0.70795876  0.43670087  1
  F  F10  1  0.23677563  0.34451367  0.94114990  1
  F  F11  1  0.90193278  0.28432926  0.56534211  1
  F  F12  1  0.17357851  0.78322695  0.84862999  1
  F  F13  1  0.43381402  0.32085134  0.64863909  1
