# generated using pymatgen
data_Li9Mn2Co5O16
_symmetry_space_group_name_H-M   'P 1'
_cell_length_a   2.90950364
_cell_length_b   5.17729522
_cell_length_c   19.53833888
_cell_angle_alpha   98.79266498
_cell_angle_beta   90.00000000
_cell_angle_gamma   90.00000000
_symmetry_Int_Tables_number   1
_chemical_formula_structural   Li9Mn2Co5O16
_chemical_formula_sum   'Li9 Mn2 Co5 O16'
_cell_volume   290.85423948
_cell_formula_units_Z   1
loop_
 _symmetry_equiv_pos_site_id
 _symmetry_equiv_pos_as_xyz
  1  'x, y, z'
loop_
 _atom_site_type_symbol
 _atom_site_label
 _atom_site_symmetry_multiplicity
 _atom_site_fract_x
 _atom_site_fract_y
 _atom_site_fract_z
 _atom_site_occupancy
  Li  Li0  1  0.50000000  0.25543223  0.12586944  1
  Li  Li1  1  0.50000000  0.75551392  0.37966411  1
  Li  Li2  1  0.50000000  0.24320368  0.62188461  1
  Li  Li3  1  0.50000000  0.74762620  0.87277662  1
  Li  Li4  1  -0.00000000  0.74416993  0.12466908  1
  Li  Li5  1  0.00000000  0.27062996  0.38136931  1
  Li  Li6  1  0.00000000  0.73502184  0.61981779  1
  Li  Li7  1  0.00000000  0.24885164  0.87408529  1
  Li  Li8  1  -0.00000000  0.00060959  0.50051353  1
  Mn  Mn9  1  -0.00000000  0.99940155  0.99959305  1
  Mn  Mn10  1  0.50000000  0.00289734  0.25181074  1
  Co  Co11  1  -0.00000000  0.50301502  0.25133621  1
  Co  Co12  1  0.00000000  0.49719789  0.74855857  1
  Co  Co13  1  0.50000000  0.49942194  0.99939328  1
  Co  Co14  1  0.50000000  0.50038316  0.50068384  1
  Co  Co15  1  0.50000000  0.99730244  0.74808982  1
  O  O16  1  0.50000000  0.89462833  0.05786811  1
  O  O17  1  0.50000000  0.40278794  0.31077577  1
  O  O18  1  0.50000000  0.81743567  0.55398068  1
  O  O19  1  0.50000000  0.36848539  0.80629539  1
  O  O20  1  0.00000000  0.39733562  0.05553736  1
  O  O21  1  0.00000000  0.88173153  0.30823085  1
  O  O22  1  0.00000000  0.38418050  0.55548396  1
  O  O23  1  0.00000000  0.87058180  0.80599519  1
  O  O24  1  0.50000000  0.60825905  0.19042946  1
  O  O25  1  0.50000000  0.18126507  0.44670030  1
  O  O26  1  0.50000000  0.62308559  0.69234104  1
  O  O27  1  0.50000000  0.10466218  0.94143974  1
  O  O28  1  -0.00000000  0.12508094  0.19563228  1
  O  O29  1  0.00000000  0.61597309  0.44579370  1
  O  O30  1  0.00000000  0.12361971  0.69029825  1
  O  O31  1  0.00000000  0.60020925  0.94308264  1
