# generated using pymatgen
data_DySn3
_symmetry_space_group_name_H-M   'P 1'
_cell_length_a   4.45226732
_cell_length_b   4.41194202
_cell_length_c   11.29064983
_cell_angle_alpha   101.26694288
_cell_angle_beta   90.00000000
_cell_angle_gamma   90.00000000
_symmetry_Int_Tables_number   1
_chemical_formula_structural   DySn3
_chemical_formula_sum   'Dy2 Sn6'
_cell_volume   217.50955570
_cell_formula_units_Z   2
loop_
 _symmetry_equiv_pos_site_id
 _symmetry_equiv_pos_as_xyz
  1  'x, y, z'
loop_
 _atom_site_type_symbol
 _atom_site_label
 _atom_site_symmetry_multiplicity
 _atom_site_fract_x
 _atom_site_fract_y
 _atom_site_fract_z
 _atom_site_occupancy
  Dy  Dy0  1  0.50000000  0.48314737  0.96629473  1
  Dy  Dy1  1  0.00000000  0.21323803  0.42647605  1
  Sn  Sn2  1  0.50000000  0.10013642  0.20027285  1
  Sn  Sn3  1  0.50000000  0.72847798  0.45695597  1
  Sn  Sn4  1  0.50000000  0.86419590  0.72839179  1
  Sn  Sn5  1  0.00000000  0.97441803  0.94883606  1
  Sn  Sn6  1  0.00000000  0.36315563  0.72631127  1
  Sn  Sn7  1  0.00000000  0.59923064  0.19846129  1
