# generated using pymatgen
data_H3CCl
_symmetry_space_group_name_H-M   'P 1'
_cell_length_a   4.13776380
_cell_length_b   4.13776380
_cell_length_c   7.65165452
_cell_angle_alpha   90.00000000
_cell_angle_beta   90.00000000
_cell_angle_gamma   103.54085787
_symmetry_Int_Tables_number   1
_chemical_formula_structural   H3CCl
_chemical_formula_sum   'H6 C2 Cl2'
_cell_volume   127.36315013
_cell_formula_units_Z   2
loop_
 _symmetry_equiv_pos_site_id
 _symmetry_equiv_pos_as_xyz
  1  'x, y, z'
loop_
 _atom_site_type_symbol
 _atom_site_label
 _atom_site_symmetry_multiplicity
 _atom_site_fract_x
 _atom_site_fract_y
 _atom_site_fract_z
 _atom_site_occupancy
  H  H0  1  0.43020774  0.43020774  0.86354647  1
  H  H1  1  0.56979226  0.56979226  0.36354647  1
  H  H2  1  0.79261953  0.51583182  0.00343489  1
  H  H3  1  0.51583182  0.79261953  0.00343489  1
  H  H4  1  0.20738047  0.48416818  0.50343489  1
  H  H5  1  0.48416818  0.20738047  0.50343489  1
  C  C6  1  0.62514006  0.62514006  0.92415186  1
  C  C7  1  0.37485994  0.37485994  0.42415186  1
  Cl  Cl8  1  0.86426289  0.86426289  0.75313189  1
  Cl  Cl9  1  0.13573711  0.13573711  0.25313189  1
