# generated using pymatgen
data_HoSi2
_symmetry_space_group_name_H-M   'P 1'
_cell_length_a   3.95383932
_cell_length_b   3.94791030
_cell_length_c   7.86410416
_cell_angle_alpha   104.53717970
_cell_angle_beta   104.55949830
_cell_angle_gamma   90.00000000
_symmetry_Int_Tables_number   1
_chemical_formula_structural   HoSi2
_chemical_formula_sum   'Ho2 Si4'
_cell_volume   114.74708399
_cell_formula_units_Z   2
loop_
 _symmetry_equiv_pos_site_id
 _symmetry_equiv_pos_as_xyz
  1  'x, y, z'
loop_
 _atom_site_type_symbol
 _atom_site_label
 _atom_site_symmetry_multiplicity
 _atom_site_fract_x
 _atom_site_fract_y
 _atom_site_fract_z
 _atom_site_occupancy
  Ho  Ho0  1  0.62545982  0.37545982  0.75091964  1
  Ho  Ho1  1  0.37454018  0.62454018  0.24908036  1
  Si  Si2  1  0.04301728  0.79301728  0.58603457  1
  Si  Si3  1  0.95698272  0.20698272  0.41396543  1
  Si  Si4  1  0.20721618  0.95721618  0.91443237  1
  Si  Si5  1  0.79278382  0.04278382  0.08556763  1
