# generated using pymatgen
data_TmSn3
_symmetry_space_group_name_H-M   'P 1'
_cell_length_a   4.42704127
_cell_length_b   4.41062742
_cell_length_c   11.22871010
_cell_angle_alpha   101.32649098
_cell_angle_beta   90.00000000
_cell_angle_gamma   90.00000000
_symmetry_Int_Tables_number   1
_chemical_formula_structural   TmSn3
_chemical_formula_sum   'Tm2 Sn6'
_cell_volume   214.98196213
_cell_formula_units_Z   2
loop_
 _symmetry_equiv_pos_site_id
 _symmetry_equiv_pos_as_xyz
  1  'x, y, z'
loop_
 _atom_site_type_symbol
 _atom_site_label
 _atom_site_symmetry_multiplicity
 _atom_site_fract_x
 _atom_site_fract_y
 _atom_site_fract_z
 _atom_site_occupancy
  Tm  Tm0  1  0.50000000  0.48212935  0.96425869  1
  Tm  Tm1  1  0.00000000  0.21286548  0.42573096  1
  Sn  Sn2  1  0.50000000  0.09894238  0.19788475  1
  Sn  Sn3  1  0.50000000  0.72810877  0.45621754  1
  Sn  Sn4  1  0.50000000  0.86471267  0.72942533  1
  Sn  Sn5  1  0.00000000  0.97623039  0.95246079  1
  Sn  Sn6  1  0.00000000  0.36271330  0.72542659  1
  Sn  Sn7  1  0.00000000  0.60029767  0.20059534  1
