# generated using pymatgen
data_Sr4Ca4Mn7FeO24
_symmetry_space_group_name_H-M   'P 1'
_cell_length_a   7.70911790
_cell_length_b   7.70816133
_cell_length_c   7.70911790
_cell_angle_alpha   89.98616471
_cell_angle_beta   89.99586139
_cell_angle_gamma   90.01383529
_symmetry_Int_Tables_number   1
_chemical_formula_structural   Sr4Ca4Mn7FeO24
_chemical_formula_sum   'Sr4 Ca4 Mn7 Fe1 O24'
_cell_volume   458.09984502
_cell_formula_units_Z   1
loop_
 _symmetry_equiv_pos_site_id
 _symmetry_equiv_pos_as_xyz
  1  'x, y, z'
loop_
 _atom_site_type_symbol
 _atom_site_label
 _atom_site_symmetry_multiplicity
 _atom_site_fract_x
 _atom_site_fract_y
 _atom_site_fract_z
 _atom_site_occupancy
  Sr  Sr0  1  0.24988826  0.24991599  0.24985294  1
  Sr  Sr1  1  0.24982189  0.24989223  0.75017811  1
  Sr  Sr2  1  0.75014706  0.24991599  0.75011174  1
  Sr  Sr3  1  0.75018197  0.75010108  0.24981803  1
  Ca  Ca4  1  0.24988969  0.75001450  0.24991935  1
  Ca  Ca5  1  0.24994298  0.74998626  0.75005702  1
  Ca  Ca6  1  0.75005154  0.25002383  0.24994846  1
  Ca  Ca7  1  0.75008065  0.75001450  0.75011031  1
  Mn  Mn8  1  0.99996219  0.99883510  0.49995938  1
  Mn  Mn9  1  0.99998288  0.50095564  0.00001712  1
  Mn  Mn10  1  0.99994989  0.50098346  0.49993723  1
  Mn  Mn11  1  0.50004062  0.99883510  0.00003781  1
  Mn  Mn12  1  0.50007124  0.99894100  0.49992876  1
  Mn  Mn13  1  0.50006277  0.50098346  0.00005011  1
  Mn  Mn14  1  0.50005844  0.50099065  0.49994156  1
  Fe  Fe15  1  0.99998066  0.99879223  0.00001934  1
  O  O16  1  0.25475154  0.99498229  0.00002911  1
  O  O17  1  0.25065228  0.99439941  0.49995776  1
  O  O18  1  0.25062639  0.50553529  0.00005824  1
  O  O19  1  0.25007382  0.50555534  0.49998723  1
  O  O20  1  0.74524563  0.99911689  0.99997509  1
  O  O21  1  0.74933156  0.99946759  0.50004542  1
  O  O22  1  0.74935245  0.50073211  0.99994861  1
  O  O23  1  0.74992424  0.50058622  0.50001192  1
  O  O24  1  0.99788224  0.25469407  0.00211776  1
  O  O25  1  0.99741345  0.25067926  0.49755454  1
  O  O26  1  0.00199304  0.74520001  0.99800696  1
  O  O27  1  0.00253275  0.74939750  0.50236739  1
  O  O28  1  0.50244546  0.25067926  0.00258655  1
  O  O29  1  0.50255590  0.25007163  0.49744410  1
  O  O30  1  0.49763261  0.74939750  0.99746725  1
  O  O31  1  0.49748728  0.74994945  0.50251272  1
  O  O32  1  0.00002491  0.99911689  0.25475437  1
  O  O33  1  0.99997089  0.99498229  0.74524846  1
  O  O34  1  0.00005139  0.50073211  0.25064755  1
  O  O35  1  0.99994176  0.50553529  0.74937361  1
  O  O36  1  0.49995458  0.99946759  0.25066844  1
  O  O37  1  0.50004224  0.99439941  0.74934772  1
  O  O38  1  0.49998808  0.50058622  0.25007576  1
  O  O39  1  0.50001277  0.50555534  0.74992618  1
