# generated using pymatgen
data_Ba7SrCoCu7O24
_symmetry_space_group_name_H-M   'P 1'
_cell_length_a   7.99176202
_cell_length_b   7.99176202
_cell_length_c   7.99176202
_cell_angle_alpha   89.97280384
_cell_angle_beta   89.97280384
_cell_angle_gamma   90.02719616
_symmetry_Int_Tables_number   1
_chemical_formula_structural   Ba7SrCoCu7O24
_chemical_formula_sum   'Ba7 Sr1 Co1 Cu7 O24'
_cell_volume   510.41976352
_cell_formula_units_Z   1
loop_
 _symmetry_equiv_pos_site_id
 _symmetry_equiv_pos_as_xyz
  1  'x, y, z'
loop_
 _atom_site_type_symbol
 _atom_site_label
 _atom_site_symmetry_multiplicity
 _atom_site_fract_x
 _atom_site_fract_y
 _atom_site_fract_z
 _atom_site_occupancy
  Ba  Ba0  1  0.25103318  0.24903495  0.24896682  1
  Ba  Ba1  1  0.25116894  0.24911027  0.75088973  1
  Ba  Ba2  1  0.25085854  0.75085854  0.24914146  1
  Ba  Ba3  1  0.25103318  0.75103318  0.75096505  1
  Ba  Ba4  1  0.74911027  0.24911027  0.24883106  1
  Ba  Ba5  1  0.74903495  0.75103318  0.24896682  1
  Ba  Ba6  1  0.74911027  0.75116894  0.75088973  1
  Sr  Sr7  1  0.74794551  0.24794551  0.75205449  1
  Co  Co8  1  0.99854329  0.49854329  0.50145671  1
  Cu  Cu9  1  0.99995578  0.00011471  0.99988529  1
  Cu  Cu10  1  0.99971134  0.99989535  0.50028866  1
  Cu  Cu11  1  0.99971134  0.49971134  0.00010465  1
  Cu  Cu12  1  0.50022754  0.00022754  0.99977246  1
  Cu  Cu13  1  0.50011471  0.00011471  0.50004422  1
  Cu  Cu14  1  0.50011471  0.49995578  0.99988529  1
  Cu  Cu15  1  0.49989535  0.49971134  0.50028866  1
  O  O16  1  0.25038429  0.00079532  0.99920468  1
  O  O17  1  0.24887728  0.00061246  0.50076568  1
  O  O18  1  0.24887728  0.49923432  0.99938754  1
  O  O19  1  0.24173453  0.49921443  0.50078557  1
  O  O20  1  0.74970244  0.00575991  0.99424009  1
  O  O21  1  0.75112971  0.00590168  0.50580376  1
  O  O22  1  0.75112971  0.49419624  0.99409832  1
  O  O23  1  0.75735175  0.49590770  0.50409230  1
  O  O24  1  0.99419624  0.25112971  0.99409832  1
  O  O25  1  0.99590770  0.25735175  0.50409230  1
  O  O26  1  0.99923432  0.74887728  0.99938754  1
  O  O27  1  0.99921443  0.74173453  0.50078557  1
  O  O28  1  0.50575991  0.24970244  0.99424009  1
  O  O29  1  0.50590168  0.25112971  0.50580376  1
  O  O30  1  0.50079532  0.75038429  0.99920468  1
  O  O31  1  0.50061246  0.74887728  0.50076568  1
  O  O32  1  0.99923432  0.00061246  0.25112272  1
  O  O33  1  0.99419624  0.00590168  0.74887029  1
  O  O34  1  0.99921443  0.49921443  0.25826547  1
  O  O35  1  0.99590770  0.49590770  0.74264825  1
  O  O36  1  0.50079532  0.00079532  0.24961571  1
  O  O37  1  0.50575991  0.00575991  0.75029756  1
  O  O38  1  0.50061246  0.49923432  0.25112272  1
  O  O39  1  0.50590168  0.49419624  0.74887029  1
