# generated using pymatgen
data_Sr3Fe2O5
_symmetry_space_group_name_H-M   'P 1'
_cell_length_a   3.40029617
_cell_length_b   4.09199177
_cell_length_c   10.84528913
_cell_angle_alpha   100.87418288
_cell_angle_beta   90.00000000
_cell_angle_gamma   90.00000000
_symmetry_Int_Tables_number   1
_chemical_formula_structural   Sr3Fe2O5
_chemical_formula_sum   'Sr3 Fe2 O5'
_cell_volume   148.19156986
_cell_formula_units_Z   1
loop_
 _symmetry_equiv_pos_site_id
 _symmetry_equiv_pos_as_xyz
  1  'x, y, z'
loop_
 _atom_site_type_symbol
 _atom_site_label
 _atom_site_symmetry_multiplicity
 _atom_site_fract_x
 _atom_site_fract_y
 _atom_site_fract_z
 _atom_site_occupancy
  Sr  Sr0  1  0.50000000  0.50000000  -0.00000000  1
  Sr  Sr1  1  0.50000000  0.68754118  0.37508235  1
  Sr  Sr2  1  0.50000000  0.31245882  0.62491765  1
  Fe  Fe3  1  0.00000000  0.09676166  0.19352333  1
  Fe  Fe4  1  -0.00000000  0.90323834  0.80647667  1
  O  O5  1  -0.00000000  -0.00000000  -0.00000000  1
  O  O6  1  0.00000000  0.40397368  0.80794736  1
  O  O7  1  -0.00000000  0.59602632  0.19205264  1
  O  O8  1  -0.00000000  0.19162464  0.38324928  1
  O  O9  1  -0.00000000  0.80837536  0.61675072  1
