# generated using pymatgen
data_NdO2
_symmetry_space_group_name_H-M   'P 1'
_cell_length_a   4.18991934
_cell_length_b   4.19760824
_cell_length_c   6.65982561
_cell_angle_alpha   128.89857686
_cell_angle_beta   90.00000000
_cell_angle_gamma   90.00000000
_symmetry_Int_Tables_number   1
_chemical_formula_structural   NdO2
_chemical_formula_sum   'Nd2 O4'
_cell_volume   91.15792563
_cell_formula_units_Z   2
loop_
 _symmetry_equiv_pos_site_id
 _symmetry_equiv_pos_as_xyz
  1  'x, y, z'
loop_
 _atom_site_type_symbol
 _atom_site_label
 _atom_site_symmetry_multiplicity
 _atom_site_fract_x
 _atom_site_fract_y
 _atom_site_fract_z
 _atom_site_occupancy
  Nd  Nd0  1  0.75000000  0.49959156  0.74997912  1
  Nd  Nd1  1  0.25000000  0.50040844  0.25002088  1
  O  O2  1  0.25000000  0.24812213  0.49828851  1
  O  O3  1  0.75000000  0.75187787  0.50171149  1
  O  O4  1  0.25000000  0.74958388  0.99863306  1
  O  O5  1  0.75000000  0.25041612  0.00136694  1
