# generated using pymatgen
data_MgGa
_symmetry_space_group_name_H-M   'P 1'
_cell_length_a   11.07556709
_cell_length_b   3.22032635
_cell_length_c   7.14619565
_cell_angle_alpha   90.00000000
_cell_angle_beta   109.11534581
_cell_angle_gamma   90.00000000
_symmetry_Int_Tables_number   1
_chemical_formula_structural   MgGa
_chemical_formula_sum   'Mg6 Ga6'
_cell_volume   240.82900589
_cell_formula_units_Z   6
loop_
 _symmetry_equiv_pos_site_id
 _symmetry_equiv_pos_as_xyz
  1  'x, y, z'
loop_
 _atom_site_type_symbol
 _atom_site_label
 _atom_site_symmetry_multiplicity
 _atom_site_fract_x
 _atom_site_fract_y
 _atom_site_fract_z
 _atom_site_occupancy
  Mg  Mg0  1  0.00127270  0.00000000  0.01467246  1
  Mg  Mg1  1  0.33257772  0.00000000  0.64813170  1
  Mg  Mg2  1  0.22114339  0.50000000  0.94647686  1
  Mg  Mg3  1  0.50127270  0.50000000  0.01467246  1
  Mg  Mg4  1  0.83257772  0.50000000  0.64813170  1
  Mg  Mg5  1  0.72114339  -0.00000000  0.94647686  1
  Ga  Ga6  1  0.39411559  -0.00000000  0.28287202  1
  Ga  Ga7  1  0.16576018  0.50000000  0.33431768  1
  Ga  Ga8  1  0.05179742  -0.00000000  0.60686228  1
  Ga  Ga9  1  0.89411559  0.50000000  0.28287202  1
  Ga  Ga10  1  0.66576018  -0.00000000  0.33431768  1
  Ga  Ga11  1  0.55179742  0.50000000  0.60686228  1
