# generated using pymatgen
data_YMg5
_symmetry_space_group_name_H-M   'P 1'
_cell_length_a   5.61131402
_cell_length_b   5.61131450
_cell_length_c   16.50977990
_cell_angle_alpha   90.00000000
_cell_angle_beta   90.00000000
_cell_angle_gamma   120.00000342
_symmetry_Int_Tables_number   1
_chemical_formula_structural   YMg5
_chemical_formula_sum   'Y3 Mg15'
_cell_volume   450.19543176
_cell_formula_units_Z   3
loop_
 _symmetry_equiv_pos_site_id
 _symmetry_equiv_pos_as_xyz
  1  'x, y, z'
loop_
 _atom_site_type_symbol
 _atom_site_label
 _atom_site_symmetry_multiplicity
 _atom_site_fract_x
 _atom_site_fract_y
 _atom_site_fract_z
 _atom_site_occupancy
  Y  Y0  1  0.33333300  0.66666700  0.16666700  1
  Y  Y1  1  -0.00000000  0.00000000  0.50000000  1
  Y  Y2  1  0.66666700  0.33333300  0.83333300  1
  Mg  Mg3  1  0.66755876  0.66755876  -0.00000000  1
  Mg  Mg4  1  -0.00000000  0.00000000  0.16590454  1
  Mg  Mg5  1  0.00000000  0.33244124  -0.00000000  1
  Mg  Mg6  1  0.33244124  0.00000000  -0.00000000  1
  Mg  Mg7  1  0.66666700  0.33333300  0.16742946  1
  Mg  Mg8  1  0.33422476  0.00089176  0.33333300  1
  Mg  Mg9  1  0.66666700  0.33333300  0.49923754  1
  Mg  Mg10  1  0.66666700  0.66577524  0.33333300  1
  Mg  Mg11  1  0.99910824  0.33333300  0.33333300  1
  Mg  Mg12  1  0.33333300  0.66666700  0.50076246  1
  Mg  Mg13  1  0.00089176  0.33422476  0.66666700  1
  Mg  Mg14  1  0.33333300  0.66666700  0.83257054  1
  Mg  Mg15  1  0.33333300  0.99910824  0.66666700  1
  Mg  Mg16  1  0.66577524  0.66666700  0.66666700  1
  Mg  Mg17  1  -0.00000000  0.00000000  0.83409546  1
