# generated using pymatgen
data_BaAl
_symmetry_space_group_name_H-M   'P 1'
_cell_length_a   9.83680159
_cell_length_b   6.42389914
_cell_length_c   4.70975910
_cell_angle_alpha   90.03076640
_cell_angle_beta   90.00616379
_cell_angle_gamma   90.01672094
_symmetry_Int_Tables_number   1
_chemical_formula_structural   BaAl
_chemical_formula_sum   'Ba4 Al4'
_cell_volume   297.61254628
_cell_formula_units_Z   4
loop_
 _symmetry_equiv_pos_site_id
 _symmetry_equiv_pos_as_xyz
  1  'x, y, z'
loop_
 _atom_site_type_symbol
 _atom_site_label
 _atom_site_symmetry_multiplicity
 _atom_site_fract_x
 _atom_site_fract_y
 _atom_site_fract_z
 _atom_site_occupancy
  Ba  Ba0  1  0.17859547  0.41402240  0.24164177  1
  Ba  Ba1  1  0.82140447  0.58596307  0.74226786  1
  Ba  Ba2  1  0.32137025  0.91409740  0.74160877  1
  Ba  Ba3  1  0.67862875  0.08588861  0.24229924  1
  Al  Al4  1  0.52259457  0.58440733  0.24207897  1
  Al  Al5  1  0.47740640  0.41561236  0.74198800  1
  Al  Al6  1  0.97759960  0.08454689  0.74213170  1
  Al  Al7  1  0.02240049  0.91546194  0.24198469  1
