# generated using pymatgen
data_LaMg2
_symmetry_space_group_name_H-M   'P 1'
_cell_length_a   13.38450305
_cell_length_b   3.34991874
_cell_length_c   7.70719401
_cell_angle_alpha   90.00000000
_cell_angle_beta   103.80147169
_cell_angle_gamma   90.00000000
_symmetry_Int_Tables_number   1
_chemical_formula_structural   LaMg2
_chemical_formula_sum   'La4 Mg8'
_cell_volume   335.59026903
_cell_formula_units_Z   4
loop_
 _symmetry_equiv_pos_site_id
 _symmetry_equiv_pos_as_xyz
  1  'x, y, z'
loop_
 _atom_site_type_symbol
 _atom_site_label
 _atom_site_symmetry_multiplicity
 _atom_site_fract_x
 _atom_site_fract_y
 _atom_site_fract_z
 _atom_site_occupancy
  La  La0  1  0.48326465  -0.00000000  0.20354890  1
  La  La1  1  0.01673535  0.50000000  0.79645110  1
  La  La2  1  0.98326465  0.50000000  0.20354890  1
  La  La3  1  0.51673535  0.00000000  0.79645110  1
  Mg  Mg4  1  0.20340637  0.00000000  0.14312069  1
  Mg  Mg5  1  0.34444813  0.50000000  0.46686319  1
  Mg  Mg6  1  0.15555187  0.00000000  0.53313681  1
  Mg  Mg7  1  0.29659363  0.50000000  0.85687931  1
  Mg  Mg8  1  0.70340637  0.50000000  0.14312069  1
  Mg  Mg9  1  0.84444813  -0.00000000  0.46686319  1
  Mg  Mg10  1  0.65555187  0.50000000  0.53313681  1
  Mg  Mg11  1  0.79659363  -0.00000000  0.85687931  1
