# generated using pymatgen
data_MgGa2
_symmetry_space_group_name_H-M   'P 1'
_cell_length_a   10.87498899
_cell_length_b   3.18679430
_cell_length_c   7.05429258
_cell_angle_alpha   90.00000000
_cell_angle_beta   107.27056975
_cell_angle_gamma   90.00000000
_symmetry_Int_Tables_number   1
_chemical_formula_structural   MgGa2
_chemical_formula_sum   'Mg4 Ga8'
_cell_volume   233.45346478
_cell_formula_units_Z   4
loop_
 _symmetry_equiv_pos_site_id
 _symmetry_equiv_pos_as_xyz
  1  'x, y, z'
loop_
 _atom_site_type_symbol
 _atom_site_label
 _atom_site_symmetry_multiplicity
 _atom_site_fract_x
 _atom_site_fract_y
 _atom_site_fract_z
 _atom_site_occupancy
  Mg  Mg0  1  0.36097793  0.00000000  0.46716133  1
  Mg  Mg1  1  0.13902207  0.50000000  0.53283867  1
  Mg  Mg2  1  0.86097793  0.50000000  0.46716133  1
  Mg  Mg3  1  0.63902207  0.00000000  0.53283867  1
  Ga  Ga4  1  0.19009032  0.50000000  0.13032058  1
  Ga  Ga5  1  0.47238284  0.50000000  0.18508244  1
  Ga  Ga6  1  0.02761716  -0.00000000  0.81491756  1
  Ga  Ga7  1  0.30990968  0.00000000  0.86967942  1
  Ga  Ga8  1  0.69009032  -0.00000000  0.13032058  1
  Ga  Ga9  1  0.97238284  0.00000000  0.18508244  1
  Ga  Ga10  1  0.52761716  0.50000000  0.81491756  1
  Ga  Ga11  1  0.80990968  0.50000000  0.86967942  1
