# generated using pymatgen
data_MgZn
_symmetry_space_group_name_H-M   'P 1'
_cell_length_a   9.43961323
_cell_length_b   4.88854337
_cell_length_c   5.69784461
_cell_angle_alpha   90.00000000
_cell_angle_beta   122.55893855
_cell_angle_gamma   90.00000000
_symmetry_Int_Tables_number   1
_chemical_formula_structural   MgZn
_chemical_formula_sum   'Mg6 Zn6'
_cell_volume   221.60958143
_cell_formula_units_Z   6
loop_
 _symmetry_equiv_pos_site_id
 _symmetry_equiv_pos_as_xyz
  1  'x, y, z'
loop_
 _atom_site_type_symbol
 _atom_site_label
 _atom_site_symmetry_multiplicity
 _atom_site_fract_x
 _atom_site_fract_y
 _atom_site_fract_z
 _atom_site_occupancy
  Mg  Mg0  1  0.84680773  0.14761075  0.01578501  1
  Mg  Mg1  1  0.15319227  0.14761075  0.98421499  1
  Mg  Mg2  1  0.50000000  0.03620134  0.50000000  1
  Mg  Mg3  1  0.34680773  0.64761075  0.01578501  1
  Mg  Mg4  1  0.65319227  0.64761075  0.98421499  1
  Mg  Mg5  1  0.00000000  0.53620134  0.50000000  1
  Zn  Zn6  1  0.50000000  0.15619849  0.00000000  1
  Zn  Zn7  1  0.18752278  0.00618983  0.50614209  1
  Zn  Zn8  1  0.81247722  0.00618983  0.49385791  1
  Zn  Zn9  1  0.00000000  0.65619849  0.00000000  1
  Zn  Zn10  1  0.68752278  0.50618983  0.50614209  1
  Zn  Zn11  1  0.31247722  0.50618983  0.49385791  1
