# generated using pymatgen
data_Li9Mn2Co5O16
_symmetry_space_group_name_H-M   'P 1'
_cell_length_a   2.88789863
_cell_length_b   5.19886117
_cell_length_c   19.51876625
_cell_angle_alpha   98.62034049
_cell_angle_beta   90.00000000
_cell_angle_gamma   90.00000000
_symmetry_Int_Tables_number   1
_chemical_formula_structural   Li9Mn2Co5O16
_chemical_formula_sum   'Li9 Mn2 Co5 O16'
_cell_volume   289.74001767
_cell_formula_units_Z   1
loop_
 _symmetry_equiv_pos_site_id
 _symmetry_equiv_pos_as_xyz
  1  'x, y, z'
loop_
 _atom_site_type_symbol
 _atom_site_label
 _atom_site_symmetry_multiplicity
 _atom_site_fract_x
 _atom_site_fract_y
 _atom_site_fract_z
 _atom_site_occupancy
  Li  Li0  1  0.50000000  0.25636353  0.12461226  1
  Li  Li1  1  0.50000000  0.76602953  0.38219397  1
  Li  Li2  1  0.50000000  0.23736122  0.62132218  1
  Li  Li3  1  0.50000000  0.73530118  0.87172324  1
  Li  Li4  1  -0.00000000  0.74350116  0.12574248  1
  Li  Li5  1  -0.00000000  0.25989929  0.37905616  1
  Li  Li6  1  -0.00000000  0.74996253  0.62391026  1
  Li  Li7  1  -0.00000000  0.25042086  0.87260073  1
  Li  Li8  1  0.50000000  0.50204648  0.50056172  1
  Mn  Mn9  1  0.00000000  -0.00324317  0.99951839  1
  Mn  Mn10  1  0.00000000  0.50490112  0.25294828  1
  Co  Co11  1  0.00000000  0.00115215  0.50032606  1
  Co  Co12  1  0.00000000  0.49693390  0.74731952  1
  Co  Co13  1  0.50000000  0.49872328  0.99963513  1
  Co  Co14  1  0.50000000  0.00407237  0.25049764  1
  Co  Co15  1  0.50000000  0.99852007  0.74903152  1
  O  O16  1  0.50000000  0.88005945  0.05643910  1
  O  O17  1  0.50000000  0.39809469  0.31103546  1
  O  O18  1  0.50000000  0.88644428  0.55490751  1
  O  O19  1  0.50000000  0.36934449  0.80631182  1
  O  O20  1  0.00000000  0.39130868  0.06044946  1
  O  O21  1  -0.00000000  0.90312468  0.30681787  1
  O  O22  1  0.00000000  0.31256013  0.55282201  1
  O  O23  1  -0.00000000  0.86770744  0.80612160  1
  O  O24  1  0.50000000  0.60828677  0.19439970  1
  O  O25  1  0.50000000  0.11393392  0.44495491  1
  O  O26  1  0.50000000  0.62648867  0.68855749  1
  O  O27  1  0.50000000  0.11875867  0.94348184  1
  O  O28  1  0.00000000  0.10670029  0.19384034  1
  O  O29  1  0.00000000  0.68564372  0.44688315  1
  O  O30  1  0.00000000  0.12412314  0.69208228  1
  O  O31  1  -0.00000000  0.60547551  0.93989592  1
