# generated using pymatgen
data_Ta(BMo)2
_symmetry_space_group_name_H-M   'P 1'
_cell_length_a   3.19233188
_cell_length_b   6.12653347
_cell_length_c   6.12653347
_cell_angle_alpha   90.00000000
_cell_angle_beta   90.00000000
_cell_angle_gamma   90.00000000
_symmetry_Int_Tables_number   1
_chemical_formula_structural   Ta(BMo)2
_chemical_formula_sum   'Ta2 B4 Mo4'
_cell_volume   119.82230117
_cell_formula_units_Z   2
loop_
 _symmetry_equiv_pos_site_id
 _symmetry_equiv_pos_as_xyz
  1  'x, y, z'
loop_
 _atom_site_type_symbol
 _atom_site_label
 _atom_site_symmetry_multiplicity
 _atom_site_fract_x
 _atom_site_fract_y
 _atom_site_fract_z
 _atom_site_occupancy
  Ta  Ta0  1  0.00000000  0.50000000  0.50000000  1
  Ta  Ta1  1  0.00000000  0.00000000  0.00000000  1
  B  B2  1  -0.00000000  0.60929935  0.10929935  1
  B  B3  1  0.00000000  0.39070065  0.89070065  1
  B  B4  1  0.00000000  0.89070065  0.60929935  1
  B  B5  1  -0.00000000  0.10929935  0.39070065  1
  Mo  Mo6  1  0.50000000  0.17382697  0.67382697  1
  Mo  Mo7  1  0.50000000  0.82617303  0.32617303  1
  Mo  Mo8  1  0.50000000  0.32617303  0.17382697  1
  Mo  Mo9  1  0.50000000  0.67382697  0.82617303  1
