# generated using pymatgen
data_MgZn3
_symmetry_space_group_name_H-M   'P 1'
_cell_length_a   2.92195712
_cell_length_b   9.39090044
_cell_length_c   4.84721660
_cell_angle_alpha   90.00000000
_cell_angle_beta   90.00000000
_cell_angle_gamma   90.00000000
_symmetry_Int_Tables_number   1
_chemical_formula_structural   MgZn3
_chemical_formula_sum   'Mg2 Zn6'
_cell_volume   133.00669480
_cell_formula_units_Z   2
loop_
 _symmetry_equiv_pos_site_id
 _symmetry_equiv_pos_as_xyz
  1  'x, y, z'
loop_
 _atom_site_type_symbol
 _atom_site_label
 _atom_site_symmetry_multiplicity
 _atom_site_fract_x
 _atom_site_fract_y
 _atom_site_fract_z
 _atom_site_occupancy
  Mg  Mg0  1  -0.00000000  -0.00000000  0.33664631  1
  Mg  Mg1  1  0.50000000  0.50000000  0.83664631  1
  Zn  Zn2  1  0.50000000  -0.00000000  0.83095116  1
  Zn  Zn3  1  0.00000000  0.24856660  0.99953427  1
  Zn  Zn4  1  0.50000000  0.25143340  0.49953427  1
  Zn  Zn5  1  0.00000000  0.50000000  0.33095116  1
  Zn  Zn6  1  0.50000000  0.74856660  0.49953427  1
  Zn  Zn7  1  -0.00000000  0.75143340  0.99953427  1
