# generated using pymatgen
data_Nb2O3
_symmetry_space_group_name_H-M   'P 1'
_cell_length_a   2.87139009
_cell_length_b   6.08722625
_cell_length_c   7.58687492
_cell_angle_alpha   111.66852920
_cell_angle_beta   90.00000000
_cell_angle_gamma   103.64194806
_symmetry_Int_Tables_number   1
_chemical_formula_structural   Nb2O3
_chemical_formula_sum   'Nb4 O6'
_cell_volume   119.20386602
_cell_formula_units_Z   2
loop_
 _symmetry_equiv_pos_site_id
 _symmetry_equiv_pos_as_xyz
  1  'x, y, z'
loop_
 _atom_site_type_symbol
 _atom_site_label
 _atom_site_symmetry_multiplicity
 _atom_site_fract_x
 _atom_site_fract_y
 _atom_site_fract_z
 _atom_site_occupancy
  Nb  Nb0  1  0.16300911  0.32601821  0.84536919  1
  Nb  Nb1  1  0.83699089  0.67398179  0.15463081  1
  Nb  Nb2  1  0.34036621  0.68073243  0.64227968  1
  Nb  Nb3  1  0.65963379  0.31926757  0.35772032  1
  O  O4  1  0.13851136  0.27702272  0.55348055  1
  O  O5  1  0.86148864  0.72297728  0.44651945  1
  O  O6  1  0.18977603  0.37955205  0.15320719  1
  O  O7  1  0.81022397  0.62044795  0.84679281  1
  O  O8  1  0.47375632  0.94751264  0.20620796  1
  O  O9  1  0.52624368  0.05248736  0.79379204  1
