# generated using pymatgen
data_KNa7V6(MoO10)2
_symmetry_space_group_name_H-M   'P 1'
_cell_length_a   11.10868088
_cell_length_b   11.44480516
_cell_length_c   16.60815773
_cell_angle_alpha   110.15241214
_cell_angle_beta   109.01087486
_cell_angle_gamma   90.08021426
_symmetry_Int_Tables_number   1
_chemical_formula_structural   KNa7V6(MoO10)2
_chemical_formula_sum   'K4 Na28 V24 Mo8 O80'
_cell_volume   1858.70029005
_cell_formula_units_Z   4
loop_
 _symmetry_equiv_pos_site_id
 _symmetry_equiv_pos_as_xyz
  1  'x, y, z'
loop_
 _atom_site_type_symbol
 _atom_site_label
 _atom_site_symmetry_multiplicity
 _atom_site_fract_x
 _atom_site_fract_y
 _atom_site_fract_z
 _atom_site_occupancy
  K  K0  1  0.30685208  0.06889245  0.11841189  1
  K  K1  1  0.80702895  0.07457442  0.11982032  1
  K  K2  1  0.05579294  0.79984851  0.11951085  1
  K  K3  1  0.55660285  0.79789292  0.11938723  1
  Na  Na4  1  0.30079388  0.07275496  0.60688068  1
  Na  Na5  1  0.30600696  0.56834535  0.11031746  1
  Na  Na6  1  0.30155129  0.56895812  0.60546001  1
  Na  Na7  1  0.80646034  0.06792723  0.60570800  1
  Na  Na8  1  0.80405755  0.56886090  0.11127659  1
  Na  Na9  1  0.80443587  0.56691969  0.60477410  1
  Na  Na10  1  0.19867611  0.43617066  0.39740986  1
  Na  Na11  1  0.19570595  0.42699311  0.88684134  1
  Na  Na12  1  0.19690833  0.93652297  0.39837052  1
  Na  Na13  1  0.19370523  0.92649660  0.88650893  1
  Na  Na14  1  0.70260396  0.43470728  0.39804105  1
  Na  Na15  1  0.69354548  0.42541390  0.88673589  1
  Na  Na16  1  0.70320754  0.92967777  0.39813280  1
  Na  Na17  1  0.69235899  0.93074656  0.88699962  1
  Na  Na18  1  0.05085064  0.29136871  0.11077598  1
  Na  Na19  1  0.05225383  0.28734299  0.60457454  1
  Na  Na20  1  0.05299622  0.78554331  0.60535308  1
  Na  Na21  1  0.55992124  0.28963943  0.10941544  1
  Na  Na22  1  0.54989252  0.28968429  0.60578473  1
  Na  Na23  1  0.55530992  0.78512048  0.60606460  1
  Na  Na24  1  0.44753436  0.21489653  0.39772429  1
  Na  Na25  1  0.45020702  0.20788835  0.88849411  1
  Na  Na26  1  0.45215122  0.70915617  0.39754844  1
  Na  Na27  1  0.44191581  0.71001326  0.88659503  1
  Na  Na28  1  0.95014954  0.21632562  0.39846211  1
  Na  Na29  1  0.93945050  0.20672809  0.88595112  1
  Na  Na30  1  0.95001463  0.71102356  0.39733252  1
  Na  Na31  1  0.94060414  0.71048515  0.88545022  1
  V  V32  1  0.00332868  0.99576888  0.50148846  1
  V  V33  1  0.00083734  0.49434675  0.50067779  1
  V  V34  1  0.50320167  0.49655797  0.50041546  1
  V  V35  1  0.25527006  0.25233437  0.50089150  1
  V  V36  1  0.25485716  0.75172824  0.50016745  1
  V  V37  1  0.75198101  0.24833366  0.99679172  1
  V  V38  1  0.75603483  0.25236045  0.50126600  1
  V  V39  1  0.75603804  0.74863632  0.50037733  1
  V  V40  1  0.11305643  0.09714727  0.25814906  1
  V  V41  1  0.10238324  0.08690046  0.74734144  1
  V  V42  1  0.10448318  0.58703356  0.25327230  1
  V  V43  1  0.10087097  0.58407218  0.74531318  1
  V  V44  1  0.61344371  0.09668577  0.25815130  1
  V  V45  1  0.60327153  0.08874938  0.74975123  1
  V  V46  1  0.60564046  0.58530046  0.25361519  1
  V  V47  1  0.60144570  0.58523317  0.74639706  1
  V  V48  1  0.35449429  0.41644038  0.25323934  1
  V  V49  1  0.35198380  0.41049595  0.74757802  1
  V  V50  1  0.36240577  0.91141008  0.25737840  1
  V  V51  1  0.35148922  0.91142226  0.74570424  1
  V  V52  1  0.85524491  0.41680332  0.25242570  1
  V  V53  1  0.85151933  0.40973862  0.74777065  1
  V  V54  1  0.86279494  0.91170170  0.25808725  1
  V  V55  1  0.85052312  0.91063915  0.74472160  1
  Mo  Mo56  1  0.99887838  0.00069466  0.99492198  1
  Mo  Mo57  1  0.00191072  0.49524806  0.99731552  1
  Mo  Mo58  1  0.50325468  -0.00004585  0.99501350  1
  Mo  Mo59  1  0.50864247  0.00127604  0.50107702  1
  Mo  Mo60  1  0.50613672  0.49524613  0.99729099  1
  Mo  Mo61  1  0.25435116  0.24893326  0.99698890  1
  Mo  Mo62  1  0.25087135  0.74648950  0.99483140  1
  Mo  Mo63  1  0.75090055  0.74734145  0.99522070  1
  O  O64  1  0.13197164  0.13625755  0.49034272  1
  O  O65  1  0.11758755  0.11750294  0.98048433  1
  O  O66  1  0.13732617  0.63334159  0.48809451  1
  O  O67  1  0.11750667  0.60970947  0.98429423  1
  O  O68  1  0.62904263  0.12061441  0.48894654  1
  O  O69  1  0.62131868  0.12041150  0.98026161  1
  O  O70  1  0.63857094  0.62647729  0.48880490  1
  O  O71  1  0.62118062  0.61182530  0.98011722  1
  O  O72  1  0.13859672  0.38329695  0.01447326  1
  O  O73  1  0.13104472  0.39300451  0.51099895  1
  O  O74  1  0.12672264  0.87419907  0.00417718  1
  O  O75  1  0.13404456  0.89132757  0.51285578  1
  O  O76  1  0.64451784  0.37378500  0.00827542  1
  O  O77  1  0.62564393  0.38908794  0.51071146  1
  O  O78  1  0.63117454  0.87824650  0.00675758  1
  O  O79  1  0.64198968  0.88184712  0.51886685  1
  O  O80  1  0.37214139  0.11726261  0.48528137  1
  O  O81  1  0.36898749  0.11407242  0.97848398  1
  O  O82  1  0.38706871  0.61217037  0.48973818  1
  O  O83  1  0.36723865  0.61003124  0.98047162  1
  O  O84  1  0.88578408  0.10503948  0.49026588  1
  O  O85  1  0.86856710  0.13019067  0.98603608  1
  O  O86  1  0.88724394  0.61045791  0.48862665  1
  O  O87  1  0.86921772  0.61228892  0.97968761  1
  O  O88  1  0.39044011  0.37925903  0.01305586  1
  O  O89  1  0.37962156  0.37829241  0.51344780  1
  O  O90  1  0.38058526  0.87721379  0.00676633  1
  O  O91  1  0.38040837  0.87375596  0.51096492  1
  O  O92  1  0.88823844  0.38331606  0.00776232  1
  O  O93  1  0.88742612  0.38112463  0.51486593  1
  O  O94  1  0.87861662  0.88214188  0.00565832  1
  O  O95  1  0.88421439  0.87011194  0.51118301  1
  O  O96  1  0.07429806  0.09879470  0.14391133  1
  O  O97  1  0.08177405  0.09996167  0.64103678  1
  O  O98  1  0.07743527  0.58793686  0.14034675  1
  O  O99  1  0.08244225  0.60065676  0.64061595  1
  O  O100  1  0.57519815  0.09950615  0.14437041  1
  O  O101  1  0.58189880  0.10748076  0.64507092  1
  O  O102  1  0.58616114  0.58833759  0.14284577  1
  O  O103  1  0.58194718  0.59866302  0.64048310  1
  O  O104  1  0.43941682  0.39959008  0.35796498  1
  O  O105  1  0.43846755  0.39200503  0.85334633  1
  O  O106  1  0.44853453  0.88663276  0.35846382  1
  O  O107  1  0.43866841  0.89445091  0.85127315  1
  O  O108  1  0.94089062  0.39843571  0.35648776  1
  O  O109  1  0.93953036  0.39458148  0.85569259  1
  O  O110  1  0.94607321  0.89194876  0.36160880  1
  O  O111  1  0.93525800  0.89716683  0.85220070  1
  O  O112  1  0.33287809  0.30176433  0.14305105  1
  O  O113  1  0.33181138  0.29231800  0.64129859  1
  O  O114  1  0.32254322  0.79483006  0.14398379  1
  O  O115  1  0.33233738  0.79114818  0.63968574  1
  O  O116  1  0.83218368  0.30664480  0.14050927  1
  O  O117  1  0.83182665  0.29023201  0.64251088  1
  O  O118  1  0.82392531  0.79530506  0.14407293  1
  O  O119  1  0.83477919  0.78824161  0.64091989  1
  O  O120  1  0.19466072  0.22113557  0.36081513  1
  O  O121  1  0.18808684  0.21049576  0.85342231  1
  O  O122  1  0.19237513  0.70953853  0.35668118  1
  O  O123  1  0.18725107  0.70605726  0.85144687  1
  O  O124  1  0.69729753  0.21929776  0.36134685  1
  O  O125  1  0.69158462  0.20900866  0.85626135  1
  O  O126  1  0.69269677  0.70702908  0.35805498  1
  O  O127  1  0.68859116  0.70836089  0.85203363  1
  O  O128  1  0.45563236  0.05449365  0.26625581  1
  O  O129  1  0.43438641  0.05612932  0.74765542  1
  O  O130  1  0.43671661  0.56107470  0.25381739  1
  O  O131  1  0.43469769  0.55483013  0.74831123  1
  O  O132  1  0.95543491  0.05470139  0.26645238  1
  O  O133  1  0.93452430  0.05536807  0.74712552  1
  O  O134  1  0.93693783  0.56341292  0.25468021  1
  O  O135  1  0.93426667  0.55323670  0.74800288  1
  O  O136  1  0.18572296  0.44365558  0.25380521  1
  O  O137  1  0.18407687  0.44135780  0.74718227  1
  O  O138  1  0.20549165  0.96241195  0.26668340  1
  O  O139  1  0.18459141  0.94327726  0.74751338  1
  O  O140  1  0.68667162  0.44154884  0.25389333  1
  O  O141  1  0.68460255  0.44215596  0.74803945  1
  O  O142  1  0.70571952  0.96142286  0.26669596  1
  O  O143  1  0.68457275  0.94375926  0.74756919  1
