# generated using pymatgen
data_KNa7V7MoO20
_symmetry_space_group_name_H-M   'P 1'
_cell_length_a   11.00221332
_cell_length_b   11.32213684
_cell_length_c   16.61367723
_cell_angle_alpha   109.98172263
_cell_angle_beta   108.93406503
_cell_angle_gamma   89.93536953
_symmetry_Int_Tables_number   1
_chemical_formula_structural   KNa7V7MoO20
_chemical_formula_sum   'K4 Na28 V28 Mo4 O80'
_cell_volume   1825.64673405
_cell_formula_units_Z   4
loop_
 _symmetry_equiv_pos_site_id
 _symmetry_equiv_pos_as_xyz
  1  'x, y, z'
loop_
 _atom_site_type_symbol
 _atom_site_label
 _atom_site_symmetry_multiplicity
 _atom_site_fract_x
 _atom_site_fract_y
 _atom_site_fract_z
 _atom_site_occupancy
  K  K0  1  0.30741147  0.07148182  0.11704245  1
  K  K1  1  0.80548267  0.06971166  0.11689844  1
  K  K2  1  0.05402383  0.79809639  0.11567921  1
  K  K3  1  0.55927125  0.79456247  0.11551022  1
  Na  Na4  1  0.30428834  0.06879126  0.60723868  1
  Na  Na5  1  0.31016979  0.56425479  0.10709918  1
  Na  Na6  1  0.30406826  0.56816063  0.60741944  1
  Na  Na7  1  0.80451012  0.06864952  0.60686437  1
  Na  Na8  1  0.80110399  0.56572102  0.10707585  1
  Na  Na9  1  0.80348623  0.56826287  0.60691964  1
  Na  Na10  1  0.19864472  0.43389139  0.39502882  1
  Na  Na11  1  0.20240019  0.42987358  0.89051978  1
  Na  Na12  1  0.19828195  0.93275702  0.39627320  1
  Na  Na13  1  0.19516876  0.93122686  0.88921907  1
  Na  Na14  1  0.69787498  0.43381822  0.39474768  1
  Na  Na15  1  0.69311313  0.42958192  0.88978833  1
  Na  Na16  1  0.69858033  0.93257927  0.39629904  1
  Na  Na17  1  0.69244721  0.92952906  0.88928899  1
  Na  Na18  1  0.05145047  0.29328218  0.10824311  1
  Na  Na19  1  0.05458457  0.28848632  0.60718323  1
  Na  Na20  1  0.05348692  0.78883935  0.60692842  1
  Na  Na21  1  0.55445220  0.29399761  0.10711514  1
  Na  Na22  1  0.55398379  0.28878851  0.60724378  1
  Na  Na23  1  0.55334043  0.78870708  0.60697191  1
  Na  Na24  1  0.44851156  0.21399699  0.39651430  1
  Na  Na25  1  0.44767926  0.21164448  0.89053959  1
  Na  Na26  1  0.44828704  0.71096202  0.39496988  1
  Na  Na27  1  0.44941524  0.70605064  0.89018199  1
  Na  Na28  1  0.94839936  0.21373461  0.39637256  1
  Na  Na29  1  0.94395080  0.20953723  0.89006623  1
  Na  Na30  1  0.94784052  0.71097148  0.39474592  1
  Na  Na31  1  0.94171533  0.70763832  0.88914941  1
  V  V32  1  0.00662562  0.00039820  0.50103804  1
  V  V33  1  0.00525107  0.50073111  0.49964717  1
  V  V34  1  0.50681418  0.00086520  0.50162938  1
  V  V35  1  0.50624418  0.49639307  0.99698975  1
  V  V36  1  0.50556972  0.50124932  0.50028762  1
  V  V37  1  0.25868490  0.25474152  0.99775540  1
  V  V38  1  0.25695032  0.25081495  0.50188500  1
  V  V39  1  0.25523374  0.74889409  0.49998023  1
  V  V40  1  0.75137714  0.25288184  0.99779138  1
  V  V41  1  0.75663510  0.25065954  0.50117394  1
  V  V42  1  0.74898858  0.74351500  0.99449690  1
  V  V43  1  0.75495125  0.74871009  0.49922802  1
  V  V44  1  0.11207653  0.09621573  0.25688542  1
  V  V45  1  0.10354377  0.08967828  0.74900886  1
  V  V46  1  0.10466772  0.58652809  0.25296776  1
  V  V47  1  0.10191832  0.58558047  0.74656859  1
  V  V48  1  0.61260872  0.09617803  0.25732205  1
  V  V49  1  0.60298276  0.08962279  0.74923424  1
  V  V50  1  0.60499877  0.58619122  0.25200108  1
  V  V51  1  0.60254912  0.58656309  0.74724948  1
  V  V52  1  0.35498471  0.41575785  0.25177209  1
  V  V53  1  0.35390454  0.40985025  0.74903591  1
  V  V54  1  0.36300235  0.91072706  0.25713018  1
  V  V55  1  0.35133969  0.91097966  0.74640801  1
  V  V56  1  0.85438075  0.41522182  0.25186153  1
  V  V57  1  0.85193295  0.40977733  0.74768278  1
  V  V58  1  0.86277253  0.91060275  0.25711326  1
  V  V59  1  0.85064639  0.91187522  0.74623982  1
  Mo  Mo60  1  0.99909572  0.00109018  0.99488294  1
  Mo  Mo61  1  0.00156606  0.49592633  0.99717543  1
  Mo  Mo62  1  0.50430644  0.99964557  0.99553029  1
  Mo  Mo63  1  0.25434044  0.74448494  0.99511714  1
  O  O64  1  0.11923985  0.11169354  0.49020967  1
  O  O65  1  0.11527908  0.11914491  0.98661483  1
  O  O66  1  0.11894736  0.61146093  0.48917982  1
  O  O67  1  0.12317197  0.61300782  0.98333827  1
  O  O68  1  0.61904213  0.11150115  0.49004983  1
  O  O69  1  0.61922048  0.12065421  0.98278033  1
  O  O70  1  0.61891976  0.61146734  0.48898882  1
  O  O71  1  0.61984175  0.60482224  0.98720443  1
  O  O72  1  0.14253516  0.37204106  0.00747408  1
  O  O73  1  0.14459895  0.37077928  0.51108554  1
  O  O74  1  0.12943529  0.87924007  0.00537908  1
  O  O75  1  0.14531841  0.87063371  0.51173339  1
  O  O76  1  0.63976008  0.37149562  0.00801810  1
  O  O77  1  0.64467612  0.37108972  0.51145110  1
  O  O78  1  0.63100715  0.87349724  0.00365454  1
  O  O79  1  0.64530040  0.87058833  0.51170281  1
  O  O80  1  0.36907206  0.12847723  0.48991508  1
  O  O81  1  0.36514777  0.12674070  0.98548080  1
  O  O82  1  0.36903829  0.62775630  0.48927146  1
  O  O83  1  0.37260581  0.60981402  0.98055372  1
  O  O84  1  0.86901883  0.12836707  0.48980254  1
  O  O85  1  0.86626180  0.12535394  0.98531217  1
  O  O86  1  0.86898281  0.62787632  0.48937376  1
  O  O87  1  0.86891011  0.61517764  0.98322365  1
  O  O88  1  0.39145849  0.38234968  0.00698900  1
  O  O89  1  0.39529459  0.39114618  0.51156617  1
  O  O90  1  0.37982639  0.87976416  0.00439152  1
  O  O91  1  0.39482384  0.89067461  0.51157679  1
  O  O92  1  0.88696459  0.37773247  0.01135223  1
  O  O93  1  0.89522409  0.39103607  0.51140962  1
  O  O94  1  0.88185255  0.88460871  0.00116518  1
  O  O95  1  0.89471730  0.89056136  0.51151941  1
  O  O96  1  0.07198604  0.09650237  0.14202107  1
  O  O97  1  0.08162156  0.09986509  0.64096745  1
  O  O98  1  0.08461941  0.58842699  0.14295452  1
  O  O99  1  0.08096975  0.59848591  0.63943300  1
  O  O100  1  0.57597105  0.09923201  0.14462362  1
  O  O101  1  0.58178488  0.09987817  0.64111435  1
  O  O102  1  0.58239208  0.58401455  0.14109510  1
  O  O103  1  0.58133518  0.59907948  0.63956199  1
  O  O104  1  0.44218746  0.40084141  0.35827677  1
  O  O105  1  0.44149031  0.39583622  0.85473883  1
  O  O106  1  0.44776172  0.89504058  0.36248074  1
  O  O107  1  0.43826834  0.89616385  0.85220682  1
  O  O108  1  0.94258416  0.40080577  0.35856944  1
  O  O109  1  0.93775645  0.39355214  0.85343160  1
  O  O110  1  0.94840083  0.89514291  0.36288142  1
  O  O111  1  0.93927469  0.90033501  0.85426383  1
  O  O112  1  0.33341015  0.30653012  0.14069647  1
  O  O113  1  0.33150224  0.29109030  0.64051784  1
  O  O114  1  0.32739167  0.79523086  0.14462071  1
  O  O115  1  0.33105222  0.79078372  0.63944650  1
  O  O116  1  0.83137582  0.30437235  0.14164157  1
  O  O117  1  0.83144152  0.29094412  0.64011147  1
  O  O118  1  0.82641867  0.79685285  0.14522025  1
  O  O119  1  0.83135480  0.79135351  0.64012945  1
  O  O120  1  0.19797903  0.21697551  0.36162302  1
  O  O121  1  0.18979931  0.20819551  0.85577745  1
  O  O122  1  0.19253380  0.70794638  0.35916976  1
  O  O123  1  0.18864993  0.70698010  0.85194714  1
  O  O124  1  0.69804914  0.21748020  0.36244136  1
  O  O125  1  0.68964478  0.20838422  0.85543973  1
  O  O126  1  0.69279108  0.70788833  0.35881272  1
  O  O127  1  0.68903307  0.70491804  0.85339345  1
  O  O128  1  0.45245822  0.05715033  0.26529039  1
  O  O129  1  0.43309618  0.05783624  0.74818585  1
  O  O130  1  0.43552264  0.56340909  0.25377348  1
  O  O131  1  0.43373255  0.55612290  0.74839567  1
  O  O132  1  0.95314435  0.05746062  0.26528727  1
  O  O133  1  0.93328926  0.05752669  0.74805396  1
  O  O134  1  0.93479849  0.56294052  0.25328912  1
  O  O135  1  0.93318657  0.55645408  0.74836810  1
  O  O136  1  0.18501681  0.44010661  0.25317099  1
  O  O137  1  0.18391109  0.44034945  0.74824266  1
  O  O138  1  0.20254593  0.95871145  0.26469402  1
  O  O139  1  0.18299271  0.94217824  0.74835056  1
  O  O140  1  0.68495726  0.44017073  0.25372009  1
  O  O141  1  0.68296287  0.43984461  0.74789936  1
  O  O142  1  0.70243805  0.95826257  0.26525712  1
  O  O143  1  0.68325383  0.94185651  0.74841660  1
