# generated using pymatgen
data_K3Na5VMo7O24
_symmetry_space_group_name_H-M   'P 1'
_cell_length_a   7.94024192
_cell_length_b   7.94024192
_cell_length_c   7.91728009
_cell_angle_alpha   89.93994433
_cell_angle_beta   89.93994433
_cell_angle_gamma   89.93554296
_symmetry_Int_Tables_number   1
_chemical_formula_structural   K3Na5VMo7O24
_chemical_formula_sum   'K3 Na5 V1 Mo7 O24'
_cell_volume   499.16339187
_cell_formula_units_Z   1
loop_
 _symmetry_equiv_pos_site_id
 _symmetry_equiv_pos_as_xyz
  1  'x, y, z'
loop_
 _atom_site_type_symbol
 _atom_site_label
 _atom_site_symmetry_multiplicity
 _atom_site_fract_x
 _atom_site_fract_y
 _atom_site_fract_z
 _atom_site_occupancy
  K  K0  1  0.25226586  0.74775599  0.25399926  1
  K  K1  1  0.74775599  0.25226586  0.25399926  1
  K  K2  1  0.74773242  0.74773242  0.25407033  1
  Na  Na3  1  0.25283152  0.25283152  0.25492611  1
  Na  Na4  1  0.25275210  0.25275210  0.74513523  1
  Na  Na5  1  0.25282049  0.74721260  0.74514877  1
  Na  Na6  1  0.74721260  0.25282049  0.74514877  1
  Na  Na7  1  0.74718314  0.74718314  0.74512765  1
  V  V8  1  0.49913320  0.49913320  0.50191706  1
  Mo  Mo9  1  0.00047993  0.00047993  0.99866228  1
  Mo  Mo10  1  0.00053966  0.00053966  0.50140783  1
  Mo  Mo11  1  0.00060615  0.49955033  0.99847049  1
  Mo  Mo12  1  0.00066688  0.49929356  0.50201795  1
  Mo  Mo13  1  0.49955033  0.00060615  0.99847049  1
  Mo  Mo14  1  0.49929356  0.00066688  0.50201795  1
  Mo  Mo15  1  0.49939638  0.49939638  0.99784595  1
  O  O16  1  0.25996816  0.00209052  0.99731604  1
  O  O17  1  0.25574402  0.00189566  0.50302325  1
  O  O18  1  0.25732352  0.49835168  0.99701468  1
  O  O19  1  0.24732464  0.49804526  0.50303617  1
  O  O20  1  0.73957125  0.00030786  0.99547570  1
  O  O21  1  0.74383119  0.00049414  0.50413784  1
  O  O22  1  0.74223540  0.49936221  0.99543369  1
  O  O23  1  0.75363401  0.49947865  0.50444934  1
  O  O24  1  0.00209052  0.25996816  0.99731604  1
  O  O25  1  0.00189566  0.25574402  0.50302325  1
  O  O26  1  0.00030786  0.73957125  0.99547570  1
  O  O27  1  0.00049414  0.74383119  0.50413784  1
  O  O28  1  0.49835168  0.25732352  0.99701468  1
  O  O29  1  0.49804526  0.24732464  0.50303617  1
  O  O30  1  0.49936221  0.74223540  0.99543369  1
  O  O31  1  0.49947865  0.75363401  0.50444934  1
  O  O32  1  0.00221004  0.00221004  0.26058371  1
  O  O33  1  0.00032735  0.00032735  0.74080952  1
  O  O34  1  0.00212412  0.49815600  0.25581245  1
  O  O35  1  0.00055629  0.49931074  0.74536883  1
  O  O36  1  0.49815600  0.00212412  0.25581245  1
  O  O37  1  0.49931074  0.00055629  0.74536883  1
  O  O38  1  0.49800250  0.49800250  0.25388078  1
  O  O39  1  0.49943457  0.49943457  0.74422461  1
