# generated using pymatgen
data_K2Ce2Fe4O11
_symmetry_space_group_name_H-M   'P 1'
_cell_length_a   3.89906263
_cell_length_b   7.91244125
_cell_length_c   8.81838454
_cell_angle_alpha   116.67395234
_cell_angle_beta   90.00751358
_cell_angle_gamma   89.98256914
_symmetry_Int_Tables_number   1
_chemical_formula_structural   K2Ce2Fe4O11
_chemical_formula_sum   'K2 Ce2 Fe4 O11'
_cell_volume   243.10338546
_cell_formula_units_Z   1
loop_
 _symmetry_equiv_pos_site_id
 _symmetry_equiv_pos_as_xyz
  1  'x, y, z'
loop_
 _atom_site_type_symbol
 _atom_site_label
 _atom_site_symmetry_multiplicity
 _atom_site_fract_x
 _atom_site_fract_y
 _atom_site_fract_z
 _atom_site_occupancy
  K  K0  1  0.51092716  0.49984307  0.50017191  1
  K  K1  1  0.50924864  0.00045618  0.50095286  1
  Ce  Ce2  1  0.51028096  0.73420033  -0.00003906  1
  Ce  Ce3  1  0.50986174  0.26594588  0.99972983  1
  Fe  Fe4  1  0.01217309  0.86972166  0.73957400  1
  Fe  Fe5  1  0.00789483  0.13031005  0.26056758  1
  Fe  Fe6  1  0.00980442  0.62664147  0.25343228  1
  Fe  Fe7  1  0.01149714  0.37343509  0.74648422  1
  O  O8  1  0.01310943  0.66731297  0.81135600  1
  O  O9  1  0.01324862  0.14388055  0.81089782  1
  O  O10  1  0.00722802  0.33206862  0.18813350  1
  O  O11  1  0.00740764  0.85590715  0.18787040  1
  O  O12  1  0.51316802  0.91389045  0.82747253  1
  O  O13  1  0.50721936  0.08658891  0.17300386  1
  O  O14  1  0.50996173  0.60764919  0.21457084  1
  O  O15  1  0.51181794  0.39302824  0.78580847  1
  O  O16  1  0.01098103  0.75009540  0.50062113  1
  O  O17  1  0.00985271  0.24961756  0.49930830  1
  O  O18  1  0.01231753  0.49940722  0.00008352  1
