# generated using pymatgen
data_MgGa
_symmetry_space_group_name_H-M   'P 1'
_cell_length_a   5.02409799
_cell_length_b   3.18493976
_cell_length_c   15.11893258
_cell_angle_alpha   90.00000000
_cell_angle_beta   90.00000000
_cell_angle_gamma   90.00000000
_symmetry_Int_Tables_number   1
_chemical_formula_structural   MgGa
_chemical_formula_sum   'Mg6 Ga6'
_cell_volume   241.92483536
_cell_formula_units_Z   6
loop_
 _symmetry_equiv_pos_site_id
 _symmetry_equiv_pos_as_xyz
  1  'x, y, z'
loop_
 _atom_site_type_symbol
 _atom_site_label
 _atom_site_symmetry_multiplicity
 _atom_site_fract_x
 _atom_site_fract_y
 _atom_site_fract_z
 _atom_site_occupancy
  Mg  Mg0  1  -0.00000000  0.50000000  0.51038791  1
  Mg  Mg1  1  0.00000000  0.00000000  0.32429905  1
  Mg  Mg2  1  0.50000000  0.50000000  0.38913492  1
  Mg  Mg3  1  0.00000000  0.00000000  0.01038791  1
  Mg  Mg4  1  -0.00000000  0.50000000  0.82429905  1
  Mg  Mg5  1  0.50000000  -0.00000000  0.88913492  1
  Ga  Ga6  1  -0.00000000  0.50000000  0.16895943  1
  Ga  Ga7  1  0.50000000  0.50000000  0.05807488  1
  Ga  Ga8  1  0.50000000  -0.00000000  0.21581081  1
  Ga  Ga9  1  0.00000000  0.00000000  0.66895943  1
  Ga  Ga10  1  0.50000000  -0.00000000  0.55807488  1
  Ga  Ga11  1  0.50000000  0.50000000  0.71581081  1
