# generated using pymatgen
data_Li9Mn2Co5O16
_symmetry_space_group_name_H-M   'P 1'
_cell_length_a   2.88055781
_cell_length_b   19.31409821
_cell_length_c   5.18226643
_cell_angle_alpha   91.58398910
_cell_angle_beta   89.99999989
_cell_angle_gamma   85.72340655
_symmetry_Int_Tables_number   1
_chemical_formula_structural   Li9Mn2Co5O16
_chemical_formula_sum   'Li9 Mn2 Co5 O16'
_cell_volume   287.40409633
_cell_formula_units_Z   1
loop_
 _symmetry_equiv_pos_site_id
 _symmetry_equiv_pos_as_xyz
  1  'x, y, z'
loop_
 _atom_site_type_symbol
 _atom_site_label
 _atom_site_symmetry_multiplicity
 _atom_site_fract_x
 _atom_site_fract_y
 _atom_site_fract_z
 _atom_site_occupancy
  Li  Li0  1  0.43727001  0.12545997  0.18466022  1
  Li  Li1  1  0.30815904  0.38368193  0.57533977  1
  Li  Li2  1  0.18980307  0.62039386  0.93182286  1
  Li  Li3  1  0.06343792  0.87312416  0.31207200  1
  Li  Li4  1  0.93770114  0.12459772  0.69048580  1
  Li  Li5  1  0.80901337  0.38197325  0.07288499  1
  Li  Li6  1  0.68989012  0.62021977  0.42520336  1
  Li  Li7  1  0.56445594  0.87108811  0.81313389  1
  Li  Li8  1  0.74954911  0.50090178  0.75032393  1
  Mn  Mn9  1  0.00044086  0.99911827  0.99948364  1
  Mn  Mn10  1  0.87468128  0.25063745  0.37831829  1
  Co  Co11  1  0.62541045  0.74917910  0.12245206  1
  Co  Co12  1  0.50029655  0.99940690  0.49931724  1
  Co  Co13  1  0.37415242  0.25169516  0.87796569  1
  Co  Co14  1  0.24968497  0.50063005  0.24950991  1
  Co  Co15  1  0.12596791  0.74806418  0.62227075  1
  O  O16  1  0.47143931  0.05712138  0.86566775  1
  O  O17  1  0.34688921  0.30622159  0.23099861  1
  O  O18  1  0.22300827  0.55398345  0.53953665  1
  O  O19  1  0.09600579  0.80798842  0.97182476  1
  O  O20  1  0.97206868  0.05586263  0.36870669  1
  O  O21  1  0.84474689  0.31050622  0.73795298  1
  O  O22  1  0.72252389  0.55495222  0.10901936  1
  O  O23  1  0.59574713  0.80850574  0.47246250  1
  O  O24  1  0.40331058  0.19337885  0.52153836  1
  O  O25  1  0.27679993  0.44640013  0.95640693  1
  O  O26  1  0.15359635  0.69280729  0.27220655  1
  O  O27  1  0.02793401  0.94413198  0.63111001  1
  O  O28  1  0.90445627  0.19108746  0.01482109  1
  O  O29  1  0.77729630  0.44540739  0.38981312  1
  O  O30  1  0.65538301  0.68923397  0.77784939  1
  O  O31  1  0.52888020  0.94223960  0.13484087  1
