# generated using pymatgen
data_AlAgO2
_symmetry_space_group_name_H-M   'P 1'
_cell_length_a   2.89794668
_cell_length_b   2.89794603
_cell_length_c   6.35348216
_cell_angle_alpha   76.81713203
_cell_angle_beta   76.81713269
_cell_angle_gamma   59.99999616
_symmetry_Int_Tables_number   1
_chemical_formula_structural   AlAgO2
_chemical_formula_sum   'Al1 Ag1 O2'
_cell_volume   44.57760124
_cell_formula_units_Z   1
loop_
 _symmetry_equiv_pos_site_id
 _symmetry_equiv_pos_as_xyz
  1  'x, y, z'
loop_
 _atom_site_type_symbol
 _atom_site_label
 _atom_site_symmetry_multiplicity
 _atom_site_fract_x
 _atom_site_fract_y
 _atom_site_fract_z
 _atom_site_occupancy
  Al  Al0  1  0.00198608  0.00198608  0.99404175  1
  Ag  Ag1  1  0.83913799  0.83913799  0.48258604  1
  O  O2  1  0.71978214  0.71978214  0.84065357  1
  O  O3  1  0.28009379  0.28009379  0.15971864  1
