# generated using pymatgen
data_MnHO2
_symmetry_space_group_name_H-M   'P 1'
_cell_length_a   5.91662537
_cell_length_b   11.15390111
_cell_length_c   11.18550709
_cell_angle_alpha   89.98478171
_cell_angle_beta   90.00250197
_cell_angle_gamma   89.99971452
_symmetry_Int_Tables_number   1
_chemical_formula_structural   MnHO2
_chemical_formula_sum   'Mn16 H16 O32'
_cell_volume   738.17022375
_cell_formula_units_Z   16
loop_
 _symmetry_equiv_pos_site_id
 _symmetry_equiv_pos_as_xyz
  1  'x, y, z'
loop_
 _atom_site_type_symbol
 _atom_site_label
 _atom_site_symmetry_multiplicity
 _atom_site_fract_x
 _atom_site_fract_y
 _atom_site_fract_z
 _atom_site_occupancy
  Mn  Mn0  1  0.49993070  0.64494602  0.84953401  1
  Mn  Mn1  1  0.99989694  0.64496181  0.84944378  1
  Mn  Mn2  1  0.49915562  0.15133644  0.64419306  1
  Mn  Mn3  1  0.99914819  0.15141080  0.64422746  1
  Mn  Mn4  1  0.00055301  0.84882353  0.35594274  1
  Mn  Mn5  1  0.50052198  0.84910885  0.35566174  1
  Mn  Mn6  1  0.00033351  0.35461508  0.15024461  1
  Mn  Mn7  1  0.50029484  0.35491004  0.15043650  1
  Mn  Mn8  1  0.25029596  0.14697753  0.34760801  1
  Mn  Mn9  1  0.75030050  0.14686406  0.34757534  1
  Mn  Mn10  1  0.25053567  0.65246249  0.14641474  1
  Mn  Mn11  1  0.75058492  0.65234230  0.14655795  1
  Mn  Mn12  1  0.24927876  0.34725799  0.85343261  1
  Mn  Mn13  1  0.74928091  0.34718577  0.85357437  1
  Mn  Mn14  1  0.24993975  0.85354864  0.65268316  1
  Mn  Mn15  1  0.74987430  0.85351067  0.65267669  1
  H  H16  1  0.25226373  0.67201872  0.41975538  1
  H  H17  1  0.74946107  0.67254147  0.42025003  1
  H  H18  1  0.49780578  0.17279297  0.92194157  1
  H  H19  1  0.99889057  0.17154260  0.92069818  1
  H  H20  1  0.00004178  0.82779406  0.07903116  1
  H  H21  1  0.50129094  0.82631395  0.07743617  1
  H  H22  1  0.50063830  0.07825394  0.17279251  1
  H  H23  1  0.00165786  0.07586439  0.17525663  1
  H  H24  1  0.99952501  0.92242856  0.82724819  1
  H  H25  1  0.50007623  0.92381671  0.82595942  1
  H  H26  1  0.74781601  0.32800595  0.57995662  1
  H  H27  1  0.24858276  0.32794630  0.57982114  1
  H  H28  1  0.74907568  0.57947022  0.67396706  1
  H  H29  1  0.25044161  0.58008022  0.67332831  1
  H  H30  1  0.75272713  0.41972556  0.32661366  1
  H  H31  1  0.24981316  0.42091834  0.32543057  1
  O  O32  1  0.25020736  0.33035295  0.04218540  1
  O  O33  1  0.74997851  0.33060017  0.04225054  1
  O  O34  1  0.25033154  0.95743592  0.33158232  1
  O  O35  1  0.75073630  0.95744420  0.33168142  1
  O  O36  1  0.24925887  0.04292792  0.66824387  1
  O  O37  1  0.74924645  0.04292253  0.66831473  1
  O  O38  1  0.24996614  0.66922304  0.95757753  1
  O  O39  1  0.75004649  0.66939066  0.95763306  1
  O  O40  1  0.99999415  0.82805292  0.54470088  1
  O  O41  1  0.50000358  0.82771910  0.54460926  1
  O  O42  1  0.99933325  0.45562237  0.82875716  1
  O  O43  1  0.49947586  0.45566979  0.82860514  1
  O  O44  1  0.50048027  0.54396029  0.17135616  1
  O  O45  1  0.00068957  0.54396010  0.17156065  1
  O  O46  1  0.50010735  0.17228160  0.45555506  1
  O  O47  1  0.00007247  0.17243319  0.45564917  1
  O  O48  1  0.50049837  0.15155418  0.22046935  1
  O  O49  1  0.00064428  0.15061621  0.22076554  1
  O  O50  1  0.00044215  0.77969026  0.15191829  1
  O  O51  1  0.50062182  0.77957288  0.15122175  1
  O  O52  1  0.99978191  0.84909867  0.77982414  1
  O  O53  1  0.49982206  0.84968210  0.77970731  1
  O  O54  1  0.49901938  0.21998014  0.84863789  1
  O  O55  1  0.99913099  0.21984966  0.84815145  1
  O  O56  1  0.24995899  0.65206165  0.72267677  1
  O  O57  1  0.74967494  0.65185122  0.72276225  1
  O  O58  1  0.24915366  0.27850808  0.65154468  1
  O  O59  1  0.74883693  0.27849094  0.65162587  1
  O  O60  1  0.25037503  0.34807255  0.27705144  1
  O  O61  1  0.75085473  0.34763395  0.27717860  1
  O  O62  1  0.25083663  0.72185580  0.34808682  1
  O  O63  1  0.75029178  0.72193197  0.34823415  1
