# generated using pymatgen
data_V2Fe3Co(PO4)6
_symmetry_space_group_name_H-M   'P 1'
_cell_length_a   8.41240146
_cell_length_b   8.66105711
_cell_length_c   8.66105697
_cell_angle_alpha   59.99999667
_cell_angle_beta   59.01730792
_cell_angle_gamma   59.01731114
_symmetry_Int_Tables_number   1
_chemical_formula_structural   V2Fe3Co(PO4)6
_chemical_formula_sum   'V2 Fe3 Co1 P6 O24'
_cell_volume   439.47457856
_cell_formula_units_Z   1
loop_
 _symmetry_equiv_pos_site_id
 _symmetry_equiv_pos_as_xyz
  1  'x, y, z'
loop_
 _atom_site_type_symbol
 _atom_site_label
 _atom_site_symmetry_multiplicity
 _atom_site_fract_x
 _atom_site_fract_y
 _atom_site_fract_z
 _atom_site_occupancy
  V  V0  1  0.99471952  0.00176049  0.00176049  1
  V  V1  1  0.50066269  0.49977944  0.49977944  1
  Fe  Fe2  1  0.05899866  0.64700011  0.64700011  1
  Fe  Fe3  1  0.43756552  0.85414483  0.85414483  1
  Fe  Fe4  1  0.94036084  0.35321272  0.35321272  1
  Co  Co5  1  0.55636373  0.14787942  0.14787942  1
  P  P6  1  0.25117967  0.24931520  0.54678751  1
  P  P7  1  0.25117967  0.95271762  0.24931520  1
  P  P8  1  0.25117967  0.54678751  0.95271762  1
  P  P9  1  0.74897288  0.45236004  0.04803146  1
  P  P10  1  0.74897288  0.04803146  0.75063462  1
  P  P11  1  0.74897288  0.75063462  0.45236004  1
  O  O12  1  0.06570006  0.10763687  0.32184927  1
  O  O13  1  0.06570006  0.50481380  0.10763687  1
  O  O14  1  0.06570006  0.32184927  0.50481380  1
  O  O15  1  0.21704763  0.09490287  0.74900076  1
  O  O16  1  0.44018673  0.17660050  0.39157461  1
  O  O17  1  0.28425554  0.40525668  0.55943127  1
  O  O18  1  0.21704763  0.93904874  0.09490287  1
  O  O19  1  0.28425554  0.75105751  0.40525668  1
  O  O20  1  0.56323738  0.60814210  0.00683700  1
  O  O21  1  0.28425554  0.55943127  0.75105751  1
  O  O22  1  0.78065933  0.25088400  0.06277765  1
  O  O23  1  0.56323738  0.00683700  0.82178352  1
  O  O24  1  0.44018673  0.99163816  0.17660050  1
  O  O25  1  0.21704763  0.74900076  0.93904874  1
  O  O26  1  0.71663196  0.43874665  0.24978182  1
  O  O27  1  0.44018673  0.39157461  0.99163816  1
  O  O28  1  0.71663196  0.24978182  0.59483957  1
  O  O29  1  0.78065933  0.06277765  0.90567901  1
  O  O30  1  0.71663196  0.59483957  0.43874665  1
  O  O31  1  0.56323738  0.82178352  0.60814210  1
  O  O32  1  0.78065933  0.90567901  0.25088400  1
  O  O33  1  0.93590484  0.67891814  0.49278865  1
  O  O34  1  0.93590484  0.49278865  0.89238937  1
  O  O35  1  0.93590484  0.89238937  0.67891814  1
