# generated using pymatgen
data_Li9Mn2Co5O16
_symmetry_space_group_name_H-M   'P 1'
_cell_length_a   5.15437694
_cell_length_b   5.84748151
_cell_length_c   9.71034540
_cell_angle_alpha   90.00000000
_cell_angle_beta   100.44040901
_cell_angle_gamma   90.00000000
_symmetry_Int_Tables_number   1
_chemical_formula_structural   Li9Mn2Co5O16
_chemical_formula_sum   'Li9 Mn2 Co5 O16'
_cell_volume   287.82552596
_cell_formula_units_Z   1
loop_
 _symmetry_equiv_pos_site_id
 _symmetry_equiv_pos_as_xyz
  1  'x, y, z'
loop_
 _atom_site_type_symbol
 _atom_site_label
 _atom_site_symmetry_multiplicity
 _atom_site_fract_x
 _atom_site_fract_y
 _atom_site_fract_z
 _atom_site_occupancy
  Li  Li0  1  0.50000000  0.25640414  -0.00000000  1
  Li  Li1  1  0.74362401  0.50000000  0.25797049  1
  Li  Li2  1  -0.00000000  0.74404428  0.50000000  1
  Li  Li3  1  0.25637599  0.50000000  0.74202951  1
  Li  Li4  1  0.50000000  0.74359586  -0.00000000  1
  Li  Li5  1  0.75845464  0.00000000  0.25512442  1
  Li  Li6  1  0.24154536  0.00000000  0.74487558  1
  Li  Li7  1  -0.00000000  0.25595572  0.50000000  1
  Li  Li8  1  0.50000000  0.50000000  0.50000000  1
  Mn  Mn9  1  -0.00000000  0.00000000  -0.00000000  1
  Mn  Mn10  1  0.50000000  0.00000000  0.50000000  1
  Co  Co11  1  0.25908970  0.25763516  0.25709843  1
  Co  Co12  1  0.74091030  0.74236484  0.74290157  1
  Co  Co13  1  -0.00000000  0.50000000  -0.00000000  1
  Co  Co14  1  0.25908970  0.74236484  0.25709843  1
  Co  Co15  1  0.74091030  0.25763516  0.74290157  1
  O  O16  1  0.10868404  0.24056108  0.88512130  1
  O  O17  1  0.36358773  0.50000000  0.12769082  1
  O  O18  1  0.60724878  0.76667267  0.37741216  1
  O  O19  1  0.87670897  0.50000000  0.64202105  1
  O  O20  1  0.10868404  0.75943892  0.88512130  1
  O  O21  1  0.33874326  0.00000000  0.12740261  1
  O  O22  1  0.84571516  0.00000000  0.61843466  1
  O  O23  1  0.60724878  0.23332733  0.37741216  1
  O  O24  1  0.89131596  0.24056108  0.11487870  1
  O  O25  1  0.12329103  0.50000000  0.35797895  1
  O  O26  1  0.39275122  0.76667267  0.62258784  1
  O  O27  1  0.63641227  0.50000000  0.87230918  1
  O  O28  1  0.89131596  0.75943892  0.11487870  1
  O  O29  1  0.15428484  0.00000000  0.38156534  1
  O  O30  1  0.66125674  0.00000000  0.87259739  1
  O  O31  1  0.39275122  0.23332733  0.62258784  1
