# generated using pymatgen
data_VAgO3
_symmetry_space_group_name_H-M   'P 1'
_cell_length_a   5.32709914
_cell_length_b   14.88377268
_cell_length_c   9.37683507
_cell_angle_alpha   55.47088830
_cell_angle_beta   91.97839973
_cell_angle_gamma   86.88864539
_symmetry_Int_Tables_number   1
_chemical_formula_structural   VAgO3
_chemical_formula_sum   'V8 Ag8 O24'
_cell_volume   609.66223150
_cell_formula_units_Z   8
loop_
 _symmetry_equiv_pos_site_id
 _symmetry_equiv_pos_as_xyz
  1  'x, y, z'
loop_
 _atom_site_type_symbol
 _atom_site_label
 _atom_site_symmetry_multiplicity
 _atom_site_fract_x
 _atom_site_fract_y
 _atom_site_fract_z
 _atom_site_occupancy
  V  V0  1  0.13866074  0.47620190  0.24985437  1
  V  V1  1  0.04926554  0.93564999  0.25628844  1
  V  V2  1  0.19762699  0.41065960  0.64070587  1
  V  V3  1  0.48742579  0.95777975  0.67579486  1
  V  V4  1  0.51257421  0.04222025  0.32420514  1
  V  V5  1  0.80237301  0.58934040  0.35929413  1
  V  V6  1  0.95073446  0.06435001  0.74371156  1
  V  V7  1  0.86133926  0.52379810  0.75014563  1
  Ag  Ag8  1  0.96901588  0.22586846  0.03304633  1
  Ag  Ag9  1  0.03098412  0.77413154  0.96695367  1
  Ag  Ag10  1  0.32434433  0.68390282  0.56557471  1
  Ag  Ag11  1  0.45071212  0.11930614  0.89828031  1
  Ag  Ag12  1  0.53636462  0.64431094  0.90885914  1
  Ag  Ag13  1  0.46363538  0.35568906  0.09114086  1
  Ag  Ag14  1  0.54928788  0.88069386  0.10171969  1
  Ag  Ag15  1  0.67565567  0.31609718  0.43442529  1
  O  O16  1  0.22792714  0.05644118  0.17699515  1
  O  O17  1  0.23741697  0.59716929  0.08342864  1
  O  O18  1  0.14932791  0.38384270  0.19935694  1
  O  O19  1  0.12389151  0.88166914  0.14295646  1
  O  O20  1  0.29549649  0.04834114  0.46695328  1
  O  O21  1  0.11580330  0.59236373  0.38535497  1
  O  O22  1  0.32910173  0.40529421  0.46282610  1
  O  O23  1  0.16829501  0.84617588  0.46440500  1
  O  O24  1  0.28898258  0.03259934  0.76033478  1
  O  O25  1  0.19233194  0.50052599  0.72677965  1
  O  O26  1  0.30039035  0.28935575  0.82580331  1
  O  O27  1  0.37617991  0.83414348  0.79306845  1
  O  O28  1  0.62382009  0.16585652  0.20693155  1
  O  O29  1  0.69960965  0.71064425  0.17419669  1
  O  O30  1  0.80766806  0.49947401  0.27322035  1
  O  O31  1  0.71101742  0.96740066  0.23966522  1
  O  O32  1  0.83170499  0.15382412  0.53559500  1
  O  O33  1  0.67089827  0.59470579  0.53717390  1
  O  O34  1  0.88419670  0.40763627  0.61464503  1
  O  O35  1  0.70450351  0.95165886  0.53304672  1
  O  O36  1  0.87610849  0.11833086  0.85704354  1
  O  O37  1  0.85067209  0.61615730  0.80064306  1
  O  O38  1  0.76258303  0.40283071  0.91657136  1
  O  O39  1  0.77207286  0.94355882  0.82300485  1
