# generated using pymatgen
data_TiMn3Fe2(PO4)6
_symmetry_space_group_name_H-M   'P 1'
_cell_length_a   8.50877440
_cell_length_b   8.50877495
_cell_length_c   8.50877430
_cell_angle_alpha   61.37626493
_cell_angle_beta   61.37626601
_cell_angle_gamma   61.37626454
_symmetry_Int_Tables_number   1
_chemical_formula_structural   TiMn3Fe2(PO4)6
_chemical_formula_sum   'Ti1 Mn3 Fe2 P6 O24'
_cell_volume   449.06700553
_cell_formula_units_Z   1
loop_
 _symmetry_equiv_pos_site_id
 _symmetry_equiv_pos_as_xyz
  1  'x, y, z'
loop_
 _atom_site_type_symbol
 _atom_site_label
 _atom_site_symmetry_multiplicity
 _atom_site_fract_x
 _atom_site_fract_y
 _atom_site_fract_z
 _atom_site_occupancy
  Ti  Ti0  1  0.85313074  0.85313074  0.85313074  1
  Mn  Mn1  1  0.14765720  0.14765720  0.14765720  1
  Mn  Mn2  1  0.35730142  0.35730142  0.35730142  1
  Mn  Mn3  1  0.64190941  0.64190941  0.64190941  1
  Fe  Fe4  1  0.00141501  0.00141501  0.00141501  1
  Fe  Fe5  1  0.50022031  0.50022031  0.50022031  1
  P  P6  1  0.25052579  0.55127248  0.95513578  1
  P  P7  1  0.55127248  0.95513578  0.25052579  1
  P  P8  1  0.95513578  0.25052579  0.55127248  1
  P  P9  1  0.04056857  0.74950453  0.45177590  1
  P  P10  1  0.45177590  0.04056857  0.74950453  1
  P  P11  1  0.74950453  0.45177590  0.04056857  1
  O  O12  1  0.11044566  0.31373741  0.51770871  1
  O  O13  1  0.31373741  0.51770871  0.11044566  1
  O  O14  1  0.05385895  0.90682573  0.25308387  1
  O  O15  1  0.51770871  0.11044566  0.31373741  1
  O  O16  1  0.98690187  0.82499259  0.61283321  1
  O  O17  1  0.23727907  0.59750713  0.44670144  1
  O  O18  1  0.25308387  0.05385895  0.90682573  1
  O  O19  1  0.44670144  0.23727907  0.59750713  1
  O  O20  1  0.18393337  0.39926855  0.98580288  1
  O  O21  1  0.59750713  0.44670144  0.23727907  1
  O  O22  1  0.08799712  0.75309698  0.93732217  1
  O  O23  1  0.39926855  0.98580288  0.18393337  1
  O  O24  1  0.61283321  0.98690187  0.82499259  1
  O  O25  1  0.90682573  0.25308387  0.05385895  1
  O  O26  1  0.40751346  0.56898139  0.75481834  1
  O  O27  1  0.82499259  0.61283321  0.98690187  1
  O  O28  1  0.56898139  0.75481834  0.40751346  1
  O  O29  1  0.75309698  0.93732217  0.08799712  1
  O  O30  1  0.75481834  0.40751346  0.56898139  1
  O  O31  1  0.98580288  0.18393337  0.39926855  1
  O  O32  1  0.49253143  0.88456918  0.68187033  1
  O  O33  1  0.93732217  0.08799712  0.75309698  1
  O  O34  1  0.68187033  0.49253143  0.88456918  1
  O  O35  1  0.88456918  0.68187033  0.49253143  1
