# generated using pymatgen
data_Li9Mn2Co5O16
_symmetry_space_group_name_H-M   'P 1'
_cell_length_a   5.12132192
_cell_length_b   10.11998030
_cell_length_c   5.89401166
_cell_angle_alpha   73.76846278
_cell_angle_beta   90.36758870
_cell_angle_gamma   79.32284141
_symmetry_Int_Tables_number   1
_chemical_formula_structural   Li9Mn2Co5O16
_chemical_formula_sum   'Li9 Mn2 Co5 O16'
_cell_volume   287.66993326
_cell_formula_units_Z   1
loop_
 _symmetry_equiv_pos_site_id
 _symmetry_equiv_pos_as_xyz
  1  'x, y, z'
loop_
 _atom_site_type_symbol
 _atom_site_label
 _atom_site_symmetry_multiplicity
 _atom_site_fract_x
 _atom_site_fract_y
 _atom_site_fract_z
 _atom_site_occupancy
  Li  Li0  1  0.49360966  0.00038308  0.74212611  1
  Li  Li1  1  0.24737646  0.24614250  0.38054816  1
  Li  Li2  1  0.50647561  0.99881847  0.26056129  1
  Li  Li3  1  0.24593551  0.24591354  0.87719342  1
  Li  Li4  1  0.75014588  0.75359528  0.12565296  1
  Li  Li5  1  0.75729504  0.75481082  0.61652414  1
  Li  Li6  1  0.00056223  0.50036245  0.49886377  1
  Li  Li7  1  0.00000884  0.49973119  0.99876971  1
  Li  Li8  1  0.00025442  0.00025692  0.50163291  1
  Mn  Mn9  1  -0.00002715  0.00026945  0.00145034  1
  Mn  Mn10  1  0.50021171  0.50069950  0.25026576  1
  Co  Co11  1  0.75020725  0.24160902  0.62056983  1
  Co  Co12  1  0.24415162  0.75561912  0.86538470  1
  Co  Co13  1  0.75492268  0.24459843  0.13394588  1
  Co  Co14  1  0.50090960  0.49883726  0.74597315  1
  Co  Co15  1  0.24873356  0.75731655  0.37798956  1
  O  O16  1  0.34830172  0.88086107  0.06047297  1
  O  O17  1  0.10687914  0.11991923  0.71130722  1
  O  O18  1  0.37917630  0.85994283  0.56372803  1
  O  O19  1  0.09689127  0.12646350  0.17275623  1
  O  O20  1  0.61213826  0.61604833  0.42689788  1
  O  O21  1  0.60175836  0.61966055  0.95402430  1
  O  O22  1  0.84479502  0.37509195  0.80706099  1
  O  O23  1  0.85067837  0.37704408  0.31116788  1
  O  O24  1  0.62459360  0.13603920  0.44145403  1
  O  O25  1  0.39692378  0.37983940  0.06866933  1
  O  O26  1  0.64909883  0.12162388  0.94077992  1
  O  O27  1  0.38637737  0.38582358  0.54163159  1
  O  O28  1  0.90285063  0.87389976  0.83105236  1
  O  O29  1  0.89515513  0.88040849  0.29216272  1
  O  O30  1  0.15920912  0.62420268  0.19196364  1
  O  O31  1  0.14440019  0.62416787  0.68742220  1
