# generated using pymatgen
data_V7S8
_symmetry_space_group_name_H-M   'P 1'
_cell_length_a   6.38502069
_cell_length_b   6.38508840
_cell_length_c   18.03187749
_cell_angle_alpha   89.99688753
_cell_angle_beta   89.98953057
_cell_angle_gamma   119.98041030
_symmetry_Int_Tables_number   1
_chemical_formula_structural   V7S8
_chemical_formula_sum   'V21 S24'
_cell_volume   636.77570434
_cell_formula_units_Z   3
loop_
 _symmetry_equiv_pos_site_id
 _symmetry_equiv_pos_as_xyz
  1  'x, y, z'
loop_
 _atom_site_type_symbol
 _atom_site_label
 _atom_site_symmetry_multiplicity
 _atom_site_fract_x
 _atom_site_fract_y
 _atom_site_fract_z
 _atom_site_occupancy
  V  V0  1  0.50045843  0.50001881  0.49794071  1
  V  V1  1  0.99978617  0.49998772  0.83337697  1
  V  V2  1  0.49964897  -0.00057009  0.16454749  1
  V  V3  1  0.00082656  0.50081070  0.50005050  1
  V  V4  1  0.50040734  0.50002727  0.16871188  1
  V  V5  1  0.49968754  -0.00053883  0.83547106  1
  V  V6  1  0.49907676  0.50068844  0.66574676  1
  V  V7  1  -0.00006572  0.49985863  0.99992102  1
  V  V8  1  0.50124380  0.00095263  0.33242781  1
  V  V9  1  -0.00022983  0.49987621  0.33334732  1
  V  V10  1  0.49859264  0.49939341  0.00089983  1
  V  V11  1  0.50109074  0.00137907  0.66765556  1
  V  V12  1  0.00021735  0.00059225  0.50211221  1
  V  V13  1  0.00031780  0.00060533  0.83116358  1
  V  V14  1  -0.00018107  0.00120907  0.16663285  1
  V  V15  1  0.99982852  0.99851475  0.99898114  1
  V  V16  1  0.00032833  0.99891970  0.33435247  1
  V  V17  1  0.00012283  0.50006084  0.66677185  1
  V  V18  1  0.49848613  0.99854377  0.50004084  1
  V  V19  1  0.50071511  0.49998569  0.83337460  1
  V  V20  1  -0.00007632  0.49932669  0.16660678  1
  S  S21  1  0.33337463  0.66690044  0.58258133  1
  S  S22  1  0.33606431  0.67224593  0.91821936  1
  S  S23  1  0.33531497  0.66430244  0.25123652  1
  S  S24  1  0.66383980  0.33581678  0.41507973  1
  S  S25  1  0.66470913  0.32908272  0.08219513  1
  S  S26  1  0.66682036  0.33333317  0.75068401  1
  S  S27  1  0.16382782  0.32775238  0.74841681  1
  S  S28  1  0.17192002  0.83612173  0.08175571  1
  S  S29  1  0.66413456  0.82893815  0.41547123  1
  S  S30  1  0.82806006  0.66399022  0.25159029  1
  S  S31  1  0.33566497  0.16452274  0.91785709  1
  S  S32  1  0.83542218  0.16356362  0.58495883  1
  S  S33  1  0.16673358  0.33342675  0.08405651  1
  S  S34  1  0.16687554  0.83320365  0.41746580  1
  S  S35  1  0.67125122  0.83574881  0.74876259  1
  S  S36  1  0.83342108  0.66660729  0.91599275  1
  S  S37  1  0.32889395  0.16408503  0.58455113  1
  S  S38  1  0.83342782  0.16679745  0.24927580  1
  S  S39  1  0.17109914  0.33586680  0.41553964  1
  S  S40  1  0.16443039  0.83545642  0.74879705  1
  S  S41  1  0.66452847  0.83581100  0.08217151  1
  S  S42  1  0.83552593  0.67087514  0.58447761  1
  S  S43  1  0.33557518  0.17121728  0.25125170  1
  S  S44  1  0.82880282  0.16469202  0.91777866  1
