# generated using pymatgen
data_V5Ni(PO4)6
_symmetry_space_group_name_H-M   'P 1'
_cell_length_a   8.49982294
_cell_length_b   8.61823555
_cell_length_c   8.61823569
_cell_angle_alpha   60.00000052
_cell_angle_beta   59.53807712
_cell_angle_gamma   59.53808038
_symmetry_Int_Tables_number   1
_chemical_formula_structural   V5Ni(PO4)6
_chemical_formula_sum   'V5 Ni1 P6 O24'
_cell_volume   443.26540969
_cell_formula_units_Z   1
loop_
 _symmetry_equiv_pos_site_id
 _symmetry_equiv_pos_as_xyz
  1  'x, y, z'
loop_
 _atom_site_type_symbol
 _atom_site_label
 _atom_site_symmetry_multiplicity
 _atom_site_fract_x
 _atom_site_fract_y
 _atom_site_fract_z
 _atom_site_occupancy
  V  V0  1  0.99450525  0.00183158  0.00183158  1
  V  V1  1  0.06925435  0.64358222  0.64358222  1
  V  V2  1  0.49755203  0.50081632  0.50081632  1
  V  V3  1  0.42699652  0.85766816  0.85766816  1
  V  V4  1  0.93014302  0.35661899  0.35661899  1
  Ni  Ni5  1  0.56903809  0.14365397  0.14365397  1
  P  P6  1  0.25179577  0.24863385  0.54412625  1
  P  P7  1  0.25179577  0.95544313  0.24863385  1
  P  P8  1  0.25179577  0.54412625  0.95544313  1
  P  P9  1  0.75062437  0.45558561  0.04422849  1
  P  P10  1  0.75062437  0.04422849  0.74956153  1
  P  P11  1  0.75062437  0.74956153  0.45558561  1
  O  O12  1  0.06894834  0.11308917  0.31724294  1
  O  O13  1  0.06894834  0.50071955  0.11308917  1
  O  O14  1  0.06894834  0.31724294  0.50071955  1
  O  O15  1  0.21648254  0.09367153  0.74997225  1
  O  O16  1  0.43781105  0.18185262  0.39541795  1
  O  O17  1  0.26860507  0.40895820  0.56993170  1
  O  O18  1  0.21648254  0.93987368  0.09367153  1
  O  O19  1  0.26860507  0.75250602  0.40895820  1
  O  O20  1  0.56754377  0.61273372  0.00401978  1
  O  O21  1  0.26860507  0.56993170  0.75250602  1
  O  O22  1  0.78802363  0.25599720  0.05306126  1
  O  O23  1  0.56754377  0.00401978  0.81570373  1
  O  O24  1  0.43781105  0.98491838  0.18185262  1
  O  O25  1  0.21648254  0.74997225  0.93987368  1
  O  O26  1  0.72452701  0.43794348  0.24585599  1
  O  O27  1  0.43781105  0.39541795  0.98491838  1
  O  O28  1  0.72452701  0.24585599  0.59167352  1
  O  O29  1  0.78802363  0.05306126  0.90291791  1
  O  O30  1  0.72452701  0.59167352  0.43794348  1
  O  O31  1  0.56754377  0.81570373  0.61273372  1
  O  O32  1  0.78802363  0.90291791  0.25599720  1
  O  O33  1  0.92980870  0.67250902  0.50934965  1
  O  O34  1  0.92980870  0.50934965  0.88833263  1
  O  O35  1  0.92980870  0.88833263  0.67250902  1
