# generated using pymatgen
data_Li9Mn2Co5O16
_symmetry_space_group_name_H-M   'P 1'
_cell_length_a   5.83226676
_cell_length_b   5.88803413
_cell_length_c   8.38415052
_cell_angle_alpha   88.99416215
_cell_angle_beta   90.00000000
_cell_angle_gamma   90.00000000
_symmetry_Int_Tables_number   1
_chemical_formula_structural   Li9Mn2Co5O16
_chemical_formula_sum   'Li9 Mn2 Co5 O16'
_cell_volume   287.87227512
_cell_formula_units_Z   1
loop_
 _symmetry_equiv_pos_site_id
 _symmetry_equiv_pos_as_xyz
  1  'x, y, z'
loop_
 _atom_site_type_symbol
 _atom_site_label
 _atom_site_symmetry_multiplicity
 _atom_site_fract_x
 _atom_site_fract_y
 _atom_site_fract_z
 _atom_site_occupancy
  Li  Li0  1  0.74394037  0.24987633  0.25778891  1
  Li  Li1  1  0.74394037  0.75012367  0.74221109  1
  Li  Li2  1  0.50000000  0.00000000  0.50000000  1
  Li  Li3  1  0.50000000  0.50000000  -0.00000000  1
  Li  Li4  1  0.25605963  0.75012367  0.74221109  1
  Li  Li5  1  0.25605963  0.24987633  0.25778891  1
  Li  Li6  1  -0.00000000  0.50000000  -0.00000000  1
  Li  Li7  1  -0.00000000  0.00000000  0.50000000  1
  Li  Li8  1  0.50000000  0.50000000  0.50000000  1
  Mn  Mn9  1  -0.00000000  0.00000000  -0.00000000  1
  Mn  Mn10  1  -0.00000000  0.50000000  0.50000000  1
  Co  Co11  1  0.74257417  0.74394148  0.25839685  1
  Co  Co12  1  0.74257417  0.25605852  0.74160315  1
  Co  Co13  1  0.50000000  0.00000000  -0.00000000  1
  Co  Co14  1  0.25742583  0.25605852  0.74160315  1
  Co  Co15  1  0.25742583  0.74394148  0.25839685  1
  O  O16  1  0.75866487  0.22725585  -0.00243520  1
  O  O17  1  0.76655967  0.73710266  0.49216789  1
  O  O18  1  0.50000000  0.99122862  0.24604427  1
  O  O19  1  0.50000000  0.47464502  0.76043644  1
  O  O20  1  0.23344033  0.73710266  0.49216789  1
  O  O21  1  0.24133513  0.22725585  -0.00243520  1
  O  O22  1  -0.00000000  0.49803632  0.73297863  1
  O  O23  1  -0.00000000  0.97604437  0.23238987  1
  O  O24  1  0.76655967  0.26289734  0.50783211  1
  O  O25  1  0.75866487  0.77274415  0.00243520  1
  O  O26  1  0.50000000  0.00877138  0.75395573  1
  O  O27  1  0.50000000  0.52535498  0.23956356  1
  O  O28  1  0.24133513  0.77274415  0.00243520  1
  O  O29  1  0.23344033  0.26289734  0.50783211  1
  O  O30  1  -0.00000000  0.50196368  0.26702137  1
  O  O31  1  -0.00000000  0.02395563  0.76761013  1
