# generated using pymatgen
data_Li9Mn2Co5O16
_symmetry_space_group_name_H-M   'P 1'
_cell_length_a   2.89593650
_cell_length_b   19.42377552
_cell_length_c   5.18320560
_cell_angle_alpha   91.81597540
_cell_angle_beta   89.99999989
_cell_angle_gamma   85.72485434
_symmetry_Int_Tables_number   1
_chemical_formula_structural   Li9Mn2Co5O16
_chemical_formula_sum   'Li9 Mn2 Co5 O16'
_cell_volume   290.59734872
_cell_formula_units_Z   1
loop_
 _symmetry_equiv_pos_site_id
 _symmetry_equiv_pos_as_xyz
  1  'x, y, z'
loop_
 _atom_site_type_symbol
 _atom_site_label
 _atom_site_symmetry_multiplicity
 _atom_site_fract_x
 _atom_site_fract_y
 _atom_site_fract_z
 _atom_site_occupancy
  Li  Li0  1  0.43392880  0.13214240  0.20023605  1
  Li  Li1  1  0.31358156  0.37283688  0.55490855  1
  Li  Li2  1  0.18806288  0.62387424  0.93761722  1
  Li  Li3  1  0.06381506  0.87236988  0.30994622  1
  Li  Li4  1  0.93378767  0.13242465  0.69851941  1
  Li  Li5  1  0.81447159  0.37105681  0.05459115  1
  Li  Li6  1  0.68801050  0.62397901  0.43613209  1
  Li  Li7  1  0.56403378  0.87193245  0.80898490  1
  Li  Li8  1  0.87464599  0.25070801  0.37633393  1
  Mn  Mn9  1  0.99948173  0.00103654  0.00229289  1
  Mn  Mn10  1  0.49881155  0.00237691  0.50227474  1
  Co  Co11  1  0.75050941  0.49898119  0.74921779  1
  Co  Co12  1  0.62533637  0.74932727  0.12369543  1
  Co  Co13  1  0.37473343  0.25053313  0.87474395  1
  Co  Co14  1  0.25102755  0.49794491  0.24905938  1
  Co  Co15  1  0.12546494  0.74907012  0.62389327  1
  O  O16  1  0.47039826  0.05920347  0.87452228  1
  O  O17  1  0.34828152  0.30343696  0.16699188  1
  O  O18  1  0.22155602  0.55688796  0.59165485  1
  O  O19  1  0.09649334  0.80701332  0.96909859  1
  O  O20  1  0.96938054  0.06123891  0.37327341  1
  O  O21  1  0.84767270  0.30465460  0.73494722  1
  O  O22  1  0.72170510  0.55658979  0.09390783  1
  O  O23  1  0.59601398  0.80797204  0.46773566  1
  O  O24  1  0.40165137  0.19669727  0.58141861  1
  O  O25  1  0.27941618  0.44116763  0.90371766  1
  O  O26  1  0.15359091  0.69281818  0.27759938  1
  O  O27  1  0.02839920  0.94320160  0.62889346  1
  O  O28  1  0.90206376  0.19587248  0.01490506  1
  O  O29  1  0.78059005  0.43881990  0.40597335  1
  O  O30  1  0.65431407  0.69137187  0.78082265  1
  O  O31  1  0.52877019  0.94245962  0.13209113  1
