# generated using pymatgen
data_VCr(PO4)2
_symmetry_space_group_name_H-M   'P 1'
_cell_length_a   8.56078042
_cell_length_b   8.60524612
_cell_length_c   8.60524576
_cell_angle_alpha   59.99999991
_cell_angle_beta   59.82803318
_cell_angle_gamma   59.82803798
_symmetry_Int_Tables_number   1
_chemical_formula_structural   VCr(PO4)2
_chemical_formula_sum   'V3 Cr3 P6 O24'
_cell_volume   447.08612662
_cell_formula_units_Z   3
loop_
 _symmetry_equiv_pos_site_id
 _symmetry_equiv_pos_as_xyz
  1  'x, y, z'
loop_
 _atom_site_type_symbol
 _atom_site_label
 _atom_site_symmetry_multiplicity
 _atom_site_fract_x
 _atom_site_fract_y
 _atom_site_fract_z
 _atom_site_occupancy
  V  V0  1  0.06824923  0.64391726  0.64391726  1
  V  V1  1  0.42937142  0.85687619  0.85687619  1
  V  V2  1  0.93016942  0.35661019  0.35661019  1
  Cr  Cr3  1  0.99927064  0.00024312  0.00024312  1
  Cr  Cr4  1  0.57184165  0.14271945  0.14271945  1
  Cr  Cr5  1  0.49845969  0.50051310  0.50051310  1
  P  P6  1  0.25042932  0.25000864  0.54210714  1
  P  P7  1  0.25042932  0.95745590  0.25000864  1
  P  P8  1  0.25042932  0.54210714  0.95745590  1
  P  P9  1  0.75008938  0.45634942  0.04343139  1
  P  P10  1  0.75008938  0.04343139  0.75013081  1
  P  P11  1  0.75008938  0.75013081  0.45634942  1
  O  O12  1  0.06722275  0.11567956  0.31097620  1
  O  O13  1  0.06722275  0.50612149  0.11567956  1
  O  O14  1  0.06722275  0.31097620  0.50612149  1
  O  O15  1  0.22922687  0.08831945  0.74186389  1
  O  O16  1  0.43372398  0.19027637  0.38548984  1
  O  O17  1  0.26596733  0.41368240  0.56134259  1
  O  O18  1  0.22922687  0.94058879  0.08831945  1
  O  O19  1  0.26596733  0.75900768  0.41368240  1
  O  O20  1  0.56765968  0.61386803  0.00727137  1
  O  O21  1  0.26596733  0.56134259  0.75900768  1
  O  O22  1  0.77274150  0.25797759  0.05678478  1
  O  O23  1  0.56765968  0.00727137  0.81120092  1
  O  O24  1  0.43372398  0.99050980  0.19027637  1
  O  O25  1  0.22922687  0.74186389  0.94058879  1
  O  O26  1  0.73161010  0.43897153  0.24194617  1
  O  O27  1  0.43372398  0.38548984  0.99050980  1
  O  O28  1  0.73161010  0.24194617  0.58747220  1
  O  O29  1  0.77274150  0.05678478  0.91249512  1
  O  O30  1  0.73161010  0.58747220  0.43897153  1
  O  O31  1  0.56765968  0.81120092  0.61386803  1
  O  O32  1  0.77274150  0.91249512  0.25797759  1
  O  O33  1  0.93220841  0.68565304  0.49587538  1
  O  O34  1  0.93220841  0.49587538  0.88626217  1
  O  O35  1  0.93220841  0.88626217  0.68565304  1
