# generated using pymatgen
data_Li9Mn2Co5O16
_symmetry_space_group_name_H-M   'P 1'
_cell_length_a   5.16906900
_cell_length_b   7.71488814
_cell_length_c   7.71488794
_cell_angle_alpha   96.92930895
_cell_angle_beta   76.28762446
_cell_angle_gamma   76.28761686
_symmetry_Int_Tables_number   1
_chemical_formula_structural   Li9Mn2Co5O16
_chemical_formula_sum   'Li9 Mn2 Co5 O16'
_cell_volume   285.23002578
_cell_formula_units_Z   1
loop_
 _symmetry_equiv_pos_site_id
 _symmetry_equiv_pos_as_xyz
  1  'x, y, z'
loop_
 _atom_site_type_symbol
 _atom_site_label
 _atom_site_symmetry_multiplicity
 _atom_site_fract_x
 _atom_site_fract_y
 _atom_site_fract_z
 _atom_site_occupancy
  Li  Li0  1  0.50151721  0.12548597  0.87624211  1
  Li  Li1  1  0.49658881  0.49722303  0.99255502  1
  Li  Li2  1  0.50702310  0.86485279  0.11485279  1
  Li  Li3  1  0.50266087  0.25597035  0.25228172  1
  Li  Li4  1  0.50151721  0.62624211  0.37548597  1
  Li  Li5  1  0.50266087  0.00228172  0.50597035  1
  Li  Li6  1  0.49223697  0.38143760  0.63143760  1
  Li  Li7  1  0.49658881  0.74255502  0.74722303  1
  Li  Li8  1  0.99744086  0.62415537  0.87415537  1
  Mn  Mn9  1  0.99680745  0.99711198  0.99528482  1
  Mn  Mn10  1  0.99680745  0.74528482  0.24711198  1
  Co  Co11  1  0.00032587  0.37666332  0.12353507  1
  Co  Co12  1  0.00540454  0.12980005  0.37980005  1
  Co  Co13  1  0.00261580  0.50788264  0.51035881  1
  Co  Co14  1  0.00032587  0.87353507  0.62666332  1
  Co  Co15  1  0.00261580  0.26035881  0.75788264  1
  O  O16  1  0.23709416  0.00110601  0.76655831  1
  O  O17  1  0.22262622  0.36794428  0.88515087  1
  O  O18  1  0.22663379  0.76538118  0.01538118  1
  O  O19  1  0.20765037  0.12753497  0.12408489  1
  O  O20  1  0.23709416  0.51655831  0.25110601  1
  O  O21  1  0.20765037  0.87408489  0.37753497  1
  O  O22  1  0.24218229  0.25262497  0.50262497  1
  O  O23  1  0.22262622  0.63515087  0.61794428  1
  O  O24  1  0.76255974  0.23599387  -0.00136891  1
  O  O25  1  0.78413631  0.62136659  0.13373253  1
  O  O26  1  0.77005555  0.98663086  0.23663086  1
  O  O27  1  0.78869929  0.37050486  0.36433414  1
  O  O28  1  0.76255974  0.74863109  0.48599387  1
  O  O29  1  0.78869929  0.11433414  0.62050486  1
  O  O30  1  0.75245867  0.48757995  0.73757995  1
  O  O31  1  0.78413631  0.88373253  0.87136659  1
