# generated using pymatgen
data_Sr2Fe23O38
_symmetry_space_group_name_H-M   'P 1'
_cell_length_a   5.99367183
_cell_length_b   5.99267642
_cell_length_c   23.43471833
_cell_angle_alpha   90.11402182
_cell_angle_beta   89.85013363
_cell_angle_gamma   120.07026638
_symmetry_Int_Tables_number   1
_chemical_formula_structural   Sr2Fe23O38
_chemical_formula_sum   'Sr2 Fe23 O38'
_cell_volume   728.44136665
_cell_formula_units_Z   1
loop_
 _symmetry_equiv_pos_site_id
 _symmetry_equiv_pos_as_xyz
  1  'x, y, z'
loop_
 _atom_site_type_symbol
 _atom_site_label
 _atom_site_symmetry_multiplicity
 _atom_site_fract_x
 _atom_site_fract_y
 _atom_site_fract_z
 _atom_site_occupancy
  Sr  Sr0  1  0.32783627  0.66295503  0.74950255  1
  Sr  Sr1  1  0.64732093  0.32825993  0.25039481  1
  Fe  Fe2  1  0.17107490  0.83262694  0.60912380  1
  Fe  Fe3  1  0.16608332  0.83078365  0.88927395  1
  Fe  Fe4  1  0.32823420  0.66909977  0.19518698  1
  Fe  Fe5  1  0.33357407  0.66681707  0.02606517  1
  Fe  Fe6  1  0.17146099  0.33908821  0.60911202  1
  Fe  Fe7  1  0.33104177  0.66617979  0.30973670  1
  Fe  Fe8  1  0.00084495  -0.00000211  0.99936701  1
  Fe  Fe9  1  0.00245063  0.00095155  0.50108227  1
  Fe  Fe10  1  0.99722671  0.99867289  0.74546757  1
  Fe  Fe11  1  0.33533778  0.66756221  0.47376670  1
  Fe  Fe12  1  0.16604798  0.33566945  0.88934327  1
  Fe  Fe13  1  0.66201948  0.83125175  0.88962513  1
  Fe  Fe14  1  0.66617241  0.83338327  0.60960969  1
  Fe  Fe15  1  0.33540954  0.16813555  0.10951382  1
  Fe  Fe16  1  0.33625800  0.16734619  0.39267690  1
  Fe  Fe17  1  0.66626984  0.33337427  0.69025955  1
  Fe  Fe18  1  0.66621310  0.33293748  0.97288056  1
  Fe  Fe19  1  0.67043947  0.33482041  0.52854014  1
  Fe  Fe20  1  0.66330423  0.33159781  0.80786631  1
  Fe  Fe21  1  0.83295725  0.66448918  0.39234072  1
  Fe  Fe22  1  0.83208798  0.66534820  0.10964268  1
  Fe  Fe23  1  0.83325615  0.16721076  0.10930703  1
  Fe  Fe24  1  0.83376778  0.16668079  0.39223270  1
  O  O25  1  0.15666639  0.84390589  0.05209018  1
  O  O26  1  0.15751325  0.84362783  0.44917922  1
  O  O27  1  0.01003518  0.50484632  0.84682871  1
  O  O28  1  0.01333338  0.50691338  0.65100666  1
  O  O29  1  0.19814512  0.81118563  0.24725525  1
  O  O30  1  0.33183031  0.66619376  0.94290595  1
  O  O31  1  0.33741873  0.66890131  0.55632227  1
  O  O32  1  0.15706353  0.31268986  0.05202127  1
  O  O33  1  -0.00000279  0.00057808  0.14671806  1
  O  O34  1  0.00166137  0.99971524  0.35484835  1
  O  O35  1  0.00287208  0.00182951  0.65211933  1
  O  O36  1  0.15801800  0.31287848  0.44906945  1
  O  O37  1  0.99839312  0.99913992  0.84755368  1
  O  O38  1  0.19954093  0.39506099  0.24936767  1
  O  O39  1  0.49549384  0.98908853  0.65106452  1
  O  O40  1  0.49284670  0.98744377  0.84728159  1
  O  O41  1  0.60219708  0.79908713  0.25036807  1
  O  O42  1  0.31419146  0.15720407  0.55352811  1
  O  O43  1  0.31214861  0.15613864  0.94633305  1
  O  O44  1  0.49577436  0.50720480  0.65109918  1
  O  O45  1  0.49261251  0.50537385  0.84727464  1
  O  O46  1  0.50662299  0.49309486  0.34983779  1
  O  O47  1  0.50139775  0.49856030  0.15254474  1
  O  O48  1  0.68766243  0.84344520  0.05199645  1
  O  O49  1  0.69009234  0.84432697  0.44913907  1
  O  O50  1  0.36250110  0.18177753  0.74859204  1
  O  O51  1  0.50242387  0.00315694  0.15227222  1
  O  O52  1  0.50361724  0.00489816  0.34994524  1
  O  O53  1  0.66978842  0.33311908  0.44557704  1
  O  O54  1  0.66720497  0.33316620  0.05692378  1
  O  O55  1  0.81471045  0.63350546  0.74854770  1
  O  O56  1  0.84340335  0.68743519  0.94645439  1
  O  O57  1  0.84767003  0.69049780  0.55386683  1
  O  O58  1  0.81478194  0.18132843  0.74848317  1
  O  O59  1  0.99631263  0.49788825  0.15225219  1
  O  O60  1  0.99566735  0.49686545  0.34953732  1
  O  O61  1  0.84370888  0.15577313  0.94655020  1
  O  O62  1  0.84800238  0.15732203  0.55385861  1
