# generated using pymatgen
data_Li9Mn2Co5O16
_symmetry_space_group_name_H-M   'P 1'
_cell_length_a   2.89929376
_cell_length_b   19.35520488
_cell_length_c   5.18735947
_cell_angle_alpha   91.12786748
_cell_angle_beta   89.99999989
_cell_angle_gamma   85.70469714
_symmetry_Int_Tables_number   1
_chemical_formula_structural   Li9Mn2Co5O16
_chemical_formula_sum   'Li9 Mn2 Co5 O16'
_cell_volume   290.22190251
_cell_formula_units_Z   1
loop_
 _symmetry_equiv_pos_site_id
 _symmetry_equiv_pos_as_xyz
  1  'x, y, z'
loop_
 _atom_site_type_symbol
 _atom_site_label
 _atom_site_symmetry_multiplicity
 _atom_site_fract_x
 _atom_site_fract_y
 _atom_site_fract_z
 _atom_site_occupancy
  Li  Li0  1  0.43730182  0.12539637  0.18069380  1
  Li  Li1  1  0.31100290  0.37799421  0.56847773  1
  Li  Li2  1  0.18532170  0.62935659  0.94423738  1
  Li  Li3  1  0.06619786  0.86760429  0.30238660  1
  Li  Li4  1  0.93774915  0.12450169  0.69179074  1
  Li  Li5  1  0.81114478  0.37771044  0.05988682  1
  Li  Li6  1  0.68503769  0.62992461  0.45187645  1
  Li  Li7  1  0.56668399  0.86663202  0.79948098  1
  Li  Li8  1  0.62516063  0.74967873  0.12352093  1
  Mn  Mn9  1  0.00124194  0.99751612  0.99682409  1
  Mn  Mn10  1  0.87483530  0.25032939  0.37578048  1
  Co  Co11  1  0.74928647  0.50142706  0.75284438  1
  Co  Co12  1  0.50028577  0.99942846  0.49567768  1
  Co  Co13  1  0.37471472  0.25057056  0.87578940  1
  Co  Co14  1  0.24900408  0.50199183  0.25259627  1
  Co  Co15  1  0.12521656  0.74956688  0.62452950  1
  O  O16  1  0.47189535  0.05620930  0.86312715  1
  O  O17  1  0.34668116  0.30663768  0.22818019  1
  O  O18  1  0.22119962  0.55760077  0.60014753  1
  O  O19  1  0.09791244  0.80417513  0.91694251  1
  O  O20  1  0.97202846  0.05594308  0.36281127  1
  O  O21  1  0.84513101  0.30973799  0.74028643  1
  O  O22  1  0.72017740  0.55964521  0.09829980  1
  O  O23  1  0.59765382  0.80469237  0.48249469  1
  O  O24  1  0.40340573  0.19318854  0.52212979  1
  O  O25  1  0.27818933  0.44362135  0.90766565  1
  O  O26  1  0.15198741  0.69602518  0.33440613  1
  O  O27  1  0.02787508  0.94424983  0.62935132  1
  O  O28  1  0.90500163  0.18999674  0.01146267  1
  O  O29  1  0.77827574  0.44344853  0.40433993  1
  O  O30  1  0.65240590  0.69518821  0.76723359  1
  O  O31  1  0.52999457  0.94001086  0.13472814  1
