# generated using pymatgen
data_AsRh2
_symmetry_space_group_name_H-M   'P 1'
_cell_length_a   4.00399745
_cell_length_b   5.84731873
_cell_length_c   7.52453676
_cell_angle_alpha   90.00000000
_cell_angle_beta   90.00000000
_cell_angle_gamma   90.00000000
_symmetry_Int_Tables_number   1
_chemical_formula_structural   AsRh2
_chemical_formula_sum   'As4 Rh8'
_cell_volume   176.16934019
_cell_formula_units_Z   4
loop_
 _symmetry_equiv_pos_site_id
 _symmetry_equiv_pos_as_xyz
  1  'x, y, z'
loop_
 _atom_site_type_symbol
 _atom_site_label
 _atom_site_symmetry_multiplicity
 _atom_site_fract_x
 _atom_site_fract_y
 _atom_site_fract_z
 _atom_site_occupancy
  As  As0  1  0.75000000  0.26655720  0.88839621  1
  As  As1  1  0.75000000  0.76655720  0.61160379  1
  As  As2  1  0.25000000  0.73344280  0.11160379  1
  As  As3  1  0.25000000  0.23344280  0.38839621  1
  Rh  Rh4  1  0.75000000  0.46801790  0.17837221  1
  Rh  Rh5  1  0.75000000  0.96801790  0.32162779  1
  Rh  Rh6  1  0.25000000  0.53198210  0.82162779  1
  Rh  Rh7  1  0.25000000  0.03198210  0.67837221  1
  Rh  Rh8  1  0.75000000  0.35278980  0.57331474  1
  Rh  Rh9  1  0.75000000  0.85278980  0.92668526  1
  Rh  Rh10  1  0.25000000  0.64721020  0.42668526  1
  Rh  Rh11  1  0.25000000  0.14721020  0.07331474  1
