# generated using pymatgen
data_Sb5O7F
_symmetry_space_group_name_H-M   'P 1'
_cell_length_a   4.16344982
_cell_length_b   10.05072670
_cell_length_c   13.87625594
_cell_angle_alpha   64.32071354
_cell_angle_beta   90.00000000
_cell_angle_gamma   78.04625966
_symmetry_Int_Tables_number   1
_chemical_formula_structural   Sb5O7F
_chemical_formula_sum   'Sb10 O14 F2'
_cell_volume   509.30436143
_cell_formula_units_Z   2
loop_
 _symmetry_equiv_pos_site_id
 _symmetry_equiv_pos_as_xyz
  1  'x, y, z'
loop_
 _atom_site_type_symbol
 _atom_site_label
 _atom_site_symmetry_multiplicity
 _atom_site_fract_x
 _atom_site_fract_y
 _atom_site_fract_z
 _atom_site_occupancy
  Sb  Sb0  1  0.53894068  0.92211865  0.34227582  1
  Sb  Sb1  1  0.11232896  0.77534307  0.56012220  1
  Sb  Sb2  1  0.77639491  0.44720919  0.89012117  1
  Sb  Sb3  1  0.59412497  0.81175006  0.12898226  1
  Sb  Sb4  1  0.22737655  0.54524690  0.35567402  1
  Sb  Sb5  1  0.77262345  0.45475310  0.64432598  1
  Sb  Sb6  1  0.40587503  0.18824994  0.87101774  1
  Sb  Sb7  1  0.22360509  0.55279081  0.10987883  1
  Sb  Sb8  1  0.88767104  0.22465693  0.43987780  1
  Sb  Sb9  1  0.46105932  0.07788135  0.65772418  1
  O  O10  1  0.06343090  0.87313820  0.39255536  1
  O  O11  1  0.60726845  0.78546210  0.50312353  1
  O  O12  1  0.70898974  0.58202052  0.72304088  1
  O  O13  1  0.61910589  0.76178923  0.28903056  1
  O  O14  1  0.30502732  0.38994435  0.87322882  1
  O  O15  1  0.21993845  0.56012410  0.58730840  1
  O  O16  1  0.13979677  0.72040545  0.17608097  1
  O  O17  1  0.86020323  0.27959455  0.82391903  1
  O  O18  1  0.78006155  0.43987590  0.41269160  1
  O  O19  1  0.69497268  0.61005565  0.12677118  1
  O  O20  1  0.38089411  0.23821077  0.71096944  1
  O  O21  1  0.29101026  0.41797948  0.27695912  1
  O  O22  1  0.39273155  0.21453790  0.49687647  1
  O  O23  1  0.93656910  0.12686180  0.60744464  1
  F  F24  1  0.11408022  0.77183956  0.97836876  1
  F  F25  1  0.88591978  0.22816044  0.02163124  1
