# generated using pymatgen
data_Sr2Fe23O38
_symmetry_space_group_name_H-M   'P 1'
_cell_length_a   5.99366199
_cell_length_b   5.99402698
_cell_length_c   23.38703386
_cell_angle_alpha   89.93107410
_cell_angle_beta   90.07499297
_cell_angle_gamma   120.04118684
_symmetry_Int_Tables_number   1
_chemical_formula_structural   Sr2Fe23O38
_chemical_formula_sum   'Sr2 Fe23 O38'
_cell_volume   727.33730779
_cell_formula_units_Z   1
loop_
 _symmetry_equiv_pos_site_id
 _symmetry_equiv_pos_as_xyz
  1  'x, y, z'
loop_
 _atom_site_type_symbol
 _atom_site_label
 _atom_site_symmetry_multiplicity
 _atom_site_fract_x
 _atom_site_fract_y
 _atom_site_fract_z
 _atom_site_occupancy
  Sr  Sr0  1  0.33326405  0.66669374  0.74947947  1
  Sr  Sr1  1  0.66552244  0.33409483  0.25033186  1
  Fe  Fe2  1  0.16820317  0.83179610  0.60944676  1
  Fe  Fe3  1  0.16840064  0.83162836  0.89060869  1
  Fe  Fe4  1  0.33319642  0.66675296  0.19171451  1
  Fe  Fe5  1  0.33329499  0.66673279  0.02724391  1
  Fe  Fe6  1  0.16816746  0.33649961  0.60943032  1
  Fe  Fe7  1  0.33092771  0.66839801  0.30498034  1
  Fe  Fe8  1  0.00006345  0.99998340  0.00016330  1
  Fe  Fe9  1  0.00012877  0.99992067  0.49970346  1
  Fe  Fe10  1  0.99997262  0.00003576  0.75125648  1
  Fe  Fe11  1  0.33323005  0.66671901  0.47254089  1
  Fe  Fe12  1  0.16843460  0.33682004  0.89059336  1
  Fe  Fe13  1  0.66318721  0.83158297  0.89058843  1
  Fe  Fe14  1  0.66349601  0.83183084  0.60942714  1
  Fe  Fe15  1  0.33471062  0.16718662  0.10982539  1
  Fe  Fe16  1  0.33406212  0.16745328  0.38971525  1
  Fe  Fe17  1  0.66672483  0.33330134  0.69097763  1
  Fe  Fe18  1  0.66690505  0.33320418  0.97305521  1
  Fe  Fe19  1  0.66669052  0.33331471  0.52652009  1
  Fe  Fe20  1  0.66658697  0.33339748  0.80901919  1
  Fe  Fe21  1  0.83246151  0.66594605  0.38975566  1
  Fe  Fe22  1  0.83298226  0.66549055  0.10983741  1
  Fe  Fe23  1  0.83318810  0.16694701  0.10986511  1
  Fe  Fe24  1  0.83299118  0.16684330  0.38998523  1
  O  O25  1  0.15641881  0.84366598  0.05283001  1
  O  O26  1  0.15608909  0.84393881  0.44714364  1
  O  O27  1  0.01185424  0.50602408  0.84860009  1
  O  O28  1  0.01212933  0.50591733  0.65160251  1
  O  O29  1  0.19459003  0.80529831  0.25326125  1
  O  O30  1  0.33340925  0.66664430  0.94424932  1
  O  O31  1  0.33320280  0.66673119  0.55576571  1
  O  O32  1  0.15630843  0.31247302  0.05284051  1
  O  O33  1  0.00023944  0.99992998  0.14792554  1
  O  O34  1  0.99957804  0.00028464  0.35239277  1
  O  O35  1  0.00010273  0.99993345  0.65196967  1
  O  O36  1  0.15627859  0.31227339  0.44719895  1
  O  O37  1  0.99995562  0.00004980  0.84775499  1
  O  O38  1  0.19728658  0.39352111  0.25170417  1
  O  O39  1  0.49412432  0.98789312  0.65160098  1
  O  O40  1  0.49396881  0.98813708  0.84859082  1
  O  O41  1  0.60589293  0.80240072  0.25151658  1
  O  O42  1  0.31197174  0.15604434  0.55278675  1
  O  O43  1  0.31128723  0.15560652  0.94715426  1
  O  O44  1  0.49401326  0.50603818  0.65159896  1
  O  O45  1  0.49401906  0.50596518  0.84855998  1
  O  O46  1  0.50144167  0.49861287  0.34746275  1
  O  O47  1  0.50660652  0.49357449  0.15242540  1
  O  O48  1  0.68760380  0.84377424  0.05284624  1
  O  O49  1  0.68769269  0.84372664  0.44720842  1
  O  O50  1  0.36536620  0.18259583  0.75010391  1
  O  O51  1  0.50438609  0.00773125  0.15258974  1
  O  O52  1  0.50208383  0.00332605  0.34757527  1
  O  O53  1  0.66676866  0.33324040  0.44267192  1
  O  O54  1  0.66734149  0.33294453  0.05632902  1
  O  O55  1  0.81743330  0.63465916  0.75011132  1
  O  O56  1  0.84444064  0.68877106  0.94714710  1
  O  O57  1  0.84395394  0.68805410  0.55277729  1
  O  O58  1  0.81739506  0.18268971  0.75015034  1
  O  O59  1  0.99295846  0.49605477  0.15258496  1
  O  O60  1  0.99647431  0.49784392  0.34759549  1
  O  O61  1  0.84445512  0.15558257  0.94711210  1
  O  O62  1  0.84409513  0.15587726  0.55272918  1
