# generated using pymatgen
data_Ti3CuO8
_symmetry_space_group_name_H-M   'P 1'
_cell_length_a   3.80816313
_cell_length_b   3.80816313
_cell_length_c   9.58491691
_cell_angle_alpha   90.00000000
_cell_angle_beta   90.00000000
_cell_angle_gamma   90.00000000
_symmetry_Int_Tables_number   1
_chemical_formula_structural   Ti3CuO8
_chemical_formula_sum   'Ti3 Cu1 O8'
_cell_volume   139.00148510
_cell_formula_units_Z   1
loop_
 _symmetry_equiv_pos_site_id
 _symmetry_equiv_pos_as_xyz
  1  'x, y, z'
loop_
 _atom_site_type_symbol
 _atom_site_label
 _atom_site_symmetry_multiplicity
 _atom_site_fract_x
 _atom_site_fract_y
 _atom_site_fract_z
 _atom_site_occupancy
  Ti  Ti0  1  0.00000000  -0.00000000  0.00000100  1
  Ti  Ti1  1  0.00000000  0.50000000  0.25415350  1
  Ti  Ti2  1  0.50000000  -0.00000000  0.74584550  1
  Cu  Cu3  1  0.50000000  0.49999900  0.50000000  1
  O  O4  1  0.00000000  -0.00000000  0.20870255  1
  O  O5  1  0.50000000  0.50000000  0.69898440  1
  O  O6  1  -0.00000000  0.50000000  0.45865009  1
  O  O7  1  0.50000000  -0.00000000  0.95758498  1
  O  O8  1  0.50000000  -0.00000000  0.54134991  1
  O  O9  1  0.00000000  0.50000000  0.04241602  1
  O  O10  1  0.50000000  0.50000000  0.30101560  1
  O  O11  1  0.00000000  -0.00000000  0.79129745  1
