# generated using pymatgen
data_TbPO4
_symmetry_space_group_name_H-M   'P 1'
_cell_length_a   4.87659723
_cell_length_b   4.87659723
_cell_length_c   6.62501061
_cell_angle_alpha   111.59506182
_cell_angle_beta   111.59506182
_cell_angle_gamma   90.00000000
_symmetry_Int_Tables_number   1
_chemical_formula_structural   TbPO4
_chemical_formula_sum   'Tb2 P2 O8'
_cell_volume   134.52714208
_cell_formula_units_Z   2
loop_
 _symmetry_equiv_pos_site_id
 _symmetry_equiv_pos_as_xyz
  1  'x, y, z'
loop_
 _atom_site_type_symbol
 _atom_site_label
 _atom_site_symmetry_multiplicity
 _atom_site_fract_x
 _atom_site_fract_y
 _atom_site_fract_z
 _atom_site_occupancy
  Tb  Tb0  1  0.62500000  0.87500000  0.25000000  1
  Tb  Tb1  1  0.37500000  0.12500000  0.75000000  1
  P  P2  1  0.12500000  0.37500000  0.25000000  1
  P  P3  1  0.87500000  0.62500000  0.75000000  1
  O  O4  1  0.32262630  0.68978597  0.39812847  1
  O  O5  1  0.07550217  0.20834250  0.39812847  1
  O  O6  1  0.18978597  0.57550217  0.89812847  1
  O  O7  1  0.70834250  0.82262630  0.89812847  1
  O  O8  1  0.67737370  0.31021403  0.60187153  1
  O  O9  1  0.92449783  0.79165750  0.60187153  1
  O  O10  1  0.81021403  0.42449783  0.10187153  1
  O  O11  1  0.29165750  0.17737370  0.10187153  1
