# generated using pymatgen
data_Li9Mn2Co5O16
_symmetry_space_group_name_H-M   'P 1'
_cell_length_a   2.89348555
_cell_length_b   5.18478595
_cell_length_c   19.49272539
_cell_angle_alpha   98.88816704
_cell_angle_beta   90.00000000
_cell_angle_gamma   90.00000000
_symmetry_Int_Tables_number   1
_chemical_formula_structural   Li9Mn2Co5O16
_chemical_formula_sum   'Li9 Mn2 Co5 O16'
_cell_volume   288.92029660
_cell_formula_units_Z   1
loop_
 _symmetry_equiv_pos_site_id
 _symmetry_equiv_pos_as_xyz
  1  'x, y, z'
loop_
 _atom_site_type_symbol
 _atom_site_label
 _atom_site_symmetry_multiplicity
 _atom_site_fract_x
 _atom_site_fract_y
 _atom_site_fract_z
 _atom_site_occupancy
  Li  Li0  1  0.50000000  0.25386704  0.12814375  1
  Li  Li1  1  0.50000000  0.75487459  0.37778844  1
  Li  Li2  1  0.50000000  0.24512541  0.62221156  1
  Li  Li3  1  0.50000000  0.74613296  0.87185625  1
  Li  Li4  1  0.00000000  0.75437270  0.12765143  1
  Li  Li5  1  0.00000000  0.25651696  0.37944653  1
  Li  Li6  1  0.00000000  0.74348304  0.62055347  1
  Li  Li7  1  0.00000000  0.24562730  0.87234857  1
  Li  Li8  1  0.00000000  0.00000000  0.50000000  1
  Mn  Mn9  1  -0.00000000  0.00000000  -0.00000000  1
  Mn  Mn10  1  0.50000000  0.50000000  -0.00000000  1
  Co  Co11  1  -0.00000000  0.50163643  0.25076561  1
  Co  Co12  1  0.00000000  0.49836357  0.74923439  1
  Co  Co13  1  0.50000000  0.00210513  0.25138791  1
  Co  Co14  1  0.50000000  0.50000000  0.50000000  1
  Co  Co15  1  0.50000000  0.99789487  0.74861209  1
  O  O16  1  0.50000000  0.90140224  0.05884902  1
  O  O17  1  0.50000000  0.37385307  0.30843619  1
  O  O18  1  0.50000000  0.81734736  0.55285049  1
  O  O19  1  0.50000000  0.37045726  0.80810060  1
  O  O20  1  0.00000000  0.39988026  0.05861461  1
  O  O21  1  -0.00000000  0.87564483  0.30935909  1
  O  O22  1  0.00000000  0.38731557  0.55507903  1
  O  O23  1  0.00000000  0.87416041  0.80666302  1
  O  O24  1  0.50000000  0.62954274  0.19189940  1
  O  O25  1  0.50000000  0.18265264  0.44714951  1
  O  O26  1  0.50000000  0.62614693  0.69156381  1
  O  O27  1  0.50000000  0.09859776  0.94115098  1
  O  O28  1  0.00000000  0.12583959  0.19333698  1
  O  O29  1  0.00000000  0.61268443  0.44492097  1
  O  O30  1  0.00000000  0.12435517  0.69064091  1
  O  O31  1  -0.00000000  0.60011974  0.94138539  1
