# generated using pymatgen
data_Nb5PbSe8
_symmetry_space_group_name_H-M   'P 1'
_cell_length_a   3.50637620
_cell_length_b   9.42131653
_cell_length_c   9.43625318
_cell_angle_alpha   102.99597021
_cell_angle_beta   90.00000000
_cell_angle_gamma   100.72453557
_symmetry_Int_Tables_number   1
_chemical_formula_structural   Nb5PbSe8
_chemical_formula_sum   'Nb5 Pb1 Se8'
_cell_volume   298.14848738
_cell_formula_units_Z   1
loop_
 _symmetry_equiv_pos_site_id
 _symmetry_equiv_pos_as_xyz
  1  'x, y, z'
loop_
 _atom_site_type_symbol
 _atom_site_label
 _atom_site_symmetry_multiplicity
 _atom_site_fract_x
 _atom_site_fract_y
 _atom_site_fract_z
 _atom_site_occupancy
  Nb  Nb0  1  -0.00000000  -0.00000000  -0.00000000  1
  Nb  Nb1  1  0.35884753  0.71769507  0.00341485  1
  Nb  Nb2  1  0.64115247  0.28230493  0.99658515  1
  Nb  Nb3  1  0.28914359  0.57828718  0.63224712  1
  Nb  Nb4  1  0.71085641  0.42171282  0.36775288  1
  Pb  Pb5  1  0.50000000  -0.00000000  0.50000000  1
  Se  Se6  1  0.56987330  0.13974660  0.19857060  1
  Se  Se7  1  0.43012670  0.86025340  0.80142940  1
  Se  Se8  1  0.08471125  0.16942250  0.80736580  1
  Se  Se9  1  0.91528875  0.83057750  0.19263420  1
  Se  Se10  1  0.14997313  0.29994627  0.50862286  1
  Se  Se11  1  0.85002687  0.70005373  0.49137714  1
  Se  Se12  1  0.23942752  0.47885504  0.16071896  1
  Se  Se13  1  0.76057248  0.52114496  0.83928104  1
