# generated using pymatgen
data_Mg5Si6
_symmetry_space_group_name_H-M   'P 1'
_cell_length_a   14.57550106
_cell_length_b   4.31435721
_cell_length_c   6.91384431
_cell_angle_alpha   87.40860340
_cell_angle_beta   111.36356542
_cell_angle_gamma   90.79526000
_symmetry_Int_Tables_number   1
_chemical_formula_structural   Mg5Si6
_chemical_formula_sum   'Mg10 Si12'
_cell_volume   404.47995156
_cell_formula_units_Z   2
loop_
 _symmetry_equiv_pos_site_id
 _symmetry_equiv_pos_as_xyz
  1  'x, y, z'
loop_
 _atom_site_type_symbol
 _atom_site_label
 _atom_site_symmetry_multiplicity
 _atom_site_fract_x
 _atom_site_fract_y
 _atom_site_fract_z
 _atom_site_occupancy
  Mg  Mg0  1  0.00016749  0.95447310  0.00001434  1
  Mg  Mg1  1  0.50016074  0.45446408  -0.00000155  1
  Mg  Mg2  1  0.34582062  0.94611985  0.06923868  1
  Mg  Mg3  1  0.65450907  0.96310928  0.93073898  1
  Mg  Mg4  1  0.84584973  0.44613680  0.06923030  1
  Mg  Mg5  1  0.15449753  0.46313528  0.93076182  1
  Mg  Mg6  1  0.41981903  0.96044187  0.62489208  1
  Mg  Mg7  1  0.58050127  0.94870336  0.37512169  1
  Mg  Mg8  1  0.91985352  0.46045012  0.62494681  1
  Mg  Mg9  1  0.08049822  0.44868229  0.37508488  1
  Si  Si10  1  0.05807545  0.97454660  0.67106936  1
  Si  Si11  1  0.94226537  0.93455160  0.32894461  1
  Si  Si12  1  0.55805826  0.47450442  0.67106115  1
  Si  Si13  1  0.44225508  0.43457676  0.32891832  1
  Si  Si14  1  0.19678308  0.96027084  0.26144867  1
  Si  Si15  1  0.71468654  0.44898478  0.63064095  1
  Si  Si16  1  0.69678575  0.46027672  0.26148206  1
  Si  Si17  1  0.30353354  0.44874281  0.73849268  1
  Si  Si18  1  0.21467666  0.94897415  0.63059893  1
  Si  Si19  1  0.78565022  0.96005668  0.36941281  1
  Si  Si20  1  0.80354157  0.94874201  0.73853705  1
  Si  Si21  1  0.28564128  0.46005661  0.36936536  1
