# generated using pymatgen
data_ZrSiO4
_symmetry_space_group_name_H-M   'P 1'
_cell_length_a   4.78615270
_cell_length_b   4.78616352
_cell_length_c   6.31314271
_cell_angle_alpha   112.27611500
_cell_angle_beta   112.27567870
_cell_angle_gamma   89.99755393
_symmetry_Int_Tables_number   1
_chemical_formula_structural   ZrSiO4
_chemical_formula_sum   'Zr2 Si2 O8'
_cell_volume   122.08192875
_cell_formula_units_Z   2
loop_
 _symmetry_equiv_pos_site_id
 _symmetry_equiv_pos_as_xyz
  1  'x, y, z'
loop_
 _atom_site_type_symbol
 _atom_site_label
 _atom_site_symmetry_multiplicity
 _atom_site_fract_x
 _atom_site_fract_y
 _atom_site_fract_z
 _atom_site_occupancy
  O  O0  1  0.30614033  0.45496636  0.09540771  1
  O  O1  1  0.64043318  0.80613885  0.59540065  1
  O  O2  1  0.95495602  0.28924894  0.59540226  1
  O  O3  1  0.78927057  0.14043373  0.09541183  1
  O  O4  1  0.21072943  0.85956627  0.90458817  1
  O  O5  1  0.04504398  0.71075106  0.40459774  1
  O  O6  1  0.35956682  0.19386115  0.40459935  1
  O  O7  1  0.69385967  0.54503364  0.90459229  1
  Si  Si8  1  0.87500183  0.62499842  0.74999638  1
  Si  Si9  1  0.12499817  0.37500158  0.25000362  1
  Zr  Zr10  1  0.37500472  0.12500504  0.75000466  1
  Zr  Zr11  1  0.62499528  0.87499496  0.24999534  1
