# generated using pymatgen
data_Rb3LaCl6
_symmetry_space_group_name_H-M   'P 1'
_cell_length_a   8.34507388
_cell_length_b   8.34507433
_cell_length_c   8.34507430
_cell_angle_alpha   59.99999860
_cell_angle_beta   59.99999796
_cell_angle_gamma   59.99999805
_symmetry_Int_Tables_number   1
_chemical_formula_structural   Rb3LaCl6
_chemical_formula_sum   'Rb3 La1 Cl6'
_cell_volume   410.93732325
_cell_formula_units_Z   1
loop_
 _symmetry_equiv_pos_site_id
 _symmetry_equiv_pos_as_xyz
  1  'x, y, z'
loop_
 _atom_site_type_symbol
 _atom_site_label
 _atom_site_symmetry_multiplicity
 _atom_site_fract_x
 _atom_site_fract_y
 _atom_site_fract_z
 _atom_site_occupancy
  Rb  Rb0  1  0.25000000  0.25000000  0.25000000  1
  Rb  Rb1  1  0.75000000  0.75000000  0.75000000  1
  Rb  Rb2  1  0.50000000  0.50000000  0.50000000  1
  La  La3  1  -0.00000000  -0.00000000  0.00000000  1
  Cl  Cl4  1  0.23487788  0.76512212  0.23487788  1
  Cl  Cl5  1  0.76512212  0.76512212  0.23487788  1
  Cl  Cl6  1  0.76512212  0.23487788  0.76512212  1
  Cl  Cl7  1  0.76512212  0.23487788  0.23487788  1
  Cl  Cl8  1  0.23487788  0.76512212  0.76512212  1
  Cl  Cl9  1  0.23487788  0.23487788  0.76512212  1
