# generated using pymatgen
data_Li5Co3O8
_symmetry_space_group_name_H-M   'P 1'
_cell_length_a   2.94789142
_cell_length_b   9.74002077
_cell_length_c   4.98195734
_cell_angle_alpha   102.03084836
_cell_angle_beta   90.00000000
_cell_angle_gamma   90.00000000
_symmetry_Int_Tables_number   1
_chemical_formula_structural   Li5Co3O8
_chemical_formula_sum   'Li5 Co3 O8'
_cell_volume   139.90266825
_cell_formula_units_Z   1
loop_
 _symmetry_equiv_pos_site_id
 _symmetry_equiv_pos_as_xyz
  1  'x, y, z'
loop_
 _atom_site_type_symbol
 _atom_site_label
 _atom_site_symmetry_multiplicity
 _atom_site_fract_x
 _atom_site_fract_y
 _atom_site_fract_z
 _atom_site_occupancy
  Li  Li0  1  0.00000000  0.74451959  0.24074032  1
  Li  Li1  1  0.50000000  0.25471507  0.25147945  1
  Li  Li2  1  -0.00000000  0.25548041  0.75925968  1
  Li  Li3  1  0.50000000  0.74528493  0.74852055  1
  Li  Li4  1  0.50000000  0.50000000  -0.00000000  1
  Co  Co5  1  -0.00000000  -0.00000000  0.00000000  1
  Co  Co6  1  0.00000000  0.50000000  0.50000000  1
  Co  Co7  1  0.50000000  -0.00000000  0.50000000  1
  O  O8  1  -0.00000000  0.11591144  0.36763751  1
  O  O9  1  0.50000000  0.60875333  0.38935311  1
  O  O10  1  -0.00000000  0.61147568  0.83206892  1
  O  O11  1  0.50000000  0.11866752  0.86751472  1
  O  O12  1  0.00000000  0.38852432  0.16793108  1
  O  O13  1  0.50000000  0.88133248  0.13248528  1
  O  O14  1  0.00000000  0.88408856  0.63236249  1
  O  O15  1  0.50000000  0.39124667  0.61064689  1
