# generated using pymatgen
data_NaCdIn4(PO4)6
_symmetry_space_group_name_H-M   'P 1'
_cell_length_a   6.71848446
_cell_length_b   9.14557732
_cell_length_c   18.15609940
_cell_angle_alpha   92.14735495
_cell_angle_beta   106.86150460
_cell_angle_gamma   106.64409399
_symmetry_Int_Tables_number   1
_chemical_formula_structural   NaCdIn4(PO4)6
_chemical_formula_sum   'Na2 Cd2 In8 P12 O48'
_cell_volume   1014.01999203
_cell_formula_units_Z   2
loop_
 _symmetry_equiv_pos_site_id
 _symmetry_equiv_pos_as_xyz
  1  'x, y, z'
loop_
 _atom_site_type_symbol
 _atom_site_label
 _atom_site_symmetry_multiplicity
 _atom_site_fract_x
 _atom_site_fract_y
 _atom_site_fract_z
 _atom_site_occupancy
  Na  Na0  1  -0.00000000  0.50000000  0.75000000  1
  Na  Na1  1  0.50000000  0.50000000  0.75000000  1
  Cd  Cd2  1  0.24809831  0.27130429  0.36300372  1
  Cd  Cd3  1  0.75190169  0.72869571  0.13699628  1
  In  In4  1  0.36440912  0.93883889  0.81486783  1
  In  In5  1  0.13163009  0.37536988  0.53355643  1
  In  In6  1  0.36889045  0.93082955  0.31455839  1
  In  In7  1  0.13583877  0.36765351  0.03347504  1
  In  In8  1  0.86836991  0.62463012  0.96644357  1
  In  In9  1  0.63559088  0.06116111  0.68513217  1
  In  In10  1  0.86416123  0.63234649  0.46652496  1
  In  In11  1  0.63110955  0.06917045  0.18544161  1
  P  P12  1  0.37160903  0.65578570  0.93348351  1
  P  P13  1  0.24814807  0.71549399  0.64305147  1
  P  P14  1  0.13727793  0.13718382  0.67421877  1
  P  P15  1  0.36070632  0.64971596  0.43325209  1
  P  P16  1  0.25257975  0.71111218  0.14389762  1
  P  P17  1  0.12944304  0.12798548  0.17424469  1
  P  P18  1  0.86272207  0.86281618  0.82578123  1
  P  P19  1  0.75185193  0.28450601  0.85694853  1
  P  P20  1  0.62839097  0.34421430  0.56651649  1
  P  P21  1  0.87055696  0.87201452  0.32575531  1
  P  P22  1  0.74742025  0.28888782  0.35610238  1
  P  P23  1  0.63929368  0.35028404  0.06674791  1
  O  O24  1  0.08035777  0.98015496  0.82763860  1
  O  O25  1  0.18777238  0.59110718  0.97184564  1
  O  O26  1  0.04448008  0.73789077  0.58413956  1
  O  O27  1  0.37036773  0.81764552  0.91316608  1
  O  O28  1  0.23574369  0.73694588  0.72712037  1
  O  O29  1  0.09586535  0.99548567  0.33352549  1
  O  O30  1  0.33296405  0.55420976  0.85813416  1
  O  O31  1  0.18453465  0.28991350  0.72479176  1
  O  O32  1  0.25872137  0.54744717  0.63404076  1
  O  O33  1  0.18015714  0.59184286  0.47381980  1
  O  O34  1  0.13664272  0.17983713  0.59267903  1
  O  O35  1  0.04051377  0.73333191  0.08604533  1
  O  O36  1  0.59329785  0.66363107  0.99554477  1
  O  O37  1  0.45262937  0.82966763  0.63144275  1
  O  O38  1  0.35759920  0.80752550  0.40938668  1
  O  O39  1  0.31996830  0.05856260  0.70479603  1
  O  O40  1  0.23900718  0.73652127  0.22650968  1
  O  O41  1  0.68003170  0.94143740  0.79520397  1
  O  O42  1  0.32333379  0.53134023  0.36353926  1
  O  O43  1  0.16385588  0.26426225  0.23343147  1
  O  O44  1  0.54737063  0.17033237  0.86855725  1
  O  O45  1  0.40670215  0.33636893  0.50445523  1
  O  O46  1  0.26872506  0.54829317  0.12942808  1
  O  O47  1  0.13591582  0.17801878  0.09521839  1
  O  O48  1  0.86335728  0.82016287  0.90732097  1
  O  O49  1  0.74127863  0.45255283  0.86595924  1
  O  O50  1  0.58212014  0.65458153  0.49195693  1
  O  O51  1  0.46059370  0.82811321  0.13206630  1
  O  O52  1  0.81546535  0.71008650  0.77520824  1
  O  O53  1  0.66703595  0.44579024  0.64186584  1
  O  O54  1  0.31062242  0.04648128  0.20316943  1
  O  O55  1  0.76425631  0.26305412  0.77287963  1
  O  O56  1  0.68937758  0.95351872  0.29683057  1
  O  O57  1  0.62963227  0.18235448  0.58683392  1
  O  O58  1  0.53940630  0.17188679  0.36793370  1
  O  O59  1  0.41787986  0.34541847  0.00804307  1
  O  O60  1  0.95551992  0.26210923  0.91586044  1
  O  O61  1  0.86408418  0.82198122  0.40478161  1
  O  O62  1  0.81222762  0.40889282  0.52815436  1
  O  O63  1  0.73127494  0.45170683  0.37057192  1
  O  O64  1  0.83614412  0.73573775  0.26656853  1
  O  O65  1  0.67666621  0.46865977  0.13646074  1
  O  O66  1  0.91964223  0.01984504  0.67236140  1
  O  O67  1  0.76099282  0.26347873  0.27349032  1
  O  O68  1  0.64240080  0.19247450  0.09061332  1
  O  O69  1  0.95948623  0.26666809  0.41395467  1
  O  O70  1  0.81984286  0.40815714  0.02618020  1
  O  O71  1  0.90413465  0.00451433  0.16647451  1
