# generated using pymatgen
data_Sr4Fe3O10
_symmetry_space_group_name_H-M   'P 1'
_cell_length_a   10.97172824
_cell_length_b   7.71426370
_cell_length_c   8.95070494
_cell_angle_alpha   90.43207730
_cell_angle_beta   71.27598442
_cell_angle_gamma   46.64662132
_symmetry_Int_Tables_number   1
_chemical_formula_structural   Sr4Fe3O10
_chemical_formula_sum   'Sr8 Fe6 O20'
_cell_volume   492.30564825
_cell_formula_units_Z   2
loop_
 _symmetry_equiv_pos_site_id
 _symmetry_equiv_pos_as_xyz
  1  'x, y, z'
loop_
 _atom_site_type_symbol
 _atom_site_label
 _atom_site_symmetry_multiplicity
 _atom_site_fract_x
 _atom_site_fract_y
 _atom_site_fract_z
 _atom_site_occupancy
  Sr  Sr0  1  0.13590718  0.10826088  0.23317947  1
  Sr  Sr1  1  0.15600655  0.58545721  0.22177233  1
  Sr  Sr2  1  0.62152287  0.13266466  0.22280931  1
  Sr  Sr3  1  0.34399345  0.41454279  0.77822767  1
  Sr  Sr4  1  0.62967233  0.62689129  0.23404883  1
  Sr  Sr5  1  0.36409282  0.89173912  0.76682053  1
  Sr  Sr6  1  0.87032767  0.37310871  0.76595117  1
  Sr  Sr7  1  0.87847713  0.86733534  0.77719069  1
  Fe  Fe8  1  0.99448457  0.00670496  0.00957215  1
  Fe  Fe9  1  0.50551543  0.99329504  0.99042785  1
  Fe  Fe10  1  0.49902268  0.50226281  0.00060221  1
  Fe  Fe11  1  0.77420534  0.17477506  0.50063209  1
  Fe  Fe12  1  0.00097732  0.49773719  0.99939779  1
  Fe  Fe13  1  0.72579466  0.82522494  0.49936791  1
  O  O14  1  0.95953286  0.12527368  0.50075358  1
  O  O15  1  0.99594506  0.24644757  0.01084612  1
  O  O16  1  0.37828968  0.12646451  0.22418904  1
  O  O17  1  0.10377239  0.40241288  0.76671705  1
  O  O18  1  0.25273973  0.74652612  0.01357490  1
  O  O19  1  0.24726027  0.25347388  0.98642510  1
  O  O20  1  0.39622761  0.59758712  0.23328295  1
  O  O21  1  0.12171032  0.87353549  0.77581096  1
  O  O22  1  0.59735225  0.17643315  0.49962341  1
  O  O23  1  0.50405494  0.75355243  0.98915388  1
  O  O24  1  0.51534158  0.22605339  0.97098070  1
  O  O25  1  0.83331946  0.18178802  0.27122739  1
  O  O26  1  0.60401305  0.40849507  0.72433445  1
  O  O27  1  0.54046714  0.87472632  0.49924642  1
  O  O28  1  0.75513077  0.74357891  0.01707753  1
  O  O29  1  0.74486923  0.25642109  0.98292247  1
  O  O30  1  0.89598695  0.59150493  0.27566555  1
  O  O31  1  0.66668054  0.81821198  0.72877261  1
  O  O32  1  0.98465842  0.77394661  0.02901930  1
  O  O33  1  0.90264775  0.82356685  0.50037659  1
