# generated using pymatgen
data_BaNaCuBrO2
_symmetry_space_group_name_H-M   'P 1'
_cell_length_a   5.64716359
_cell_length_b   5.64716359
_cell_length_c   7.32146108
_cell_angle_alpha   90.00000000
_cell_angle_beta   90.00000000
_cell_angle_gamma   90.00000000
_symmetry_Int_Tables_number   1
_chemical_formula_structural   BaNaCuBrO2
_chemical_formula_sum   'Ba2 Na2 Cu2 Br2 O4'
_cell_volume   233.48473691
_cell_formula_units_Z   2
loop_
 _symmetry_equiv_pos_site_id
 _symmetry_equiv_pos_as_xyz
  1  'x, y, z'
loop_
 _atom_site_type_symbol
 _atom_site_label
 _atom_site_symmetry_multiplicity
 _atom_site_fract_x
 _atom_site_fract_y
 _atom_site_fract_z
 _atom_site_occupancy
  Ba  Ba0  1  0.50000000  0.50000000  0.53135605  1
  Ba  Ba1  1  0.00000000  -0.00000000  0.53135605  1
  Na  Na2  1  0.50000000  0.50000000  0.96861581  1
  Na  Na3  1  0.00000000  -0.00000000  0.96861581  1
  Cu  Cu4  1  0.00000000  0.50000000  0.78365758  1
  Cu  Cu5  1  0.50000000  -0.00000000  0.78365758  1
  Br  Br6  1  0.00000000  0.50000000  0.24862561  1
  Br  Br7  1  0.50000000  0.00000000  0.24862561  1
  O  O8  1  0.25002007  0.75002007  0.76583247  1
  O  O9  1  0.24997993  0.25002007  0.76583247  1
  O  O10  1  0.75002007  0.74997993  0.76583247  1
  O  O11  1  0.74997993  0.24997993  0.76583247  1
