# generated using pymatgen
data_Zr40S27
_symmetry_space_group_name_H-M   'P 1'
_cell_length_a   3.38860889
_cell_length_b   3.38860908
_cell_length_c   137.70235010
_cell_angle_alpha   90.00000000
_cell_angle_beta   90.00000000
_cell_angle_gamma   120.00000895
_symmetry_Int_Tables_number   1
_chemical_formula_structural   Zr40S27
_chemical_formula_sum   'Zr40 S27'
_cell_volume   1369.35124356
_cell_formula_units_Z   1
loop_
 _symmetry_equiv_pos_site_id
 _symmetry_equiv_pos_as_xyz
  1  'x, y, z'
loop_
 _atom_site_type_symbol
 _atom_site_label
 _atom_site_symmetry_multiplicity
 _atom_site_fract_x
 _atom_site_fract_y
 _atom_site_fract_z
 _atom_site_occupancy
  Zr  Zr0  1  -0.00000000  0.00000000  0.02500748  1
  Zr  Zr1  1  -0.00000000  0.00000000  0.05104410  1
  Zr  Zr2  1  -0.00000000  0.00000000  0.07567469  1
  Zr  Zr3  1  -0.00000000  0.00000000  0.10006008  1
  Zr  Zr4  1  -0.00000000  0.00000000  0.12493641  1
  Zr  Zr5  1  -0.00000000  0.00000000  0.14996422  1
  Zr  Zr6  1  -0.00000000  0.00000000  0.17498824  1
  Zr  Zr7  1  -0.00000000  0.00000000  0.20002948  1
  Zr  Zr8  1  -0.00000000  0.00000000  0.22506882  1
  Zr  Zr9  1  -0.00000000  0.00000000  0.24994016  1
  Zr  Zr10  1  -0.00000000  0.00000000  0.29900144  1
  Zr  Zr11  1  -0.00000000  -0.00000000  0.34948147  1
  Zr  Zr12  1  -0.00000000  0.00000000  0.39872486  1
  Zr  Zr13  1  -0.00000000  0.00000000  0.42431169  1
  Zr  Zr14  1  -0.00000000  0.00000000  0.44975739  1
  Zr  Zr15  1  0.00000000  0.00000000  0.49999219  1
  Zr  Zr16  1  0.00000000  -0.00000000  0.59999832  1
  Zr  Zr17  1  -0.00000000  -0.00000000  0.62500169  1
  Zr  Zr18  1  -0.00000000  0.00000000  0.70000254  1
  Zr  Zr19  1  -0.00000000  -0.00000000  0.77500298  1
  Zr  Zr20  1  -0.00000000  -0.00000000  0.80000624  1
  Zr  Zr21  1  0.00000000  -0.00000000  0.82500307  1
  Zr  Zr22  1  -0.00000000  0.00000000  0.85000495  1
  Zr  Zr23  1  -0.00000000  -0.00000000  0.87499750  1
  Zr  Zr24  1  -0.00000000  0.00000000  0.90000313  1
  Zr  Zr25  1  -0.00000000  0.00000000  0.97569800  1
  Zr  Zr26  1  -0.00000000  0.00000000  0.00131669  1
  Zr  Zr27  1  -0.00000000  0.00000000  0.47494668  1
  Zr  Zr28  1  0.00000000  -0.00000000  0.57500012  1
  Zr  Zr29  1  -0.00000000  0.00000000  0.67500223  1
  Zr  Zr30  1  0.00000000  0.00000000  0.95024295  1
  Zr  Zr31  1  -0.00000000  0.00000000  0.27432574  1
  Zr  Zr32  1  -0.00000000  -0.00000000  0.32518634  1
  Zr  Zr33  1  -0.00000000  0.00000000  0.37522091  1
  Zr  Zr34  1  0.00000000  0.00000000  0.52499887  1
  Zr  Zr35  1  -0.00000000  0.00000000  0.54999513  1
  Zr  Zr36  1  0.00000000  -0.00000000  0.65000128  1
  Zr  Zr37  1  0.00000000  0.00000000  0.72500291  1
  Zr  Zr38  1  0.00000000  0.00000000  0.75000447  1
  Zr  Zr39  1  -0.00000000  0.00000000  0.92505027  1
  S  S40  1  0.33333300  0.66666700  0.03794189  1
  S  S41  1  0.33333300  0.66666700  0.31214453  1
  S  S42  1  0.33333300  0.66666700  0.36239960  1
  S  S43  1  0.33333300  0.66666700  0.43708611  1
  S  S44  1  0.33333300  0.66666700  0.41151336  1
  S  S45  1  0.33333300  0.66666700  0.46238512  1
  S  S46  1  0.33333300  0.66666700  0.48748162  1
  S  S47  1  0.33333300  0.66666700  0.51249534  1
  S  S48  1  0.33333300  0.66666700  0.56249593  1
  S  S49  1  0.33333300  0.66666700  0.53749478  1
  S  S50  1  0.33333300  0.66666700  0.58749714  1
  S  S51  1  0.33333300  0.66666700  0.61249853  1
  S  S52  1  0.33333300  0.66666700  0.63750167  1
  S  S53  1  0.33333300  0.66666700  0.68750208  1
  S  S54  1  0.33333300  0.66666700  0.66250248  1
  S  S55  1  0.33333300  0.66666700  0.71250120  1
  S  S56  1  0.33333300  0.66666700  0.73750356  1
  S  S57  1  0.33333300  0.66666700  0.76250358  1
  S  S58  1  0.33333300  0.66666700  0.78750493  1
  S  S59  1  0.33333300  0.66666700  0.81250432  1
  S  S60  1  0.33333300  0.66666700  0.83750324  1
  S  S61  1  0.33333300  0.66666700  0.86250291  1
  S  S62  1  0.33333300  0.66666700  0.91251344  1
  S  S63  1  0.33333300  0.66666700  0.88749942  1
  S  S64  1  0.33333300  0.66666700  0.93760744  1
  S  S65  1  0.33333300  0.66666700  0.96291514  1
  S  S66  1  0.33333300  0.66666700  0.98850490  1
