# generated using pymatgen
data_LiNi2(PO4)3
_symmetry_space_group_name_H-M   'P 1'
_cell_length_a   8.56439368
_cell_length_b   8.85891176
_cell_length_c   12.26313600
_cell_angle_alpha   90.00000000
_cell_angle_beta   90.47013182
_cell_angle_gamma   90.00000000
_symmetry_Int_Tables_number   1
_chemical_formula_structural   LiNi2(PO4)3
_chemical_formula_sum   'Li4 Ni8 P12 O48'
_cell_volume   930.38761889
_cell_formula_units_Z   4
loop_
 _symmetry_equiv_pos_site_id
 _symmetry_equiv_pos_as_xyz
  1  'x, y, z'
loop_
 _atom_site_type_symbol
 _atom_site_label
 _atom_site_symmetry_multiplicity
 _atom_site_fract_x
 _atom_site_fract_y
 _atom_site_fract_z
 _atom_site_occupancy
  Li  Li0  1  0.31707382  0.28052868  0.68630250  1
  Li  Li1  1  0.68292618  0.71947132  0.31369750  1
  Li  Li2  1  0.18292618  0.78052868  0.81369750  1
  Li  Li3  1  0.81707382  0.21947132  0.18630250  1
  Ni  Ni4  1  0.24730668  0.46662066  0.88466272  1
  Ni  Ni5  1  0.74730668  0.03337934  0.38466272  1
  Ni  Ni6  1  0.75269332  0.53337934  0.11533728  1
  Ni  Ni7  1  0.75003361  0.97661846  0.88238827  1
  Ni  Ni8  1  0.74996639  0.47661846  0.61761173  1
  Ni  Ni9  1  0.25003361  0.52338154  0.38238827  1
  Ni  Ni10  1  0.25269332  0.96662066  0.61533728  1
  Ni  Ni11  1  0.24996639  0.02338154  0.11761173  1
  P  P12  1  0.95861331  0.74931755  0.49174413  1
  P  P13  1  0.11626005  0.10876096  0.85051757  1
  P  P14  1  0.54138669  0.24931755  0.00825587  1
  P  P15  1  0.39285566  0.88507430  0.35201081  1
  P  P16  1  0.45861331  0.75068245  0.99174413  1
  P  P17  1  0.04138669  0.25068245  0.50825587  1
  P  P18  1  0.10714434  0.38507430  0.14798919  1
  P  P19  1  0.61626005  0.39123904  0.35051757  1
  P  P20  1  0.38373995  0.60876096  0.64948243  1
  P  P21  1  0.89285566  0.61492570  0.85201081  1
  P  P22  1  0.88373995  0.89123904  0.14948243  1
  P  P23  1  0.60714434  0.11492570  0.64798919  1
  O  O24  1  0.27321668  0.96482529  0.27685939  1
  O  O25  1  0.18434479  0.18316468  0.56821265  1
  O  O26  1  0.69618117  0.45026523  0.45639940  1
  O  O27  1  0.22678232  0.46482529  0.22314061  1
  O  O28  1  0.59394279  0.13708335  0.92048831  1
  O  O29  1  0.06017178  0.67106716  0.40403642  1
  O  O30  1  0.93876952  0.12933425  0.45372057  1
  O  O31  1  0.81945633  0.73704718  0.18406063  1
  O  O32  1  0.80381883  0.95026523  0.04360060  1
  O  O33  1  0.86529966  0.56808671  0.97189165  1
  O  O34  1  0.56017178  0.82893284  0.90403642  1
  O  O35  1  0.90605721  0.63708335  0.57951169  1
  O  O36  1  0.31945633  0.76295282  0.68406063  1
  O  O37  1  0.40605721  0.86291665  0.07951169  1
  O  O38  1  0.55767780  0.62066092  0.61398770  1
  O  O39  1  0.31565521  0.68316468  0.93178735  1
  O  O40  1  0.81565521  0.81683532  0.43178735  1
  O  O41  1  0.72678332  0.03517471  0.72314061  1
  O  O42  1  0.43982822  0.17106716  0.09596358  1
  O  O43  1  0.94232220  0.12066092  0.88601230  1
  O  O44  1  0.13470034  0.43191329  0.02810835  1
  O  O45  1  0.13839633  0.98877337  0.76130875  1
  O  O46  1  0.06123048  0.87066575  0.54627943  1
  O  O47  1  0.63023260  0.28792265  0.65896334  1
  O  O48  1  0.86976740  0.78792265  0.84103666  1
  O  O49  1  0.86160367  0.01122663  0.23869125  1
  O  O50  1  0.36160367  0.48877337  0.73869125  1
  O  O51  1  0.56283029  0.91870453  0.32129475  1
  O  O52  1  0.68054367  0.23704718  0.31593937  1
  O  O53  1  0.05767780  0.87933908  0.11398770  1
  O  O54  1  0.63839633  0.51122663  0.26130875  1
  O  O55  1  0.68434479  0.31683532  0.06821265  1
  O  O56  1  0.19618117  0.04973477  0.95639940  1
  O  O57  1  0.30381883  0.54973477  0.54360060  1
  O  O58  1  0.43876952  0.37066575  0.95372057  1
  O  O59  1  0.18054367  0.26295282  0.81593937  1
  O  O60  1  0.09394279  0.36291665  0.42048831  1
  O  O61  1  0.56123048  0.62933425  0.04627943  1
  O  O62  1  0.13023260  0.21207735  0.15896334  1
  O  O63  1  0.93982822  0.32893284  0.59596358  1
  O  O64  1  0.77321668  0.53517471  0.77685939  1
  O  O65  1  0.36529966  0.93191329  0.47189165  1
  O  O66  1  0.44232220  0.37933908  0.38601230  1
  O  O67  1  0.36976740  0.71207735  0.34103666  1
  O  O68  1  0.43716971  0.08129547  0.67870525  1
  O  O69  1  0.06283029  0.58129547  0.82129475  1
  O  O70  1  0.63470034  0.06808671  0.52810835  1
  O  O71  1  0.93716971  0.41870453  0.17870525  1
