# generated using pymatgen
data_Li3MnCoO5
_symmetry_space_group_name_H-M   'P 1'
_cell_length_a   2.90327010
_cell_length_b   12.81159091
_cell_length_c   5.06864886
_cell_angle_alpha   101.43623894
_cell_angle_beta   74.96524514
_cell_angle_gamma   90.85533536
_symmetry_Int_Tables_number   1
_chemical_formula_structural   Li3MnCoO5
_chemical_formula_sum   'Li6 Mn2 Co2 O10'
_cell_volume   178.32956903
_cell_formula_units_Z   2
loop_
 _symmetry_equiv_pos_site_id
 _symmetry_equiv_pos_as_xyz
  1  'x, y, z'
loop_
 _atom_site_type_symbol
 _atom_site_label
 _atom_site_symmetry_multiplicity
 _atom_site_fract_x
 _atom_site_fract_y
 _atom_site_fract_z
 _atom_site_occupancy
  Li  Li0  1  0.69595395  0.09914049  0.60523148  1
  Li  Li1  1  0.10000000  0.30000000  0.80000000  1
  Li  Li2  1  0.50404605  0.50085951  0.99476852  1
  Li  Li3  1  0.88310563  0.71125270  0.20683952  1
  Li  Li4  1  0.31689437  0.88874730  0.39316048  1
  Li  Li5  1  0.60000000  0.80000000  0.80000000  1
  Mn  Mn6  1  0.00304547  0.99207039  0.00287504  1
  Mn  Mn7  1  0.19695453  0.60792961  0.59712496  1
  Co  Co8  1  0.40750696  0.19956691  0.19744152  1
  Co  Co9  1  0.79249304  0.40043309  0.40255848  1
  O  O10  1  0.37962262  0.04815812  0.27178826  1
  O  O11  1  0.74903630  0.24839820  0.47938670  1
  O  O12  1  0.14041687  0.45287128  0.67736545  1
  O  O13  1  0.57564299  0.64297566  0.86164624  1
  O  O14  1  0.94955063  0.86319545  0.10242556  1
  O  O15  1  0.05958313  0.14712872  0.92263455  1
  O  O16  1  0.45096370  0.35160180  0.12061330  1
  O  O17  1  0.82037738  0.55184188  0.32821174  1
  O  O18  1  0.25044937  0.73680455  0.49757444  1
  O  O19  1  0.62435701  0.95702434  0.73835376  1
