# generated using pymatgen
data_Li6Mn3CoO10
_symmetry_space_group_name_H-M   'P 1'
_cell_length_a   2.86202696
_cell_length_b   8.61283740
_cell_length_c   7.78401764
_cell_angle_alpha   73.33349593
_cell_angle_beta   79.40650051
_cell_angle_gamma   90.00000447
_symmetry_Int_Tables_number   1
_chemical_formula_structural   Li6Mn3CoO10
_chemical_formula_sum   'Li6 Mn3 Co1 O10'
_cell_volume   180.40028984
_cell_formula_units_Z   1
loop_
 _symmetry_equiv_pos_site_id
 _symmetry_equiv_pos_as_xyz
  1  'x, y, z'
loop_
 _atom_site_type_symbol
 _atom_site_label
 _atom_site_symmetry_multiplicity
 _atom_site_fract_x
 _atom_site_fract_y
 _atom_site_fract_z
 _atom_site_occupancy
  Li  Li0  1  0.59282921  0.29082810  0.81434157  1
  Li  Li1  1  0.80226446  0.92328304  0.39547109  1
  Li  Li2  1  0.99552171  0.46927006  0.00895658  1
  Li  Li3  1  0.20723568  0.11357255  0.58552864  1
  Li  Li4  1  0.39941745  0.69578587  0.20116511  1
  Li  Li5  1  0.40006766  0.20475727  0.19986468  1
  Mn  Mn6  1  0.99611847  0.01579443  0.00776305  1
  Mn  Mn7  1  0.20018770  0.58898881  0.59962460  1
  Mn  Mn8  1  0.60054290  0.80738371  0.79891420  1
  Co  Co9  1  0.80350795  0.38591850  0.39298409  1
  O  O10  1  0.58633171  0.05199692  0.82733658  1
  O  O11  1  0.79267759  0.62420473  0.41464482  1
  O  O12  1  0.99935530  0.23010461  0.00128939  1
  O  O13  1  0.19289345  0.85118634  0.61421310  1
  O  O14  1  0.39055878  0.44726788  0.21888244  1
  O  O15  1  0.60817588  0.54769468  0.78364824  1
  O  O16  1  0.80149233  0.17579210  0.39701535  1
  O  O17  1  0.00837474  0.77412589  0.98325052  1
  O  O18  1  0.21574867  0.34992135  0.56850266  1
  O  O19  1  0.40669835  0.95212318  0.18660330  1
