# generated using pymatgen
data_Li5Mn(CoO4)2
_symmetry_space_group_name_H-M   'P 1'
_cell_length_a   2.95065216
_cell_length_b   6.38571781
_cell_length_c   7.87717956
_cell_angle_alpha   93.34935984
_cell_angle_beta   79.20525657
_cell_angle_gamma   103.35803199
_symmetry_Int_Tables_number   1
_chemical_formula_structural   Li5Mn(CoO4)2
_chemical_formula_sum   'Li5 Mn1 Co2 O8'
_cell_volume   141.83337879
_cell_formula_units_Z   1
loop_
 _symmetry_equiv_pos_site_id
 _symmetry_equiv_pos_as_xyz
  1  'x, y, z'
loop_
 _atom_site_type_symbol
 _atom_site_label
 _atom_site_symmetry_multiplicity
 _atom_site_fract_x
 _atom_site_fract_y
 _atom_site_fract_z
 _atom_site_occupancy
  Li  Li0  1  0.12254484  0.86574034  0.62065067  1
  Li  Li1  1  0.36978560  0.62621862  0.88664743  1
  Li  Li2  1  0.63338221  0.39175944  0.12499502  1
  Li  Li3  1  0.87270522  0.12154532  0.37613487  1
  Li  Li4  1  0.25008074  0.74295495  0.24279348  1
  Mn  Mn5  1  0.99248822  0.99216502  0.00718858  1
  Co  Co6  1  0.50894386  0.50540009  0.48751237  1
  Co  Co7  1  0.75510003  0.26119036  0.75099030  1
  O  O8  1  0.18445115  0.29842981  0.92952751  1
  O  O9  1  0.44617722  0.05644596  0.16409152  1
  O  O10  1  0.66675596  0.78194508  0.44843316  1
  O  O11  1  0.93430641  0.54868636  0.68007354  1
  O  O12  1  0.05488780  0.43779780  0.32802221  1
  O  O13  1  0.32180164  0.20809517  0.56449189  1
  O  O14  1  0.56239719  0.95607119  0.83127680  1
  O  O15  1  0.82419191  0.70555448  0.05717066  1
