# generated using pymatgen
data_Li3Co2O5
_symmetry_space_group_name_H-M   'P 1'
_cell_length_a   2.99357080
_cell_length_b   9.74429698
_cell_length_c   6.34273380
_cell_angle_alpha   98.63483097
_cell_angle_beta   76.35035011
_cell_angle_gamma   90.00000173
_symmetry_Int_Tables_number   1
_chemical_formula_structural   Li3Co2O5
_chemical_formula_sum   'Li6 Co4 O10'
_cell_volume   177.63474970
_cell_formula_units_Z   2
loop_
 _symmetry_equiv_pos_site_id
 _symmetry_equiv_pos_as_xyz
  1  'x, y, z'
loop_
 _atom_site_type_symbol
 _atom_site_label
 _atom_site_symmetry_multiplicity
 _atom_site_fract_x
 _atom_site_fract_y
 _atom_site_fract_z
 _atom_site_occupancy
  Li  Li0  1  0.29840953  0.10272412  0.40318094  1
  Li  Li1  1  0.90159047  0.29727588  0.19681906  1
  Li  Li2  1  0.69612134  0.89941240  0.60775732  1
  Li  Li3  1  0.10000000  0.70000000  0.80000000  1
  Li  Li4  1  0.50387866  0.50058760  0.99224268  1
  Li  Li5  1  0.60000000  0.20000000  0.80000000  1
  Co  Co6  1  0.00250407  0.00927171  0.99499186  1
  Co  Co7  1  0.19749593  0.39072829  0.60500814  1
  Co  Co8  1  0.79923103  0.59904736  0.40153794  1
  Co  Co9  1  0.40076897  0.80095264  0.19846206  1
  O  O10  1  0.45407783  0.13654992  0.09184433  1
  O  O11  1  0.06342265  0.35733224  0.87315471  1
  O  O12  1  0.86199512  0.94771622  0.27600976  1
  O  O13  1  0.25792510  0.74675183  0.48414980  1
  O  O14  1  0.65867319  0.54549924  0.68265362  1
  O  O15  1  0.13657735  0.04266776  0.72684529  1
  O  O16  1  0.74592217  0.26345008  0.50815567  1
  O  O17  1  0.54132681  0.85450076  0.91734638  1
  O  O18  1  0.94207490  0.65324817  0.11585020  1
  O  O19  1  0.33800488  0.45228378  0.32399024  1
