# generated using pymatgen
data_Li7Co5O12
_symmetry_space_group_name_H-M   'P 1'
_cell_length_a   2.86885026
_cell_length_b   7.79058152
_cell_length_c   10.13991344
_cell_angle_alpha   109.75452354
_cell_angle_beta   90.00000049
_cell_angle_gamma   100.61000013
_symmetry_Int_Tables_number   1
_chemical_formula_structural   Li7Co5O12
_chemical_formula_sum   'Li7 Co5 O12'
_cell_volume   209.16852191
_cell_formula_units_Z   1
loop_
 _symmetry_equiv_pos_site_id
 _symmetry_equiv_pos_as_xyz
  1  'x, y, z'
loop_
 _atom_site_type_symbol
 _atom_site_label
 _atom_site_symmetry_multiplicity
 _atom_site_fract_x
 _atom_site_fract_y
 _atom_site_fract_z
 _atom_site_occupancy
  Li  Li0  1  0.50166705  0.00333409  0.24613785  1
  Li  Li1  1  0.50107210  0.00214419  0.75207426  1
  Li  Li2  1  0.16626831  0.33253562  0.40787072  1
  Li  Li3  1  0.16706569  0.33413038  0.92546328  1
  Li  Li4  1  0.83166595  0.66333291  0.08719515  1
  Li  Li5  1  0.83226090  0.66452281  0.58125874  1
  Li  Li6  1  0.66666700  0.33333300  0.16666700  1
  Co  Co7  1  0.00463930  0.00927859  0.00756333  1
  Co  Co8  1  0.32869370  0.65738841  0.32576967  1
  Co  Co9  1  0.99857559  0.99715118  0.49969249  1
  Co  Co10  1  0.66666700  0.33333300  0.66666700  1
  Co  Co11  1  0.33475741  0.66951582  0.83364051  1
  O  O12  1  0.42650462  0.85300923  0.03237410  1
  O  O13  1  0.41556697  0.83113393  0.52799718  1
  O  O14  1  0.07356835  0.14713570  0.18991912  1
  O  O15  1  0.08496282  0.16992463  0.70185715  1
  O  O16  1  0.75223379  0.50446859  0.86963047  1
  O  O17  1  0.76130961  0.52262022  0.36971433  1
  O  O18  1  0.58109921  0.16219841  0.46370253  1
  O  O19  1  0.57202339  0.14404678  0.96361867  1
  O  O20  1  0.24837118  0.49674137  0.63147685  1
  O  O21  1  0.25976565  0.51953030  0.14341488  1
  O  O22  1  0.90682838  0.81365777  0.30095890  1
  O  O23  1  0.91776603  0.83553307  0.80533582  1
