# generated using pymatgen
data_Li3Co2O5
_symmetry_space_group_name_H-M   'P 1'
_cell_length_a   2.99866012
_cell_length_b   5.16439237
_cell_length_c   12.43902139
_cell_angle_alpha   103.99103777
_cell_angle_beta   96.92294737
_cell_angle_gamma   73.12283912
_symmetry_Int_Tables_number   1
_chemical_formula_structural   Li3Co2O5
_chemical_formula_sum   'Li6 Co4 O10'
_cell_volume   178.60531105
_cell_formula_units_Z   2
loop_
 _symmetry_equiv_pos_site_id
 _symmetry_equiv_pos_as_xyz
  1  'x, y, z'
loop_
 _atom_site_type_symbol
 _atom_site_label
 _atom_site_symmetry_multiplicity
 _atom_site_fract_x
 _atom_site_fract_y
 _atom_site_fract_z
 _atom_site_occupancy
  Li  Li0  1  0.29568496  0.50790898  0.09927890  1
  Li  Li1  1  0.90431504  0.49209102  0.30072110  1
  Li  Li2  1  0.50159070  0.49615785  0.49933924  1
  Li  Li3  1  0.10000000  0.50000000  0.70000000  1
  Li  Li4  1  0.69840930  0.50384215  0.90066076  1
  Li  Li5  1  0.60000000  -0.00000000  0.20000000  1
  Co  Co6  1  0.00381447  0.00035325  0.00798218  1
  Co  Co7  1  0.19618553  0.99964675  0.39201782  1
  Co  Co8  1  0.80055887  0.99709940  0.59821714  1
  Co  Co9  1  0.39944113  0.00290060  0.80178286  1
  O  O10  1  0.35786993  0.22987541  0.94561528  1
  O  O11  1  0.94945479  0.23562221  0.13453179  1
  O  O12  1  0.56414031  0.22558778  0.35386840  1
  O  O13  1  0.16016101  0.22040454  0.54072657  1
  O  O14  1  0.75544742  0.23391204  0.74480687  1
  O  O15  1  0.25054521  0.76437779  0.26546821  1
  O  O16  1  0.84213007  0.77012459  0.45438472  1
  O  O17  1  0.44455258  0.76608796  0.65519313  1
  O  O18  1  0.03983899  0.77959546  0.85927343  1
  O  O19  1  0.63585969  0.77441222  0.04613160  1
