# generated using pymatgen
data_Li3Co2O5
_symmetry_space_group_name_H-M   'P 1'
_cell_length_a   2.99284623
_cell_length_b   12.29218274
_cell_length_c   5.12098529
_cell_angle_alpha   100.47836283
_cell_angle_beta   74.66925378
_cell_angle_gamma   90.59613888
_symmetry_Int_Tables_number   1
_chemical_formula_structural   Li3Co2O5
_chemical_formula_sum   'Li6 Co4 O10'
_cell_volume   178.51907601
_cell_formula_units_Z   2
loop_
 _symmetry_equiv_pos_site_id
 _symmetry_equiv_pos_as_xyz
  1  'x, y, z'
loop_
 _atom_site_type_symbol
 _atom_site_label
 _atom_site_symmetry_multiplicity
 _atom_site_fract_x
 _atom_site_fract_y
 _atom_site_fract_z
 _atom_site_occupancy
  Li  Li0  1  0.70191631  0.09955840  0.60469491  1
  Li  Li1  1  0.10000000  0.30000000  0.80000000  1
  Li  Li2  1  0.49808369  0.50044160  0.99530509  1
  Li  Li3  1  0.90357193  0.70094275  0.19220611  1
  Li  Li4  1  0.29642807  0.89905725  0.40779389  1
  Li  Li5  1  0.60000000  0.80000000  0.80000000  1
  Co  Co6  1  0.00276501  0.99169346  -0.00596984  1
  Co  Co7  1  0.19723499  0.60830654  0.60596984  1
  Co  Co8  1  0.40032169  0.19850609  0.19847252  1
  Co  Co9  1  0.79967831  0.40149391  0.40152748  1
  O  O10  1  0.32310233  0.05327011  0.27975014  1
  O  O11  1  0.75801534  0.25467013  0.48788333  1
  O  O12  1  0.16888814  0.45879609  0.67965255  1
  O  O13  1  0.53253641  0.64619288  0.87181308  1
  O  O14  1  0.94638172  0.86440826  0.10261704  1
  O  O15  1  0.03111186  0.14120391  0.92034745  1
  O  O16  1  0.44198466  0.34532987  0.11211667  1
  O  O17  1  0.87689767  0.54672989  0.32024986  1
  O  O18  1  0.25361828  0.73559174  0.49738296  1
  O  O19  1  0.66746359  0.95380712  0.72818692  1
