# generated using pymatgen
data_Li5Mn(CoO4)2
_symmetry_space_group_name_H-M   'P 1'
_cell_length_a   2.93940565
_cell_length_b   10.01623823
_cell_length_c   5.10890629
_cell_angle_alpha   101.56829914
_cell_angle_beta   73.28120471
_cell_angle_gamma   89.99999974
_symmetry_Int_Tables_number   1
_chemical_formula_structural   Li5Mn(CoO4)2
_chemical_formula_sum   'Li5 Mn1 Co2 O8'
_cell_volume   140.86366648
_cell_formula_units_Z   1
loop_
 _symmetry_equiv_pos_site_id
 _symmetry_equiv_pos_as_xyz
  1  'x, y, z'
loop_
 _atom_site_type_symbol
 _atom_site_label
 _atom_site_symmetry_multiplicity
 _atom_site_fract_x
 _atom_site_fract_y
 _atom_site_fract_z
 _atom_site_occupancy
  Li  Li0  1  0.24983049  0.13494519  0.50033902  1
  Li  Li1  1  0.75728616  0.37010359  0.48542767  1
  Li  Li2  1  0.25322482  0.62283631  0.49355035  1
  Li  Li3  1  0.74561014  0.87271995  0.50877972  1
  Li  Li4  1  0.49240869  0.25036792  0.01518261  1
  Mn  Mn5  1  0.99561820  0.00838026  0.00876360  1
  Co  Co6  1  0.00237858  0.48858336  0.99524283  1
  Co  Co7  1  0.50511313  0.74488232  0.98977375  1
  O  O8  1  0.87694033  0.17534018  0.24611933  1
  O  O9  1  0.38691524  0.44434398  0.22616953  1
  O  O10  1  0.89144744  0.67812489  0.21710512  1
  O  O11  1  0.38954045  0.93815207  0.22091910  1
  O  O12  1  0.60793607  0.05447719  0.78412787  1
  O  O13  1  0.11685613  0.33275531  0.76628773  1
  O  O14  1  0.61554094  0.56590709  0.76891811  1
  O  O15  1  0.11335318  0.81808039  0.77329364  1
