# generated using pymatgen
data_Li4Co3O7
_symmetry_space_group_name_H-M   'P 1'
_cell_length_a   2.87252278
_cell_length_b   10.54088021
_cell_length_c   8.32099463
_cell_angle_alpha   78.19333683
_cell_angle_beta   89.02584948
_cell_angle_gamma   84.17062597
_symmetry_Int_Tables_number   1
_chemical_formula_structural   Li4Co3O7
_chemical_formula_sum   'Li8 Co6 O14'
_cell_volume   245.34316935
_cell_formula_units_Z   2
loop_
 _symmetry_equiv_pos_site_id
 _symmetry_equiv_pos_as_xyz
  1  'x, y, z'
loop_
 _atom_site_type_symbol
 _atom_site_label
 _atom_site_symmetry_multiplicity
 _atom_site_fract_x
 _atom_site_fract_y
 _atom_site_fract_z
 _atom_site_occupancy
  Li  Li0  1  0.85543242  0.28744705  0.92982645  1
  Li  Li1  1  0.13962000  0.71939907  0.08614182  1
  Li  Li2  1  0.44108572  0.13691212  0.21149841  1
  Li  Li3  1  0.28742458  0.42683795  0.64160155  1
  Li  Li4  1  0.57142900  0.85714300  0.78571400  1
  Li  Li5  1  0.70177128  0.57737388  0.35993059  1
  Li  Li6  1  0.00323700  0.99488693  0.48528718  1
  Li  Li7  1  0.57142900  0.85714300  0.28571400  1
  Co  Co8  1  0.99700398  0.99646108  0.01119618  1
  Co  Co9  1  0.14585302  0.71782492  0.56023282  1
  Co  Co10  1  0.28387861  0.43182921  0.14298198  1
  Co  Co11  1  0.85897839  0.28245579  0.42844602  1
  Co  Co12  1  0.43244133  0.13959733  0.71819962  1
  Co  Co13  1  0.71041567  0.57468867  0.85322938  1
  O  O14  1  0.44742437  0.12538605  0.96656110  1
  O  O15  1  0.69424546  0.56882603  0.10317898  1
  O  O16  1  0.00099908  0.00105133  0.22534771  1
  O  O17  1  0.84701825  0.27501680  0.68100058  1
  O  O18  1  0.12898667  0.70825258  0.80466432  1
  O  O19  1  0.27416249  0.41709055  0.39451705  1
  O  O20  1  0.58698712  0.84025583  0.54064527  1
  O  O21  1  0.29583875  0.43926820  0.89042742  1
  O  O22  1  0.55586988  0.87403017  0.03078373  1
  O  O23  1  0.86869451  0.29719545  0.17691195  1
  O  O24  1  0.69543263  0.58889895  0.60486690  1
  O  O25  1  0.01387133  0.00603342  0.76676368  1
  O  O26  1  0.14185792  0.71323467  0.34608129  1
  O  O27  1  0.44861154  0.14545997  0.46825002  1
