# generated using pymatgen
data_Li4MnCo3O8
_symmetry_space_group_name_H-M   'P 1'
_cell_length_a   2.92677961
_cell_length_b   10.15797753
_cell_length_c   5.07136106
_cell_angle_alpha   99.05258125
_cell_angle_beta   73.22825397
_cell_angle_gamma   89.99999953
_symmetry_Int_Tables_number   1
_chemical_formula_structural   Li4MnCo3O8
_chemical_formula_sum   'Li4 Mn1 Co3 O8'
_cell_volume   142.39628912
_cell_formula_units_Z   1
loop_
 _symmetry_equiv_pos_site_id
 _symmetry_equiv_pos_as_xyz
  1  'x, y, z'
loop_
 _atom_site_type_symbol
 _atom_site_label
 _atom_site_symmetry_multiplicity
 _atom_site_fract_x
 _atom_site_fract_y
 _atom_site_fract_z
 _atom_site_occupancy
  Li  Li0  1  0.24669982  0.13028135  0.50660037  1
  Li  Li1  1  0.75330018  0.36971865  0.49339963  1
  Li  Li2  1  0.24755342  0.62043391  0.50489317  1
  Li  Li3  1  0.75244658  0.87956609  0.49510683  1
  Mn  Mn4  1  0.50000000  0.75000000  0.00000000  1
  Co  Co5  1  0.00061675  0.00811155  0.99876649  1
  Co  Co6  1  0.50000000  0.25000000  0.00000000  1
  Co  Co7  1  0.99938325  0.49188845  0.00123351  1
  O  O8  1  0.88856576  0.19324048  0.22286847  1
  O  O9  1  0.38612648  0.42997532  0.22774703  1
  O  O10  1  0.88735869  0.69468792  0.22528262  1
  O  O11  1  0.38811889  0.92633457  0.22376222  1
  O  O12  1  0.61387352  0.07002468  0.77225297  1
  O  O13  1  0.11143424  0.30675952  0.77713153  1
  O  O14  1  0.61188111  0.57366543  0.77623778  1
  O  O15  1  0.11264131  0.80531208  0.77471738  1
