# generated using pymatgen
data_Li7Mn2(CoO4)3
_symmetry_space_group_name_H-M   'P 1'
_cell_length_a   5.03543001
_cell_length_b   5.87720720
_cell_length_c   7.85152772
_cell_angle_alpha   101.78617689
_cell_angle_beta   101.47955904
_cell_angle_gamma   72.51295769
_symmetry_Int_Tables_number   1
_chemical_formula_structural   Li7Mn2(CoO4)3
_chemical_formula_sum   'Li7 Mn2 Co3 O12'
_cell_volume   214.57882594
_cell_formula_units_Z   1
loop_
 _symmetry_equiv_pos_site_id
 _symmetry_equiv_pos_as_xyz
  1  'x, y, z'
loop_
 _atom_site_type_symbol
 _atom_site_label
 _atom_site_symmetry_multiplicity
 _atom_site_fract_x
 _atom_site_fract_y
 _atom_site_fract_z
 _atom_site_occupancy
  Li  Li0  1  0.49895454  0.66319187  0.17204437  1
  Li  Li1  1  0.98977175  0.16946216  0.65820875  1
  Li  Li2  1  0.00838174  0.82969971  0.34180068  1
  Li  Li3  1  0.49446556  0.33928512  0.82267413  1
  Li  Li4  1  0.50004987  0.99696642  0.49950473  1
  Li  Li5  1  0.00439569  0.50245462  0.00232882  1
  Li  Li6  1  0.49261696  0.49938318  0.49792056  1
  Mn  Mn7  1  0.00648603  0.99646684  0.00072781  1
  Mn  Mn8  1  0.50112959  0.17096175  0.17157780  1
  Co  Co9  1  0.00648678  0.66178714  0.66541386  1
  Co  Co10  1  0.98284935  0.35949874  0.34748966  1
  Co  Co11  1  0.50397951  0.81775454  0.82207772  1
  O  O12  1  0.24936638  0.68983625  0.92582463  1
  O  O13  1  0.73486031  0.16762748  0.39337075  1
  O  O14  1  0.75694607  0.85828672  0.07937981  1
  O  O15  1  0.22658076  0.34721367  0.58453439  1
  O  O16  1  0.24280140  0.02101310  0.23321051  1
  O  O17  1  0.75658444  0.52688812  0.75059690  1
  O  O18  1  0.75563876  0.65662122  0.40659148  1
  O  O19  1  0.26265511  0.14342459  0.93415838  1
  O  O20  1  0.23669152  0.82186973  0.59873902  1
  O  O21  1  0.74960873  0.30416187  0.08233081  1
  O  O22  1  0.77872844  0.98418608  0.76762224  1
  O  O23  1  0.25997069  0.47195911  0.24187219  1
