# generated using pymatgen
data_Fe3(PO4)4
_symmetry_space_group_name_H-M   'P 1'
_cell_length_a   13.43536916
_cell_length_b   7.83940906
_cell_length_c   8.94117222
_cell_angle_alpha   91.11778698
_cell_angle_beta   85.69807914
_cell_angle_gamma   91.05368910
_symmetry_Int_Tables_number   1
_chemical_formula_structural   Fe3(PO4)4
_chemical_formula_sum   'Fe9 P12 O48'
_cell_volume   938.76489982
_cell_formula_units_Z   3
loop_
 _symmetry_equiv_pos_site_id
 _symmetry_equiv_pos_as_xyz
  1  'x, y, z'
loop_
 _atom_site_type_symbol
 _atom_site_label
 _atom_site_symmetry_multiplicity
 _atom_site_fract_x
 _atom_site_fract_y
 _atom_site_fract_z
 _atom_site_occupancy
  Fe  Fe0  1  0.16792422  0.13283967  0.42070782  1
  Fe  Fe1  1  0.83807577  0.02912634  0.17051038  1
  Fe  Fe2  1  0.83049652  0.63416146  0.08169156  1
  Fe  Fe3  1  0.17280483  0.00344909  0.83852975  1
  Fe  Fe4  1  0.83008051  0.49365022  0.65890839  1
  Fe  Fe5  1  0.16003664  0.53100535  0.32494487  1
  Fe  Fe6  1  0.49911215  0.86619586  0.91311654  1
  Fe  Fe7  1  0.49754414  0.99454414  0.49307461  1
  Fe  Fe8  1  0.50660335  0.46739109  0.00789503  1
  P  P9  1  0.61077579  0.79313777  0.19260530  1
  P  P10  1  0.38771290  0.19496086  0.80187018  1
  P  P11  1  0.05719732  0.31354637  0.64013018  1
  P  P12  1  0.27928084  0.70010827  0.02273970  1
  P  P13  1  0.28024215  0.80402183  0.53075871  1
  P  P14  1  0.05810715  0.20317919  0.13853668  1
  P  P15  1  0.94296579  0.70532500  0.36227199  1
  P  P16  1  0.94164287  0.81408539  0.85804362  1
  P  P17  1  0.72155792  0.19160936  0.47476119  1
  P  P18  1  0.72238344  0.29629650  0.96678829  1
  P  P19  1  0.60951940  0.68658288  0.69276141  1
  P  P20  1  0.38748599  0.29966531  0.30903168  1
  O  O21  1  0.27135015  0.29465438  0.34303898  1
  O  O22  1  0.43451088  0.42205041  0.42461003  1
  O  O23  1  0.72865487  0.79455439  0.16137677  1
  O  O24  1  0.41783687  0.14391431  0.63735519  1
  O  O25  1  0.05530726  0.81892984  0.82262178  1
  O  O26  1  0.39571875  0.70431277  0.98909819  1
  O  O27  1  0.91089675  0.85880564  0.02708494  1
  O  O28  1  0.75056005  0.35595020  0.80621263  1
  O  O29  1  0.55925042  0.86552131  0.68905204  1
  O  O30  1  0.43619466  0.12723989  0.33180003  1
  O  O31  1  0.08572979  0.13925409  0.97732615  1
  O  O32  1  0.60820147  0.17650331  0.51774557  1
  O  O33  1  0.43053823  0.37356398  0.83806812  1
  O  O34  1  0.94299551  0.31690516  0.67088401  1
  O  O35  1  0.74491479  0.13364531  0.31177422  1
  O  O36  1  0.39518885  0.80804869  0.50510165  1
  O  O37  1  0.24884017  0.85292060  0.69532680  1
  O  O38  1  0.10126300  0.38459529  0.16508275  1
  O  O39  1  0.09873459  0.07867317  0.25136701  1
  O  O40  1  0.76798804  0.36941279  0.49703918  1
  O  O41  1  0.94266323  0.20368371  0.16317699  1
  O  O42  1  0.57689633  0.63892585  0.85888272  1
  O  O43  1  0.75663970  0.06081873  0.59108043  1
  O  O44  1  0.09083716  0.36057029  0.47426476  1
  O  O45  1  0.23103904  0.57620381  0.91017078  1
  O  O46  1  0.90247791  0.57872795  0.24497692  1
  O  O47  1  0.08576878  0.44080140  0.76312365  1
  O  O48  1  0.60679185  0.29142315  0.99160160  1
  O  O49  1  0.56694360  0.61299636  0.16554154  1
  O  O50  1  0.91411226  0.64115611  0.52193843  1
  O  O51  1  0.10677139  0.13383997  0.64426968  1
  O  O52  1  0.58551868  0.85797983  0.35336822  1
  O  O53  1  0.57179472  0.91911374  0.07987437  1
  O  O54  1  0.25844767  0.63458957  0.18210754  1
  O  O55  1  0.76165663  0.42883662  0.07952451  1
  O  O56  1  0.23263973  0.87443166  0.00133779  1
  O  O57  1  0.88834181  0.63380858  0.85054844  1
  O  O58  1  0.05903206  0.70535504  0.34081845  1
  O  O59  1  0.91038448  0.94163022  0.74323752  1
  O  O60  1  0.57978190  0.55952726  0.57025864  1
  O  O61  1  0.27272533  0.19158164  0.82755258  1
  O  O62  1  0.42921156  0.06614005  0.90849898  1
  O  O63  1  0.90221694  0.88508995  0.33805950  1
  O  O64  1  0.76698768  0.12202997  0.99814994  1
  O  O65  1  0.23798351  0.62542767  0.49219000  1
  O  O66  1  0.72360058  0.68560542  0.66209615  1
  O  O67  1  0.23908806  0.93385257  0.42477508  1
  O  O68  1  0.40765859  0.36415541  0.14955189  1
