# generated using pymatgen
data_Li9Mn2Co5O16
_symmetry_space_group_name_H-M   'P 1'
_cell_length_a   6.59041158
_cell_length_b   7.69208154
_cell_length_c   6.67152390
_cell_angle_alpha   114.88492123
_cell_angle_beta   72.19058842
_cell_angle_gamma   104.93533737
_symmetry_Int_Tables_number   1
_chemical_formula_structural   Li9Mn2Co5O16
_chemical_formula_sum   'Li9 Mn2 Co5 O16'
_cell_volume   288.82497631
_cell_formula_units_Z   1
loop_
 _symmetry_equiv_pos_site_id
 _symmetry_equiv_pos_as_xyz
  1  'x, y, z'
loop_
 _atom_site_type_symbol
 _atom_site_label
 _atom_site_symmetry_multiplicity
 _atom_site_fract_x
 _atom_site_fract_y
 _atom_site_fract_z
 _atom_site_occupancy
  Li  Li0  1  0.06664308  0.31624037  0.43365610  1
  Li  Li1  1  0.30750222  0.55731471  0.18440272  1
  Li  Li2  1  0.68335692  0.43375963  0.81634390  1
  Li  Li3  1  0.94050107  0.68009453  0.54882413  1
  Li  Li4  1  0.55794147  0.81103492  0.94185340  1
  Li  Li5  1  0.19205853  0.93896508  0.30814660  1
  Li  Li6  1  0.80949893  0.06990547  0.70117587  1
  Li  Li7  1  0.44249778  0.19268529  0.06559728  1
  Li  Li8  1  0.87500000  0.37500000  0.12500000  1
  Mn  Mn9  1  0.99777696  0.00302802  0.00242420  1
  Mn  Mn10  1  0.75222304  0.74697198  0.24757580  1
  Co  Co11  1  0.24358656  0.25265559  0.75686780  1
  Co  Co12  1  0.50641344  0.49734441  0.49313220  1
  Co  Co13  1  0.12366106  0.61730005  0.88128804  1
  Co  Co14  1  0.37500000  0.87500000  0.62500000  1
  Co  Co15  1  0.62633894  0.13269995  0.36871196  1
  O  O16  1  0.14924680  0.26099896  0.08073569  1
  O  O17  1  0.40118710  0.52909815  0.83360068  1
  O  O18  1  0.75819355  0.39794773  0.47439755  1
  O  O19  1  0.01610927  0.66420767  0.21409981  1
  O  O20  1  0.66089361  0.77902983  0.56479725  1
  O  O21  1  0.26049352  0.89832195  0.95971291  1
  O  O22  1  0.90168021  0.01852436  0.31774203  1
  O  O23  1  0.51396079  0.14525902  0.71171636  1
  O  O24  1  0.99180745  0.35205227  0.77560345  1
  O  O25  1  0.23604021  0.60474098  0.53828464  1
  O  O26  1  0.60075420  0.48900104  0.16926531  1
  O  O27  1  0.84832079  0.73147664  0.93225897  1
  O  O28  1  0.48950748  0.85167905  0.29028809  1
  O  O29  1  0.08910739  0.97097017  0.68520375  1
  O  O30  1  0.73389173  0.08579233  0.03590119  1
  O  O31  1  0.34881390  0.22090185  0.41640032  1
