# generated using pymatgen
data_Li7Mn4CoO12
_symmetry_space_group_name_H-M   'P 1'
_cell_length_a   3.00501036
_cell_length_b   6.03420966
_cell_length_c   12.56209198
_cell_angle_alpha   103.54473107
_cell_angle_beta   87.99564749
_cell_angle_gamma   94.50039162
_symmetry_Int_Tables_number   1
_chemical_formula_structural   Li7Mn4CoO12
_chemical_formula_sum   'Li7 Mn4 Co1 O12'
_cell_volume   220.73618331
_cell_formula_units_Z   1
loop_
 _symmetry_equiv_pos_site_id
 _symmetry_equiv_pos_as_xyz
  1  'x, y, z'
loop_
 _atom_site_type_symbol
 _atom_site_label
 _atom_site_symmetry_multiplicity
 _atom_site_fract_x
 _atom_site_fract_y
 _atom_site_fract_z
 _atom_site_occupancy
  Li  Li0  1  0.99847062  0.49697079  0.99587178  1
  Li  Li1  1  0.50125630  0.33272932  0.16642549  1
  Li  Li2  1  0.49801981  0.65395663  0.82437951  1
  Li  Li3  1  0.00622386  0.82376133  0.67269240  1
  Li  Li4  1  0.50361724  0.01085839  0.50787052  1
  Li  Li5  1  0.99672114  0.17018421  0.33275876  1
  Li  Li6  1  0.98969034  0.34776857  0.67167413  1
  Mn  Mn7  1  0.99766653  0.00235099  0.99526204  1
  Mn  Mn8  1  0.50368666  0.49504499  0.50787032  1
  Mn  Mn9  1  0.50093554  0.83482086  0.16545652  1
  Mn  Mn10  1  0.00848953  0.66162735  0.33376264  1
  Co  Co11  1  0.49214991  0.17414017  0.82447538  1
  O  O12  1  0.47207753  0.23665117  0.98519628  1
  O  O13  1  0.96626276  0.07672507  0.15884841  1
  O  O14  1  0.97141584  0.39487018  0.83306221  1
  O  O15  1  0.49587660  0.57944426  0.65581656  1
  O  O16  1  0.02914412  0.71747143  0.49648131  1
  O  O17  1  0.46949042  0.90554050  0.32958347  1
  O  O18  1  0.52900229  0.76187979  0.00596497  1
  O  O19  1  0.03360666  0.59228462  0.17305507  1
  O  O20  1  0.02457709  0.93161973  0.83754031  1
  O  O21  1  0.50141024  0.08809573  0.68210228  1
  O  O22  1  0.97469850  0.28250886  0.50152553  1
  O  O23  1  0.53551050  0.42869507  0.34232414  1
