# generated using pymatgen
data_Li7Mn4CoO12
_symmetry_space_group_name_H-M   'P 1'
_cell_length_a   2.91399527
_cell_length_b   8.06561966
_cell_length_c   9.83552463
_cell_angle_alpha   81.73477267
_cell_angle_beta   89.99999969
_cell_angle_gamma   79.59278185
_symmetry_Int_Tables_number   1
_chemical_formula_structural   Li7Mn4CoO12
_chemical_formula_sum   'Li7 Mn4 Co1 O12'
_cell_volume   224.92143813
_cell_formula_units_Z   1
loop_
 _symmetry_equiv_pos_site_id
 _symmetry_equiv_pos_as_xyz
  1  'x, y, z'
loop_
 _atom_site_type_symbol
 _atom_site_label
 _atom_site_symmetry_multiplicity
 _atom_site_fract_x
 _atom_site_fract_y
 _atom_site_fract_z
 _atom_site_occupancy
  Li  Li0  1  0.58272422  0.83455055  0.25837224  1
  Li  Li1  1  0.74899992  0.50200017  0.74639945  1
  Li  Li2  1  0.92007409  0.15985282  0.26146307  1
  Li  Li3  1  0.25382246  0.49235507  0.25361454  1
  Li  Li4  1  0.41256203  0.17487695  0.74220213  1
  Li  Li5  1  0.08137760  0.83724380  0.74343821  1
  Li  Li6  1  0.49958671  0.00082659  0.49472381  1
  Mn  Mn7  1  -0.00009850  0.00019699  0.99934051  1
  Mn  Mn8  1  0.16512424  0.66975251  0.50033490  1
  Mn  Mn9  1  0.33350173  0.33299555  0.00218716  1
  Mn  Mn10  1  0.66685454  0.66629192  0.99834277  1
  Co  Co11  1  0.84078898  0.31842104  0.50275899  1
  O  O12  1  0.46727554  0.06544792  0.11671831  1
  O  O13  1  0.63144615  0.73710770  0.61346497  1
  O  O14  1  0.79928266  0.40143568  0.11695618  1
  O  O15  1  0.13341265  0.73317471  0.11367683  1
  O  O16  1  0.28272661  0.43454778  0.60954277  1
  O  O17  1  0.94059018  0.11881864  0.61337989  1
  O  O18  1  0.71188134  0.57623632  0.39531092  1
  O  O19  1  0.86671799  0.26656402  0.88610748  1
  O  O20  1  0.05960433  0.88079234  0.38831748  1
  O  O21  1  0.36895352  0.26209296  0.37948693  1
  O  O22  1  0.53267369  0.93465362  0.88070534  1
  O  O23  1  0.20011733  0.59976433  0.88315511  1
