# generated using pymatgen
data_Li7Mn2(CoO4)3
_symmetry_space_group_name_H-M   'P 1'
_cell_length_a   4.99421611
_cell_length_b   9.87176859
_cell_length_c   5.05132654
_cell_angle_alpha   94.67584464
_cell_angle_beta   61.13212158
_cell_angle_gamma   101.15749114
_symmetry_Int_Tables_number   1
_chemical_formula_structural   Li7Mn2(CoO4)3
_chemical_formula_sum   'Li7 Mn2 Co3 O12'
_cell_volume   213.94973241
_cell_formula_units_Z   1
loop_
 _symmetry_equiv_pos_site_id
 _symmetry_equiv_pos_as_xyz
  1  'x, y, z'
loop_
 _atom_site_type_symbol
 _atom_site_label
 _atom_site_symmetry_multiplicity
 _atom_site_fract_x
 _atom_site_fract_y
 _atom_site_fract_z
 _atom_site_occupancy
  Li  Li0  1  0.74427752  0.25319981  0.99602547  1
  Li  Li1  1  0.57518054  0.74636659  0.33240160  1
  Li  Li2  1  0.41675733  0.25339595  0.66858645  1
  Li  Li3  1  0.08973162  0.25593877  0.33659814  1
  Li  Li4  1  0.91670301  0.74379709  0.67071978  1
  Li  Li5  1  0.25727749  0.74690230  0.99556184  1
  Li  Li6  1  0.50137084  0.49995397  0.00114698  1
  Mn  Mn7  1  -0.00096136  0.99993045  0.00100988  1
  Mn  Mn8  1  0.83231672  0.49990116  0.33286594  1
  Co  Co9  1  0.66248799  0.99895541  0.66532636  1
  Co  Co10  1  0.33870837  0.00128945  0.33380554  1
  Co  Co11  1  0.16887218  0.50020583  0.66948609  1
  O  O12  1  0.02241756  0.11217591  0.67708323  1
  O  O13  1  0.90093982  0.60991294  0.99746655  1
  O  O14  1  0.67878218  0.12181873  0.34759947  1
  O  O15  1  0.36265110  0.11749490  -0.00011280  1
  O  O16  1  0.18137145  0.61008964  0.36351369  1
  O  O17  1  0.53793783  0.60934516  0.63633150  1
  O  O18  1  0.45365575  0.38882038  0.36402969  1
  O  O19  1  0.32235499  0.87897713  0.65190807  1
  O  O20  1  0.10006251  0.39194003  -0.00507968  1
  O  O21  1  0.82243800  0.39003675  0.64043477  1
  O  O22  1  0.63694970  0.88223760  0.00021510  1
  O  O23  1  0.97771686  0.88731405  0.32307634  1
