# generated using pymatgen
data_Li4MnCo2O7
_symmetry_space_group_name_H-M   'P 1'
_cell_length_a   5.07471608
_cell_length_b   5.87653759
_cell_length_c   8.92169099
_cell_angle_alpha   89.05489498
_cell_angle_beta   96.09567113
_cell_angle_gamma   72.56317311
_symmetry_Int_Tables_number   1
_chemical_formula_structural   Li4MnCo2O7
_chemical_formula_sum   'Li8 Mn2 Co4 O14'
_cell_volume   252.07175361
_cell_formula_units_Z   2
loop_
 _symmetry_equiv_pos_site_id
 _symmetry_equiv_pos_as_xyz
  1  'x, y, z'
loop_
 _atom_site_type_symbol
 _atom_site_label
 _atom_site_symmetry_multiplicity
 _atom_site_fract_x
 _atom_site_fract_y
 _atom_site_fract_z
 _atom_site_occupancy
  Li  Li0  1  0.57245927  0.35681429  0.13862161  1
  Li  Li1  1  0.28061258  0.93371679  0.57309510  1
  Li  Li2  1  0.14183661  0.21461193  0.28998652  1
  Li  Li3  1  0.85712661  0.78567101  0.71429432  1
  Li  Li4  1  0.71408303  0.07509795  0.44339719  1
  Li  Li5  1  0.43358896  0.63773849  0.85548614  1
  Li  Li6  1  0.00020777  0.49630662  0.98514179  1
  Li  Li7  1  0.85714293  0.28574758  0.71426325  1
  Mn  Mn8  1  -0.00122633  0.00201879  0.99443075  1
  Mn  Mn9  1  0.71551475  0.56945735  0.43409512  1
  Co  Co10  1  0.41773533  0.15352288  0.85195793  1
  Co  Co11  1  0.14453675  0.71380505  0.28578927  1
  Co  Co12  1  0.56982443  0.85760484  0.14280224  1
  Co  Co13  1  0.29669854  0.41794194  0.57670257  1
  O  O14  1  0.72952234  0.29704719  0.93538855  1
  O  O15  1  0.43752048  0.87420236  0.35265907  1
  O  O16  1  0.28007265  0.15566891  0.06891533  1
  O  O17  1  0.99126898  0.72937288  0.49382294  1
  O  O18  1  0.87077960  0.01485725  0.20087879  1
  O  O19  1  0.56971336  0.60654845  0.62260937  1
  O  O20  1  0.16848635  0.44873973  0.78584203  1
  O  O21  1  0.43418216  0.41579225  0.35966878  1
  O  O22  1  0.14460476  0.96500015  0.80597802  1
  O  O23  1  0.98458297  0.27424906  0.49314051  1
  O  O24  1  0.72313143  0.84196312  0.93475815  1
  O  O25  1  0.54564425  0.12273102  0.64269538  1
  O  O26  1  0.27678635  0.69719513  0.07589971  1
  O  O27  1  0.84356309  0.55657700  0.22767958  1
