# generated using pymatgen
data_Li4MnCo2O7
_symmetry_space_group_name_H-M   'P 1'
_cell_length_a   5.08169921
_cell_length_b   5.15517896
_cell_length_c   10.49779864
_cell_angle_alpha   84.73276933
_cell_angle_beta   102.73638215
_cell_angle_gamma   109.70751841
_symmetry_Int_Tables_number   1
_chemical_formula_structural   Li4MnCo2O7
_chemical_formula_sum   'Li8 Mn2 Co4 O14'
_cell_volume   252.48710050
_cell_formula_units_Z   2
loop_
 _symmetry_equiv_pos_site_id
 _symmetry_equiv_pos_as_xyz
  1  'x, y, z'
loop_
 _atom_site_type_symbol
 _atom_site_label
 _atom_site_symmetry_multiplicity
 _atom_site_fract_x
 _atom_site_fract_y
 _atom_site_fract_z
 _atom_site_occupancy
  Li  Li0  1  0.07244956  0.49621864  0.15079995  1
  Li  Li1  1  0.64285700  0.50000000  0.28571400  1
  Li  Li2  1  0.21326544  0.50378136  0.42062805  1
  Li  Li3  1  0.77990457  0.49876713  0.56737975  1
  Li  Li4  1  0.35163324  0.49930477  0.71269806  1
  Li  Li5  1  0.93408076  0.50069523  0.85873094  1
  Li  Li6  1  0.50580943  0.50123287  0.00404925  1
  Li  Li7  1  0.14285700  0.00000000  0.28571400  1
  Mn  Mn8  1  0.00370472  0.00246474  0.00486769  1
  Mn  Mn9  1  0.28200928  0.99753526  0.56656131  1
  Co  Co10  1  0.56407604  0.99276880  0.14941979  1
  Co  Co11  1  0.72163896  0.00723120  0.42200821  1
  Co  Co12  1  0.85776033  -0.00102510  0.71410085  1
  Co  Co13  1  0.42795367  0.00102510  0.85732815  1
  O  O14  1  0.75726457  0.21975797  0.00217493  1
  O  O15  1  0.30469842  0.22663189  0.12868289  1
  O  O16  1  0.86796539  0.24060949  0.29095334  1
  O  O17  1  0.45858127  0.23184585  0.44091900  1
  O  O18  1  0.04060211  0.22046033  0.57778542  1
  O  O19  1  0.58593608  0.22248365  0.71332183  1
  O  O20  1  0.16983978  0.23107769  0.85889998  1
  O  O21  1  0.41774861  0.75939051  0.28047566  1
  O  O22  1  0.98101658  0.77336811  0.44274511  1
  O  O23  1  0.52844943  0.78024203  0.56925307  1
  O  O24  1  0.11587522  0.76892231  0.71252802  1
  O  O25  1  0.69977792  0.77751635  0.85810717  1
  O  O26  1  0.24511189  0.77953967  0.99364358  1
  O  O27  1  0.82713273  0.76815415  0.13051000  1
