# generated using pymatgen
data_Li4MnCo2O7
_symmetry_space_group_name_H-M   'P 1'
_cell_length_a   5.17769520
_cell_length_b   10.32646828
_cell_length_c   5.13567010
_cell_angle_alpha   104.39855286
_cell_angle_beta   68.49502519
_cell_angle_gamma   95.23013000
_symmetry_Int_Tables_number   1
_chemical_formula_structural   Li4MnCo2O7
_chemical_formula_sum   'Li8 Mn2 Co4 O14'
_cell_volume   247.45041787
_cell_formula_units_Z   2
loop_
 _symmetry_equiv_pos_site_id
 _symmetry_equiv_pos_as_xyz
  1  'x, y, z'
loop_
 _atom_site_type_symbol
 _atom_site_label
 _atom_site_symmetry_multiplicity
 _atom_site_fract_x
 _atom_site_fract_y
 _atom_site_fract_z
 _atom_site_occupancy
  Li  Li0  1  0.50000000  0.14482763  0.07241431  1
  Li  Li1  1  0.50000000  0.28374337  0.64187169  1
  Li  Li2  1  0.50000000  0.43252985  0.21626543  1
  Li  Li3  1  0.50000000  0.57970239  0.78985069  1
  Li  Li4  1  0.50000000  0.71428600  0.35714300  1
  Li  Li5  1  0.50000000  0.84886961  0.92443431  1
  Li  Li6  1  0.50000000  0.99604115  0.49802057  1
  Li  Li7  1  0.00000000  0.71428600  0.85714300  1
  Mn  Mn8  1  1.00000000  0.99552109  0.99776054  1
  Mn  Mn9  1  0.00000000  0.43304991  0.71652546  1
  Co  Co10  1  1.00000000  0.14385564  0.57192832  1
  Co  Co11  1  0.00000000  0.28471536  0.14235768  1
  Co  Co12  1  0.00000000  0.57541711  0.28770805  1
  Co  Co13  1  1.00000000  0.85315489  0.42657695  1
  O  O14  1  0.22920040  0.14509667  0.84572336  1
  O  O15  1  0.22920040  0.28347433  0.41491169  1
  O  O16  1  0.20851610  0.42833472  0.96828402  1
  O  O17  1  0.23869661  0.55938310  0.54468402  1
  O  O18  1  0.22743102  0.71428600  0.13981393  1
  O  O19  1  0.23869661  0.86918890  0.69958692  1
  O  O20  1  0.20851610  0.00023628  0.25423430  1
  O  O21  1  0.77079960  0.14509667  0.29937431  1
  O  O22  1  0.77079960  0.28347433  0.86856264  1
  O  O23  1  0.79148390  0.42833472  0.46005170  1
  O  O24  1  0.76130339  0.55938310  0.01469808  1
  O  O25  1  0.77256898  0.71428600  0.57447207  1
  O  O26  1  0.76130339  0.86918890  0.16960098  1
  O  O27  1  0.79148390  0.00023628  0.74600198  1
