# generated using pymatgen
data_Li7Mn4CoO12
_symmetry_space_group_name_H-M   'P 1'
_cell_length_a   3.01228525
_cell_length_b   14.66743683
_cell_length_c   5.08903842
_cell_angle_alpha   87.70263643
_cell_angle_beta   91.50060783
_cell_angle_gamma   81.53752487
_symmetry_Int_Tables_number   1
_chemical_formula_structural   Li7Mn4CoO12
_chemical_formula_sum   'Li7 Mn4 Co1 O12'
_cell_volume   222.10253318
_cell_formula_units_Z   1
loop_
 _symmetry_equiv_pos_site_id
 _symmetry_equiv_pos_as_xyz
  1  'x, y, z'
loop_
 _atom_site_type_symbol
 _atom_site_label
 _atom_site_symmetry_multiplicity
 _atom_site_fract_x
 _atom_site_fract_y
 _atom_site_fract_z
 _atom_site_occupancy
  Li  Li0  1  0.83482760  0.16538288  0.33517054  1
  Li  Li1  1  0.16920057  0.33216893  0.15933875  1
  Li  Li2  1  0.47880355  0.50827572  0.00780833  1
  Li  Li3  1  0.82442520  0.66868181  0.85136012  1
  Li  Li4  1  0.18801563  0.82872083  0.65828540  1
  Li  Li5  1  0.50543875  0.99728169  0.50142132  1
  Li  Li6  1  0.33027966  0.66742664  0.32411380  1
  Mn  Mn7  1  0.02595735  0.99483865  0.00218409  1
  Mn  Mn8  1  0.97703225  0.50814319  0.49336654  1
  Mn  Mn9  1  0.33462571  0.16582181  0.83393786  1
  Mn  Mn10  1  0.64326947  0.33661928  0.67018904  1
  Co  Co11  1  0.69151577  0.82261491  0.17170833  1
  O  O12  1  0.40500579  0.08187822  0.14592732  1
  O  O13  1  0.71223831  0.25092520  0.98525655  1
  O  O14  1  0.03103947  0.41711145  0.81108566  1
  O  O15  1  0.43540976  0.57412151  0.64191623  1
  O  O16  1  0.74260369  0.75864551  0.47024297  1
  O  O17  1  0.12536582  0.91511007  0.30962634  1
  O  O18  1  0.27191445  0.25051226  0.51925165  1
  O  O19  1  0.53493882  0.42645271  0.36544661  1
  O  O20  1  0.92183245  0.57769376  0.18701286  1
  O  O21  1  0.23242106  0.75617448  0.00340138  1
  O  O22  1  0.62532414  0.91468748  0.86482480  1
  O  O23  1  0.95851474  0.08071100  0.68712351  1
