# generated using pymatgen
data_Li9Mn2Co5O16
_symmetry_space_group_name_H-M   'P 1'
_cell_length_a   5.10148485
_cell_length_b   10.06996010
_cell_length_c   5.87285538
_cell_angle_alpha   74.49427226
_cell_angle_beta   90.36779713
_cell_angle_gamma   79.28189891
_symmetry_Int_Tables_number   1
_chemical_formula_structural   Li9Mn2Co5O16
_chemical_formula_sum   'Li9 Mn2 Co5 O16'
_cell_volume   285.14375296
_cell_formula_units_Z   1
loop_
 _symmetry_equiv_pos_site_id
 _symmetry_equiv_pos_as_xyz
  1  'x, y, z'
loop_
 _atom_site_type_symbol
 _atom_site_label
 _atom_site_symmetry_multiplicity
 _atom_site_fract_x
 _atom_site_fract_y
 _atom_site_fract_z
 _atom_site_occupancy
  Li  Li0  1  0.49818704  0.00422390  0.74424842  1
  Li  Li1  1  0.25767205  0.24873499  0.38309148  1
  Li  Li2  1  0.50467968  0.00173767  0.24960361  1
  Li  Li3  1  0.24232795  0.25126501  0.86690852  1
  Li  Li4  1  0.75000000  0.75000000  0.12500000  1
  Li  Li5  1  0.75000000  0.75000000  0.62500000  1
  Li  Li6  1  0.00181296  0.49577610  0.50575158  1
  Li  Li7  1  0.99532032  0.49826233  0.00039639  1
  Li  Li8  1  0.75000000  0.25000000  0.62500000  1
  Mn  Mn9  1  -0.00276094  0.00511884  0.99649120  1
  Mn  Mn10  1  0.50276094  0.49488116  0.25350880  1
  Co  Co11  1  0.25032034  0.74760522  0.87257575  1
  Co  Co12  1  0.97777812  0.01125008  0.50040861  1
  Co  Co13  1  0.75000000  0.25000000  0.12500000  1
  Co  Co14  1  0.52222188  0.48874992  0.74959139  1
  Co  Co15  1  0.24967966  0.75239478  0.37742425  1
  O  O16  1  0.34497286  0.87644450  0.05715160  1
  O  O17  1  0.12013933  0.11338657  0.70925725  1
  O  O18  1  0.35494137  0.86975887  0.55812766  1
  O  O19  1  0.10451877  0.12266754  0.18205579  1
  O  O20  1  0.60996867  0.61637498  0.42953444  1
  O  O21  1  0.60693378  0.61846522  0.95647361  1
  O  O22  1  0.85875981  0.38399683  0.80632675  1
  O  O23  1  0.84469091  0.37160067  0.29508310  1
  O  O24  1  0.64124019  0.11600317  0.44367425  1
  O  O25  1  0.39548123  0.37733246  0.06794321  1
  O  O26  1  0.65530909  0.12839933  0.95491790  1
  O  O27  1  0.37986067  0.38661343  0.54074275  1
  O  O28  1  0.89003133  0.88362502  0.82046656  1
  O  O29  1  0.89306622  0.88153478  0.29352639  1
  O  O30  1  0.15502714  0.62355550  0.19284940  1
  O  O31  1  0.14505863  0.63024113  0.69187234  1
