# generated using pymatgen
data_Li9Mn2Co5O16
_symmetry_space_group_name_H-M   'P 1'
_cell_length_a   5.89020993
_cell_length_b   6.65323400
_cell_length_c   7.69288478
_cell_angle_alpha   89.71526050
_cell_angle_beta   100.39122340
_cell_angle_gamma   76.55890618
_symmetry_Int_Tables_number   1
_chemical_formula_structural   Li9Mn2Co5O16
_chemical_formula_sum   'Li9 Mn2 Co5 O16'
_cell_volume   288.06266170
_cell_formula_units_Z   1
loop_
 _symmetry_equiv_pos_site_id
 _symmetry_equiv_pos_as_xyz
  1  'x, y, z'
loop_
 _atom_site_type_symbol
 _atom_site_label
 _atom_site_symmetry_multiplicity
 _atom_site_fract_x
 _atom_site_fract_y
 _atom_site_fract_z
 _atom_site_occupancy
  Li  Li0  1  0.12523331  0.36623439  0.86586860  1
  Li  Li1  1  0.49626460  0.00122364  0.99758104  1
  Li  Li2  1  0.74525652  0.75748588  0.74645571  1
  Li  Li3  1  0.37501120  0.12499897  0.62500997  1
  Li  Li4  1  0.00474345  0.49250589  0.50356217  1
  Li  Li5  1  0.62476885  0.88377024  0.38414870  1
  Li  Li6  1  0.25375211  0.24876143  0.25243602  1
  Li  Li7  1  0.87500235  0.62500603  0.12501503  1
  Li  Li8  1  0.87499122  0.12500307  0.62499635  1
  Mn  Mn9  1  0.99661704  0.00158629  0.99668864  1
  Mn  Mn10  1  0.75338730  0.24837236  0.25330686  1
  Co  Co11  1  0.37501546  0.62498041  0.12500291  1
  Co  Co12  1  0.12649258  0.88011955  0.38390539  1
  Co  Co13  1  0.50765996  0.49419993  0.50270409  1
  Co  Co14  1  0.24234629  0.75582609  0.74728758  1
  Co  Co15  1  0.62349094  0.36990318  0.86610675  1
  O  O16  1  0.17695157  0.05154335  0.82584172  1
  O  O17  1  0.53780967  0.68188871  0.93889891  1
  O  O18  1  0.78511362  0.44459739  0.69093460  1
  O  O19  1  0.43195847  0.80687313  0.56034019  1
  O  O20  1  0.04412423  0.18476045  0.42270564  1
  O  O21  1  0.69164143  0.53852816  0.30599885  1
  O  O22  1  0.28709891  0.93237854  0.18369954  1
  O  O23  1  0.93057306  0.29212286  0.06340273  1
  O  O24  1  0.05838434  0.71141546  0.94399183  1
  O  O25  1  0.46289829  0.31756475  0.06630215  1
  O  O26  1  0.70585902  0.06529649  0.82727011  1
  O  O27  1  0.31801571  0.44319679  0.68965885  1
  O  O28  1  0.96484915  0.80545973  0.55904921  1
  O  O29  1  0.57306523  0.19840389  0.42414606  1
  O  O30  1  0.21220026  0.56813345  0.31112091  1
  O  O31  1  0.81942886  0.95786750  0.18656988  1
