# generated using pymatgen
data_Li9Mn2Co5O16
_symmetry_space_group_name_H-M   'P 1'
_cell_length_a   5.18026773
_cell_length_b   7.72322032
_cell_length_c   7.73671569
_cell_angle_alpha   96.03726853
_cell_angle_beta   75.65681783
_cell_angle_gamma   75.94682108
_symmetry_Int_Tables_number   1
_chemical_formula_structural   Li9Mn2Co5O16
_chemical_formula_sum   'Li9 Mn2 Co5 O16'
_cell_volume   286.37296695
_cell_formula_units_Z   1
loop_
 _symmetry_equiv_pos_site_id
 _symmetry_equiv_pos_as_xyz
  1  'x, y, z'
loop_
 _atom_site_type_symbol
 _atom_site_label
 _atom_site_symmetry_multiplicity
 _atom_site_fract_x
 _atom_site_fract_y
 _atom_site_fract_z
 _atom_site_occupancy
  Li  Li0  1  0.50000000  0.12500000  0.87500000  1
  Li  Li1  1  0.50259801  0.50705199  0.00364209  1
  Li  Li2  1  0.50663113  0.86410704  0.11881407  1
  Li  Li3  1  0.49965872  0.25488427  0.25629176  1
  Li  Li4  1  0.50000000  0.62500000  0.37500000  1
  Li  Li5  1  0.50034128  0.99511573  0.49370824  1
  Li  Li6  1  0.49336887  0.38589296  0.63118593  1
  Li  Li7  1  0.49740199  0.74294801  0.74635791  1
  Li  Li8  1  0.00000000  0.62500000  0.87500000  1
  Mn  Mn9  1  0.99358764  0.99630681  0.99746443  1
  Mn  Mn10  1  0.00641236  0.25369319  0.75253557  1
  Co  Co11  1  0.00206513  0.37615362  0.12450788  1
  Co  Co12  1  0.99178405  0.74241076  0.24467665  1
  Co  Co13  1  0.00000000  0.12500000  0.37500000  1
  Co  Co14  1  0.00821595  0.50758924  0.50532335  1
  Co  Co15  1  0.99793487  0.87384638  0.62549212  1
  O  O16  1  0.23341387  0.01207574  0.76582389  1
  O  O17  1  0.21420147  0.36506501  0.88043517  1
  O  O18  1  0.23374106  0.76867191  0.00679125  1
  O  O19  1  0.19915720  0.12687404  0.12695806  1
  O  O20  1  0.24635145  0.50158294  0.25441466  1
  O  O21  1  0.20159383  0.88464578  0.37978348  1
  O  O22  1  0.24922441  0.25302975  0.51971311  1
  O  O23  1  0.22014257  0.63594477  0.61761881  1
  O  O24  1  0.76658613  0.23792426  0.98417611  1
  O  O25  1  0.77985743  0.61405523  0.13238119  1
  O  O26  1  0.75077559  -0.00302975  0.23028689  1
  O  O27  1  0.79840617  0.36535422  0.37021652  1
  O  O28  1  0.75364855  0.74841706  0.49558534  1
  O  O29  1  0.80084280  0.12312596  0.62304194  1
  O  O30  1  0.76625894  0.48132809  0.74320875  1
  O  O31  1  0.78579853  0.88493499  0.86956483  1
