# generated using pymatgen
data_Li9Mn2Co5O16
_symmetry_space_group_name_H-M   'P 1'
_cell_length_a   5.84412224
_cell_length_b   7.73489336
_cell_length_c   7.73911570
_cell_angle_alpha   96.00534880
_cell_angle_beta   112.17453008
_cell_angle_gamma   112.43822871
_symmetry_Int_Tables_number   1
_chemical_formula_structural   Li9Mn2Co5O16
_chemical_formula_sum   'Li9 Mn2 Co5 O16'
_cell_volume   286.51856313
_cell_formula_units_Z   1
loop_
 _symmetry_equiv_pos_site_id
 _symmetry_equiv_pos_as_xyz
  1  'x, y, z'
loop_
 _atom_site_type_symbol
 _atom_site_label
 _atom_site_symmetry_multiplicity
 _atom_site_fract_x
 _atom_site_fract_y
 _atom_site_fract_z
 _atom_site_occupancy
  Li  Li0  1  0.00000000  0.12500000  0.37500000  1
  Li  Li1  1  0.00000000  0.62500000  0.87500000  1
  Li  Li2  1  0.49667438  0.24540347  0.74056409  1
  Li  Li3  1  0.50169609  0.75513647  0.25680061  1
  Li  Li4  1  0.99829013  0.37752916  0.12645445  1
  Li  Li5  1  0.00170987  0.87247084  0.62354555  1
  Li  Li6  1  0.49830391  0.49486353  0.49319939  1
  Li  Li7  1  0.50332562  0.00459653  0.00943591  1
  Li  Li8  1  0.50000000  0.12500000  0.37500000  1
  Mn  Mn9  1  0.00497141  0.00402959  0.00454964  1
  Mn  Mn10  1  0.99502859  0.24597041  0.74545036  1
  Co  Co11  1  0.99205512  0.49287945  0.48889138  1
  Co  Co12  1  0.50000000  0.62500000  0.87500000  1
  Co  Co13  1  0.00794488  0.75712055  0.26110862  1
  Co  Co14  1  0.49810898  0.37285343  0.12497883  1
  Co  Co15  1  0.50189102  0.87714657  0.62502117  1
  O  O16  1  0.76352079  0.88312999  0.11904998  1
  O  O17  1  0.78536003  0.38108469  0.63296090  1
  O  O18  1  0.26169517  0.98160360  0.50338404  1
  O  O19  1  0.24576052  0.47460826  0.98311085  1
  O  O20  1  0.77919828  0.13133775  0.87865029  1
  O  O21  1  0.75836809  0.63017987  0.37022720  1
  O  O22  1  0.24430218  0.23470072  0.22382320  1
  O  O23  1  0.27307922  0.74389144  0.74547959  1
  O  O24  1  0.23647921  0.36687001  0.63095002  1
  O  O25  1  0.21463997  0.86891531  0.11703910  1
  O  O26  1  0.72692078  0.50610856  0.00452041  1
  O  O27  1  0.75569782  0.01529928  0.52617680  1
  O  O28  1  0.24163191  0.61982013  0.37977280  1
  O  O29  1  0.22080172  0.11866225  0.87134971  1
  O  O30  1  0.75423948  0.77539174  0.76688915  1
  O  O31  1  0.73830483  0.26839640  0.24661596  1
