# generated using pymatgen
data_Li9Mn2Co5O16
_symmetry_space_group_name_H-M   'P 1'
_cell_length_a   5.12169155
_cell_length_b   7.85048890
_cell_length_c   7.65320141
_cell_angle_alpha   81.66618571
_cell_angle_beta   108.33506822
_cell_angle_gamma   95.41353267
_symmetry_Int_Tables_number   1
_chemical_formula_structural   Li9Mn2Co5O16
_chemical_formula_sum   'Li9 Mn2 Co5 O16'
_cell_volume   288.62237736
_cell_formula_units_Z   1
loop_
 _symmetry_equiv_pos_site_id
 _symmetry_equiv_pos_as_xyz
  1  'x, y, z'
loop_
 _atom_site_type_symbol
 _atom_site_label
 _atom_site_symmetry_multiplicity
 _atom_site_fract_x
 _atom_site_fract_y
 _atom_site_fract_z
 _atom_site_occupancy
  Li  Li0  1  0.49905075  0.20096087  0.93549792  1
  Li  Li1  1  0.50077334  0.43704661  0.19022230  1
  Li  Li2  1  0.50094925  0.54903913  0.81450208  1
  Li  Li3  1  0.49959661  0.81005781  0.06524667  1
  Li  Li4  1  0.50040339  0.93994219  0.68475333  1
  Li  Li5  1  0.49922666  0.31295339  0.55977770  1
  Li  Li6  1  0.50181333  0.68296823  0.43849912  1
  Li  Li7  1  0.49818667  0.06703177  0.31150088  1
  Li  Li8  1  0.00000000  0.37500000  0.87500000  1
  Mn  Mn9  1  0.00017673  0.00296886  -0.00176232  1
  Mn  Mn10  1  -0.00017673  0.74703114  0.75176232  1
  Co  Co11  1  0.99452042  0.25502298  0.23910800  1
  Co  Co12  1  0.00547958  0.49497702  0.51089200  1
  Co  Co13  1  0.00063241  0.61494515  0.12730448  1
  Co  Co14  1  0.00000000  0.87500000  0.37500000  1
  Co  Co15  1  -0.00063241  0.13505485  0.62269552  1
  O  O16  1  0.21924203  0.96020251  0.84346070  1
  O  O17  1  0.22457583  0.19729212  0.08815196  1
  O  O18  1  0.23847992  0.34765531  0.70356100  1
  O  O19  1  0.22564967  0.60936742  0.96547097  1
  O  O20  1  0.23129738  0.72265868  0.60047292  1
  O  O21  1  0.22143514  0.09640418  0.46543339  1
  O  O22  1  0.23727104  0.46465474  0.33673216  1
  O  O23  1  0.22170948  0.85081400  0.21421241  1
  O  O24  1  0.76152008  0.40234469  0.04643900  1
  O  O25  1  0.77856486  0.65359682  0.28456761  1
  O  O26  1  0.78075797  0.78979749  0.90654030  1
  O  O27  1  0.76870262  0.02734232  0.14952808  1
  O  O28  1  0.77435033  0.14063258  0.78453003  1
  O  O29  1  0.77542417  0.55270788  0.66184904  1
  O  O30  1  0.77829052  0.89918700  0.53578859  1
  O  O31  1  0.76272896  0.28534626  0.41326884  1
