# generated using pymatgen
data_Li9Mn2Co5O16
_symmetry_space_group_name_H-M   'P 1'
_cell_length_a   5.13967108
_cell_length_b   5.85388875
_cell_length_c   9.70312551
_cell_angle_alpha   89.12306797
_cell_angle_beta   79.59472171
_cell_angle_gamma   89.55500796
_symmetry_Int_Tables_number   1
_chemical_formula_structural   Li9Mn2Co5O16
_chemical_formula_sum   'Li9 Mn2 Co5 O16'
_cell_volume   287.10022384
_cell_formula_units_Z   1
loop_
 _symmetry_equiv_pos_site_id
 _symmetry_equiv_pos_as_xyz
  1  'x, y, z'
loop_
 _atom_site_type_symbol
 _atom_site_label
 _atom_site_symmetry_multiplicity
 _atom_site_fract_x
 _atom_site_fract_y
 _atom_site_fract_z
 _atom_site_occupancy
  Li  Li0  1  0.50364509  0.24869457  0.00194439  1
  Li  Li1  1  0.24831773  0.50965970  0.25206221  1
  Li  Li2  1  0.50284329  0.75360594  0.00401868  1
  Li  Li3  1  0.25168227  0.99034030  0.24793779  1
  Li  Li4  1  0.75095991  0.00013451  0.75047678  1
  Li  Li5  1  0.74904009  0.49986549  0.74952322  1
  Li  Li6  1  0.99715671  0.74639406  0.49598132  1
  Li  Li7  1  0.99635491  0.25130543  0.49805561  1
  Li  Li8  1  0.75000000  0.75000000  0.25000000  1
  Mn  Mn9  1  0.00453409  0.99865715  0.00452827  1
  Mn  Mn10  1  0.49546591  0.50134285  0.49547173  1
  Co  Co11  1  0.75000000  0.25000000  0.25000000  1
  Co  Co12  1  0.25000000  0.75000000  0.75000000  1
  Co  Co13  1  0.99443835  0.50302599  0.00925978  1
  Co  Co14  1  0.50556165  0.99697401  0.49074022  1
  Co  Co15  1  0.25000000  0.25000000  0.75000000  1
  O  O16  1  0.35206923  0.00096981  0.87639157  1
  O  O17  1  0.12608573  0.23567874  0.11483793  1
  O  O18  1  0.35418952  0.50932739  0.87072482  1
  O  O19  1  0.12498165  0.76033335  0.11514123  1
  O  O20  1  0.61189933  0.73551180  0.61429579  1
  O  O21  1  0.59730727  0.25882382  0.62342857  1
  O  O22  1  0.83394271  0.48565049  0.37654753  1
  O  O23  1  0.84242943  0.01656640  0.37708694  1
  O  O24  1  0.65757057  0.48343360  0.12291306  1
  O  O25  1  0.37501835  0.73966665  0.38485877  1
  O  O26  1  0.66605729  0.01434951  0.12345247  1
  O  O27  1  0.37391427  0.26432126  0.38516207  1
  O  O28  1  0.90269273  0.24117618  0.87657143  1
  O  O29  1  0.88810067  0.76448820  0.88570421  1
  O  O30  1  0.14581048  0.99067261  0.62927518  1
  O  O31  1  0.14793077  0.49903019  0.62360843  1
