# generated using pymatgen
data_Li9Mn2Co5O16
_symmetry_space_group_name_H-M   'P 1'
_cell_length_a   5.90662108
_cell_length_b   7.71739985
_cell_length_c   7.63790318
_cell_angle_alpha   114.48697361
_cell_angle_beta   110.82862567
_cell_angle_gamma   68.68616697
_symmetry_Int_Tables_number   1
_chemical_formula_structural   Li9Mn2Co5O16
_chemical_formula_sum   'Li9 Mn2 Co5 O16'
_cell_volume   286.42561237
_cell_formula_units_Z   1
loop_
 _symmetry_equiv_pos_site_id
 _symmetry_equiv_pos_as_xyz
  1  'x, y, z'
loop_
 _atom_site_type_symbol
 _atom_site_label
 _atom_site_symmetry_multiplicity
 _atom_site_fract_x
 _atom_site_fract_y
 _atom_site_fract_z
 _atom_site_occupancy
  Li  Li0  1  0.37480459  0.12631133  0.37743130  1
  Li  Li1  1  0.24344820  0.24813505  0.74483125  1
  Li  Li2  1  0.62600862  0.87471833  0.62374183  1
  Li  Li3  1  0.50428877  0.00099210  0.00499000  1
  Li  Li4  1  0.87225334  0.62554042  0.87486125  1
  Li  Li5  1  0.75092962  0.76040653  0.25379565  1
  Li  Li6  1  0.12807215  0.37234916  0.12335297  1
  Li  Li7  1  0.00038468  0.49138930  0.49563876  1
  Li  Li8  1  0.87291421  0.12477329  0.37460932  1
  Mn  Mn9  1  0.00342608  0.00373604  0.00429974  1
  Mn  Mn10  1  0.50056403  0.49594258  0.50004595  1
  Co  Co11  1  0.75049513  0.24686512  0.74638352  1
  Co  Co12  1  0.63707482  0.37061139  0.13176650  1
  Co  Co13  1  0.37154349  0.62379711  0.87475636  1
  Co  Co14  1  0.24101712  0.75863677  0.25428089  1
  Co  Co15  1  0.11427894  0.88142434  0.62053319  1
  O  O16  1  -0.00733942  0.23620954  0.22949805  1
  O  O17  1  0.83649496  0.37860284  0.62202401  1
  O  O18  1  0.25168432  0.98040205  0.49763772  1
  O  O19  1  0.12451212  0.11517562  0.87692860  1
  O  O20  1  0.48841321  0.72910984  0.73836971  1
  O  O21  1  0.35029591  0.88140122  0.11696175  1
  O  O22  1  0.73231218  0.48371899  0.98655482  1
  O  O23  1  0.61549567  0.61653677  0.37764615  1
  O  O24  1  0.76249237  0.01209070  0.52032524  1
  O  O25  1  0.66163968  0.12210278  0.88245719  1
  O  O26  1  0.01285034  0.76737150  0.76325706  1
  O  O27  1  0.89214800  0.87699142  0.11920388  1
  O  O28  1  0.26222513  0.51320498  0.00396001  1
  O  O29  1  0.14864482  0.62235725  0.38377551  1
  O  O30  1  0.50243988  0.27485436  0.25716106  1
  O  O31  1  0.37418804  0.38423528  0.61891576  1
