# generated using pymatgen
data_Li9Mn2Co5O16
_symmetry_space_group_name_H-M   'P 1'
_cell_length_a   6.43837318
_cell_length_b   6.47963460
_cell_length_c   7.86400568
_cell_angle_alpha   87.73590334
_cell_angle_beta   114.25243254
_cell_angle_gamma   108.36764600
_symmetry_Int_Tables_number   1
_chemical_formula_structural   Li9Mn2Co5O16
_chemical_formula_sum   'Li9 Mn2 Co5 O16'
_cell_volume   282.34260888
_cell_formula_units_Z   1
loop_
 _symmetry_equiv_pos_site_id
 _symmetry_equiv_pos_as_xyz
  1  'x, y, z'
loop_
 _atom_site_type_symbol
 _atom_site_label
 _atom_site_symmetry_multiplicity
 _atom_site_fract_x
 _atom_site_fract_y
 _atom_site_fract_z
 _atom_site_occupancy
  Li  Li0  1  0.87244074  0.06512138  0.31621949  1
  Li  Li1  1  0.88252209  0.55385289  0.81476761  1
  Li  Li2  1  0.13168208  0.94334143  0.69248794  1
  Li  Li3  1  0.11976553  0.43627628  0.17509172  1
  Li  Li4  1  0.36831792  0.80665857  0.05751206  1
  Li  Li5  1  0.38023447  0.31372372  0.57490828  1
  Li  Li6  1  0.62755926  0.68487862  0.43378051  1
  Li  Li7  1  0.61747791  0.19614711  0.93523239  1
  Li  Li8  1  0.25000000  0.37500000  0.87500000  1
  Mn  Mn9  1  0.00378097  0.00465247  0.99689319  1
  Mn  Mn10  1  0.49621903  0.74534753  0.75310681  1
  Co  Co11  1  0.00456807  0.50117408  0.50700551  1
  Co  Co12  1  0.25000000  0.87500000  0.37500000  1
  Co  Co13  1  0.49543193  0.24882592  0.24299449  1
  Co  Co14  1  0.74088281  0.61519734  0.11716338  1
  Co  Co15  1  0.75911719  0.13480266  0.63283662  1
  O  O16  1  0.68565465  0.88420502  0.01494683  1
  O  O17  1  0.70339887  0.39675505  0.53132492  1
  O  O18  1  0.96052711  0.77316598  0.40814940  1
  O  O19  1  0.93901863  0.26332806  0.91240735  1
  O  O20  1  0.20545488  0.66205611  0.77863457  1
  O  O21  1  0.17968510  0.13880585  0.25760948  1
  O  O22  1  0.46391130  0.52384298  0.16915595  1
  O  O23  1  0.45460711  0.02423228  0.65565625  1
  O  O24  1  0.03608870  0.22615702  0.58084305  1
  O  O25  1  0.04539289  0.72576872  0.09434375  1
  O  O26  1  0.29454512  0.08794389  0.97136543  1
  O  O27  1  0.32031490  0.61119515  0.49239052  1
  O  O28  1  0.53947289  0.97683502  0.34185160  1
  O  O29  1  0.56098137  0.48667294  0.83759265  1
  O  O30  1  0.81434535  0.86579598  0.73505417  1
  O  O31  1  0.79660113  0.35324595  0.21867608  1
