# generated using pymatgen
data_Li9Mn2Co5O16
_symmetry_space_group_name_H-M   'P 1'
_cell_length_a   5.17104103
_cell_length_b   5.90356862
_cell_length_c   10.03357217
_cell_angle_alpha   91.72533774
_cell_angle_beta   79.27114307
_cell_angle_gamma   108.35407909
_symmetry_Int_Tables_number   1
_chemical_formula_structural   Li9Mn2Co5O16
_chemical_formula_sum   'Li9 Mn2 Co5 O16'
_cell_volume   285.50336086
_cell_formula_units_Z   1
loop_
 _symmetry_equiv_pos_site_id
 _symmetry_equiv_pos_as_xyz
  1  'x, y, z'
loop_
 _atom_site_type_symbol
 _atom_site_label
 _atom_site_symmetry_multiplicity
 _atom_site_fract_x
 _atom_site_fract_y
 _atom_site_fract_z
 _atom_site_occupancy
  Li  Li0  1  0.49946942  0.12460432  0.12435180  1
  Li  Li1  1  0.49738935  0.87914900  0.37446175  1
  Li  Li2  1  0.49131015  0.61846381  0.63176727  1
  Li  Li3  1  0.49583239  0.37983097  0.86883057  1
  Li  Li4  1  0.50261065  0.62085100  0.12553825  1
  Li  Li5  1  0.50053058  0.37539568  0.37564820  1
  Li  Li6  1  0.50416761  0.12016903  0.63116943  1
  Li  Li7  1  0.50868985  0.88153619  0.86823273  1
  Li  Li8  1  0.00000000  0.25000000  0.75000000  1
  Mn  Mn9  1  0.99563362  0.00204911  0.99764466  1
  Mn  Mn10  1  0.00436638  0.49795089  0.50235534  1
  Co  Co11  1  0.00000000  0.75000000  0.25000000  1
  Co  Co12  1  0.00816890  0.49695073  0.98849372  1
  Co  Co13  1  0.00000000  0.25000000  0.25000000  1
  Co  Co14  1  0.99183110  0.00304927  0.51150628  1
  Co  Co15  1  0.00000000  0.75000000  0.75000000  1
  O  O16  1  0.23175106  0.29779592  0.05950508  1
  O  O17  1  0.21696270  0.04439478  0.31635709  1
  O  O18  1  0.22856546  0.79812391  0.56500519  1
  O  O19  1  0.24036652  0.56183828  0.82403079  1
  O  O20  1  0.20918899  0.82194238  0.06905226  1
  O  O21  1  0.23445421  0.54321147  0.31906817  1
  O  O22  1  0.22842925  0.32600008  0.55464794  1
  O  O23  1  0.22190757  0.03562526  0.81876204  1
  O  O24  1  0.76554579  0.95678853  0.18093183  1
  O  O25  1  0.79081101  0.67805762  0.43094774  1
  O  O26  1  0.77809243  0.46437474  0.68123796  1
  O  O27  1  0.77157075  0.17399992  0.94535206  1
  O  O28  1  0.78303730  0.45560522  0.18364291  1
  O  O29  1  0.76824894  0.20220408  0.44049492  1
  O  O30  1  0.75963348  0.93816172  0.67596921  1
  O  O31  1  0.77143454  0.70187609  0.93499481  1
