# generated using pymatgen
data_Li9Mn2Co5O16
_symmetry_space_group_name_H-M   'P 1'
_cell_length_a   5.17176658
_cell_length_b   7.74923694
_cell_length_c   7.74923672
_cell_angle_alpha   97.26416201
_cell_angle_beta   76.74485085
_cell_angle_gamma   76.74484333
_symmetry_Int_Tables_number   1
_chemical_formula_structural   Li9Mn2Co5O16
_chemical_formula_sum   'Li9 Mn2 Co5 O16'
_cell_volume   288.94028738
_cell_formula_units_Z   1
loop_
 _symmetry_equiv_pos_site_id
 _symmetry_equiv_pos_as_xyz
  1  'x, y, z'
loop_
 _atom_site_type_symbol
 _atom_site_label
 _atom_site_symmetry_multiplicity
 _atom_site_fract_x
 _atom_site_fract_y
 _atom_site_fract_z
 _atom_site_occupancy
  Li  Li0  1  0.50000000  0.12483548  0.87516452  1
  Li  Li1  1  0.50262454  0.50504512  0.00343889  1
  Li  Li2  1  0.50000000  0.87256800  0.12743200  1
  Li  Li3  1  0.49106831  0.25979451  0.25980030  1
  Li  Li4  1  0.50000000  0.62320396  0.37679604  1
  Li  Li5  1  0.49737546  0.99656111  0.49495488  1
  Li  Li6  1  0.50000000  0.37954839  0.62045161  1
  Li  Li7  1  0.50893169  0.74019970  0.74020549  1
  Li  Li8  1  0.00000000  0.50035046  0.49964954  1
  Mn  Mn9  1  1.00000000  0.99971039  0.00028961  1
  Mn  Mn10  1  0.00000000  0.25201143  0.74798857  1
  Co  Co11  1  -0.00064607  0.37785407  0.13423027  1
  Co  Co12  1  1.00000000  0.74393407  0.25606593  1
  Co  Co13  1  0.00554161  0.12785254  0.37658754  1
  Co  Co14  1  0.00064607  0.86576973  0.62214593  1
  Co  Co15  1  0.99445839  0.62341246  0.87214746  1
  O  O16  1  0.22146827  0.01160586  0.76281281  1
  O  O17  1  0.21932648  0.36954563  0.87491198  1
  O  O18  1  0.22401537  0.76466830  0.00187431  1
  O  O19  1  0.22756939  0.11952011  0.11963750  1
  O  O20  1  0.23645480  0.50345417  0.23999575  1
  O  O21  1  0.22903617  0.88266222  0.37554306  1
  O  O22  1  0.23088452  0.24399727  0.51445913  1
  O  O23  1  0.23075130  0.64007546  0.63894591  1
  O  O24  1  0.77853173  0.23718719  0.98839414  1
  O  O25  1  0.77096383  0.62445694  0.11733778  1
  O  O26  1  0.77598463  0.99812569  0.23533170  1
  O  O27  1  0.76924870  0.36105409  0.35992454  1
  O  O28  1  0.76354520  0.76000425  0.49654583  1
  O  O29  1  0.78067352  0.12508802  0.63045437  1
  O  O30  1  0.76911548  0.48554087  0.75600273  1
  O  O31  1  0.77243061  0.88036250  0.88047989  1
