# generated using pymatgen
data_Li9Mn2Co5O16
_symmetry_space_group_name_H-M   'P 1'
_cell_length_a   5.17678211
_cell_length_b   7.74910071
_cell_length_c   7.74910064
_cell_angle_alpha   95.66342466
_cell_angle_beta   75.53468188
_cell_angle_gamma   75.53468463
_symmetry_Int_Tables_number   1
_chemical_formula_structural   Li9Mn2Co5O16
_chemical_formula_sum   'Li9 Mn2 Co5 O16'
_cell_volume   287.12812524
_cell_formula_units_Z   1
loop_
 _symmetry_equiv_pos_site_id
 _symmetry_equiv_pos_as_xyz
  1  'x, y, z'
loop_
 _atom_site_type_symbol
 _atom_site_label
 _atom_site_symmetry_multiplicity
 _atom_site_fract_x
 _atom_site_fract_y
 _atom_site_fract_z
 _atom_site_occupancy
  Li  Li0  1  0.01547585  0.11322840  0.36702168  1
  Li  Li1  1  0.98452415  0.63297832  0.88677160  1
  Li  Li2  1  0.50234133  0.99446245  0.49131141  1
  Li  Li3  1  0.49765867  0.50868859  0.00553755  1
  Li  Li4  1  0.99958589  0.87619249  0.62415592  1
  Li  Li5  1  0.00041411  0.37584408  0.12380751  1
  Li  Li6  1  0.50424240  0.75574240  0.75845161  1
  Li  Li7  1  0.49575760  0.24154839  0.24425760  1
  Li  Li8  1  0.50000000  0.87431614  0.12568386  1
  Mn  Mn9  1  1.00000000  0.99869155  0.00130845  1
  Mn  Mn10  1  0.00000000  0.50156612  0.49843388  1
  Co  Co11  1  0.50000000  0.37439022  0.62560978  1
  Co  Co12  1  0.00000000  0.75132525  0.24867475  1
  Co  Co13  1  1.00000000  0.24842429  0.75157571  1
  Co  Co14  1  0.50000000  0.62837867  0.37162133  1
  Co  Co15  1  0.50000000  0.12364879  0.87635121  1
  O  O16  1  0.77671309  0.00043694  0.24083893  1
  O  O17  1  0.77330108  0.49749536  0.74003659  1
  O  O18  1  0.25133581  0.84988649  0.36644014  1
  O  O19  1  0.26836949  0.35784979  0.85461589  1
  O  O20  1  0.76939035  0.73961633  0.50259109  1
  O  O21  1  0.77184769  0.24104844  0.99624898  1
  O  O22  1  0.25532830  0.59980602  0.60033187  1
  O  O23  1  0.24616507  0.11331760  0.09777963  1
  O  O24  1  0.22669892  0.25996341  0.50250464  1
  O  O25  1  0.22328691  0.75916107  -0.00043694  1
  O  O26  1  0.73163051  0.14538411  0.64215021  1
  O  O27  1  0.74866419  0.63355986  0.15011351  1
  O  O28  1  0.22815231  0.00375102  0.75895156  1
  O  O29  1  0.23060965  0.49740891  0.26038367  1
  O  O30  1  0.75383493  0.90222037  0.88668240  1
  O  O31  1  0.74467170  0.39966813  0.40019398  1
