# generated using pymatgen
data_Li9Mn2Co5O16
_symmetry_space_group_name_H-M   'P 1'
_cell_length_a   5.10326024
_cell_length_b   5.88930687
_cell_length_c   9.71935366
_cell_angle_alpha   88.48443949
_cell_angle_beta   78.88794115
_cell_angle_gamma   89.40775769
_symmetry_Int_Tables_number   1
_chemical_formula_structural   Li9Mn2Co5O16
_chemical_formula_sum   'Li9 Mn2 Co5 O16'
_cell_volume   286.53108700
_cell_formula_units_Z   1
loop_
 _symmetry_equiv_pos_site_id
 _symmetry_equiv_pos_as_xyz
  1  'x, y, z'
loop_
 _atom_site_type_symbol
 _atom_site_label
 _atom_site_symmetry_multiplicity
 _atom_site_fract_x
 _atom_site_fract_y
 _atom_site_fract_z
 _atom_site_occupancy
  Li  Li0  1  0.49218845  0.26078220  0.00191912  1
  Li  Li1  1  0.24473025  0.49879113  0.24540841  1
  Li  Li2  1  0.50781155  0.73921780  0.99808088  1
  Li  Li3  1  0.24724448  0.99214873  0.24388968  1
  Li  Li4  1  0.75275552  0.00785127  0.75611032  1
  Li  Li5  1  0.75526975  0.50120887  0.75459159  1
  Li  Li6  1  0.00042619  0.75039162  0.49824378  1
  Li  Li7  1  -0.00042619  0.24960838  0.50175622  1
  Li  Li8  1  0.00000000  0.50000000  -0.00000000  1
  Mn  Mn9  1  0.00000000  0.00000000  -0.00000000  1
  Mn  Mn10  1  0.50000000  0.50000000  0.50000000  1
  Co  Co11  1  0.75186956  0.25461841  0.24191436  1
  Co  Co12  1  0.24813044  0.74538159  0.75808564  1
  Co  Co13  1  0.75121731  0.74191611  0.24480712  1
  Co  Co14  1  0.50000000  0.00000000  0.50000000  1
  Co  Co15  1  0.24878269  0.25808389  0.75519288  1
  O  O16  1  0.35116531  0.00047881  0.87978914  1
  O  O17  1  0.10960771  0.22776999  0.12063744  1
  O  O18  1  0.37749698  0.51271302  0.86326408  1
  O  O19  1  0.09390645  0.76226021  0.12647627  1
  O  O20  1  0.61126408  0.74738121  0.60755254  1
  O  O21  1  0.60673274  0.27042200  0.62592606  1
  O  O22  1  0.84965733  0.49420408  0.37694615  1
  O  O23  1  0.83760210  0.00569646  0.37438772  1
  O  O24  1  0.62250302  0.48728698  0.13673592  1
  O  O25  1  0.39326726  0.72957800  0.37407394  1
  O  O26  1  0.64883469  -0.00047881  0.12021086  1
  O  O27  1  0.38873592  0.25261879  0.39244746  1
  O  O28  1  0.90609355  0.23773979  0.87352373  1
  O  O29  1  0.89039229  0.77223001  0.87936256  1
  O  O30  1  0.16239790  0.99430354  0.62561228  1
  O  O31  1  0.15034267  0.50579592  0.62305385  1
