# generated using pymatgen
data_Li9Mn2Co5O16
_symmetry_space_group_name_H-M   'P 1'
_cell_length_a   5.81636861
_cell_length_b   7.75538580
_cell_length_c   6.56590094
_cell_angle_alpha   89.15484030
_cell_angle_beta   77.00243450
_cell_angle_gamma   79.82247825
_symmetry_Int_Tables_number   1
_chemical_formula_structural   Li9Mn2Co5O16
_chemical_formula_sum   'Li9 Mn2 Co5 O16'
_cell_volume   283.95034142
_cell_formula_units_Z   1
loop_
 _symmetry_equiv_pos_site_id
 _symmetry_equiv_pos_as_xyz
  1  'x, y, z'
loop_
 _atom_site_type_symbol
 _atom_site_label
 _atom_site_symmetry_multiplicity
 _atom_site_fract_x
 _atom_site_fract_y
 _atom_site_fract_z
 _atom_site_occupancy
  Li  Li0  1  0.86984676  0.38202647  0.13406100  1
  Li  Li1  1  0.37890865  0.87330271  0.61939675  1
  Li  Li2  1  0.63280234  0.61337171  0.86210543  1
  Li  Li3  1  0.12505560  0.12933224  0.37935048  1
  Li  Li4  1  0.36719766  0.38662829  0.13789457  1
  Li  Li5  1  0.87494440  0.87066776  0.62064952  1
  Li  Li6  1  0.13015324  0.61797353  0.86593900  1
  Li  Li7  1  0.62109135  0.12669729  0.38060325  1
  Li  Li8  1  0.50000000  0.50000000  0.50000000  1
  Mn  Mn9  1  -0.00000000  0.00000000  -0.00000000  1
  Mn  Mn10  1  0.50000000  0.00000000  -0.00000000  1
  Co  Co11  1  0.75004629  0.26096239  0.73143108  1
  Co  Co12  1  0.24995371  0.73903761  0.26856892  1
  Co  Co13  1  -0.00000000  0.50000000  0.50000000  1
  Co  Co14  1  0.25564855  0.26357365  0.74049835  1
  Co  Co15  1  0.74435145  0.73642635  0.25950165  1
  O  O16  1  0.19434793  0.16317774  0.05727874  1
  O  O17  1  0.70913370  0.67858829  0.55141936  1
  O  O18  1  0.94511525  0.43819238  0.79470742  1
  O  O19  1  0.44661469  0.93539970  0.29066928  1
  O  O20  1  0.69676486  0.16799237  0.04699223  1
  O  O21  1  0.18227345  0.68325946  0.54577171  1
  O  O22  1  0.43386777  0.42116923  0.81976069  1
  O  O23  1  0.93957795  0.92922978  0.28768041  1
  O  O24  1  0.56613223  0.57883077  0.18023931  1
  O  O25  1  0.06042205  0.07077022  0.71231959  1
  O  O26  1  0.30323514  0.83200763  0.95300777  1
  O  O27  1  0.81772655  0.31674054  0.45422829  1
  O  O28  1  0.05488475  0.56180762  0.20529258  1
  O  O29  1  0.55338531  0.06460030  0.70933072  1
  O  O30  1  0.80565207  0.83682226  0.94272126  1
  O  O31  1  0.29086630  0.32141171  0.44858064  1
