# generated using pymatgen
data_Li9Mn2Co5O16
_symmetry_space_group_name_H-M   'P 1'
_cell_length_a   5.13834988
_cell_length_b   10.08968629
_cell_length_c   5.88896047
_cell_angle_alpha   89.83852721
_cell_angle_beta   106.42649793
_cell_angle_gamma   80.08847785
_symmetry_Int_Tables_number   1
_chemical_formula_structural   Li9Mn2Co5O16
_chemical_formula_sum   'Li9 Mn2 Co5 O16'
_cell_volume   288.04800443
_cell_formula_units_Z   1
loop_
 _symmetry_equiv_pos_site_id
 _symmetry_equiv_pos_as_xyz
  1  'x, y, z'
loop_
 _atom_site_type_symbol
 _atom_site_label
 _atom_site_symmetry_multiplicity
 _atom_site_fract_x
 _atom_site_fract_y
 _atom_site_fract_z
 _atom_site_occupancy
  Li  Li0  1  0.50226501  0.12318965  0.12392778  1
  Li  Li1  1  0.50069361  0.12591922  0.62591616  1
  Li  Li2  1  0.49593450  0.37545339  0.37340086  1
  Li  Li3  1  0.49952623  0.37596327  0.87420787  1
  Li  Li4  1  0.49794855  0.63008899  0.62551645  1
  Li  Li5  1  0.49791769  0.62944116  0.12921712  1
  Li  Li6  1  0.50465158  0.87239481  0.88173201  1
  Li  Li7  1  0.50158902  0.86837248  0.36737195  1
  Li  Li8  1  0.99894197  0.74953809  0.24846795  1
  Mn  Mn9  1  0.99534415  0.99839298  0.00047241  1
  Mn  Mn10  1  0.00185043  0.50271021  0.00659796  1
  Co  Co11  1  0.00709603  0.98735149  0.49414342  1
  Co  Co12  1  0.99791135  0.24916065  0.25194809  1
  Co  Co13  1  0.00061779  0.25065892  0.74561160  1
  Co  Co14  1  0.99899920  0.50910452  0.49532930  1
  Co  Co15  1  0.99899486  0.74981990  0.75740346  1
  O  O16  1  0.21531994  0.06843985  0.81259412  1
  O  O17  1  0.22657832  0.05930826  0.28974315  1
  O  O18  1  0.22311030  0.31772423  0.06397306  1
  O  O19  1  0.22965263  0.31695943  0.55781370  1
  O  O20  1  0.23102513  0.55527004  0.29511737  1
  O  O21  1  0.22846017  0.56035681  0.82152109  1
  O  O22  1  0.23473069  0.82067446  0.56933612  1
  O  O23  1  0.22560540  0.82337755  0.04293006  1
  O  O24  1  0.77497205  0.18715136  0.43346449  1
  O  O25  1  0.76997336  0.17966243  0.94084257  1
  O  O26  1  0.78150907  0.43260102  0.70973826  1
  O  O27  1  0.77572161  0.43998765  0.18400503  1
  O  O28  1  0.77184556  0.67516845  0.93587628  1
  O  O29  1  0.77107992  0.68081529  0.45841506  1
  O  O30  1  0.77097615  0.94430730  0.17977337  1
  O  O31  1  0.76915770  0.94063616  0.70359189  1
