# generated using pymatgen
data_Li9Mn2Co5O16
_symmetry_space_group_name_H-M   'P 1'
_cell_length_a   5.11595792
_cell_length_b   7.73466374
_cell_length_c   7.72323838
_cell_angle_alpha   97.13506638
_cell_angle_beta   108.45209181
_cell_angle_gamma   83.47507826
_symmetry_Int_Tables_number   1
_chemical_formula_structural   Li9Mn2Co5O16
_chemical_formula_sum   'Li9 Mn2 Co5 O16'
_cell_volume   286.75527116
_cell_formula_units_Z   1
loop_
 _symmetry_equiv_pos_site_id
 _symmetry_equiv_pos_as_xyz
  1  'x, y, z'
loop_
 _atom_site_type_symbol
 _atom_site_label
 _atom_site_symmetry_multiplicity
 _atom_site_fract_x
 _atom_site_fract_y
 _atom_site_fract_z
 _atom_site_occupancy
  Li  Li0  1  0.51132544  0.18649234  0.07051523  1
  Li  Li1  1  0.50062114  0.30902259  0.43061815  1
  Li  Li2  1  0.50772880  0.57239531  0.19529986  1
  Li  Li3  1  0.49227120  0.67760469  0.55470014  1
  Li  Li4  1  0.49937886  0.94097741  0.31938185  1
  Li  Li5  1  0.48867456  0.06350766  0.67948477  1
  Li  Li6  1  0.48731236  0.43644978  0.80582599  1
  Li  Li7  1  0.51268764  0.81355022  0.94417401  1
  Li  Li8  1  0.00000000  0.12500000  0.37500000  1
  Mn  Mn9  1  0.01345185  0.00140572  0.00704885  1
  Mn  Mn10  1  0.98654815  0.24859428  0.74295115  1
  Co  Co11  1  -0.00157755  0.37176947  0.13426363  1
  Co  Co12  1  0.99526959  0.49604208  0.49786935  1
  Co  Co13  1  0.00000000  0.62500000  0.87500000  1
  Co  Co14  1  0.00473041  0.75395792  0.25213065  1
  Co  Co15  1  0.00157755  0.87823053  0.61573637  1
  O  O16  1  0.22180370  0.04256534  0.84148814  1
  O  O17  1  0.23631736  0.15026883  0.19984181  1
  O  O18  1  0.20433474  0.40597773  0.95168459  1
  O  O19  1  0.23298038  0.53263255  0.33607324  1
  O  O20  1  0.24529557  0.79836242  0.09500072  1
  O  O21  1  0.23681056  0.89565677  0.47858008  1
  O  O22  1  0.21373431  0.28635578  0.59869606  1
  O  O23  1  0.21502748  0.64947035  0.71810434  1
  O  O24  1  0.76318944  0.35434323  0.27141992  1
  O  O25  1  0.75470443  0.45163758  0.65499928  1
  O  O26  1  0.76701962  0.71736745  0.41392676  1
  O  O27  1  0.79566526  0.84402227  0.79831541  1
  O  O28  1  0.76368264  0.09973117  0.55015819  1
  O  O29  1  0.77819630  0.20743466  0.90851186  1
  O  O30  1  0.78497252  0.60052965  0.03189566  1
  O  O31  1  0.78626569  0.96364422  0.15130394  1
