# generated using pymatgen
data_Li9Mn2Co5O16
_symmetry_space_group_name_H-M   'P 1'
_cell_length_a   5.13399322
_cell_length_b   10.06291307
_cell_length_c   5.90752885
_cell_angle_alpha   89.86310829
_cell_angle_beta   106.38595774
_cell_angle_gamma   80.07491607
_symmetry_Int_Tables_number   1
_chemical_formula_structural   Li9Mn2Co5O16
_chemical_formula_sum   'Li9 Mn2 Co5 O16'
_cell_volume   288.00131931
_cell_formula_units_Z   1
loop_
 _symmetry_equiv_pos_site_id
 _symmetry_equiv_pos_as_xyz
  1  'x, y, z'
loop_
 _atom_site_type_symbol
 _atom_site_label
 _atom_site_symmetry_multiplicity
 _atom_site_fract_x
 _atom_site_fract_y
 _atom_site_fract_z
 _atom_site_occupancy
  Li  Li0  1  0.50116734  0.12777173  0.12519545  1
  Li  Li1  1  0.50437603  0.12755934  0.62915174  1
  Li  Li2  1  0.49219410  0.37836991  0.38118797  1
  Li  Li3  1  0.49717953  0.37691984  0.86956415  1
  Li  Li4  1  0.50780590  0.62163009  0.61881203  1
  Li  Li5  1  0.50282047  0.62308016  0.13043585  1
  Li  Li6  1  0.49883266  0.87222827  0.87480455  1
  Li  Li7  1  0.49562397  0.87244066  0.37084826  1
  Li  Li8  1  0.00000000  0.50000000  0.50000000  1
  Mn  Mn9  1  0.00000000  -0.00000000  -0.00000000  1
  Mn  Mn10  1  0.00000000  0.50000000  -0.00000000  1
  Co  Co11  1  0.00000000  -0.00000000  0.50000000  1
  Co  Co12  1  0.99604936  0.25640156  0.25668951  1
  Co  Co13  1  0.00557722  0.25540605  0.74614960  1
  Co  Co14  1  0.00395064  0.74359844  0.74331049  1
  Co  Co15  1  0.99442278  0.74459395  0.25385040  1
  O  O16  1  0.22454078  0.05972004  0.82001034  1
  O  O17  1  0.22146103  0.06493018  0.29068225  1
  O  O18  1  0.23167294  0.32260790  0.05936231  1
  O  O19  1  0.23448939  0.30241570  0.56667285  1
  O  O20  1  0.22662627  0.56366565  0.28703201  1
  O  O21  1  0.22010748  0.56964538  0.82131056  1
  O  O22  1  0.23088131  0.81997083  0.55538979  1
  O  O23  1  0.21978784  0.82175869  0.05840677  1
  O  O24  1  0.76911869  0.18002917  0.44461021  1
  O  O25  1  0.78021216  0.17824131  0.94159323  1
  O  O26  1  0.77337373  0.43633435  0.71296799  1
  O  O27  1  0.77989252  0.43035462  0.17868944  1
  O  O28  1  0.76832706  0.67739210  0.94063769  1
  O  O29  1  0.76551061  0.69758430  0.43332715  1
  O  O30  1  0.77545922  0.94027996  0.17998966  1
  O  O31  1  0.77853897  0.93506982  0.70931775  1
