# generated using pymatgen
data_Li9Mn2Co5O16
_symmetry_space_group_name_H-M   'P 1'
_cell_length_a   5.10778183
_cell_length_b   10.07709362
_cell_length_c   5.90009923
_cell_angle_alpha   89.04136338
_cell_angle_beta   105.91057595
_cell_angle_gamma   80.38836890
_symmetry_Int_Tables_number   1
_chemical_formula_structural   Li9Mn2Co5O16
_chemical_formula_sum   'Li9 Mn2 Co5 O16'
_cell_volume   287.32738607
_cell_formula_units_Z   1
loop_
 _symmetry_equiv_pos_site_id
 _symmetry_equiv_pos_as_xyz
  1  'x, y, z'
loop_
 _atom_site_type_symbol
 _atom_site_label
 _atom_site_symmetry_multiplicity
 _atom_site_fract_x
 _atom_site_fract_y
 _atom_site_fract_z
 _atom_site_occupancy
  Li  Li0  1  0.50294923  0.12186404  0.12928913  1
  Li  Li1  1  0.50663887  0.11960827  0.61908487  1
  Li  Li2  1  0.49698493  0.37444122  0.37419611  1
  Li  Li3  1  0.49472396  0.37051363  0.86952829  1
  Li  Li4  1  0.50301507  0.62555878  0.62580389  1
  Li  Li5  1  0.50527604  0.62948637  0.13047171  1
  Li  Li6  1  0.49705077  0.87813596  0.87071087  1
  Li  Li7  1  0.49336113  0.88039173  0.38091513  1
  Li  Li8  1  0.00000000  0.00000000  0.50000000  1
  Mn  Mn9  1  0.00000000  0.00000000  0.00000000  1
  Mn  Mn10  1  0.00000000  0.50000000  0.50000000  1
  Co  Co11  1  0.99462289  0.24264060  0.25554423  1
  Co  Co12  1  -0.00063579  0.24478075  0.74196175  1
  Co  Co13  1  0.00000000  0.50000000  0.00000000  1
  Co  Co14  1  0.00537711  0.75735940  0.74445577  1
  Co  Co15  1  0.00063579  0.75521925  0.25803825  1
  O  O16  1  0.22001688  0.07136858  0.81994467  1
  O  O17  1  0.23118762  0.06187075  0.28564777  1
  O  O18  1  0.21056438  0.32281060  0.05861200  1
  O  O19  1  0.22962573  0.32030244  0.55214216  1
  O  O20  1  0.22692264  0.56874074  0.32608886  1
  O  O21  1  0.22108545  0.55335994  0.79883239  1
  O  O22  1  0.23803572  0.80472428  0.57286287  1
  O  O23  1  0.23526705  0.82179853  0.05786502  1
  O  O24  1  0.76196428  0.19527572  0.42713713  1
  O  O25  1  0.76473295  0.17820147  0.94213498  1
  O  O26  1  0.77307736  0.43125926  0.67391114  1
  O  O27  1  0.77891455  0.44664006  0.20116761  1
  O  O28  1  0.78943562  0.67718940  0.94138800  1
  O  O29  1  0.77037427  0.67969756  0.44785784  1
  O  O30  1  0.77998312  0.92863142  0.18005533  1
  O  O31  1  0.76881238  0.93812925  0.71435223  1
