# generated using pymatgen
data_Li9Mn2Co5O16
_symmetry_space_group_name_H-M   'P 1'
_cell_length_a   2.90687461
_cell_length_b   10.22707111
_cell_length_c   10.14779171
_cell_angle_alpha   71.06956908
_cell_angle_beta   89.22470203
_cell_angle_gamma   90.66000756
_symmetry_Int_Tables_number   1
_chemical_formula_structural   Li9Mn2Co5O16
_chemical_formula_sum   'Li9 Mn2 Co5 O16'
_cell_volume   285.29830696
_cell_formula_units_Z   1
loop_
 _symmetry_equiv_pos_site_id
 _symmetry_equiv_pos_as_xyz
  1  'x, y, z'
loop_
 _atom_site_type_symbol
 _atom_site_label
 _atom_site_symmetry_multiplicity
 _atom_site_fract_x
 _atom_site_fract_y
 _atom_site_fract_z
 _atom_site_occupancy
  Li  Li0  1  0.99882411  0.25145076  0.74696611  1
  Li  Li1  1  0.49388470  0.75527994  0.49178837  1
  Li  Li2  1  0.99653809  0.24203711  0.24315744  1
  Li  Li3  1  0.50239440  0.24984589  0.50061128  1
  Li  Li4  1  0.00346191  0.75796289  0.25684256  1
  Li  Li5  1  0.50611530  0.24472006  0.00821163  1
  Li  Li6  1  0.49760560  0.75015411  0.99938872  1
  Li  Li7  1  0.00117589  0.74854924  0.75303389  1
  Li  Li8  1  0.50000000  -0.00000000  0.25000000  1
  Mn  Mn9  1  -0.00009075  0.00237156  0.00389715  1
  Mn  Mn10  1  0.00009075  0.99762844  0.49610285  1
  Co  Co11  1  0.50000000  0.50000000  0.75000000  1
  Co  Co12  1  0.50000000  0.50000000  0.25000000  1
  Co  Co13  1  0.99714402  0.50001666  0.50009416  1
  Co  Co14  1  0.00285598  0.49998334  -0.00009416  1
  Co  Co15  1  0.50000000  -0.00000000  0.75000000  1
  O  O16  1  0.50481656  0.10613204  0.87812877  1
  O  O17  1  0.97882547  0.61420671  0.63135110  1
  O  O18  1  0.50549490  0.11135167  0.39287848  1
  O  O19  1  0.00743954  0.10563763  0.63513920  1
  O  O20  1  0.48647776  0.61610809  0.37941817  1
  O  O21  1  0.00047590  0.11666254  0.10919979  1
  O  O22  1  0.98622331  0.61569333  0.12940966  1
  O  O23  1  0.49079591  0.61793554  0.88024467  1
  O  O24  1  0.50920409  0.38206446  0.61975533  1
  O  O25  1  -0.00047590  0.88333746  0.39080021  1
  O  O26  1  0.51352224  0.38389191  0.12058183  1
  O  O27  1  0.01377669  0.38430667  0.37059034  1
  O  O28  1  0.49450510  0.88864833  0.10712152  1
  O  O29  1  0.02117453  0.38579329  0.86864890  1
  O  O30  1  -0.00743954  0.89436237  0.86486080  1
  O  O31  1  0.49518344  0.89386796  0.62187123  1
