# generated using pymatgen
data_Li9Mn2Co5O16
_symmetry_space_group_name_H-M   'P 1'
_cell_length_a   5.17472586
_cell_length_b   7.61681284
_cell_length_c   7.73907689
_cell_angle_alpha   93.87549460
_cell_angle_beta   108.30429194
_cell_angle_gamma   96.70824810
_symmetry_Int_Tables_number   1
_chemical_formula_structural   Li9Mn2Co5O16
_chemical_formula_sum   'Li9 Mn2 Co5 O16'
_cell_volume   285.85403591
_cell_formula_units_Z   1
loop_
 _symmetry_equiv_pos_site_id
 _symmetry_equiv_pos_as_xyz
  1  'x, y, z'
loop_
 _atom_site_type_symbol
 _atom_site_label
 _atom_site_symmetry_multiplicity
 _atom_site_fract_x
 _atom_site_fract_y
 _atom_site_fract_z
 _atom_site_occupancy
  Li  Li0  1  0.56522255  0.18414354  0.06074576  1
  Li  Li1  1  0.94691893  0.31470822  0.44577717  1
  Li  Li2  1  0.30227224  0.43490058  0.80435760  1
  Li  Li3  1  0.68878790  0.56591803  0.19041791  1
  Li  Li4  1  0.06898022  0.69211187  0.56722641  1
  Li  Li5  1  0.43640136  0.81031403  0.93017756  1
  Li  Li6  1  0.81335720  0.93317300  0.32482309  1
  Li  Li7  1  0.17165321  0.05956438  0.67462485  1
  Li  Li8  1  0.62536994  0.87555735  0.62518506  1
  Mn  Mn9  1  0.00039187  0.00028492  0.99774614  1
  Mn  Mn10  1  0.12763940  0.37495032  0.12548864  1
  Co  Co11  1  0.38687149  0.12421699  0.38422913  1
  Co  Co12  1  0.75152571  0.24975105  0.74642917  1
  Co  Co13  1  0.50115338  0.50682968  0.50267736  1
  Co  Co14  1  0.86048474  0.63249074  0.86572086  1
  Co  Co15  1  0.25425448  0.75411113  0.25738851  1
  O  O16  1  0.15878973  0.21721638  0.92491592  1
  O  O17  1  0.49315874  0.33725071  0.27453216  1
  O  O18  1  0.88304812  0.46310219  0.65916877  1
  O  O19  1  0.26660088  0.58643608  0.04499468  1
  O  O20  1  0.63621158  0.70679987  0.40573811  1
  O  O21  1  0.03603794  0.84499500  0.80192830  1
  O  O22  1  0.37525740  0.96808147  0.15219390  1
  O  O23  1  0.76488094  0.10690138  0.53574874  1
  O  O24  1  0.98093672  0.15801842  0.20279982  1
  O  O25  1  0.34922664  0.28236852  0.58839854  1
  O  O26  1  0.76075775  0.40415904  0.96671303  1
  O  O27  1  0.09803451  0.52140032  0.32932551  1
  O  O28  1  0.48164460  0.64557610  0.72389664  1
  O  O29  1  0.85481968  0.79478703  0.08576269  1
  O  O30  1  0.21695157  0.90648688  0.45240607  1
  O  O31  1  0.64235659  0.04338879  0.84845590  1
