# generated using pymatgen
data_Li9Mn2Co5O16
_symmetry_space_group_name_H-M   'P 1'
_cell_length_a   5.16457882
_cell_length_b   7.72508518
_cell_length_c   7.74801590
_cell_angle_alpha   97.69840060
_cell_angle_beta   77.19707689
_cell_angle_gamma   77.18375311
_symmetry_Int_Tables_number   1
_chemical_formula_structural   Li9Mn2Co5O16
_chemical_formula_sum   'Li9 Mn2 Co5 O16'
_cell_volume   288.42397082
_cell_formula_units_Z   1
loop_
 _symmetry_equiv_pos_site_id
 _symmetry_equiv_pos_as_xyz
  1  'x, y, z'
loop_
 _atom_site_type_symbol
 _atom_site_label
 _atom_site_symmetry_multiplicity
 _atom_site_fract_x
 _atom_site_fract_y
 _atom_site_fract_z
 _atom_site_occupancy
  Li  Li0  1  0.49949737  0.12725396  0.87140837  1
  Li  Li1  1  0.50504472  0.49957818  0.00141569  1
  Li  Li2  1  0.50102682  0.87571122  0.13173283  1
  Li  Li3  1  0.49430128  0.25672078  0.25886043  1
  Li  Li4  1  0.49472706  0.62013856  0.37654048  1
  Li  Li5  1  0.49849788  0.00129285  0.50026944  1
  Li  Li6  1  0.49796468  0.37368947  0.61710720  1
  Li  Li7  1  0.50660472  0.74389378  0.73922796  1
  Li  Li8  1  0.00110693  0.49908030  0.50068934  1
  Mn  Mn9  1  0.00071564  -0.00003166  0.99869145  1
  Mn  Mn10  1  -0.00294973  0.62503602  0.87499982  1
  Co  Co11  1  0.00643121  0.37708798  0.13444676  1
  Co  Co12  1  0.98987158  0.74557842  0.26449073  1
  Co  Co13  1  -0.00378392  0.12858578  0.37593026  1
  Co  Co14  1  0.00522057  0.87215659  0.61964423  1
  Co  Co15  1  0.00564308  0.25534426  0.74094743  1
  O  O16  1  0.22729658  0.00012050  0.76371093  1
  O  O17  1  0.22651418  0.39136380  0.87790556  1
  O  O18  1  0.21246998  0.75792952  0.00328872  1
  O  O19  1  0.22803658  0.11840348  0.11774488  1
  O  O20  1  0.23953416  0.49982698  0.23969961  1
  O  O21  1  0.23034910  0.88034181  0.37446792  1
  O  O22  1  0.23290556  0.24134784  0.50996536  1
  O  O23  1  0.22175340  0.63954430  0.64215642  1
  O  O24  1  0.78362751  0.23502929  0.98942685  1
  O  O25  1  0.77461746  0.62119711  0.11493774  1
  O  O26  1  0.77352560  0.00054975  0.23503635  1
  O  O27  1  0.76804058  0.36075985  0.36424819  1
  O  O28  1  0.76048031  0.75765201  0.49029420  1
  O  O29  1  0.77115338  0.11696867  0.62573611  1
  O  O30  1  0.77133292  0.50863101  0.76456831  1
  O  O31  1  0.77844280  0.86921758  0.88041044  1
