# generated using pymatgen
data_Li9Mn2Co5O16
_symmetry_space_group_name_H-M   'P 1'
_cell_length_a   6.58116491
_cell_length_b   7.76357788
_cell_length_c   6.63349039
_cell_angle_alpha   89.66645045
_cell_angle_beta   72.06635447
_cell_angle_gamma   64.33598216
_symmetry_Int_Tables_number   1
_chemical_formula_structural   Li9Mn2Co5O16
_chemical_formula_sum   'Li9 Mn2 Co5 O16'
_cell_volume   287.41715497
_cell_formula_units_Z   1
loop_
 _symmetry_equiv_pos_site_id
 _symmetry_equiv_pos_as_xyz
  1  'x, y, z'
loop_
 _atom_site_type_symbol
 _atom_site_label
 _atom_site_symmetry_multiplicity
 _atom_site_fract_x
 _atom_site_fract_y
 _atom_site_fract_z
 _atom_site_occupancy
  Li  Li0  1  0.88092293  0.18377670  0.44104139  1
  Li  Li1  1  0.62284723  0.06283003  0.80882354  1
  Li  Li2  1  0.37204707  0.93820984  0.19547926  1
  Li  Li3  1  0.13345979  0.81193526  0.56054921  1
  Li  Li4  1  0.62237556  0.56687027  0.31220769  1
  Li  Li5  1  0.37534772  0.42724229  0.68499602  1
  Li  Li6  1  0.12895518  0.31460777  0.05493338  1
  Li  Li7  1  0.87280524  0.68810179  0.93645794  1
  Li  Li8  1  0.25265301  0.12315737  0.62516455  1
  Mn  Mn9  1  0.00185679  0.99986406  0.99623139  1
  Mn  Mn10  1  0.75322652  0.37261614  0.87447360  1
  Co  Co11  1  0.48507793  0.24748779  0.25963018  1
  Co  Co12  1  0.00241398  0.50079397  0.50797536  1
  Co  Co13  1  0.24609938  0.62678898  0.12920810  1
  Co  Co14  1  0.49514081  0.75658064  0.74261805  1
  Co  Co15  1  0.73737973  0.88356892  0.38007825  1
  O  O16  1  0.81263392  0.27105917  0.13343612  1
  O  O17  1  0.57634335  0.14533423  0.51370361  1
  O  O18  1  0.30401564  0.01311555  0.90643328  1
  O  O19  1  0.06098906  0.90944371  0.25720021  1
  O  O20  1  0.56075553  0.63601367  0.02206281  1
  O  O21  1  0.31105559  0.52589411  0.40000924  1
  O  O22  1  0.03737260  0.40744252  0.78472586  1
  O  O23  1  0.81172232  0.77155360  0.64443871  1
  O  O24  1  0.93036712  0.10364769  0.74554963  1
  O  O25  1  0.70334137  0.97501278  0.09477445  1
  O  O26  1  0.45224947  0.83676181  0.47135251  1
  O  O27  1  0.17763975  0.73692093  0.85531492  1
  O  O28  1  0.68906846  0.46994830  0.62002367  1
  O  O29  1  0.45146166  0.35085964  0.97238073  1
  O  O30  1  0.19003571  0.23722011  0.34227290  1
  O  O31  1  0.94833958  0.60534034  0.22645340  1
