# generated using pymatgen
data_Li9Mn2Co5O16
_symmetry_space_group_name_H-M   'P 1'
_cell_length_a   5.06982635
_cell_length_b   7.81630606
_cell_length_c   7.76633554
_cell_angle_alpha   82.56794911
_cell_angle_beta   103.47653221
_cell_angle_gamma   78.13623010
_symmetry_Int_Tables_number   1
_chemical_formula_structural   Li9Mn2Co5O16
_chemical_formula_sum   'Li9 Mn2 Co5 O16'
_cell_volume   287.76662875
_cell_formula_units_Z   1
loop_
 _symmetry_equiv_pos_site_id
 _symmetry_equiv_pos_as_xyz
  1  'x, y, z'
loop_
 _atom_site_type_symbol
 _atom_site_label
 _atom_site_symmetry_multiplicity
 _atom_site_fract_x
 _atom_site_fract_y
 _atom_site_fract_z
 _atom_site_occupancy
  Li  Li0  1  0.49653150  0.25749012  0.74816735  1
  Li  Li1  1  0.01256847  0.86583552  0.37994246  1
  Li  Li2  1  0.50076761  0.50321660  0.99187421  1
  Li  Li3  1  0.98995005  0.38141983  0.86943783  1
  Li  Li4  1  0.50241794  0.99192809  0.50234962  1
  Li  Li5  1  -0.00058366  0.62670898  0.12458894  1
  Li  Li6  1  0.99757678  0.12422833  0.62498517  1
  Li  Li7  1  0.50042735  0.74610537  0.25683296  1
  Li  Li8  1  0.50089042  0.62421239  0.62388742  1
  Mn  Mn9  1  0.99970525  -0.00051098  0.00000498  1
  Mn  Mn10  1  0.00169443  0.50348076  0.50084322  1
  Co  Co11  1  0.00295213  0.25190260  0.25020593  1
  Co  Co12  1  0.49429370  0.87005644  0.86457600  1
  Co  Co13  1  0.50229310  0.12415730  0.12657561  1
  Co  Co14  1  -0.00795768  0.74142934  0.74941092  1
  Co  Co15  1  0.49994653  0.38224040  0.38303631  1
  O  O16  1  0.76611788  0.99541458  0.76598200  1
  O  O17  1  0.23651003  0.60968793  0.38202579  1
  O  O18  1  0.76523283  0.23199003  0.00469908  1
  O  O19  1  0.24982121  0.11686020  0.89700845  1
  O  O20  1  0.77506928  0.73468234  0.50203353  1
  O  O21  1  0.25483560  0.36403801  0.14166770  1
  O  O22  1  0.25426977  0.87376624  0.64528079  1
  O  O23  1  0.75995506  0.49356712  0.26295801  1
  O  O24  1  0.22651351  0.50411163  0.73524908  1
  O  O25  1  0.74324464  0.13271617  0.35614515  1
  O  O26  1  0.23713316  0.77130945  0.99784957  1
  O  O27  1  0.75905917  0.63807824  0.87079499  1
  O  O28  1  0.23480538  0.26657984  0.49486728  1
  O  O29  1  0.75193393  0.88876562  0.10581582  1
  O  O30  1  0.75558232  0.37897844  0.60409866  1
  O  O31  1  0.23644229  0.00555408  0.23680217  1
