# generated using pymatgen
data_Li9Mn2Co5O16
_symmetry_space_group_name_H-M   'P 1'
_cell_length_a   5.91463164
_cell_length_b   6.46058362
_cell_length_c   7.87142960
_cell_angle_alpha   88.73681136
_cell_angle_beta   76.56681793
_cell_angle_gamma   75.20623899
_symmetry_Int_Tables_number   1
_chemical_formula_structural   Li9Mn2Co5O16
_chemical_formula_sum   'Li9 Mn2 Co5 O16'
_cell_volume   282.63380239
_cell_formula_units_Z   1
loop_
 _symmetry_equiv_pos_site_id
 _symmetry_equiv_pos_as_xyz
  1  'x, y, z'
loop_
 _atom_site_type_symbol
 _atom_site_label
 _atom_site_symmetry_multiplicity
 _atom_site_fract_x
 _atom_site_fract_y
 _atom_site_fract_z
 _atom_site_occupancy
  Li  Li0  1  0.12464218  0.37638903  0.12732878  1
  Li  Li1  1  0.74432032  0.74056362  0.25955062  1
  Li  Li2  1  0.99602842  0.49731128  0.50298774  1
  Li  Li3  1  0.62446590  0.86853619  0.62184496  1
  Li  Li4  1  0.87180292  0.61938201  0.86967606  1
  Li  Li5  1  0.50240812  0.00296079  0.99755221  1
  Li  Li6  1  0.37982920  0.13422696  0.38359841  1
  Li  Li7  1  0.25680191  0.25905048  0.74004163  1
  Li  Li8  1  0.50075991  0.49661202  0.50134626  1
  Mn  Mn9  1  0.00123881  0.00309733  0.99944239  1
  Mn  Mn10  1  0.25192178  0.74617806  0.25383300  1
  Co  Co11  1  0.62879447  0.37696287  0.13098492  1
  Co  Co12  1  0.86997533  0.12769271  0.37745896  1
  Co  Co13  1  0.12548662  0.87347355  0.62540542  1
  Co  Co14  1  0.74390763  0.25339232  0.74276583  1
  Co  Co15  1  0.37418772  0.62300114  0.86511577  1
  O  O16  1  0.92872580  0.29957364  0.94696701  1
  O  O17  1  0.55206727  0.67684721  0.07985874  1
  O  O18  1  0.81233391  0.41403445  0.31378278  1
  O  O19  1  0.40089405  0.81487098  0.42669121  1
  O  O20  1  0.67751314  0.55814229  0.70396273  1
  O  O21  1  0.30486871  0.92907367  0.82674464  1
  O  O22  1  0.16440264  0.04765740  0.18215158  1
  O  O23  1  0.05077248  0.17373837  0.57483099  1
  O  O24  1  0.31960580  0.44775550  0.29563247  1
  O  O25  1  0.94629256  0.82086043  0.42364057  1
  O  O26  1  0.18427048  0.58687393  0.68843167  1
  O  O27  1  0.84153191  0.94997203  0.82264265  1
  O  O28  1  0.08487475  0.70291220  0.06510468  1
  O  O29  1  0.69668996  0.07388101  0.17060140  1
  O  O30  1  0.58677474  0.17738896  0.55967714  1
  O  O31  1  0.45181560  0.32759156  0.92034977  1
