# generated using pymatgen
data_Li9Mn2Co5O16
_symmetry_space_group_name_H-M   'P 1'
_cell_length_a   4.97348761
_cell_length_b   8.82910264
_cell_length_c   6.68293759
_cell_angle_alpha   98.87342988
_cell_angle_beta   98.56042433
_cell_angle_gamma   95.30647590
_symmetry_Int_Tables_number   1
_chemical_formula_structural   Li9Mn2Co5O16
_chemical_formula_sum   'Li9 Mn2 Co5 O16'
_cell_volume   284.70644910
_cell_formula_units_Z   1
loop_
 _symmetry_equiv_pos_site_id
 _symmetry_equiv_pos_as_xyz
  1  'x, y, z'
loop_
 _atom_site_type_symbol
 _atom_site_label
 _atom_site_symmetry_multiplicity
 _atom_site_fract_x
 _atom_site_fract_y
 _atom_site_fract_z
 _atom_site_occupancy
  Li  Li0  1  0.75468108  0.19349833  0.31767178  1
  Li  Li1  1  0.76051134  0.44783999  0.06928210  1
  Li  Li2  1  0.25196123  0.06025897  0.43368521  1
  Li  Li3  1  0.25550965  0.31990912  0.19288111  1
  Li  Li4  1  0.75493261  0.93185487  0.55489939  1
  Li  Li5  1  0.74801574  0.68062392  0.81131321  1
  Li  Li6  1  0.24393968  0.56351943  0.94261152  1
  Li  Li7  1  0.23782932  0.80251856  0.68117354  1
  Li  Li8  1  0.00201824  0.74623685  0.25052552  1
  Mn  Mn9  1  0.99642477  -0.00063235  0.00689778  1
  Mn  Mn10  1  0.49803863  0.87213766  0.12877955  1
  Co  Co11  1  0.99691957  0.24866433  0.75136207  1
  Co  Co12  1  0.00397570  0.50508627  0.49445251  1
  Co  Co13  1  0.49860716  0.12539914  0.87650423  1
  Co  Co14  1  0.49828514  0.37338681  0.61972231  1
  Co  Co15  1  0.50203938  0.62999488  0.36777582  1
  O  O16  1  0.85875825  0.20201078  0.02422425  1
  O  O17  1  0.86794552  0.45264398  0.77204556  1
  O  O18  1  0.35607123  0.07735805  0.14937005  1
  O  O19  1  0.36282919  0.32417627  0.89180806  1
  O  O20  1  0.86322892  0.96784063  0.25311155  1
  O  O21  1  0.85744755  0.71102337  0.52697035  1
  O  O22  1  0.36388477  0.58723065  0.64606410  1
  O  O23  1  0.39435858  0.84833788  0.38300526  1
  O  O24  1  0.64641164  0.16203357  0.60857593  1
  O  O25  1  0.64124723  0.41174720  0.35444324  1
  O  O26  1  0.12398056  0.04260461  0.74812308  1
  O  O27  1  0.14620943  0.28539666  0.47755179  1
  O  O28  1  0.62471664  0.91971192  0.86736759  1
  O  O29  1  0.61117509  0.67119774  0.09356516  1
  O  O30  1  0.14339086  0.53459641  0.23066828  1
  O  O31  1  0.13465531  0.80179346  0.97357209  1
