# generated using pymatgen
data_Li9Mn2Co5O16
_symmetry_space_group_name_H-M   'P 1'
_cell_length_a   6.52344076
_cell_length_b   7.76924280
_cell_length_c   6.67916222
_cell_angle_alpha   90.12143969
_cell_angle_beta   71.29301007
_cell_angle_gamma   65.11653996
_symmetry_Int_Tables_number   1
_chemical_formula_structural   Li9Mn2Co5O16
_chemical_formula_sum   'Li9 Mn2 Co5 O16'
_cell_volume   287.14059203
_cell_formula_units_Z   1
loop_
 _symmetry_equiv_pos_site_id
 _symmetry_equiv_pos_as_xyz
  1  'x, y, z'
loop_
 _atom_site_type_symbol
 _atom_site_label
 _atom_site_symmetry_multiplicity
 _atom_site_fract_x
 _atom_site_fract_y
 _atom_site_fract_z
 _atom_site_occupancy
  Li  Li0  1  0.87740953  0.18521528  0.43832582  1
  Li  Li1  1  0.62155640  0.06583915  0.81044628  1
  Li  Li2  1  0.37600235  0.94266410  0.18573228  1
  Li  Li3  1  0.12550915  0.81769485  0.56301945  1
  Li  Li4  1  0.62772073  0.56102294  0.32151481  1
  Li  Li5  1  0.37326072  0.42666233  0.68596511  1
  Li  Li6  1  0.12910527  0.31401604  0.05619438  1
  Li  Li7  1  0.86985344  0.68785843  0.93876339  1
  Li  Li8  1  0.25289762  0.12256663  0.62676982  1
  Mn  Mn9  1  0.99714175  0.00165598  0.99399304  1
  Mn  Mn10  1  0.49901565  0.75204557  0.74631032  1
  Co  Co11  1  0.49565980  0.24711305  0.25953365  1
  Co  Co12  1  0.76218170  0.36876316  0.86820317  1
  Co  Co13  1  0.00678821  0.49347157  0.50448976  1
  Co  Co14  1  0.25214948  0.62188204  0.12853194  1
  Co  Co15  1  0.74669648  0.87891475  0.37699315  1
  O  O16  1  0.81590858  0.26545596  0.14250667  1
  O  O17  1  0.57511154  0.14063591  0.51115201  1
  O  O18  1  0.30615665  0.01200749  0.90329046  1
  O  O19  1  0.04576565  0.90801930  0.26187431  1
  O  O20  1  0.54397832  0.66052146  0.01456157  1
  O  O21  1  0.31136311  0.52912995  0.39772527  1
  O  O22  1  0.04323342  0.40974475  0.78388673  1
  O  O23  1  0.80148880  0.76616270  0.65925050  1
  O  O24  1  0.93834503  0.08958779  0.74046856  1
  O  O25  1  0.69949598  0.97518007  0.09056240  1
  O  O26  1  0.46085432  0.83545076  0.48418122  1
  O  O27  1  0.19125781  0.73570993  0.84697969  1
  O  O28  1  0.68058772  0.48129369  0.60833810  1
  O  O29  1  0.44494593  0.35332325  0.97627433  1
  O  O30  1  0.18765578  0.23733474  0.34305344  1
  O  O31  1  0.94090308  0.61305640  0.23110837  1
