# generated using pymatgen
data_Li9Mn2Co5O16
_symmetry_space_group_name_H-M   'P 1'
_cell_length_a   5.11976874
_cell_length_b   7.82650406
_cell_length_c   7.63699514
_cell_angle_alpha   98.03196206
_cell_angle_beta   103.27137722
_cell_angle_gamma   101.70798691
_symmetry_Int_Tables_number   1
_chemical_formula_structural   Li9Mn2Co5O16
_chemical_formula_sum   'Li9 Mn2 Co5 O16'
_cell_volume   286.01733657
_cell_formula_units_Z   1
loop_
 _symmetry_equiv_pos_site_id
 _symmetry_equiv_pos_as_xyz
  1  'x, y, z'
loop_
 _atom_site_type_symbol
 _atom_site_label
 _atom_site_symmetry_multiplicity
 _atom_site_fract_x
 _atom_site_fract_y
 _atom_site_fract_z
 _atom_site_occupancy
  Li  Li0  1  0.50580875  0.13041899  0.87634822  1
  Li  Li1  1  0.50086624  0.49381615  0.00249517  1
  Li  Li2  1  0.50041433  0.37823789  0.62772192  1
  Li  Li3  1  0.49988359  0.74799022  0.75127325  1
  Li  Li4  1  0.49271476  0.61675323  0.37078965  1
  Li  Li5  1  0.50108833  -0.00067732  0.49971001  1
  Li  Li6  1  0.50134166  0.87615017  0.12626377  1
  Li  Li7  1  0.49645402  0.25858722  0.24654697  1
  Li  Li8  1  0.99712509  0.37387673  0.12382704  1
  Mn  Mn9  1  -0.00188140  0.00270621  -0.00143869  1
  Mn  Mn10  1  0.00561083  0.49952279  0.49901207  1
  Co  Co11  1  0.99870063  0.74168510  0.24586856  1
  Co  Co12  1  0.00560662  0.13256914  0.37109586  1
  Co  Co13  1  0.99542495  0.87369649  0.62306129  1
  Co  Co14  1  0.99824831  0.25179917  0.75211595  1
  Co  Co15  1  0.99801767  0.61629016  0.87862188  1
  O  O16  1  0.21572568  0.87961348  0.87076040  1
  O  O17  1  0.21891198  0.23140816  0.98618465  1
  O  O18  1  0.21578168  0.12315761  0.62037220  1
  O  O19  1  0.23870850  0.50326641  0.74283748  1
  O  O20  1  0.22891529  0.37751665  0.38511065  1
  O  O21  1  0.23088075  0.73408535  0.49869975  1
  O  O22  1  0.23264623  0.63608533  0.11956706  1
  O  O23  1  0.23295679  0.00001643  0.23923039  1
  O  O24  1  0.77461193  0.37564079  0.86684673  1
  O  O25  1  0.77197331  0.76296625  0.00150979  1
  O  O26  1  0.78337984  0.62304783  0.62712890  1
  O  O27  1  0.75888235  0.99602643  0.76019760  1
  O  O28  1  0.77641787  0.87526229  0.38366928  1
  O  O29  1  0.78090807  0.26757136  0.50970196  1
  O  O30  1  0.77583496  0.11377554  0.13023943  1
  O  O31  1  0.76804042  0.50713674  0.26463283  1
