# generated using pymatgen
data_Li9Mn2Co5O16
_symmetry_space_group_name_H-M   'P 1'
_cell_length_a   5.88566712
_cell_length_b   6.65755400
_cell_length_c   7.69522850
_cell_angle_alpha   89.34971442
_cell_angle_beta   101.37104430
_cell_angle_gamma   76.74663891
_symmetry_Int_Tables_number   1
_chemical_formula_structural   Li9Mn2Co5O16
_chemical_formula_sum   'Li9 Mn2 Co5 O16'
_cell_volume   287.23311030
_cell_formula_units_Z   1
loop_
 _symmetry_equiv_pos_site_id
 _symmetry_equiv_pos_as_xyz
  1  'x, y, z'
loop_
 _atom_site_type_symbol
 _atom_site_label
 _atom_site_symmetry_multiplicity
 _atom_site_fract_x
 _atom_site_fract_y
 _atom_site_fract_z
 _atom_site_occupancy
  Li  Li0  1  0.12948363  0.37697407  0.87609305  1
  Li  Li1  1  0.50041578  0.99383560  -0.00045268  1
  Li  Li2  1  0.74922068  0.74954823  0.75194763  1
  Li  Li3  1  0.37776246  0.12533037  0.62533815  1
  Li  Li4  1  0.99948893  0.50560380  0.50225163  1
  Li  Li5  1  0.62430424  0.86871960  0.37291879  1
  Li  Li6  1  0.25381820  0.25149132  0.24828371  1
  Li  Li7  1  0.86936610  0.62631570  0.12438346  1
  Li  Li8  1  0.37535378  0.62706304  0.12464342  1
  Mn  Mn9  1  0.00098400  0.99571380  -0.00001533  1
  Mn  Mn10  1  0.12696955  0.87081461  0.37282551  1
  Co  Co11  1  0.73665887  0.25975315  0.24369599  1
  Co  Co12  1  0.49975562  0.50466723  0.49251967  1
  Co  Co13  1  0.86928094  0.12568657  0.62236736  1
  Co  Co14  1  0.26374230  0.74499229  0.76494746  1
  Co  Co15  1  0.62636041  0.37463346  0.87581640  1
  O  O16  1  0.16641816  0.05724013  0.81946719  1
  O  O17  1  0.54864964  0.69257433  0.92748006  1
  O  O18  1  0.79711686  0.42439035  0.69776526  1
  O  O19  1  0.41831878  0.81243703  0.54776554  1
  O  O20  1  0.04747738  0.16630055  0.42862029  1
  O  O21  1  0.68563033  0.54625412  0.32419659  1
  O  O22  1  0.28080004  0.94306518  0.18765382  1
  O  O23  1  0.92459943  0.29560778  0.05069350  1
  O  O24  1  0.05686745  0.71557188  0.93757382  1
  O  O25  1  0.46524670  0.30943785  0.05960582  1
  O  O26  1  0.71173392  0.05884604  0.81952045  1
  O  O27  1  0.33653256  0.44150423  0.69393521  1
  O  O28  1  0.96170941  0.81991935  0.55776065  1
  O  O29  1  0.57153111  0.19386815  0.44141128  1
  O  O30  1  0.18624133  0.58445267  0.32277919  1
  O  O31  1  0.83816642  0.93739552  0.18621413  1
