# generated using pymatgen
data_Li9Mn2Co5O16
_symmetry_space_group_name_H-M   'P 1'
_cell_length_a   5.79543442
_cell_length_b   7.74226285
_cell_length_c   6.58084107
_cell_angle_alpha   93.85538615
_cell_angle_beta   102.57736162
_cell_angle_gamma   80.14534790
_symmetry_Int_Tables_number   1
_chemical_formula_structural   Li9Mn2Co5O16
_chemical_formula_sum   'Li9 Mn2 Co5 O16'
_cell_volume   283.80475402
_cell_formula_units_Z   1
loop_
 _symmetry_equiv_pos_site_id
 _symmetry_equiv_pos_as_xyz
  1  'x, y, z'
loop_
 _atom_site_type_symbol
 _atom_site_label
 _atom_site_symmetry_multiplicity
 _atom_site_fract_x
 _atom_site_fract_y
 _atom_site_fract_z
 _atom_site_occupancy
  Li  Li0  1  0.81261357  0.12634417  0.38214476  1
  Li  Li1  1  0.93821560  0.38261769  0.12917126  1
  Li  Li2  1  0.68758181  0.87048468  0.62003313  1
  Li  Li3  1  0.55741735  0.61990896  0.86582269  1
  Li  Li4  1  0.43488671  0.38173591  0.12862563  1
  Li  Li5  1  0.31710054  0.13063174  0.38267903  1
  Li  Li6  1  0.18994064  0.86214799  0.61804540  1
  Li  Li7  1  0.06438580  0.62531698  0.86881177  1
  Li  Li8  1  0.25395597  0.49891623  0.50233635  1
  Mn  Mn9  1  -0.00328262  0.00181628  -0.00019441  1
  Mn  Mn10  1  0.12717608  0.25593380  0.74375360  1
  Co  Co11  1  0.37509118  0.74315025  0.26284466  1
  Co  Co12  1  0.49916971  0.99571955  0.99863969  1
  Co  Co13  1  0.62410961  0.25210862  0.74932491  1
  Co  Co14  1  0.74669725  0.50003290  0.50020319  1
  Co  Co15  1  0.88127291  0.74011751  0.25702919  1
  O  O16  1  0.71996225  0.17214467  0.04176590  1
  O  O17  1  0.85191193  0.41822165  0.80709049  1
  O  O18  1  0.59288116  0.92508481  0.29706160  1
  O  O19  1  0.47397843  0.68884676  0.55494087  1
  O  O20  1  0.35010108  0.41403930  0.81080135  1
  O  O21  1  0.20577871  0.17842228  0.04410922  1
  O  O22  1  0.08556508  0.93748602  0.28949369  1
  O  O23  1  0.95518864  0.68179313  0.55329756  1
  O  O24  1  0.90669946  0.07772358  0.70980372  1
  O  O25  1  0.03643608  0.30953058  0.46128645  1
  O  O26  1  0.78825768  0.82874039  0.94456766  1
  O  O27  1  0.65370880  0.56458814  0.19333888  1
  O  O28  1  0.55153261  0.31656194  0.46216638  1
  O  O29  1  0.40026308  0.08429677  0.69630686  1
  O  O30  1  0.26875903  0.83516114  0.93980587  1
  O  O31  1  0.15264388  0.58037557  0.18489261  1
