# generated using pymatgen
data_Sm2Ta2O9
_symmetry_space_group_name_H-M   'P 1'
_cell_length_a   3.87927703
_cell_length_b   6.68437368
_cell_length_c   14.30580676
_cell_angle_alpha   92.86684502
_cell_angle_beta   90.00000000
_cell_angle_gamma   90.00000000
_symmetry_Int_Tables_number   1
_chemical_formula_structural   Sm2Ta2O9
_chemical_formula_sum   'Sm4 Ta4 O18'
_cell_volume   370.49298977
_cell_formula_units_Z   2
loop_
 _symmetry_equiv_pos_site_id
 _symmetry_equiv_pos_as_xyz
  1  'x, y, z'
loop_
 _atom_site_type_symbol
 _atom_site_label
 _atom_site_symmetry_multiplicity
 _atom_site_fract_x
 _atom_site_fract_y
 _atom_site_fract_z
 _atom_site_occupancy
  Sm  Sm0  1  0.00439280  0.00919058  0.69607646  1
  Sm  Sm1  1  0.99560720  0.99080942  0.30392354  1
  Sm  Sm2  1  0.50439280  0.49080942  0.80392354  1
  Sm  Sm3  1  0.49560720  0.50919058  0.19607646  1
  Ta  Ta4  1  0.00344079  0.26774864  0.96041954  1
  Ta  Ta5  1  0.99655921  0.73225136  0.03958046  1
  Ta  Ta6  1  0.50344079  0.23225136  0.53958046  1
  Ta  Ta7  1  0.49655921  0.76774864  0.46041954  1
  O  O8  1  0.00084568  0.57891001  0.91748160  1
  O  O9  1  0.99915432  0.42108999  0.08251840  1
  O  O10  1  0.50084568  0.92108999  0.58251840  1
  O  O11  1  0.49915432  0.07891001  0.41748160  1
  O  O12  1  0.50946766  0.84035513  0.78162314  1
  O  O13  1  0.49053234  0.15964487  0.21837686  1
  O  O14  1  0.00946766  0.65964487  0.71837686  1
  O  O15  1  0.99053234  0.34035513  0.28162314  1
  O  O16  1  -0.00000000  -0.00000000  -0.00000000  1
  O  O17  1  0.50000000  0.50000000  0.50000000  1
  O  O18  1  0.50225059  0.29802715  0.95033715  1
  O  O19  1  0.49774941  0.70197285  0.04966285  1
  O  O20  1  0.00225059  0.20197285  0.54966285  1
  O  O21  1  0.99774941  0.79802715  0.45033715  1
  O  O22  1  0.00253694  0.24443193  0.82215777  1
  O  O23  1  0.99746306  0.75556807  0.17784223  1
  O  O24  1  0.50253694  0.25556807  0.67784223  1
  O  O25  1  0.49746306  0.74443193  0.32215777  1
