# generated using pymatgen
data_Li9Mn2Co5O16
_symmetry_space_group_name_H-M   'P 1'
_cell_length_a   5.89914466
_cell_length_b   7.77284193
_cell_length_c   6.49671963
_cell_angle_alpha   89.01776264
_cell_angle_beta   77.04263490
_cell_angle_gamma   81.16757017
_symmetry_Int_Tables_number   1
_chemical_formula_structural   Li9Mn2Co5O16
_chemical_formula_sum   'Li9 Mn2 Co5 O16'
_cell_volume   286.82079473
_cell_formula_units_Z   1
loop_
 _symmetry_equiv_pos_site_id
 _symmetry_equiv_pos_as_xyz
  1  'x, y, z'
loop_
 _atom_site_type_symbol
 _atom_site_label
 _atom_site_symmetry_multiplicity
 _atom_site_fract_x
 _atom_site_fract_y
 _atom_site_fract_z
 _atom_site_occupancy
  Li  Li0  1  0.87361415  0.37339327  0.11573086  1
  Li  Li1  1  0.37342988  0.87550253  0.62821970  1
  Li  Li2  1  0.64605207  0.60545061  0.87021020  1
  Li  Li3  1  0.10289614  0.13914846  0.38311752  1
  Li  Li4  1  0.38350807  0.36826816  0.11906334  1
  Li  Li5  1  0.86840075  0.88243699  0.62804694  1
  Li  Li6  1  0.12826257  0.62193166  0.87023889  1
  Li  Li7  1  0.62559252  0.13427721  0.38434084  1
  Li  Li8  1  0.75089860  0.24801539  0.74866977  1
  Mn  Mn9  1  0.99263432  0.00606608  0.00140115  1
  Mn  Mn10  1  0.75379481  0.74820178  0.24944709  1
  Co  Co11  1  0.50235745  0.49218539  0.50854616  1
  Co  Co12  1  0.25147656  0.75049176  0.24967957  1
  Co  Co13  1  0.49868449  0.00355355  0.99826387  1
  Co  Co14  1  0.99607563  0.48900942  0.50541229  1
  Co  Co15  1  0.24671359  0.24947179  0.74911411  1
  O  O16  1  0.16999826  0.17964447  0.06025463  1
  O  O17  1  0.69541160  0.68614735  0.54392268  1
  O  O18  1  0.95851463  0.43407298  0.80048619  1
  O  O19  1  0.45903607  0.91418344  0.28877730  1
  O  O20  1  0.69800291  0.16112217  0.05478025  1
  O  O21  1  0.19835579  0.67811077  0.53399770  1
  O  O22  1  0.43192475  0.44105110  0.79866451  1
  O  O23  1  0.92546844  0.93389941  0.29896971  1
  O  O24  1  0.57716590  0.57138017  0.19507889  1
  O  O25  1  0.06446094  0.05985877  0.70902609  1
  O  O26  1  0.29041232  0.83659302  0.96398714  1
  O  O27  1  0.81256370  0.32827740  0.43474420  1
  O  O28  1  0.05011898  0.58978148  0.19916548  1
  O  O29  1  0.54061498  0.06688594  0.71374830  1
  O  O30  1  0.82473276  0.81684831  0.95482605  1
  O  O31  1  0.30882637  0.31473917  0.44006858  1
