# generated using pymatgen
data_Li9Mn2Co5O16
_symmetry_space_group_name_H-M   'P 1'
_cell_length_a   5.79421095
_cell_length_b   7.79187772
_cell_length_c   6.60290683
_cell_angle_alpha   94.14259299
_cell_angle_beta   102.79984951
_cell_angle_gamma   78.55291817
_symmetry_Int_Tables_number   1
_chemical_formula_structural   Li9Mn2Co5O16
_chemical_formula_sum   'Li9 Mn2 Co5 O16'
_cell_volume   284.79151629
_cell_formula_units_Z   1
loop_
 _symmetry_equiv_pos_site_id
 _symmetry_equiv_pos_as_xyz
  1  'x, y, z'
loop_
 _atom_site_type_symbol
 _atom_site_label
 _atom_site_symmetry_multiplicity
 _atom_site_fract_x
 _atom_site_fract_y
 _atom_site_fract_z
 _atom_site_occupancy
  Li  Li0  1  0.81428262  0.12772769  0.38305828  1
  Li  Li1  1  0.94087140  0.38231288  0.12907469  1
  Li  Li2  1  0.68639219  0.86765427  0.61734872  1
  Li  Li3  1  0.55752036  0.62188553  0.87053814  1
  Li  Li4  1  0.43384736  0.38222776  0.12790805  1
  Li  Li5  1  0.31059662  0.13115474  0.38396692  1
  Li  Li6  1  0.19042582  0.86347102  0.62095031  1
  Li  Li7  1  0.06576338  0.62242229  0.86314203  1
  Li  Li8  1  0.24829997  0.49889111  0.50291894  1
  Mn  Mn9  1  0.00140270  0.00230550  -0.00058678  1
  Mn  Mn10  1  0.61712536  0.25549710  0.74466625  1
  Co  Co11  1  0.12466476  0.25209101  0.75011604  1
  Co  Co12  1  0.37574858  0.74068226  0.25825143  1
  Co  Co13  1  0.50241391  0.99563059  0.00042403  1
  Co  Co14  1  0.75265273  0.49889374  0.49789814  1
  Co  Co15  1  0.88414360  0.74277981  0.26190192  1
  O  O16  1  0.72704326  0.17813638  0.04259230  1
  O  O17  1  0.84298108  0.41821744  0.80536576  1
  O  O18  1  0.58934055  0.92358767  0.29676112  1
  O  O19  1  0.48149870  0.68191367  0.55422660  1
  O  O20  1  0.34875516  0.41368885  0.81081428  1
  O  O21  1  0.21484134  0.17340320  0.04288410  1
  O  O22  1  0.08797950  0.93845207  0.28870149  1
  O  O23  1  0.95898802  0.69015032  0.54956297  1
  O  O24  1  0.90941710  0.07829824  0.71050513  1
  O  O25  1  0.02243543  0.31707581  0.46584819  1
  O  O26  1  0.78323916  0.83572535  0.94246977  1
  O  O27  1  0.66127848  0.56420909  0.19424715  1
  O  O28  1  0.53937035  0.30804929  0.46210668  1
  O  O29  1  0.40471143  0.08389622  0.69841920  1
  O  O30  1  0.26903517  0.82906188  0.94209581  1
  O  O31  1  0.15293392  0.58050721  0.18182232  1
