# generated using pymatgen
data_Li9Mn2Co5O16
_symmetry_space_group_name_H-M   'P 1'
_cell_length_a   6.56696005
_cell_length_b   7.69010314
_cell_length_c   6.65341871
_cell_angle_alpha   114.86316817
_cell_angle_beta   72.18346053
_cell_angle_gamma   104.73857657
_symmetry_Int_Tables_number   1
_chemical_formula_structural   Li9Mn2Co5O16
_chemical_formula_sum   'Li9 Mn2 Co5 O16'
_cell_volume   287.14583739
_cell_formula_units_Z   1
loop_
 _symmetry_equiv_pos_site_id
 _symmetry_equiv_pos_as_xyz
  1  'x, y, z'
loop_
 _atom_site_type_symbol
 _atom_site_label
 _atom_site_symmetry_multiplicity
 _atom_site_fract_x
 _atom_site_fract_y
 _atom_site_fract_z
 _atom_site_occupancy
  Li  Li0  1  0.06973006  0.32030436  0.44480596  1
  Li  Li1  1  0.31382999  0.56466053  0.19440400  1
  Li  Li2  1  0.68471299  0.43446729  0.80609754  1
  Li  Li3  1  0.93309722  0.67961171  0.55586837  1
  Li  Li4  1  0.55648426  0.80935254  0.93666911  1
  Li  Li5  1  0.19180206  0.93454343  0.30866639  1
  Li  Li6  1  0.80916221  0.06718580  0.69055169  1
  Li  Li7  1  0.43939091  0.18883401  0.06428887  1
  Li  Li8  1  0.49916952  0.50146537  0.50113092  1
  Mn  Mn9  1  0.00360912  -0.00105645  0.00007258  1
  Mn  Mn10  1  0.74705472  0.74932514  0.25102609  1
  Co  Co11  1  0.25327903  0.25301260  0.73868124  1
  Co  Co12  1  0.86669058  0.37540851  0.12415966  1
  Co  Co13  1  0.13953738  0.61877187  0.86670781  1
  Co  Co14  1  0.37654828  0.87284145  0.62461052  1
  Co  Co15  1  0.62464004  0.13537577  0.38046345  1
  O  O16  1  0.14095927  0.26820675  0.07978835  1
  O  O17  1  0.38849485  0.53312067  0.85313009  1
  O  O18  1  0.77792771  0.38649502  0.45634728  1
  O  O19  1  0.00990747  0.65559955  0.21679042  1
  O  O20  1  0.65327974  0.78537571  0.56383090  1
  O  O21  1  0.26143835  0.91053668  0.97497319  1
  O  O22  1  0.90161077  0.01491149  0.31681009  1
  O  O23  1  0.51723892  0.13850376  0.70562021  1
  O  O24  1  0.97344022  0.34875588  0.78858016  1
  O  O25  1  0.22642970  0.61849146  0.55073020  1
  O  O26  1  0.61538326  0.48021937  0.15540986  1
  O  O27  1  0.85666069  0.73157616  0.92754936  1
  O  O28  1  0.49485623  0.84901439  0.27562451  1
  O  O29  1  0.09942532  0.96954017  0.68551316  1
  O  O30  1  0.73672521  0.09259100  0.03422228  1
  O  O31  1  0.33749191  0.21296004  0.42688377  1
