# generated using pymatgen
data_Li9Mn2Co5O16
_symmetry_space_group_name_H-M   'P 1'
_cell_length_a   6.56235903
_cell_length_b   7.79836518
_cell_length_c   6.64220107
_cell_angle_alpha   89.60725936
_cell_angle_beta   71.25291481
_cell_angle_gamma   64.90824125
_symmetry_Int_Tables_number   1
_chemical_formula_structural   Li9Mn2Co5O16
_chemical_formula_sum   'Li9 Mn2 Co5 O16'
_cell_volume   288.16930405
_cell_formula_units_Z   1
loop_
 _symmetry_equiv_pos_site_id
 _symmetry_equiv_pos_as_xyz
  1  'x, y, z'
loop_
 _atom_site_type_symbol
 _atom_site_label
 _atom_site_symmetry_multiplicity
 _atom_site_fract_x
 _atom_site_fract_y
 _atom_site_fract_z
 _atom_site_occupancy
  Li  Li0  1  0.87392526  0.20152582  0.43327878  1
  Li  Li1  1  0.62190688  0.06286795  0.81404724  1
  Li  Li2  1  0.37921172  0.93411221  0.19363993  1
  Li  Li3  1  0.12579053  0.79702191  0.56508196  1
  Li  Li4  1  0.63045129  0.55786654  0.31707929  1
  Li  Li5  1  0.37132821  0.44071660  0.68544155  1
  Li  Li6  1  0.12088247  0.32024086  0.06341510  1
  Li  Li7  1  0.87526843  0.68604044  0.93069308  1
  Li  Li8  1  0.99859724  0.49763722  0.50331855  1
  Mn  Mn9  1  0.99946519  0.00310752  0.00023844  1
  Mn  Mn10  1  0.24845803  0.12480758  0.62321612  1
  Co  Co11  1  0.48666902  0.26134730  0.25906206  1
  Co  Co12  1  0.74887431  0.37969329  0.86810437  1
  Co  Co13  1  0.25219454  0.62336099  0.12648871  1
  Co  Co14  1  0.51686172  0.74229495  0.73924264  1
  Co  Co15  1  0.75803398  0.86609858  0.37341274  1
  O  O16  1  0.81999184  0.26398913  0.14458847  1
  O  O17  1  0.54767987  0.14396271  0.52916442  1
  O  O18  1  0.29338553  0.03249490  0.89259378  1
  O  O19  1  0.05604061  0.91030390  0.25902860  1
  O  O20  1  0.55407373  0.65226961  0.02358018  1
  O  O21  1  0.32416256  0.51963820  0.38896810  1
  O  O22  1  0.06000731  0.38432126  0.77776231  1
  O  O23  1  0.79303600  0.78596739  0.65523398  1
  O  O24  1  0.95488327  0.09098551  0.73135682  1
  O  O25  1  0.70073899  0.98294207  0.09826908  1
  O  O26  1  0.43384751  0.85724977  0.48057967  1
  O  O27  1  0.18633852  0.73809005  0.85464460  1
  O  O28  1  0.67709188  0.47263348  0.60995897  1
  O  O29  1  0.44758905  0.34676737  0.97703911  1
  O  O30  1  0.20140043  0.20672895  0.36456418  1
  O  O31  1  0.94181405  0.61291594  0.21690717  1
