# generated using pymatgen
data_Li9Mn2Co5O16
_symmetry_space_group_name_H-M   'P 1'
_cell_length_a   5.92090372
_cell_length_b   7.73202871
_cell_length_c   7.69454542
_cell_angle_alpha   115.48380953
_cell_angle_beta   111.09777908
_cell_angle_gamma   68.17582522
_symmetry_Int_Tables_number   1
_chemical_formula_structural   Li9Mn2Co5O16
_chemical_formula_sum   'Li9 Mn2 Co5 O16'
_cell_volume   286.66670101
_cell_formula_units_Z   1
loop_
 _symmetry_equiv_pos_site_id
 _symmetry_equiv_pos_as_xyz
  1  'x, y, z'
loop_
 _atom_site_type_symbol
 _atom_site_label
 _atom_site_symmetry_multiplicity
 _atom_site_fract_x
 _atom_site_fract_y
 _atom_site_fract_z
 _atom_site_occupancy
  Li  Li0  1  0.38204049  0.12686899  0.38342267  1
  Li  Li1  1  0.24108853  0.25811069  0.75084071  1
  Li  Li2  1  0.62935877  0.87912575  0.62670765  1
  Li  Li3  1  0.50044280  0.99669329  0.99560776  1
  Li  Li4  1  0.87363124  0.61420927  0.87053240  1
  Li  Li5  1  0.75301774  0.74687747  0.25293983  1
  Li  Li6  1  0.11066751  0.37977937  0.11659247  1
  Li  Li7  1  0.00359602  0.50123477  0.50218705  1
  Li  Li8  1  0.75056715  0.25084781  0.75124782  1
  Mn  Mn9  1  0.99684997  0.00143639  0.99793834  1
  Mn  Mn10  1  0.87730308  0.12693887  0.37919060  1
  Co  Co11  1  0.62745249  0.37374167  0.12292997  1
  Co  Co12  1  0.50858215  0.49932569  0.50911316  1
  Co  Co13  1  0.38453757  0.61519681  0.87242601  1
  Co  Co14  1  0.24790713  0.74089331  0.24521636  1
  Co  Co15  1  0.12055237  0.88236797  0.62828379  1
  O  O16  1  0.00599687  0.22681005  0.24373904  1
  O  O17  1  0.86828357  0.36384501  0.60449908  1
  O  O18  1  0.22354408  0.00300122  0.48954155  1
  O  O19  1  0.12308958  0.10423633  0.87484321  1
  O  O20  1  0.48885699  0.74755980  0.74330403  1
  O  O21  1  0.34254565  0.86653297  0.10788283  1
  O  O22  1  0.72604017  0.50058993  0.00878163  1
  O  O23  1  0.60429965  0.61189537  0.36084742  1
  O  O24  1  0.76411451  0.00460996  0.48882911  1
  O  O25  1  0.65757998  0.13033208  0.89982362  1
  O  O26  1  0.00014364  0.76782137  0.76359075  1
  O  O27  1  0.88702593  0.89123048  0.13284056  1
  O  O28  1  0.25001424  0.50370672  0.00448502  1
  O  O29  1  0.13597032  0.63824615  0.38585702  1
  O  O30  1  0.54048134  0.25013027  0.25765265  1
  O  O31  1  0.37441948  0.39579818  0.62830091  1
