# generated using pymatgen
data_Li9Mn2Co5O16
_symmetry_space_group_name_H-M   'P 1'
_cell_length_a   5.91570829
_cell_length_b   6.45579035
_cell_length_c   7.88787098
_cell_angle_alpha   88.95871156
_cell_angle_beta   76.01406207
_cell_angle_gamma   75.22683268
_symmetry_Int_Tables_number   1
_chemical_formula_structural   Li9Mn2Co5O16
_chemical_formula_sum   'Li9 Mn2 Co5 O16'
_cell_volume   282.34572550
_cell_formula_units_Z   1
loop_
 _symmetry_equiv_pos_site_id
 _symmetry_equiv_pos_as_xyz
  1  'x, y, z'
loop_
 _atom_site_type_symbol
 _atom_site_label
 _atom_site_symmetry_multiplicity
 _atom_site_fract_x
 _atom_site_fract_y
 _atom_site_fract_z
 _atom_site_occupancy
  Li  Li0  1  0.12854964  0.38157744  0.12877772  1
  Li  Li1  1  0.74225300  0.74468186  0.24502371  1
  Li  Li2  1  0.00629800  0.50119049  0.49215852  1
  Li  Li3  1  0.62214400  0.87319985  0.62165977  1
  Li  Li4  1  0.87299786  0.61945890  0.87984869  1
  Li  Li5  1  0.49826934  0.99402239  0.00955066  1
  Li  Li6  1  0.37949780  0.12595372  0.37342190  1
  Li  Li7  1  0.25135919  0.25702250  0.74954638  1
  Li  Li8  1  0.25426944  0.74476352  0.24803217  1
  Mn  Mn9  1  0.99879026  0.00050589  0.00432397  1
  Mn  Mn10  1  0.12753507  0.87463742  0.62103871  1
  Co  Co11  1  0.62085898  0.37931623  0.12600390  1
  Co  Co12  1  0.87472947  0.12676320  0.37605878  1
  Co  Co13  1  0.49428301  0.49885941  0.49373848  1
  Co  Co14  1  0.74844852  0.25221725  0.75106039  1
  Co  Co15  1  0.38003882  0.62632423  0.88152393  1
  O  O16  1  0.92355598  0.30025147  0.94774058  1
  O  O17  1  0.56393623  0.66965947  0.06306029  1
  O  O18  1  0.80135745  0.42738052  0.32714302  1
  O  O19  1  0.42886804  0.80529798  0.45256272  1
  O  O20  1  0.66986202  0.55004719  0.70134657  1
  O  O21  1  0.29168117  0.92679023  0.81071589  1
  O  O22  1  0.15321411  0.06007927  0.17785952  1
  O  O23  1  0.05621799  0.17778051  0.57677182  1
  O  O24  1  0.33366040  0.43071159  0.30225881  1
  O  O25  1  0.95089177  0.83729826  0.45489989  1
  O  O26  1  0.19388626  0.57550433  0.67050077  1
  O  O27  1  0.83342777  0.95271315  0.81659019  1
  O  O28  1  0.07327820  0.69865049  0.04484854  1
  O  O29  1  0.69848724  0.06806988  0.17653180  1
  O  O30  1  0.57935107  0.19801937  0.55381402  1
  O  O31  1  0.44800689  0.32125598  0.92159088  1
