# generated using pymatgen
data_Li9Mn2Co5O16
_symmetry_space_group_name_H-M   'P 1'
_cell_length_a   5.16691866
_cell_length_b   7.66225529
_cell_length_c   7.74419891
_cell_angle_alpha   94.13327961
_cell_angle_beta   108.73643333
_cell_angle_gamma   96.65878218
_symmetry_Int_Tables_number   1
_chemical_formula_structural   Li9Mn2Co5O16
_chemical_formula_sum   'Li9 Mn2 Co5 O16'
_cell_volume   286.43411553
_cell_formula_units_Z   1
loop_
 _symmetry_equiv_pos_site_id
 _symmetry_equiv_pos_as_xyz
  1  'x, y, z'
loop_
 _atom_site_type_symbol
 _atom_site_label
 _atom_site_symmetry_multiplicity
 _atom_site_fract_x
 _atom_site_fract_y
 _atom_site_fract_z
 _atom_site_occupancy
  Li  Li0  1  0.56691332  0.18891949  0.06597734  1
  Li  Li1  1  0.92951356  0.31457891  0.43605374  1
  Li  Li2  1  0.31351431  0.44067304  0.81295116  1
  Li  Li3  1  0.69147815  0.56613891  0.19136704  1
  Li  Li4  1  0.06201255  0.68853522  0.56098975  1
  Li  Li5  1  0.43550405  0.80979405  0.92791995  1
  Li  Li6  1  0.81725915  0.93356475  0.32435859  1
  Li  Li7  1  0.17696702  0.05518375  0.67699982  1
  Li  Li8  1  0.62675414  0.87421951  0.62092608  1
  Mn  Mn9  1  0.99257251  0.00026036  0.99800766  1
  Mn  Mn10  1  0.75450687  0.24360013  0.74456463  1
  Co  Co11  1  0.38249168  0.12197480  0.37816729  1
  Co  Co12  1  0.12277836  0.38072909  0.13001304  1
  Co  Co13  1  0.50530957  0.50976520  0.50592131  1
  Co  Co14  1  0.86823381  0.62924523  0.86935449  1
  Co  Co15  1  0.25951496  0.75503487  0.25895145  1
  O  O16  1  0.12587093  0.21070252  0.90359059  1
  O  O17  1  0.50584920  0.33666570  0.29432831  1
  O  O18  1  0.89388704  0.45935641  0.66258541  1
  O  O19  1  0.26281194  0.58777141  0.04263983  1
  O  O20  1  0.63694840  0.71292314  0.39777953  1
  O  O21  1  0.03081084  0.84095796  0.80325570  1
  O  O22  1  0.36931064  0.97975592  0.15430070  1
  O  O23  1  0.78590831  0.10399605  0.54362813  1
  O  O24  1  0.97143181  0.15937764  0.19961959  1
  O  O25  1  0.38497119  0.26583834  0.59693253  1
  O  O26  1  0.73310940  0.40624163  0.95547211  1
  O  O27  1  0.10926705  0.53148605  0.34779420  1
  O  O28  1  0.47707542  0.64386903  0.71287255  1
  O  O29  1  0.84992949  0.79456896  0.08390296  1
  O  O30  1  0.22660888  0.91348317  0.45106967  1
  O  O31  1  0.63088340  0.04078275  0.84769885  1
