# generated using pymatgen
data_Nb(Mo3S4)2
_symmetry_space_group_name_H-M   'P 1'
_cell_length_a   6.38452758
_cell_length_b   6.38452758
_cell_length_c   6.38452782
_cell_angle_alpha   90.03473293
_cell_angle_beta   90.03473293
_cell_angle_gamma   90.03472875
_symmetry_Int_Tables_number   1
_chemical_formula_structural   Nb(Mo3S4)2
_chemical_formula_sum   'Nb1 Mo6 S8'
_cell_volume   260.24720774
_cell_formula_units_Z   1
loop_
 _symmetry_equiv_pos_site_id
 _symmetry_equiv_pos_as_xyz
  1  'x, y, z'
loop_
 _atom_site_type_symbol
 _atom_site_label
 _atom_site_symmetry_multiplicity
 _atom_site_fract_x
 _atom_site_fract_y
 _atom_site_fract_z
 _atom_site_occupancy
  Nb  Nb0  1  0.00000000  -0.00000000  -0.00000000  1
  Mo  Mo1  1  0.57894151  0.78390556  0.44375792  1
  Mo  Mo2  1  0.78390556  0.44375792  0.57894151  1
  Mo  Mo3  1  0.44375792  0.57894151  0.78390556  1
  Mo  Mo4  1  0.42105849  0.21609444  0.55624208  1
  Mo  Mo5  1  0.21609444  0.55624208  0.42105849  1
  Mo  Mo6  1  0.55624208  0.42105849  0.21609444  1
  S  S7  1  0.77046923  0.77046923  0.77046923  1
  S  S8  1  0.22953077  0.22953077  0.22953077  1
  S  S9  1  0.64463936  0.23867866  0.86935463  1
  S  S10  1  0.23867866  0.86935463  0.64463936  1
  S  S11  1  0.86935463  0.64463936  0.23867866  1
  S  S12  1  0.35536064  0.76132134  0.13064537  1
  S  S13  1  0.76132134  0.13064537  0.35536064  1
  S  S14  1  0.13064537  0.35536064  0.76132134  1
