# generated using pymatgen
data_Li9Mn2Co5O16
_symmetry_space_group_name_H-M   'P 1'
_cell_length_a   5.08057867
_cell_length_b   11.30631733
_cell_length_c   5.15820344
_cell_angle_alpha   98.34279506
_cell_angle_beta   80.19064575
_cell_angle_gamma   93.53206996
_symmetry_Int_Tables_number   1
_chemical_formula_structural   Li9Mn2Co5O16
_chemical_formula_sum   'Li9 Mn2 Co5 O16'
_cell_volume   288.67236436
_cell_formula_units_Z   1
loop_
 _symmetry_equiv_pos_site_id
 _symmetry_equiv_pos_as_xyz
  1  'x, y, z'
loop_
 _atom_site_type_symbol
 _atom_site_label
 _atom_site_symmetry_multiplicity
 _atom_site_fract_x
 _atom_site_fract_y
 _atom_site_fract_z
 _atom_site_occupancy
  Li  Li0  1  0.25135473  0.93503372  0.44112229  1
  Li  Li1  1  0.74527862  0.05765760  0.56509602  1
  Li  Li2  1  0.24947173  0.18577501  0.68883288  1
  Li  Li3  1  0.25259964  0.69443992  0.18789822  1
  Li  Li4  1  0.74237883  0.81574012  0.30866916  1
  Li  Li5  1  0.25271342  0.43706024  0.93745627  1
  Li  Li6  1  0.75329040  0.56445799  0.06065971  1
  Li  Li7  1  0.74893392  0.30995613  0.80945961  1
  Li  Li8  1  0.49978536  0.87609669  0.87599029  1
  Mn  Mn9  1  0.00225407  0.99778753  0.99428876  1
  Mn  Mn10  1  0.00092781  0.50042097  0.50262182  1
  Co  Co11  1  0.50052196  0.11699052  0.11614997  1
  Co  Co12  1  0.00279903  0.24844063  0.24632229  1
  Co  Co13  1  0.50130108  0.37259611  0.37525122  1
  Co  Co14  1  0.49787797  0.63464463  0.62772290  1
  Co  Co15  1  0.98886933  0.75431797  0.76378782  1
  O  O16  1  0.10929666  0.85246644  0.08425797  1
  O  O17  1  0.64184002  0.98049287  0.20809831  1
  O  O18  1  0.11960699  0.09408603  0.31365166  1
  O  O19  1  0.12678227  0.58740337  0.81290986  1
  O  O20  1  0.64252722  0.71569806  0.94889054  1
  O  O21  1  0.12037648  0.34972450  0.57913838  1
  O  O22  1  0.64507838  0.47339743  0.69600619  1
  O  O23  1  0.62566487  0.22654247  0.45143136  1
  O  O24  1  0.35166203  0.03361166  0.80293568  1
  O  O25  1  0.87564389  0.15105093  0.91943553  1
  O  O26  1  0.37233780  0.27645914  0.04895956  1
  O  O27  1  0.36654978  0.77048184  0.54060189  1
  O  O28  1  0.89121383  0.91182346  0.68436998  1
  O  O29  1  0.35989677  0.52125698  0.30164445  1
  O  O30  1  0.88023555  0.64652073  0.42029702  1
  O  O31  1  0.88092956  0.40756729  0.18604241  1
