# generated using pymatgen
data_Li9Mn2Co5O16
_symmetry_space_group_name_H-M   'P 1'
_cell_length_a   5.10919095
_cell_length_b   7.79994967
_cell_length_c   7.68969416
_cell_angle_alpha   98.73831419
_cell_angle_beta   102.69586869
_cell_angle_gamma   101.48038838
_symmetry_Int_Tables_number   1
_chemical_formula_structural   Li9Mn2Co5O16
_chemical_formula_sum   'Li9 Mn2 Co5 O16'
_cell_volume   286.77020414
_cell_formula_units_Z   1
loop_
 _symmetry_equiv_pos_site_id
 _symmetry_equiv_pos_as_xyz
  1  'x, y, z'
loop_
 _atom_site_type_symbol
 _atom_site_label
 _atom_site_symmetry_multiplicity
 _atom_site_fract_x
 _atom_site_fract_y
 _atom_site_fract_z
 _atom_site_occupancy
  Li  Li0  1  0.50125926  0.12811656  0.87694091  1
  Li  Li1  1  0.50920500  0.50331690  0.00100812  1
  Li  Li2  1  0.50118504  0.37451501  0.62454869  1
  Li  Li3  1  0.50211437  0.75155277  0.75106863  1
  Li  Li4  1  0.49526061  0.63017358  0.36719243  1
  Li  Li5  1  0.49074236  0.99164525  0.49460860  1
  Li  Li6  1  0.50249604  0.86908324  0.13236016  1
  Li  Li7  1  0.49849980  0.25101757  0.25342627  1
  Li  Li8  1  0.00185588  0.75028384  0.24924271  1
  Mn  Mn9  1  0.99843208  0.99736712  0.00058026  1
  Mn  Mn10  1  0.00276458  0.87469108  0.62339167  1
  Co  Co11  1  0.00081139  0.38507250  0.12679855  1
  Co  Co12  1  0.00184474  0.11830471  0.37292137  1
  Co  Co13  1  0.00620694  0.50507050  0.49382212  1
  Co  Co14  1  0.98893399  0.25349424  0.74789599  1
  Co  Co15  1  0.00249701  0.62647495  0.87794843  1
  O  O16  1  0.23126057  0.88843924  0.87100013  1
  O  O17  1  0.20956449  0.23886685  0.99502337  1
  O  O18  1  0.22546067  0.10864291  0.62266237  1
  O  O19  1  0.21638504  0.49746267  0.74803982  1
  O  O20  1  0.23783921  0.37271409  0.37620118  1
  O  O21  1  0.23113646  0.75189133  0.51182482  1
  O  O22  1  0.23217563  0.61388650  0.10548042  1
  O  O23  1  0.22692386  0.00906738  0.23949552  1
  O  O24  1  0.75317477  0.37509360  0.87393822  1
  O  O25  1  0.78646766  0.76272623  0.99358955  1
  O  O26  1  0.78755189  0.64264831  0.63740994  1
  O  O27  1  0.77875485  0.99813534  0.75712581  1
  O  O28  1  0.76749838  0.87916257  0.39439138  1
  O  O29  1  0.77458940  0.24743303  0.50406033  1
  O  O30  1  0.77000525  0.11623693  0.12041770  1
  O  O31  1  0.76710277  0.48741220  0.25558656  1
