# generated using pymatgen
data_Li9Mn2Co5O16
_symmetry_space_group_name_H-M   'P 1'
_cell_length_a   5.94663699
_cell_length_b   7.74060636
_cell_length_c   6.55012788
_cell_angle_alpha   90.65955162
_cell_angle_beta   75.96448317
_cell_angle_gamma   100.57185915
_symmetry_Int_Tables_number   1
_chemical_formula_structural   Li9Mn2Co5O16
_chemical_formula_sum   'Li9 Mn2 Co5 O16'
_cell_volume   287.36773428
_cell_formula_units_Z   1
loop_
 _symmetry_equiv_pos_site_id
 _symmetry_equiv_pos_as_xyz
  1  'x, y, z'
loop_
 _atom_site_type_symbol
 _atom_site_label
 _atom_site_symmetry_multiplicity
 _atom_site_fract_x
 _atom_site_fract_y
 _atom_site_fract_z
 _atom_site_occupancy
  Li  Li0  1  0.49645642  0.99640862  0.00128530  1
  Li  Li1  1  0.25747734  0.25556215  0.25421567  1
  Li  Li2  1  0.87770166  0.12352407  0.62195493  1
  Li  Li3  1  0.62816011  0.38239368  0.86690695  1
  Li  Li4  1  0.00037140  0.49930599  0.50072960  1
  Li  Li5  1  0.37100284  0.61467223  0.13432436  1
  Li  Li6  1  0.12432332  0.87658449  0.37509243  1
  Li  Li7  1  0.74809284  0.75121859  0.74278037  1
  Li  Li8  1  0.49998233  0.49933283  0.49964699  1
  Mn  Mn9  1  0.00032489  -0.00008124  0.99856965  1
  Mn  Mn10  1  0.12903265  0.37638303  0.87700651  1
  Co  Co11  1  0.74114680  0.25618551  0.26429477  1
  Co  Co12  1  0.25478085  0.74397203  0.73998291  1
  Co  Co13  1  0.86036166  0.62173919  0.13560589  1
  Co  Co14  1  0.62273362  0.87191369  0.37616251  1
  Co  Co15  1  0.37774676  0.12717687  0.61882743  1
  O  O16  1  0.17168573  0.82077205  0.04388511  1
  O  O17  1  0.93203138  0.05607434  0.29311323  1
  O  O18  1  0.54821798  0.94128963  0.68157684  1
  O  O19  1  0.28563434  0.18618152  0.93672745  1
  O  O20  1  0.69044879  0.30175667  0.55121114  1
  O  O21  1  0.05508704  0.43637829  0.17365684  1
  O  O22  1  0.81030000  0.69749836  0.42115486  1
  O  O23  1  0.40956125  0.55289108  0.82086746  1
  O  O24  1  0.84003493  0.18950809  0.94874990  1
  O  O25  1  0.58199178  0.43802853  0.17993661  1
  O  O26  1  0.19449648  0.30470846  0.58762379  1
  O  O27  1  0.95391769  0.55130925  0.82219416  1
  O  O28  1  0.31503689  0.69986693  0.44854468  1
  O  O29  1  0.70920900  0.82369111  0.06013675  1
  O  O30  1  0.44712257  0.06232275  0.31684058  1
  O  O31  1  0.06552866  0.94143121  0.70639433  1
