# generated using pymatgen
data_Li9Mn2Co5O16
_symmetry_space_group_name_H-M   'P 1'
_cell_length_a   5.16019293
_cell_length_b   5.87488897
_cell_length_c   10.08802434
_cell_angle_alpha   90.50534877
_cell_angle_beta   80.19056799
_cell_angle_gamma   107.36065563
_symmetry_Int_Tables_number   1
_chemical_formula_structural   Li9Mn2Co5O16
_chemical_formula_sum   'Li9 Mn2 Co5 O16'
_cell_volume   287.33775271
_cell_formula_units_Z   1
loop_
 _symmetry_equiv_pos_site_id
 _symmetry_equiv_pos_as_xyz
  1  'x, y, z'
loop_
 _atom_site_type_symbol
 _atom_site_label
 _atom_site_symmetry_multiplicity
 _atom_site_fract_x
 _atom_site_fract_y
 _atom_site_fract_z
 _atom_site_occupancy
  Li  Li0  1  0.49743993  0.12471355  0.13195367  1
  Li  Li1  1  0.49263111  0.87089088  0.37899545  1
  Li  Li2  1  0.49469769  0.61550505  0.61710213  1
  Li  Li3  1  0.49880504  0.37399024  0.87209158  1
  Li  Li4  1  0.50504546  0.62404178  0.12844365  1
  Li  Li5  1  0.50213718  0.37453723  0.37850514  1
  Li  Li6  1  0.50604944  0.13520170  0.61731761  1
  Li  Li7  1  0.50176144  0.87777155  0.87340524  1
  Li  Li8  1  0.99881480  0.49707874  0.50150086  1
  Mn  Mn9  1  0.00498313  0.00191361  0.99895351  1
  Mn  Mn10  1  0.99672961  0.74666813  0.74604026  1
  Co  Co11  1  0.99521508  0.74679323  0.26103504  1
  Co  Co12  1  0.99657388  0.25373600  0.74520824  1
  Co  Co13  1  0.99676562  0.49772978  0.00590415  1
  Co  Co14  1  0.00673759  0.25636934  0.25817145  1
  Co  Co15  1  0.00228615  0.00462621  0.49864214  1
  O  O16  1  0.23440541  0.29948913  0.05263177  1
  O  O17  1  0.24057748  0.06118955  0.31572516  1
  O  O18  1  0.22491869  0.81377031  0.57614427  1
  O  O19  1  0.20717436  0.55817505  0.81301769  1
  O  O20  1  0.22181172  0.81966637  0.06283753  1
  O  O21  1  0.23642132  0.55182598  0.30096464  1
  O  O22  1  0.22455484  0.29623643  0.57693930  1
  O  O23  1  0.22720673  0.03954638  0.82081373  1
  O  O24  1  0.78374371  0.95538631  0.17539784  1
  O  O25  1  0.76346372  0.69768641  0.42555350  1
  O  O26  1  0.75887187  0.45952730  0.69719791  1
  O  O27  1  0.78832626  0.18320949  0.93030455  1
  O  O28  1  0.76812402  0.44105684  0.17665554  1
  O  O29  1  0.76600782  0.17390675  0.43511688  1
  O  O30  1  0.78186642  0.94169853  0.69267679  1
  O  O31  1  0.77585248  0.70606213  0.93475280  1
