# generated using pymatgen
data_Li9Mn2Co5O16
_symmetry_space_group_name_H-M   'P 1'
_cell_length_a   5.16804666
_cell_length_b   7.73081820
_cell_length_c   7.72031315
_cell_angle_alpha   95.43603551
_cell_angle_beta   108.56856214
_cell_angle_gamma   96.44076360
_symmetry_Int_Tables_number   1
_chemical_formula_structural   Li9Mn2Co5O16
_chemical_formula_sum   'Li9 Mn2 Co5 O16'
_cell_volume   287.74904863
_cell_formula_units_Z   1
loop_
 _symmetry_equiv_pos_site_id
 _symmetry_equiv_pos_as_xyz
  1  'x, y, z'
loop_
 _atom_site_type_symbol
 _atom_site_label
 _atom_site_symmetry_multiplicity
 _atom_site_fract_x
 _atom_site_fract_y
 _atom_site_fract_z
 _atom_site_occupancy
  Li  Li0  1  0.56142551  0.19023391  0.06626087  1
  Li  Li1  1  0.93679597  0.31333355  0.43508738  1
  Li  Li2  1  0.31358935  0.43925095  0.81492467  1
  Li  Li3  1  0.68609700  0.56725489  0.18680417  1
  Li  Li4  1  0.06151275  0.68340335  0.55301197  1
  Li  Li5  1  0.43827299  0.80394180  0.94561750  1
  Li  Li6  1  0.81089199  0.93275875  0.30991726  1
  Li  Li7  1  0.18843633  0.06595808  0.68611311  1
  Li  Li8  1  0.25038105  0.74889319  0.24882562  1
  Mn  Mn9  1  0.00019301  0.00050740  0.00491052  1
  Mn  Mn10  1  0.62658273  0.87547651  0.62231095  1
  Co  Co11  1  0.37276016  0.12325675  0.37477189  1
  Co  Co12  1  0.75284653  0.25357847  0.75154743  1
  Co  Co13  1  0.12714491  0.38514510  0.13154540  1
  Co  Co14  1  0.49955632  0.50327877  0.49614813  1
  Co  Co15  1  0.88890858  0.62599402  0.88229386  1
  O  O16  1  0.13816121  0.21112117  0.91838183  1
  O  O17  1  0.50909084  0.33387661  0.28951217  1
  O  O18  1  0.89070061  0.47146444  0.66163897  1
  O  O19  1  0.26412273  0.58607618  0.02508693  1
  O  O20  1  0.65871793  0.72204302  0.42290631  1
  O  O21  1  0.00760384  0.85104911  0.78536034  1
  O  O22  1  0.36707234  0.97945009  0.15427746  1
  O  O23  1  0.78307390  0.08711700  0.54836027  1
  O  O24  1  0.96265757  0.14596325  0.20542531  1
  O  O25  1  0.36531647  0.27957315  0.58531094  1
  O  O26  1  0.72615821  0.40291085  0.95863756  1
  O  O27  1  0.09722447  0.51921251  0.33576415  1
  O  O28  1  0.47735697  0.66803949  0.70318507  1
  O  O29  1  0.84663591  0.78656744  0.07603785  1
  O  O30  1  0.26813548  0.91842913  0.47810717  1
  O  O31  1  0.62257433  0.02483510  0.84191095  1
