# generated using pymatgen
data_Li9Mn2Co5O16
_symmetry_space_group_name_H-M   'P 1'
_cell_length_a   5.16146583
_cell_length_b   5.89742104
_cell_length_c   10.05012118
_cell_angle_alpha   90.84585235
_cell_angle_beta   79.95165571
_cell_angle_gamma   107.68852977
_symmetry_Int_Tables_number   1
_chemical_formula_structural   Li9Mn2Co5O16
_chemical_formula_sum   'Li9 Mn2 Co5 O16'
_cell_volume   286.74653744
_cell_formula_units_Z   1
loop_
 _symmetry_equiv_pos_site_id
 _symmetry_equiv_pos_as_xyz
  1  'x, y, z'
loop_
 _atom_site_type_symbol
 _atom_site_label
 _atom_site_symmetry_multiplicity
 _atom_site_fract_x
 _atom_site_fract_y
 _atom_site_fract_z
 _atom_site_occupancy
  Li  Li0  1  0.50124926  0.12787101  0.13268651  1
  Li  Li1  1  0.49432413  0.86998747  0.37641078  1
  Li  Li2  1  0.48738688  0.63023801  0.61499040  1
  Li  Li3  1  0.50069249  0.38016895  0.87575884  1
  Li  Li4  1  0.50943562  0.61875217  0.12772462  1
  Li  Li5  1  0.49960376  0.37767622  0.38099222  1
  Li  Li6  1  0.50594368  0.12902442  0.61731544  1
  Li  Li7  1  0.49693340  0.86686866  0.87031411  1
  Li  Li8  1  0.99893648  0.50099531  0.50224602  1
  Mn  Mn9  1  0.00175629  0.99681264  0.00043766  1
  Mn  Mn10  1  0.99777393  0.25348437  0.74737270  1
  Co  Co11  1  0.00816367  0.74351766  0.25826173  1
  Co  Co12  1  0.00379486  0.49640876  0.99901742  1
  Co  Co13  1  0.99554150  0.25065131  0.26030842  1
  Co  Co14  1  0.00032455  0.99405667  0.49838607  1
  Co  Co15  1  0.99406995  0.75086372  0.74750491  1
  O  O16  1  0.23130716  0.28454472  0.06407810  1
  O  O17  1  0.24207072  0.06523521  0.31622866  1
  O  O18  1  0.21960323  0.81140133  0.57765862  1
  O  O19  1  0.22683717  0.53878560  0.82058955  1
  O  O20  1  0.21981857  0.80867751  0.05185315  1
  O  O21  1  0.24097895  0.57390620  0.30041945  1
  O  O22  1  0.22481764  0.29770072  0.57448904  1
  O  O23  1  0.21120167  0.05882789  0.81525960  1
  O  O24  1  0.78131678  0.93334378  0.17632788  1
  O  O25  1  0.75953446  0.70803569  0.43605748  1
  O  O26  1  0.77878289  0.43836415  0.70054391  1
  O  O27  1  0.78629178  0.18899492  0.93773346  1
  O  O28  1  0.78133914  0.44338788  0.17382430  1
  O  O29  1  0.76405384  0.18880987  0.42539869  1
  O  O30  1  0.76089087  0.96495847  0.68989424  1
  O  O31  1  0.77522466  0.70764870  0.92991603  1
