# generated using pymatgen
data_Li9Mn2Co5O16
_symmetry_space_group_name_H-M   'P 1'
_cell_length_a   5.93241541
_cell_length_b   7.73494712
_cell_length_c   6.56791216
_cell_angle_alpha   90.31626781
_cell_angle_beta   76.11148407
_cell_angle_gamma   100.02724938
_symmetry_Int_Tables_number   1
_chemical_formula_structural   Li9Mn2Co5O16
_chemical_formula_sum   'Li9 Mn2 Co5 O16'
_cell_volume   287.89377180
_cell_formula_units_Z   1
loop_
 _symmetry_equiv_pos_site_id
 _symmetry_equiv_pos_as_xyz
  1  'x, y, z'
loop_
 _atom_site_type_symbol
 _atom_site_label
 _atom_site_symmetry_multiplicity
 _atom_site_fract_x
 _atom_site_fract_y
 _atom_site_fract_z
 _atom_site_occupancy
  Li  Li0  1  0.49541035  0.00114967  0.00092483  1
  Li  Li1  1  0.25403463  0.25801295  0.24256609  1
  Li  Li2  1  0.87729769  0.13231602  0.63088850  1
  Li  Li3  1  0.63351918  0.38369199  0.87043295  1
  Li  Li4  1  0.99606676  0.49211188  0.51058394  1
  Li  Li5  1  0.37220756  0.61663570  0.12164436  1
  Li  Li6  1  0.12586089  0.87261760  0.37383481  1
  Li  Li7  1  0.75155306  0.74825982  0.74671974  1
  Li  Li8  1  0.12529997  0.37411188  0.87435581  1
  Mn  Mn9  1  0.00359386  0.00075336  0.00127151  1
  Mn  Mn10  1  0.62438541  0.87586574  0.37466061  1
  Co  Co11  1  0.74885545  0.25355922  0.24568315  1
  Co  Co12  1  0.49788750  0.49967931  0.50407173  1
  Co  Co13  1  0.24370840  0.73946128  0.75009381  1
  Co  Co14  1  0.88547152  0.61245804  0.12263510  1
  Co  Co15  1  0.36645557  0.13311300  0.62852744  1
  O  O16  1  0.17251391  0.81558929  0.05224960  1
  O  O17  1  0.92185225  0.04970923  0.30143110  1
  O  O18  1  0.55206719  0.93934811  0.66500955  1
  O  O19  1  0.28880052  0.16883794  0.94080447  1
  O  O20  1  0.68014786  0.30797305  0.55033819  1
  O  O21  1  0.04502345  0.44516960  0.19447185  1
  O  O22  1  0.79381846  0.69681066  0.43048210  1
  O  O23  1  0.43804408  0.57077191  0.79259484  1
  O  O24  1  0.81920790  0.17656728  0.96052437  1
  O  O25  1  0.57026771  0.44079466  0.19576283  1
  O  O26  1  0.20894889  0.30557281  0.55763504  1
  O  O27  1  0.94595391  0.57439593  0.81547365  1
  O  O28  1  0.33534037  0.69982067  0.43536338  1
  O  O29  1  0.70693389  0.81942227  0.07795413  1
  O  O30  1  0.45464641  0.05481085  0.32042062  1
  O  O31  1  0.06482539  0.94060832  0.71058992  1
