# generated using pymatgen
data_KFe2(MoO5)2
_symmetry_space_group_name_H-M   'P 1'
_cell_length_a   5.89785349
_cell_length_b   5.89785349
_cell_length_c   8.45117366
_cell_angle_alpha   67.87734429
_cell_angle_beta   67.87734429
_cell_angle_gamma   61.87855451
_symmetry_Int_Tables_number   1
_chemical_formula_structural   KFe2(MoO5)2
_chemical_formula_sum   'K1 Fe2 Mo2 O10'
_cell_volume   232.94100961
_cell_formula_units_Z   1
loop_
 _symmetry_equiv_pos_site_id
 _symmetry_equiv_pos_as_xyz
  1  'x, y, z'
loop_
 _atom_site_type_symbol
 _atom_site_label
 _atom_site_symmetry_multiplicity
 _atom_site_fract_x
 _atom_site_fract_y
 _atom_site_fract_z
 _atom_site_occupancy
  K  K0  1  0.50000000  0.50000000  0.50000000  1
  Fe  Fe1  1  0.00000000  0.50000000  0.00000000  1
  Fe  Fe2  1  0.50000000  0.00000000  0.00000000  1
  Mo  Mo3  1  0.92907559  0.92907559  0.26005432  1
  Mo  Mo4  1  0.07092441  0.07092441  0.73994568  1
  O  O5  1  0.69269491  0.69269491  0.91884012  1
  O  O6  1  0.30730509  0.30730509  0.08115988  1
  O  O7  1  0.80879007  0.28410939  0.21919808  1
  O  O8  1  0.28410939  0.80879007  0.21919808  1
  O  O9  1  0.19120993  0.71589061  0.78080192  1
  O  O10  1  0.71589061  0.19120993  0.78080192  1
  O  O11  1  0.80355514  0.80355514  0.48137471  1
  O  O12  1  0.19644486  0.19644486  0.51862529  1
  O  O13  1  0.82776977  0.82776977  0.11872558  1
  O  O14  1  0.17223023  0.17223023  0.88127442  1
