# generated using pymatgen
data_Li9Mn2Co5O16
_symmetry_space_group_name_H-M   'P 1'
_cell_length_a   5.11239191
_cell_length_b   10.47257547
_cell_length_c   5.88983830
_cell_angle_alpha   97.72240629
_cell_angle_beta   105.85913121
_cell_angle_gamma   104.52074350
_symmetry_Int_Tables_number   1
_chemical_formula_structural   Li9Mn2Co5O16
_chemical_formula_sum   'Li9 Mn2 Co5 O16'
_cell_volume   286.59411846
_cell_formula_units_Z   1
loop_
 _symmetry_equiv_pos_site_id
 _symmetry_equiv_pos_as_xyz
  1  'x, y, z'
loop_
 _atom_site_type_symbol
 _atom_site_label
 _atom_site_symmetry_multiplicity
 _atom_site_fract_x
 _atom_site_fract_y
 _atom_site_fract_z
 _atom_site_occupancy
  Li  Li0  1  0.62886693  0.12617388  0.18949830  1
  Li  Li1  1  0.62118896  0.12554440  0.68348254  1
  Li  Li2  1  0.88308662  0.38440938  0.57157294  1
  Li  Li3  1  0.88279085  0.38228288  0.07164128  1
  Li  Li4  1  0.12830176  0.62159014  0.93037665  1
  Li  Li5  1  0.12724059  0.62240339  0.43843355  1
  Li  Li6  1  0.36568165  0.86847713  0.30607375  1
  Li  Li7  1  0.36914877  0.87171941  0.80967564  1
  Li  Li8  1  0.49705687  0.49851185  0.74730126  1
  Mn  Mn9  1  0.00020163  0.00020793  0.99832516  1
  Mn  Mn10  1  0.25601518  0.25260569  0.38465832  1
  Co  Co11  1  0.99472951  0.00088694  0.49629581  1
  Co  Co12  1  0.25740712  0.25235469  0.88284305  1
  Co  Co13  1  0.50143800  0.50081571  0.25529866  1
  Co  Co14  1  0.74348414  0.73927584  0.11535107  1
  Co  Co15  1  0.73428556  0.74222225  0.62415175  1
  O  O16  1  0.29508916  0.07175477  0.85639973  1
  O  O17  1  0.27912063  0.06094714  0.32762184  1
  O  O18  1  0.54827699  0.31029163  0.23995645  1
  O  O19  1  0.52374601  0.29973922  0.70289023  1
  O  O20  1  0.80009403  0.56545370  0.57046834  1
  O  O21  1  0.81100147  0.57337533  0.09713037  1
  O  O22  1  0.05169652  0.82457126  0.96407199  1
  O  O23  1  0.03358491  0.82588098  0.47084934  1
  O  O24  1  0.95561772  0.17837750  0.51970547  1
  O  O25  1  0.97432863  0.18559564  0.04948859  1
  O  O26  1  0.20773302  0.42515098  0.92351249  1
  O  O27  1  0.19488806  0.42237518  0.40287046  1
  O  O28  1  0.44472821  0.68653343  0.27940562  1
  O  O29  1  0.45562975  0.69473560  0.77481554  1
  O  O30  1  0.72539977  0.94934013  0.67561023  1
  O  O31  1  0.70814097  0.93639598  0.14021962  1
