# generated using pymatgen
data_Li9Mn2Co5O16
_symmetry_space_group_name_H-M   'P 1'
_cell_length_a   5.12994880
_cell_length_b   7.79291240
_cell_length_c   7.69418781
_cell_angle_alpha   97.42102241
_cell_angle_beta   108.13098862
_cell_angle_gamma   83.89885131
_symmetry_Int_Tables_number   1
_chemical_formula_structural   Li9Mn2Co5O16
_chemical_formula_sum   'Li9 Mn2 Co5 O16'
_cell_volume   289.15744676
_cell_formula_units_Z   1
loop_
 _symmetry_equiv_pos_site_id
 _symmetry_equiv_pos_as_xyz
  1  'x, y, z'
loop_
 _atom_site_type_symbol
 _atom_site_label
 _atom_site_symmetry_multiplicity
 _atom_site_fract_x
 _atom_site_fract_y
 _atom_site_fract_z
 _atom_site_occupancy
  Li  Li0  1  0.50225933  0.19295782  0.06011474  1
  Li  Li1  1  0.50052344  0.32462400  0.44285588  1
  Li  Li2  1  0.50733354  0.56472748  0.19280249  1
  Li  Li3  1  0.49952890  0.67157895  0.55200373  1
  Li  Li4  1  0.50119790  0.93456027  0.31399495  1
  Li  Li5  1  0.49688587  0.06291210  0.68664845  1
  Li  Li6  1  0.49294666  0.43935556  0.81199720  1
  Li  Li7  1  0.49712150  0.81009098  0.93778426  1
  Li  Li8  1  0.00087719  0.49678526  0.49746714  1
  Mn  Mn9  1  -0.00465795  0.00293396  -0.00089070  1
  Mn  Mn10  1  0.00382268  0.12618582  0.37678446  1
  Co  Co11  1  0.99168191  0.25934962  0.74244484  1
  Co  Co12  1  0.00453516  0.38007761  0.13154080  1
  Co  Co13  1  0.99710283  0.62295608  0.87378549  1
  Co  Co14  1  0.00402768  0.74270693  0.26071428  1
  Co  Co15  1  0.00343716  0.86624946  0.62523598  1
  O  O16  1  0.21777299  0.03605674  0.84600292  1
  O  O17  1  0.22328177  0.14656611  0.21184350  1
  O  O18  1  0.22999042  0.40374019  0.96578964  1
  O  O19  1  0.24329523  0.53355846  0.33053320  1
  O  O20  1  0.21752274  0.79461569  0.08969324  1
  O  O21  1  0.22900752  0.91450345  0.46311603  1
  O  O22  1  0.23093311  0.26389826  0.57944236  1
  O  O23  1  0.22657070  0.66781089  0.72539448  1
  O  O24  1  0.78054877  0.32901530  0.27930943  1
  O  O25  1  0.76409213  0.46017758  0.67012101  1
  O  O26  1  0.76701808  0.72778715  0.40309986  1
  O  O27  1  0.77021499  0.85437021  0.79621287  1
  O  O28  1  0.77833567  0.08993110  0.52564796  1
  O  O29  1  0.77168535  0.20755764  0.91176945  1
  O  O30  1  0.77112503  0.59456820  0.03455171  1
  O  O31  1  0.77998166  0.97779115  0.16218837  1
