# generated using pymatgen
data_Li9Mn2Co5O16
_symmetry_space_group_name_H-M   'P 1'
_cell_length_a   5.10184353
_cell_length_b   5.90379386
_cell_length_c   9.70034010
_cell_angle_alpha   88.43085872
_cell_angle_beta   78.29696732
_cell_angle_gamma   89.22982382
_symmetry_Int_Tables_number   1
_chemical_formula_structural   Li9Mn2Co5O16
_chemical_formula_sum   'Li9 Mn2 Co5 O16'
_cell_volume   285.98618546
_cell_formula_units_Z   1
loop_
 _symmetry_equiv_pos_site_id
 _symmetry_equiv_pos_as_xyz
  1  'x, y, z'
loop_
 _atom_site_type_symbol
 _atom_site_label
 _atom_site_symmetry_multiplicity
 _atom_site_fract_x
 _atom_site_fract_y
 _atom_site_fract_z
 _atom_site_occupancy
  Li  Li0  1  0.50045972  0.25398604  0.99318224  1
  Li  Li1  1  0.26120862  0.50881518  0.26010688  1
  Li  Li2  1  0.49607656  0.74483778  0.99644644  1
  Li  Li3  1  0.25507101  0.99839681  0.25757825  1
  Li  Li4  1  0.74691970  0.00068306  0.74635557  1
  Li  Li5  1  0.74041939  0.49010728  0.73828293  1
  Li  Li6  1  0.00364304  0.74534838  0.50589936  1
  Li  Li7  1  0.99258359  0.25604419  0.50511156  1
  Li  Li8  1  0.49663570  0.49838947  0.49904100  1
  Mn  Mn9  1  0.00394232  -0.00056434  -0.00061041  1
  Mn  Mn10  1  0.75261918  0.25437056  0.25247877  1
  Co  Co11  1  0.25353851  0.74270303  0.74019468  1
  Co  Co12  1  -0.00032507  0.49822120  0.99930959  1
  Co  Co13  1  0.75423774  0.75198766  0.25424079  1
  Co  Co14  1  0.49549274  0.99849671  0.49936427  1
  Co  Co15  1  0.25280098  0.25142173  0.73981882  1
  O  O16  1  0.34672810  -0.00381315  0.88222572  1
  O  O17  1  0.10083824  0.24490226  0.11441363  1
  O  O18  1  0.34301918  0.49978963  0.87857083  1
  O  O19  1  0.10045023  0.76516374  0.12633676  1
  O  O20  1  0.60334928  0.76327926  0.62920734  1
  O  O21  1  0.59775045  0.24266258  0.63136526  1
  O  O22  1  0.86889364  0.49402166  0.35419515  1
  O  O23  1  0.86923652  0.02272137  0.36994063  1
  O  O24  1  0.65081561  0.48326574  0.12241211  1
  O  O25  1  0.41202316  0.75626397  0.36932018  1
  O  O26  1  0.65583622  0.00647135  0.13447300  1
  O  O27  1  0.40688670  0.24036400  0.36863517  1
  O  O28  1  0.89288048  0.22979631  0.87913434  1
  O  O29  1  0.89572367  0.75761012  0.89167403  1
  O  O30  1  0.13392272  -0.00028149  0.62507795  1
  O  O31  1  0.11632209  0.50453793  0.63621717  1
