# generated using pymatgen
data_Li9Mn2Co5O16
_symmetry_space_group_name_H-M   'P 1'
_cell_length_a   5.91841913
_cell_length_b   7.78681199
_cell_length_c   7.77118553
_cell_angle_alpha   96.87326832
_cell_angle_beta   113.07987795
_cell_angle_gamma   112.37347395
_symmetry_Int_Tables_number   1
_chemical_formula_structural   Li9Mn2Co5O16
_chemical_formula_sum   'Li9 Mn2 Co5 O16'
_cell_volume   289.05237003
_cell_formula_units_Z   1
loop_
 _symmetry_equiv_pos_site_id
 _symmetry_equiv_pos_as_xyz
  1  'x, y, z'
loop_
 _atom_site_type_symbol
 _atom_site_label
 _atom_site_symmetry_multiplicity
 _atom_site_fract_x
 _atom_site_fract_y
 _atom_site_fract_z
 _atom_site_occupancy
  Li  Li0  1  0.99924726  0.12990455  0.37851817  1
  Li  Li1  1  0.00012406  0.61921866  0.87035650  1
  Li  Li2  1  0.49839945  0.24957145  0.74894080  1
  Li  Li3  1  0.50034416  0.74713590  0.25041467  1
  Li  Li4  1  0.00101327  0.38139498  0.12865798  1
  Li  Li5  1  0.99697197  0.86755632  0.62127043  1
  Li  Li6  1  0.50210644  0.50305529  0.49948473  1
  Li  Li7  1  0.50342066  0.00259471  0.00060639  1
  Li  Li8  1  0.99526458  0.49888001  0.49766928  1
  Mn  Mn9  1  0.00370637  0.00060688  0.99892115  1
  Mn  Mn10  1  0.50078226  0.12792634  0.37697773  1
  Co  Co11  1  0.49747078  0.62087145  0.87276040  1
  Co  Co12  1  0.00561853  0.25697632  0.74321528  1
  Co  Co13  1  0.00207029  0.74360607  0.25968998  1
  Co  Co14  1  0.51002284  0.38231490  0.13239222  1
  Co  Co15  1  0.48860784  0.86644184  0.62484817  1
  O  O16  1  0.77514811  0.87460673  0.11679631  1
  O  O17  1  0.72865837  0.35152252  0.60843041  1
  O  O18  1  0.26326535  -0.00020181  0.49236684  1
  O  O19  1  0.25659324  0.49157394  0.99604897  1
  O  O20  1  0.77388818  0.11727883  0.87524131  1
  O  O21  1  0.74481664  0.62395013  0.36161851  1
  O  O22  1  0.24643897  0.23017769  0.24066604  1
  O  O23  1  0.28251786  0.75404084  0.75529828  1
  O  O24  1  0.24441256  0.37339141  0.63939068  1
  O  O25  1  0.25053598  0.89713334  0.13505529  1
  O  O26  1  0.74253834  0.50645231  0.00349975  1
  O  O27  1  0.72586971  0.00784339  0.49722413  1
  O  O28  1  0.24700679  0.63897131  0.37401662  1
  O  O29  1  0.23179614  0.12188665  0.88279552  1
  O  O30  1  0.76467737  0.76685925  0.76657624  1
  O  O31  1  0.71666559  0.24645782  0.25025122  1
