# generated using pymatgen
data_Li9Mn2Co5O16
_symmetry_space_group_name_H-M   'P 1'
_cell_length_a   5.12354616
_cell_length_b   10.07338472
_cell_length_c   5.89621460
_cell_angle_alpha   75.19758536
_cell_angle_beta   90.68706291
_cell_angle_gamma   79.30447268
_symmetry_Int_Tables_number   1
_chemical_formula_structural   Li9Mn2Co5O16
_chemical_formula_sum   'Li9 Mn2 Co5 O16'
_cell_volume   288.53580230
_cell_formula_units_Z   1
loop_
 _symmetry_equiv_pos_site_id
 _symmetry_equiv_pos_as_xyz
  1  'x, y, z'
loop_
 _atom_site_type_symbol
 _atom_site_label
 _atom_site_symmetry_multiplicity
 _atom_site_fract_x
 _atom_site_fract_y
 _atom_site_fract_z
 _atom_site_occupancy
  Li  Li0  1  0.50163410  0.99468251  0.74789135  1
  Li  Li1  1  0.25560921  0.25863007  0.36590954  1
  Li  Li2  1  0.49597514  0.99861744  0.25116426  1
  Li  Li3  1  0.25273518  0.25403481  0.87503142  1
  Li  Li4  1  0.74352039  0.73978832  0.13174478  1
  Li  Li5  1  0.74706546  0.74284521  0.63584194  1
  Li  Li6  1  0.99429886  0.50443196  0.49011120  1
  Li  Li7  1  0.01097778  0.50330608  0.00763423  1
  Li  Li8  1  0.49783637  0.50259809  0.25471590  1
  Mn  Mn9  1  0.00158213  -0.00011878  0.99632141  1
  Mn  Mn10  1  0.75368841  0.25171718  0.62362382  1
  Co  Co11  1  0.24592761  0.74648581  0.88029626  1
  Co  Co12  1  0.00101755  0.00114720  0.49310164  1
  Co  Co13  1  0.73711091  0.26090098  0.12320948  1
  Co  Co14  1  0.50382689  0.50624874  0.74566206  1
  Co  Co15  1  0.25090035  0.74075491  0.37224614  1
  O  O16  1  0.34914664  0.87453372  0.04905432  1
  O  O17  1  0.10112287  0.11377152  0.69774598  1
  O  O18  1  0.33854393  0.88061826  0.54280795  1
  O  O19  1  0.10605938  0.12262713  0.16626402  1
  O  O20  1  0.60764864  0.62825807  0.45297920  1
  O  O21  1  0.59233150  0.62845540  0.92757832  1
  O  O22  1  0.86462500  0.36736118  0.80795913  1
  O  O23  1  0.87469552  0.35774426  0.34228944  1
  O  O24  1  0.65672781  0.12655769  0.44384545  1
  O  O25  1  0.39953038  0.36694522  0.06478347  1
  O  O26  1  0.65876482  0.12590847  0.91851496  1
  O  O27  1  0.41106215  0.36745470  0.58182830  1
  O  O28  1  0.90020775  0.87459080  0.82290620  1
  O  O29  1  0.88909235  0.89524603  0.28831889  1
  O  O30  1  0.12183529  0.63256143  0.20158052  1
  O  O31  1  0.13489964  0.63129560  0.69704142  1
