# generated using pymatgen
data_Li9Mn2Co5O16
_symmetry_space_group_name_H-M   'P 1'
_cell_length_a   4.98938348
_cell_length_b   9.80962389
_cell_length_c   5.84950785
_cell_angle_alpha   80.57549000
_cell_angle_beta   88.88070574
_cell_angle_gamma   94.34700484
_symmetry_Int_Tables_number   1
_chemical_formula_structural   Li9Mn2Co5O16
_chemical_formula_sum   'Li9 Mn2 Co5 O16'
_cell_volume   281.47273976
_cell_formula_units_Z   1
loop_
 _symmetry_equiv_pos_site_id
 _symmetry_equiv_pos_as_xyz
  1  'x, y, z'
loop_
 _atom_site_type_symbol
 _atom_site_label
 _atom_site_symmetry_multiplicity
 _atom_site_fract_x
 _atom_site_fract_y
 _atom_site_fract_z
 _atom_site_occupancy
  Li  Li0  1  0.89143470  0.27011573  0.18575766  1
  Li  Li1  1  0.12699444  0.73207685  0.30601167  1
  Li  Li2  1  0.38099390  0.26442727  0.42819139  1
  Li  Li3  1  0.87246816  0.26398001  0.68818233  1
  Li  Li4  1  0.12689040  0.73062127  0.81532910  1
  Li  Li5  1  0.38378208  0.26467228  0.94604546  1
  Li  Li6  1  0.60557450  0.73434253  0.06618579  1
  Li  Li7  1  0.62479061  0.73866701  0.56364332  1
  Li  Li8  1  0.25224053  0.49908513  0.12756133  1
  Mn  Mn9  1  0.99893415  0.00016317  0.99977571  1
  Mn  Mn10  1  0.99992633  0.00032144  0.49991666  1
  Co  Co11  1  0.49986083  0.00166935  0.25131052  1
  Co  Co12  1  0.75372047  0.49955976  0.37098854  1
  Co  Co13  1  0.24556928  0.49819837  0.62632095  1
  Co  Co14  1  0.49878422  0.99771592  0.74853051  1
  Co  Co15  1  0.73885042  0.50373223  0.88072756  1
  O  O16  1  0.67246241  0.10530359  0.96529962  1
  O  O17  1  0.91509375  0.61519730  0.10967647  1
  O  O18  1  0.19912507  0.11633623  0.24201760  1
  O  O19  1  0.68237492  0.10443994  0.47132565  1
  O  O20  1  0.93254761  0.61484891  0.57899987  1
  O  O21  1  0.17972190  0.10565725  0.71909612  1
  O  O22  1  0.44745990  0.61913257  0.84072887  1
  O  O23  1  0.45051283  0.61097456  0.36042458  1
  O  O24  1  0.03887322  0.38701422  0.40983935  1
  O  O25  1  0.31565679  0.89447039  0.52884507  1
  O  O26  1  0.57230358  0.38532764  0.64157872  1
  O  O27  1  0.06281913  0.38332326  0.89030860  1
  O  O28  1  0.32336185  0.89310761  0.03496040  1
  O  O29  1  0.58497031  0.38487165  0.16613963  1
  O  O30  1  0.81945902  0.89521401  0.28043388  1
  O  O31  1  0.80244270  0.88543256  0.75584705  1
