# generated using pymatgen
data_LiTiV2O6
_symmetry_space_group_name_H-M   'P 1'
_cell_length_a   2.97993955
_cell_length_b   6.58127927
_cell_length_c   5.94907161
_cell_angle_alpha   101.46618445
_cell_angle_beta   89.36405198
_cell_angle_gamma   103.01053855
_symmetry_Int_Tables_number   1
_chemical_formula_structural   LiTiV2O6
_chemical_formula_sum   'Li1 Ti1 V2 O6'
_cell_volume   111.33900294
_cell_formula_units_Z   1
loop_
 _symmetry_equiv_pos_site_id
 _symmetry_equiv_pos_as_xyz
  1  'x, y, z'
loop_
 _atom_site_type_symbol
 _atom_site_label
 _atom_site_symmetry_multiplicity
 _atom_site_fract_x
 _atom_site_fract_y
 _atom_site_fract_z
 _atom_site_occupancy
  Li  Li0  1  0.66622231  0.33378168  0.83516395  1
  Ti  Ti1  1  0.34026635  0.69017846  0.63842840  1
  V  V2  1  0.95866463  0.97549032  0.02503652  1
  V  V3  1  0.67668019  0.33392436  0.33393520  1
  O  O4  1  0.48468516  0.98815841  0.79344744  1
  O  O5  1  0.83723280  0.66622280  0.43337001  1
  O  O6  1  0.15921445  0.29725160  0.09695157  1
  O  O7  1  0.84092838  0.67805030  0.87475036  1
  O  O8  1  0.18752059  0.36828061  0.57465578  1
  O  O9  1  0.51465114  0.00079546  0.23223977  1
