# generated using pymatgen
data_Mn3NbO8
_symmetry_space_group_name_H-M   'P 1'
_cell_length_a   5.89764500
_cell_length_b   5.98776620
_cell_length_c   9.39282108
_cell_angle_alpha   91.69293054
_cell_angle_beta   89.14069440
_cell_angle_gamma   120.50679050
_symmetry_Int_Tables_number   1
_chemical_formula_structural   Mn3NbO8
_chemical_formula_sum   'Mn6 Nb2 O16'
_cell_volume   285.65377768
_cell_formula_units_Z   2
loop_
 _symmetry_equiv_pos_site_id
 _symmetry_equiv_pos_as_xyz
  1  'x, y, z'
loop_
 _atom_site_type_symbol
 _atom_site_label
 _atom_site_symmetry_multiplicity
 _atom_site_fract_x
 _atom_site_fract_y
 _atom_site_fract_z
 _atom_site_occupancy
  Mn  Mn0  1  0.16682665  0.83577397  0.21201826  1
  Mn  Mn1  1  0.16788517  0.33770018  0.21320336  1
  Mn  Mn2  1  0.66062560  0.83532987  0.21498589  1
  Mn  Mn3  1  0.33937440  0.17470427  0.71498589  1
  Mn  Mn4  1  0.83317335  0.66894732  0.71201826  1
  Mn  Mn5  1  0.83211483  0.16981602  0.71320336  1
  Nb  Nb6  1  0.32565281  0.66140053  0.49769821  1
  Nb  Nb7  1  0.67434719  0.33574772  0.99769821  1
  O  O8  1  0.17363572  0.84138581  0.59529532  1
  O  O9  1  0.04104567  0.49626354  0.34248222  1
  O  O10  1  0.32930559  0.66253002  0.11212614  1
  O  O11  1  0.00268875  0.00762110  0.30786017  1
  O  O12  1  0.99731125  0.00493235  0.80786017  1
  O  O13  1  0.17344982  0.33436787  0.60455629  1
  O  O14  1  0.48680595  0.95552924  0.33784215  1
  O  O15  1  0.48509638  0.52464905  0.32734118  1
  O  O16  1  0.33773620  0.18292498  0.09244983  1
  O  O17  1  0.66226380  0.84518878  0.59244983  1
  O  O18  1  0.51319405  0.46872328  0.83784215  1
  O  O19  1  0.51490362  0.03955367  0.82734118  1
  O  O20  1  0.67069441  0.33322442  0.61212614  1
  O  O21  1  0.82636428  0.66774909  0.09529532  1
  O  O22  1  0.95895433  0.45521787  0.84248222  1
  O  O23  1  0.82655118  0.16091905  0.10455629  1
