# generated using pymatgen
data_Li9Mn2Co5O16
_symmetry_space_group_name_H-M   'P 1'
_cell_length_a   5.05426092
_cell_length_b   5.11791925
_cell_length_c   11.71571395
_cell_angle_alpha   88.76257986
_cell_angle_beta   87.96538145
_cell_angle_gamma   108.86878562
_symmetry_Int_Tables_number   1
_chemical_formula_structural   Li9Mn2Co5O16
_chemical_formula_sum   'Li9 Mn2 Co5 O16'
_cell_volume   286.41211851
_cell_formula_units_Z   1
loop_
 _symmetry_equiv_pos_site_id
 _symmetry_equiv_pos_as_xyz
  1  'x, y, z'
loop_
 _atom_site_type_symbol
 _atom_site_label
 _atom_site_symmetry_multiplicity
 _atom_site_fract_x
 _atom_site_fract_y
 _atom_site_fract_z
 _atom_site_occupancy
  Li  Li0  1  0.99729697  0.49389986  0.13478936  1
  Li  Li1  1  0.50070903  0.50382090  0.25881052  1
  Li  Li2  1  0.00214241  0.50826322  0.37538371  1
  Li  Li3  1  0.49813161  0.49764354  0.49808807  1
  Li  Li4  1  0.99877839  0.50060311  0.62091998  1
  Li  Li5  1  0.49605381  0.49661310  0.74348399  1
  Li  Li6  1  0.00164381  0.49938731  0.86988810  1
  Li  Li7  1  0.50620329  0.50225457  0.00097267  1
  Li  Li8  1  0.99737368  0.99481421  0.25228055  1
  Mn  Mn9  1  0.00632220  0.00743052  0.00253709  1
  Mn  Mn10  1  0.49720008  0.99575958  0.12961441  1
  Co  Co11  1  0.49001458  0.99112196  0.37381895  1
  Co  Co12  1  0.99220629  0.99660271  0.49288238  1
  Co  Co13  1  0.49966497  0.99684899  0.62035514  1
  Co  Co14  1  0.00561792  0.00280091  0.74446851  1
  Co  Co15  1  0.50393905  0.00499026  0.87351221  1
  O  O16  1  0.76560489  0.23240258  0.00847321  1
  O  O17  1  0.24733586  0.21489677  0.11439181  1
  O  O18  1  0.70415450  0.21573575  0.24457611  1
  O  O19  1  0.25182158  0.22029615  0.38121365  1
  O  O20  1  0.74269794  0.23981920  0.50780603  1
  O  O21  1  0.23776541  0.23330681  0.62975066  1
  O  O22  1  0.73706590  0.23043096  0.75854977  1
  O  O23  1  0.25427932  0.22919158  0.87885176  1
  O  O24  1  0.26029941  0.75014717  0.23853354  1
  O  O25  1  0.73574368  0.77473241  0.37917034  1
  O  O26  1  0.25863695  0.76782796  0.49741855  1
  O  O27  1  0.76255225  0.77051172  0.62637937  1
  O  O28  1  0.26205879  0.76654191  0.74804168  1
  O  O29  1  0.77387483  0.79493078  0.88053095  1
  O  O30  1  0.26595592  0.79024334  0.99939236  1
  O  O31  1  0.74685466  0.77613014  0.11511154  1
