# generated using pymatgen
data_La4(CoB2)3
_symmetry_space_group_name_H-M   'P 1'
_cell_length_a   5.35076522
_cell_length_b   5.35056662
_cell_length_c   8.29626952
_cell_angle_alpha   71.03265285
_cell_angle_beta   71.04996633
_cell_angle_gamma   59.95596841
_symmetry_Int_Tables_number   1
_chemical_formula_structural   La4(CoB2)3
_chemical_formula_sum   'La4 Co3 B6'
_cell_volume   190.59681380
_cell_formula_units_Z   1
loop_
 _symmetry_equiv_pos_site_id
 _symmetry_equiv_pos_as_xyz
  1  'x, y, z'
loop_
 _atom_site_type_symbol
 _atom_site_label
 _atom_site_symmetry_multiplicity
 _atom_site_fract_x
 _atom_site_fract_y
 _atom_site_fract_z
 _atom_site_occupancy
  La  La0  1  0.25860822  0.25883550  0.22711243  1
  La  La1  1  0.74138705  0.74115994  0.77289814  1
  La  La2  1  0.40893981  0.40859253  0.77291846  1
  La  La3  1  0.59106264  0.59140739  0.22708411  1
  Co  Co4  1  0.00001862  0.00001763  0.99993450  1
  Co  Co5  1  0.11549659  0.11534455  0.65214152  1
  Co  Co6  1  0.88448619  0.88463817  0.34791866  1
  B  B7  1  0.16759479  0.83239774  0.50001640  1
  B  B8  1  0.83225948  0.50013442  0.50002028  1
  B  B9  1  0.49982208  0.16776626  0.49996161  1
  B  B10  1  0.16776110  0.49982983  0.49997892  1
  B  B11  1  0.50014130  0.83225544  0.50003566  1
  B  B12  1  0.83242212  0.16762060  0.49997931  1
