# generated using pymatgen
data_Mn3Fe2Sb(PO4)6
_symmetry_space_group_name_H-M   'P 1'
_cell_length_a   8.60679113
_cell_length_b   8.60679083
_cell_length_c   8.60679051
_cell_angle_alpha   60.89639738
_cell_angle_beta   60.89640374
_cell_angle_gamma   60.89640343
_symmetry_Int_Tables_number   1
_chemical_formula_structural   Mn3Fe2Sb(PO4)6
_chemical_formula_sum   'Mn3 Fe2 Sb1 P6 O24'
_cell_volume   459.93491845
_cell_formula_units_Z   1
loop_
 _symmetry_equiv_pos_site_id
 _symmetry_equiv_pos_as_xyz
  1  'x, y, z'
loop_
 _atom_site_type_symbol
 _atom_site_label
 _atom_site_symmetry_multiplicity
 _atom_site_fract_x
 _atom_site_fract_y
 _atom_site_fract_z
 _atom_site_occupancy
  Mn  Mn0  1  0.14511175  0.14511175  0.14511175  1
  Mn  Mn1  1  0.35536943  0.35536943  0.35536943  1
  Mn  Mn2  1  0.64267470  0.64267470  0.64267470  1
  Fe  Fe3  1  0.00593588  0.00593588  0.00593588  1
  Fe  Fe4  1  0.49906956  0.49906956  0.49906956  1
  Sb  Sb5  1  0.85703146  0.85703146  0.85703146  1
  P  P6  1  0.74738153  0.45396179  0.04573905  1
  P  P7  1  0.25276453  0.54230271  0.95221781  1
  P  P8  1  0.54230271  0.95221781  0.25276453  1
  P  P9  1  0.95221781  0.25276453  0.54230271  1
  P  P10  1  0.04573905  0.74738153  0.45396179  1
  P  P11  1  0.45396179  0.04573905  0.74738153  1
  O  O12  1  0.10592017  0.31009594  0.51637211  1
  O  O13  1  0.31009594  0.51637211  0.10592017  1
  O  O14  1  0.05775789  0.91149476  0.26248406  1
  O  O15  1  0.51637211  0.10592017  0.31009594  1
  O  O16  1  0.00664634  0.81593556  0.61321042  1
  O  O17  1  0.24007632  0.59299348  0.44441422  1
  O  O18  1  0.26248406  0.05775789  0.91149476  1
  O  O19  1  0.44441422  0.24007632  0.59299348  1
  O  O20  1  0.18641700  0.39041413  0.98609097  1
  O  O21  1  0.59299348  0.44441422  0.24007632  1
  O  O22  1  0.08545340  0.74442372  0.93696715  1
  O  O23  1  0.39041413  0.98609097  0.18641700  1
  O  O24  1  0.61321042  0.00664634  0.81593556  1
  O  O25  1  0.91149476  0.26248406  0.05775789  1
  O  O26  1  0.40566880  0.56540367  0.75410613  1
  O  O27  1  0.81593556  0.61321042  0.00664634  1
  O  O28  1  0.56540367  0.75410613  0.40566880  1
  O  O29  1  0.74442372  0.93696715  0.08545340  1
  O  O30  1  0.75410613  0.40566880  0.56540367  1
  O  O31  1  0.98609097  0.18641700  0.39041413  1
  O  O32  1  0.49379911  0.88813222  0.68616220  1
  O  O33  1  0.93696715  0.08545340  0.74442372  1
  O  O34  1  0.68616220  0.49379911  0.88813222  1
  O  O35  1  0.88813222  0.68616220  0.49379911  1
