# generated using pymatgen
data_Mn2NbNi3(PO4)6
_symmetry_space_group_name_H-M   'P 1'
_cell_length_a   8.66232521
_cell_length_b   8.66232535
_cell_length_c   8.66232586
_cell_angle_alpha   60.37167513
_cell_angle_beta   60.37167547
_cell_angle_gamma   60.37167450
_symmetry_Int_Tables_number   1
_chemical_formula_structural   Mn2NbNi3(PO4)6
_chemical_formula_sum   'Mn2 Nb1 Ni3 P6 O24'
_cell_volume   463.47282138
_cell_formula_units_Z   1
loop_
 _symmetry_equiv_pos_site_id
 _symmetry_equiv_pos_as_xyz
  1  'x, y, z'
loop_
 _atom_site_type_symbol
 _atom_site_label
 _atom_site_symmetry_multiplicity
 _atom_site_fract_x
 _atom_site_fract_y
 _atom_site_fract_z
 _atom_site_occupancy
  Mn  Mn0  1  0.00556108  0.00556108  0.00556108  1
  Mn  Mn1  1  0.50065932  0.50065932  0.50065932  1
  Nb  Nb2  1  0.85616763  0.85616763  0.85616763  1
  Ni  Ni3  1  0.14539198  0.14539198  0.14539198  1
  Ni  Ni4  1  0.35725665  0.35725665  0.35725665  1
  Ni  Ni5  1  0.64361882  0.64361882  0.64361882  1
  P  P6  1  0.04729175  0.74734435  0.45027964  1
  P  P7  1  0.45027964  0.04729175  0.74734435  1
  P  P8  1  0.74734435  0.45027964  0.04729175  1
  P  P9  1  0.25585171  0.53962926  0.95510820  1
  P  P10  1  0.53962926  0.95510820  0.25585171  1
  P  P11  1  0.95510820  0.25585171  0.53962926  1
  O  O12  1  0.10862634  0.31354874  0.51000376  1
  O  O13  1  0.31354874  0.51000376  0.10862634  1
  O  O14  1  0.06258510  0.91039130  0.26106458  1
  O  O15  1  0.51000376  0.10862634  0.31354874  1
  O  O16  1  0.99119346  0.81712938  0.61457499  1
  O  O17  1  0.24031751  0.59152207  0.44831080  1
  O  O18  1  0.26106458  0.06258510  0.91039130  1
  O  O19  1  0.44831080  0.24031751  0.59152207  1
  O  O20  1  0.18967811  0.38879684  0.99077329  1
  O  O21  1  0.59152207  0.44831080  0.24031751  1
  O  O22  1  0.09092293  0.73932080  0.93246788  1
  O  O23  1  0.38879684  0.99077329  0.18967811  1
  O  O24  1  0.61457499  0.99119346  0.81712938  1
  O  O25  1  0.91039130  0.26106458  0.06258510  1
  O  O26  1  0.41155667  0.55903736  0.75756814  1
  O  O27  1  0.81712938  0.61457499  0.99119346  1
  O  O28  1  0.55903736  0.75756814  0.41155667  1
  O  O29  1  0.73932080  0.93246788  0.09092293  1
  O  O30  1  0.75756814  0.41155667  0.55903736  1
  O  O31  1  0.99077329  0.18967811  0.38879684  1
  O  O32  1  0.48996466  0.89301714  0.68346776  1
  O  O33  1  0.93246788  0.09092293  0.73932080  1
  O  O34  1  0.68346776  0.48996466  0.89301714  1
  O  O35  1  0.89301714  0.68346776  0.48996466  1
