# generated using pymatgen
data_MnV2Fe3(PO4)6
_symmetry_space_group_name_H-M   'P 1'
_cell_length_a   8.45176115
_cell_length_b   8.66527578
_cell_length_c   8.66527572
_cell_angle_alpha   60.00000082
_cell_angle_beta   59.16074234
_cell_angle_gamma   59.16073666
_symmetry_Int_Tables_number   1
_chemical_formula_structural   MnV2Fe3(PO4)6
_chemical_formula_sum   'Mn1 V2 Fe3 P6 O24'
_cell_volume   442.96529225
_cell_formula_units_Z   1
loop_
 _symmetry_equiv_pos_site_id
 _symmetry_equiv_pos_as_xyz
  1  'x, y, z'
loop_
 _atom_site_type_symbol
 _atom_site_label
 _atom_site_symmetry_multiplicity
 _atom_site_fract_x
 _atom_site_fract_y
 _atom_site_fract_z
 _atom_site_occupancy
  Mn  Mn0  1  0.56171075  0.14609642  0.14609642  1
  V  V1  1  0.99738603  0.00087099  0.00087099  1
  V  V2  1  0.49739337  0.50086921  0.50086921  1
  Fe  Fe3  1  0.06012868  0.64662377  0.64662377  1
  Fe  Fe4  1  0.43795077  0.85401674  0.85401674  1
  Fe  Fe5  1  0.93960465  0.35346545  0.35346545  1
  P  P6  1  0.25000923  0.25088083  0.54758185  1
  P  P7  1  0.25000923  0.95152809  0.25088083  1
  P  P8  1  0.25000923  0.54758185  0.95152809  1
  P  P9  1  0.74993388  0.45318754  0.04696754  1
  P  P10  1  0.74993388  0.04696754  0.74991203  1
  P  P11  1  0.74993388  0.74991203  0.45318754  1
  O  O12  1  0.06687888  0.10625570  0.32554795  1
  O  O13  1  0.06687888  0.50131647  0.10625570  1
  O  O14  1  0.06687888  0.32554795  0.50131647  1
  O  O15  1  0.21396082  0.09614043  0.75124326  1
  O  O16  1  0.43739193  0.17829700  0.39742213  1
  O  O17  1  0.28003437  0.40608362  0.56555856  1
  O  O18  1  0.21396082  0.93865549  0.09614043  1
  O  O19  1  0.28003437  0.74832346  0.40608362  1
  O  O20  1  0.56487016  0.60639169  0.00405281  1
  O  O21  1  0.28003437  0.56555856  0.74832346  1
  O  O22  1  0.78989548  0.24931945  0.05753097  1
  O  O23  1  0.56487016  0.00405281  0.82468434  1
  O  O24  1  0.43739193  0.98688894  0.17829700  1
  O  O25  1  0.21396082  0.75124326  0.93865549  1
  O  O26  1  0.71611667  0.43616809  0.25064407  1
  O  O27  1  0.43739193  0.39742213  0.98688894  1
  O  O28  1  0.71611667  0.25064407  0.59707118  1
  O  O29  1  0.78989548  0.05753097  0.90325410  1
  O  O30  1  0.71611667  0.59707118  0.43616809  1
  O  O31  1  0.56487016  0.82468434  0.60639169  1
  O  O32  1  0.78989548  0.90325410  0.24931945  1
  O  O33  1  0.93284916  0.67615945  0.49849777  1
  O  O34  1  0.93284916  0.49849777  0.89249361  1
  O  O35  1  0.93284916  0.89249361  0.67615945  1
