# generated using pymatgen
data_Li9Mn2Co5O16
_symmetry_space_group_name_H-M   'P 1'
_cell_length_a   5.06243148
_cell_length_b   5.12368672
_cell_length_c   11.73363842
_cell_angle_alpha   105.56135216
_cell_angle_beta   91.09940864
_cell_angle_gamma   99.81793841
_symmetry_Int_Tables_number   1
_chemical_formula_structural   Li9Mn2Co5O16
_chemical_formula_sum   'Li9 Mn2 Co5 O16'
_cell_volume   288.22376190
_cell_formula_units_Z   1
loop_
 _symmetry_equiv_pos_site_id
 _symmetry_equiv_pos_as_xyz
  1  'x, y, z'
loop_
 _atom_site_type_symbol
 _atom_site_label
 _atom_site_symmetry_multiplicity
 _atom_site_fract_x
 _atom_site_fract_y
 _atom_site_fract_z
 _atom_site_occupancy
  Li  Li0  1  0.75186330  0.49891866  0.06302652  1
  Li  Li1  1  0.74455287  0.51689540  0.32468328  1
  Li  Li2  1  0.24742917  0.50094161  0.19231467  1
  Li  Li3  1  0.24534581  0.50329913  0.44304333  1
  Li  Li4  1  0.76126308  0.49846252  0.56168460  1
  Li  Li5  1  0.74324260  0.49062293  0.80386195  1
  Li  Li6  1  0.24903018  0.49698658  0.93463561  1
  Li  Li7  1  0.25804358  0.48612047  0.67628356  1
  Li  Li8  1  0.00074854  0.00156461  0.50082417  1
  Mn  Mn9  1  -0.00042503  0.00263521  0.00069196  1
  Mn  Mn10  1  0.50079799  0.00797573  0.37842961  1
  Co  Co11  1  -0.00036045  0.00139472  0.25829114  1
  Co  Co12  1  -0.00122055  0.99774546  0.74069227  1
  Co  Co13  1  0.49638827  0.98740510  0.61973129  1
  Co  Co14  1  0.50586760  -0.00570134  0.87286453  1
  Co  Co15  1  0.49637677  0.00530512  0.12739771  1
  O  O16  1  0.86739653  0.22236202  0.90878409  1
  O  O17  1  0.87854760  0.22090411  0.14678321  1
  O  O18  1  0.35605768  0.23131503  0.03768780  1
  O  O19  1  0.37491218  0.23061467  0.28167125  1
  O  O20  1  0.85276017  0.23375057  0.39657086  1
  O  O21  1  0.86917153  0.22707320  0.66177092  1
  O  O22  1  0.38087827  0.21940524  0.78552259  1
  O  O23  1  0.39414820  0.22930936  0.52029354  1
  O  O24  1  0.61167167  0.78036482  0.22331302  1
  O  O25  1  0.61041457  0.77518186  0.46332217  1
  O  O26  1  0.13653751  0.77423089  0.33732388  1
  O  O27  1  0.14500137  0.76178106  0.60116424  1
  O  O28  1  0.63447995  0.75564591  0.71925785  1
  O  O29  1  0.63761347  0.78073150  0.96992555  1
  O  O30  1  0.11654369  0.77585969  0.09131529  1
  O  O31  1  0.13492190  0.79089816  0.85683956  1
