# generated using pymatgen
data_LiMn2(PO4)2
_symmetry_space_group_name_H-M   'P 1'
_cell_length_a   7.54246543
_cell_length_b   7.59075374
_cell_length_c   9.57983507
_cell_angle_alpha   90.57541292
_cell_angle_beta   90.22976521
_cell_angle_gamma   59.45322739
_symmetry_Int_Tables_number   1
_chemical_formula_structural   LiMn2(PO4)2
_chemical_formula_sum   'Li3 Mn6 P6 O24'
_cell_volume   472.32982522
_cell_formula_units_Z   3
loop_
 _symmetry_equiv_pos_site_id
 _symmetry_equiv_pos_as_xyz
  1  'x, y, z'
loop_
 _atom_site_type_symbol
 _atom_site_label
 _atom_site_symmetry_multiplicity
 _atom_site_fract_x
 _atom_site_fract_y
 _atom_site_fract_z
 _atom_site_occupancy
  Li  Li0  1  0.05286330  0.75693802  0.75545597  1
  Li  Li1  1  0.23804513  0.95384291  0.25672535  1
  Li  Li2  1  0.75558615  0.20791491  0.75279035  1
  Mn  Mn3  1  0.04940393  0.39831269  0.96112033  1
  Mn  Mn4  1  0.53511713  0.05040598  0.97306519  1
  Mn  Mn5  1  0.41964712  0.54114095  0.98651387  1
  Mn  Mn6  1  0.45595961  0.58706988  0.47937860  1
  Mn  Mn7  1  0.59832764  0.95056178  0.46999863  1
  Mn  Mn8  1  0.95255466  0.44437235  0.45539806  1
  P  P9  1  0.99593496  0.00385514  0.50697761  1
  P  P10  1  0.99760944  0.00278604  0.00628705  1
  P  P11  1  0.33444984  0.32646289  0.27024034  1
  P  P12  1  0.31917833  0.33425864  0.67262686  1
  P  P13  1  0.67959430  0.67019923  0.17242280  1
  P  P14  1  0.67294914  0.66300429  0.76926228  1
  O  O15  1  0.99196838  0.99971542  0.66571726  1
  O  O16  1  0.99812469  0.01202467  0.16283210  1
  O  O17  1  0.10510545  0.11944356  0.94651744  1
  O  O18  1  0.15053188  0.30405964  0.60303319  1
  O  O19  1  0.11392744  0.48622446  0.31938038  1
  O  O20  1  0.38492903  0.11036545  0.31402033  1
  O  O21  1  0.31167802  0.31775895  0.83937765  1
  O  O22  1  0.33437698  0.33005644  0.10267639  1
  O  O23  1  0.28343589  0.54738100  0.63950955  1
  O  O24  1  0.12444622  0.78037026  0.94554107  1
  O  O25  1  0.22072437  0.88965119  0.44933406  1
  O  O26  1  0.53641347  0.16564605  0.62919538  1
  O  O27  1  0.48700588  0.38502567  0.32519788  1
  O  O28  1  0.77481533  0.10470469  0.94183643  1
  O  O29  1  0.46139372  0.71202550  0.14079568  1
  O  O30  1  0.62703813  0.49735311  0.81914280  1
  O  O31  1  0.51437553  0.87405369  0.82695618  1
  O  O32  1  0.66810022  0.66676665  0.60367021  1
  O  O33  1  0.70196938  0.65069095  0.33815229  1
  O  O34  1  0.84501757  0.46624920  0.10547816  1
  O  O35  1  0.87819906  0.23354490  0.45793360  1
  O  O36  1  0.70145475  0.84965999  0.11986330  1
  O  O37  1  0.89291090  0.61130577  0.81550732  1
  O  O38  1  0.88405002  0.89638310  0.44693108  1
