# generated using pymatgen
data_Na2LiCuP2O7
_symmetry_space_group_name_H-M   'P 1'
_cell_length_a   5.83282064
_cell_length_b   7.77913325
_cell_length_c   8.75868179
_cell_angle_alpha   68.79504922
_cell_angle_beta   90.00823345
_cell_angle_gamma   112.01465737
_symmetry_Int_Tables_number   1
_chemical_formula_structural   Na2LiCuP2O7
_chemical_formula_sum   'Na4 Li2 Cu2 P4 O14'
_cell_volume   339.25254348
_cell_formula_units_Z   2
loop_
 _symmetry_equiv_pos_site_id
 _symmetry_equiv_pos_as_xyz
  1  'x, y, z'
loop_
 _atom_site_type_symbol
 _atom_site_label
 _atom_site_symmetry_multiplicity
 _atom_site_fract_x
 _atom_site_fract_y
 _atom_site_fract_z
 _atom_site_occupancy
  Na  Na0  1  0.07584522  0.40561214  0.20539658  1
  Na  Na1  1  0.36983714  0.46012162  0.72396450  1
  Na  Na2  1  0.67018446  0.59430444  0.29457078  1
  Na  Na3  1  0.90977533  0.53996475  0.77601523  1
  Li  Li4  1  0.28075867  0.28877163  0.49507778  1
  Li  Li5  1  0.99210651  0.71126074  0.00493470  1
  Cu  Cu6  1  0.94086583  0.95673429  0.49655816  1
  Cu  Cu7  1  0.98415966  0.04328409  0.00335338  1
  P  P8  1  0.23856323  0.77413311  0.34489680  1
  P  P9  1  0.54418248  0.78575599  0.86533968  1
  P  P10  1  0.46441004  0.22583259  0.15515456  1
  P  P11  1  0.75846187  0.21424884  0.63464531  1
  O  O12  1  0.08502175  0.72022557  0.21432031  1
  O  O13  1  0.08133013  0.78036186  0.48362404  1
  O  O14  1  0.26532157  0.65293610  0.92381113  1
  O  O15  1  0.36551669  0.62920880  0.42045176  1
  O  O16  1  0.36472698  0.27969500  0.28573941  1
  O  O17  1  0.30096232  0.21965389  0.01635823  1
  O  O18  1  0.69754752  0.81453501  0.00680358  1
  O  O19  1  0.67533607  0.72189797  0.75797148  1
  O  O20  1  0.61234890  0.34714069  0.57606753  1
  O  O21  1  0.46121956  0.99996262  0.25002631  1
  O  O22  1  0.54002577  0.00004108  0.75000673  1
  O  O23  1  0.73620670  0.37073765  0.07969790  1
  O  O24  1  0.88293752  0.18539753  0.49324000  1
  O  O25  1  0.95343407  0.27817702  0.74197813  1
