# generated using pymatgen
data_Li8Ni(O2F)2
_symmetry_space_group_name_H-M   'P 1'
_cell_length_a   5.44377310
_cell_length_b   6.09423005
_cell_length_c   5.49049319
_cell_angle_alpha   116.58668082
_cell_angle_beta   60.80574924
_cell_angle_gamma   117.84294423
_symmetry_Int_Tables_number   1
_chemical_formula_structural   Li8Ni(O2F)2
_chemical_formula_sum   'Li8 Ni1 O4 F2'
_cell_volume   134.78611356
_cell_formula_units_Z   1
loop_
 _symmetry_equiv_pos_site_id
 _symmetry_equiv_pos_as_xyz
  1  'x, y, z'
loop_
 _atom_site_type_symbol
 _atom_site_label
 _atom_site_symmetry_multiplicity
 _atom_site_fract_x
 _atom_site_fract_y
 _atom_site_fract_z
 _atom_site_occupancy
  Li  Li0  1  0.11588618  0.34302987  0.46653998  1
  Li  Li1  1  0.54550061  0.64543466  0.21089184  1
  Li  Li2  1  0.22602688  0.64022709  0.90135458  1
  Li  Li3  1  0.30198753  0.01258761  0.30503443  1
  Li  Li4  1  0.69801247  0.98741239  0.69496557  1
  Li  Li5  1  0.77397312  0.35977291  0.09864542  1
  Li  Li6  1  0.45449939  0.35456534  0.78910816  1
  Li  Li7  1  0.88411382  0.65697013  0.53346002  1
  Ni  Ni8  1  -0.00000000  0.00000000  0.00000000  1
  O  O9  1  0.38965097  0.24078423  0.08791896  1
  O  O10  1  0.07821874  0.23686519  0.76041752  1
  O  O11  1  0.92178126  0.76313481  0.23958248  1
  O  O12  1  0.61034903  0.75921577  0.91208104  1
  F  F13  1  0.24431443  0.72701959  0.58432253  1
  F  F14  1  0.75568557  0.27298041  0.41567747  1
