# generated using pymatgen
data_LiMn2(BO3)2
_symmetry_space_group_name_H-M   'P 1'
_cell_length_a   11.82525509
_cell_length_b   5.30617495
_cell_length_c   6.07363175
_cell_angle_alpha   86.96946928
_cell_angle_beta   96.59731874
_cell_angle_gamma   101.14693824
_symmetry_Int_Tables_number   1
_chemical_formula_structural   LiMn2(BO3)2
_chemical_formula_sum   'Li3 Mn6 B6 O18'
_cell_volume   371.25198922
_cell_formula_units_Z   3
loop_
 _symmetry_equiv_pos_site_id
 _symmetry_equiv_pos_as_xyz
  1  'x, y, z'
loop_
 _atom_site_type_symbol
 _atom_site_label
 _atom_site_symmetry_multiplicity
 _atom_site_fract_x
 _atom_site_fract_y
 _atom_site_fract_z
 _atom_site_occupancy
  Li  Li0  1  0.46702863  0.14363836  0.87058085  1
  Li  Li1  1  0.79980470  0.80710821  0.54013358  1
  Li  Li2  1  0.19795906  0.19368569  0.46558695  1
  Mn  Mn3  1  0.78679688  0.98454285  0.96644265  1
  Mn  Mn4  1  0.88031258  0.35158238  0.37154182  1
  Mn  Mn5  1  0.54684548  0.68618493  0.70650612  1
  Mn  Mn6  1  0.45362740  0.31325415  0.29831444  1
  Mn  Mn7  1  0.11605710  0.64284673  0.63153517  1
  Mn  Mn8  1  0.21108991  0.01634357  0.04013923  1
  B  B9  1  0.66491634  0.25760591  0.58823828  1
  B  B10  1  0.99564320  0.92379725  0.27119980  1
  B  B11  1  0.33091912  0.58859364  0.91503867  1
  B  B12  1  0.67094916  0.41312993  0.07060488  1
  B  B13  1  0.00235556  0.07477035  0.73101748  1
  B  B14  1  0.33524056  0.74298579  0.42063103  1
  O  O15  1  0.98693092  0.31770942  0.64383508  1
  O  O16  1  0.91423299  0.89653903  0.79549808  1
  O  O17  1  0.68109057  0.00786910  0.64335439  1
  O  O18  1  0.75035530  0.44591901  0.51646931  1
  O  O19  1  0.55669593  0.32010191  0.61844999  1
  O  O20  1  0.88573454  0.98693308  0.28553986  1
  O  O21  1  0.34783756  0.34001367  0.97715068  1
  O  O22  1  0.78432405  0.35992507  0.08902461  1
  O  O23  1  0.42084293  0.77883800  0.85517529  1
  O  O24  1  0.57987308  0.23241018  0.12374051  1
  O  O25  1  0.22272722  0.65672499  0.92322359  1
  O  O26  1  0.65656017  0.65309578  0.97355184  1
  O  O27  1  0.11526522  0.02096974  0.72821070  1
  O  O28  1  0.44750289  0.68738570  0.42146393  1
  O  O29  1  0.24794167  0.55314237  0.48059898  1
  O  O30  1  0.31585065  0.98931716  0.34786091  1
  O  O31  1  0.08524018  0.10295757  0.20728963  1
  O  O32  1  0.00818744  0.67734347  0.34679665  1
