# generated using pymatgen
data_Li8Fe(O2F)2
_symmetry_space_group_name_H-M   'P 1'
_cell_length_a   5.44845767
_cell_length_b   6.25747009
_cell_length_c   5.57415956
_cell_angle_alpha   116.83883822
_cell_angle_beta   61.01778909
_cell_angle_gamma   118.32496876
_symmetry_Int_Tables_number   1
_chemical_formula_structural   Li8Fe(O2F)2
_chemical_formula_sum   'Li8 Fe1 O4 F2'
_cell_volume   140.14997441
_cell_formula_units_Z   1
loop_
 _symmetry_equiv_pos_site_id
 _symmetry_equiv_pos_as_xyz
  1  'x, y, z'
loop_
 _atom_site_type_symbol
 _atom_site_label
 _atom_site_symmetry_multiplicity
 _atom_site_fract_x
 _atom_site_fract_y
 _atom_site_fract_z
 _atom_site_occupancy
  Li  Li0  1  0.11538693  0.34619570  0.46811541  1
  Li  Li1  1  0.54410303  0.64217836  0.21242533  1
  Li  Li2  1  0.22396903  0.63717635  0.89890665  1
  Li  Li3  1  0.29704237  0.01290745  0.30478789  1
  Li  Li4  1  0.70295763  0.98709255  0.69521211  1
  Li  Li5  1  0.77603097  0.36282365  0.10109335  1
  Li  Li6  1  0.45589697  0.35782164  0.78757467  1
  Li  Li7  1  0.88461307  0.65380430  0.53188459  1
  Fe  Fe8  1  0.00000000  0.00000000  0.00000000  1
  O  O9  1  0.38586192  0.23965793  0.08638563  1
  O  O10  1  0.07781935  0.24560044  0.75803901  1
  O  O11  1  0.92218065  0.75439956  0.24196099  1
  O  O12  1  0.61413808  0.76034207  0.91361437  1
  F  F13  1  0.24770180  0.71843520  0.57847225  1
  F  F14  1  0.75229820  0.28156480  0.42152775  1
