# generated using pymatgen
data_LiFeF3
_symmetry_space_group_name_H-M   'P 1'
_cell_length_a   6.55560842
_cell_length_b   9.56299873
_cell_length_c   6.67508841
_cell_angle_alpha   84.79811273
_cell_angle_beta   83.19026601
_cell_angle_gamma   63.01056851
_symmetry_Int_Tables_number   1
_chemical_formula_structural   LiFeF3
_chemical_formula_sum   'Li6 Fe6 F18'
_cell_volume   369.94240728
_cell_formula_units_Z   6
loop_
 _symmetry_equiv_pos_site_id
 _symmetry_equiv_pos_as_xyz
  1  'x, y, z'
loop_
 _atom_site_type_symbol
 _atom_site_label
 _atom_site_symmetry_multiplicity
 _atom_site_fract_x
 _atom_site_fract_y
 _atom_site_fract_z
 _atom_site_occupancy
  Li  Li0  1  0.39529248  0.25655996  0.44213589  1
  Li  Li1  1  0.81571235  0.97908574  0.30558077  1
  Li  Li2  1  0.27325847  0.70208113  0.89955130  1
  Li  Li3  1  0.72674153  0.29791887  0.10044870  1
  Li  Li4  1  0.18428765  0.02091426  0.69441923  1
  Li  Li5  1  0.60470752  0.74344004  0.55786411  1
  Fe  Fe6  1  0.17503100  0.58144361  0.35830635  1
  Fe  Fe7  1  0.24217745  0.33226890  0.93641841  1
  Fe  Fe8  1  0.29217560  0.00017965  0.18837747  1
  Fe  Fe9  1  0.70782440  0.99982035  0.81162253  1
  Fe  Fe10  1  0.75782255  0.66773110  0.06358159  1
  Fe  Fe11  1  0.82496900  0.41855639  0.64169365  1
  F  F12  1  0.97375462  0.20412791  0.59008428  1
  F  F13  1  0.25374944  0.23925884  0.22067880  1
  F  F14  1  0.13346636  0.57161126  0.03788836  1
  F  F15  1  0.17222230  0.41409215  0.63119208  1
  F  F16  1  0.33809645  0.08555889  0.87266473  1
  F  F17  1  0.63001167  0.08263052  0.52822974  1
  F  F18  1  0.04476707  0.90186438  0.83048315  1
  F  F19  1  0.40911805  0.75184561  0.10656150  1
  F  F20  1  0.48783652  0.40810870  0.30695591  1
  F  F21  1  0.51216348  0.59189130  0.69304409  1
  F  F22  1  0.59088195  0.24815439  0.89343850  1
  F  F23  1  0.95523293  0.09813562  0.16951685  1
  F  F24  1  0.36998833  0.91736948  0.47177026  1
  F  F25  1  0.66190355  0.91444111  0.12733527  1
  F  F26  1  0.82777770  0.58590785  0.36880792  1
  F  F27  1  0.86653364  0.42838874  0.96211164  1
  F  F28  1  0.74625056  0.76074116  0.77932120  1
  F  F29  1  0.02624538  0.79587209  0.40991572  1
