# generated using pymatgen
data_Ti(Mo3Se4)2
_symmetry_space_group_name_H-M   'P 1'
_cell_length_a   6.67419064
_cell_length_b   6.67235773
_cell_length_c   6.66707404
_cell_angle_alpha   90.87385274
_cell_angle_beta   90.99628756
_cell_angle_gamma   90.98307630
_symmetry_Int_Tables_number   1
_chemical_formula_structural   Ti(Mo3Se4)2
_chemical_formula_sum   'Ti1 Mo6 Se8'
_cell_volume   296.77757222
_cell_formula_units_Z   1
loop_
 _symmetry_equiv_pos_site_id
 _symmetry_equiv_pos_as_xyz
  1  'x, y, z'
loop_
 _atom_site_type_symbol
 _atom_site_label
 _atom_site_symmetry_multiplicity
 _atom_site_fract_x
 _atom_site_fract_y
 _atom_site_fract_z
 _atom_site_occupancy
  Ti  Ti0  1  -0.00000000  0.00000000  0.00000000  1
  Mo  Mo1  1  0.22674755  0.42170820  0.55215694  1
  Mo  Mo2  1  0.77325245  0.57829180  0.44784306  1
  Mo  Mo3  1  0.42132836  0.55242792  0.22695044  1
  Mo  Mo4  1  0.57867164  0.44757208  0.77304956  1
  Mo  Mo5  1  0.55149487  0.22668662  0.42172620  1
  Mo  Mo6  1  0.44850513  0.77331338  0.57827380  1
  Se  Se7  1  0.12533784  0.75814388  0.36052004  1
  Se  Se8  1  0.87466216  0.24185612  0.63947996  1
  Se  Se9  1  0.22159010  0.22315109  0.22245469  1
  Se  Se10  1  0.77840990  0.77684891  0.77754531  1
  Se  Se11  1  0.36065593  0.12543722  0.75745738  1
  Se  Se12  1  0.63934407  0.87456278  0.24254262  1
  Se  Se13  1  0.75647825  0.36020127  0.12588365  1
  Se  Se14  1  0.24352175  0.63979873  0.87411635  1
