# generated using pymatgen
data_LiFe2O2F3
_symmetry_space_group_name_H-M   'P 1'
_cell_length_a   5.08843857
_cell_length_b   5.97950439
_cell_length_c   7.60935234
_cell_angle_alpha   79.00925532
_cell_angle_beta   109.53327117
_cell_angle_gamma   64.81832289
_symmetry_Int_Tables_number   1
_chemical_formula_structural   LiFe2O2F3
_chemical_formula_sum   'Li2 Fe4 O4 F6'
_cell_volume   181.79816717
_cell_formula_units_Z   2
loop_
 _symmetry_equiv_pos_site_id
 _symmetry_equiv_pos_as_xyz
  1  'x, y, z'
loop_
 _atom_site_type_symbol
 _atom_site_label
 _atom_site_symmetry_multiplicity
 _atom_site_fract_x
 _atom_site_fract_y
 _atom_site_fract_z
 _atom_site_occupancy
  Li  Li0  1  -0.00000000  0.50000000  0.00000000  1
  Li  Li1  1  0.50000000  -0.00000000  0.50000000  1
  Fe  Fe2  1  0.80013436  0.98701854  0.13031172  1
  Fe  Fe3  1  0.34315882  0.48701854  0.63031172  1
  Fe  Fe4  1  0.65684118  0.51298146  0.36968828  1
  Fe  Fe5  1  0.19986564  0.01298146  0.86968828  1
  O  O6  1  0.23856886  0.73706824  0.36545941  1
  O  O7  1  0.38982230  0.23706824  0.86545941  1
  O  O8  1  0.61017770  0.76293176  0.13454059  1
  O  O9  1  0.76143114  0.26293176  0.63454059  1
  F  F10  1  0.42028985  0.75000000  0.75000000  1
  F  F11  1  0.85643074  0.69667657  0.54655093  1
  F  F12  1  0.99344462  0.19667657  0.04655093  1
  F  F13  1  0.00655538  0.80332343  0.95344907  1
  F  F14  1  0.14356926  0.30332343  0.45344907  1
  F  F15  1  0.57971015  0.25000000  0.25000000  1
