# generated using pymatgen
data_LiCrP2O7
_symmetry_space_group_name_H-M   'P 1'
_cell_length_a   7.91270267
_cell_length_b   6.29728760
_cell_length_c   6.14984267
_cell_angle_alpha   107.30146688
_cell_angle_beta   103.47269850
_cell_angle_gamma   98.86898596
_symmetry_Int_Tables_number   1
_chemical_formula_structural   LiCrP2O7
_chemical_formula_sum   'Li2 Cr2 P4 O14'
_cell_volume   276.15773297
_cell_formula_units_Z   2
loop_
 _symmetry_equiv_pos_site_id
 _symmetry_equiv_pos_as_xyz
  1  'x, y, z'
loop_
 _atom_site_type_symbol
 _atom_site_label
 _atom_site_symmetry_multiplicity
 _atom_site_fract_x
 _atom_site_fract_y
 _atom_site_fract_z
 _atom_site_occupancy
  Li  Li0  1  -0.00000000  -0.00000000  -0.00000000  1
  Li  Li1  1  0.50000000  -0.00000000  -0.00000000  1
  Cr  Cr2  1  0.22974773  0.67998144  0.36981661  1
  Cr  Cr3  1  0.77025227  0.32001856  0.63018339  1
  P  P4  1  0.20394586  0.54157822  0.82138369  1
  P  P5  1  0.32130629  0.23572916  0.46370509  1
  P  P6  1  0.67869371  0.76427084  0.53629491  1
  P  P7  1  0.79605414  0.45842178  0.17861631  1
  O  O8  1  0.03239223  0.37471789  0.79088244  1
  O  O9  1  0.18548068  0.70899511  0.68389661  1
  O  O10  1  0.21025834  0.99902838  0.41835637  1
  O  O11  1  0.21321771  0.33734850  0.29265265  1
  O  O12  1  0.34082290  0.39019111  0.73501828  1
  O  O13  1  0.30509719  0.68876872  0.08154471  1
  O  O14  1  0.49088402  0.76375095  0.56176035  1
  O  O15  1  0.50911598  0.23624905  0.43823965  1
  O  O16  1  0.69490281  0.31123128  0.91845529  1
  O  O17  1  0.65917710  0.60980889  0.26498172  1
  O  O18  1  0.78678229  0.66265150  0.70734735  1
  O  O19  1  0.78974166  0.00097162  0.58164363  1
  O  O20  1  0.81451932  0.29100489  0.31610339  1
  O  O21  1  0.96760777  0.62528211  0.20911756  1
