# generated using pymatgen
data_Li8(CoO2)5
_symmetry_space_group_name_H-M   'P 1'
_cell_length_a   3.62548178
_cell_length_b   5.33890624
_cell_length_c   13.88436577
_cell_angle_alpha   83.61535001
_cell_angle_beta   82.92352139
_cell_angle_gamma   70.51020977
_symmetry_Int_Tables_number   1
_chemical_formula_structural   Li8(CoO2)5
_chemical_formula_sum   'Li8 Co5 O10'
_cell_volume   250.71163023
_cell_formula_units_Z   1
loop_
 _symmetry_equiv_pos_site_id
 _symmetry_equiv_pos_as_xyz
  1  'x, y, z'
loop_
 _atom_site_type_symbol
 _atom_site_label
 _atom_site_symmetry_multiplicity
 _atom_site_fract_x
 _atom_site_fract_y
 _atom_site_fract_z
 _atom_site_occupancy
  Li  Li0  1  0.78684353  0.08197285  0.34138276  1
  Li  Li1  1  0.21035070  0.11789253  0.46272677  1
  Li  Li2  1  0.22090572  0.30664335  0.24230639  1
  Li  Li3  1  0.22648539  0.48926362  0.06522089  1
  Li  Li4  1  0.79146774  0.47510167  0.94675672  1
  Li  Li5  1  0.77614097  0.71424329  0.73445226  1
  Li  Li6  1  0.77955189  0.88695664  0.55843872  1
  Li  Li7  1  0.21216211  0.72226964  0.85550178  1
  Co  Co8  1  0.49947404  0.20231616  0.79815689  1
  Co  Co9  1  0.49097594  0.41213654  0.60559950  1
  Co  Co10  1  0.49985060  0.59865011  0.40033817  1
  Co  Co11  1  0.50249298  0.99678746  0.00306347  1
  Co  Co12  1  0.50819721  0.78668067  0.19752511  1
  O  O13  1  0.36551704  0.13281120  0.12482889  1
  O  O14  1  0.62909619  0.06505111  0.67383937  1
  O  O15  1  0.63639819  0.26291509  0.46872871  1
  O  O16  1  0.63376959  0.44831165  0.28126553  1
  O  O17  1  0.36480595  0.33994098  0.93008249  1
  O  O18  1  0.64912608  0.65186961  0.06691437  1
  O  O19  1  0.35437104  0.55417222  0.73474553  1
  O  O20  1  0.36573026  0.74731990  0.51894574  1
  O  O21  1  0.36295722  0.93674806  0.33200691  1
  O  O22  1  0.63820464  0.85399165  0.87671103  1
