# generated using pymatgen
data_LiCuPO4
_symmetry_space_group_name_H-M   'P 1'
_cell_length_a   18.61706897
_cell_length_b   5.65503961
_cell_length_c   8.47203375
_cell_angle_alpha   90.00000000
_cell_angle_beta   90.00000000
_cell_angle_gamma   90.00000000
_symmetry_Int_Tables_number   1
_chemical_formula_structural   LiCuPO4
_chemical_formula_sum   'Li12 Cu12 P12 O48'
_cell_volume   891.93793666
_cell_formula_units_Z   12
loop_
 _symmetry_equiv_pos_site_id
 _symmetry_equiv_pos_as_xyz
  1  'x, y, z'
loop_
 _atom_site_type_symbol
 _atom_site_label
 _atom_site_symmetry_multiplicity
 _atom_site_fract_x
 _atom_site_fract_y
 _atom_site_fract_z
 _atom_site_occupancy
  Li  Li0  1  0.00020821  0.17331624  0.73922627  1
  Li  Li1  1  0.17937958  0.81659164  0.22803954  1
  Li  Li2  1  0.15517678  0.21406718  0.76004091  1
  Li  Li3  1  0.34482322  0.71406718  0.26004091  1
  Li  Li4  1  0.32062042  0.31659164  0.72803954  1
  Li  Li5  1  0.49979179  0.67331624  0.23922627  1
  Li  Li6  1  0.50020821  0.17331624  0.76077373  1
  Li  Li7  1  0.67937958  0.81659164  0.27196046  1
  Li  Li8  1  0.65517578  0.21406718  0.73995909  1
  Li  Li9  1  0.84482422  0.71406718  0.23995909  1
  Li  Li10  1  0.82062042  0.31659164  0.77196046  1
  Li  Li11  1  0.99979179  0.67331624  0.26077373  1
  Cu  Cu12  1  0.06878788  0.32526432  0.02702614  1
  Cu  Cu13  1  0.10302432  0.66018202  0.51161796  1
  Cu  Cu14  1  0.23322149  0.25891175  0.46056473  1
  Cu  Cu15  1  0.26677851  0.75891175  0.96056473  1
  Cu  Cu16  1  0.39697568  0.16018202  0.01161796  1
  Cu  Cu17  1  0.43121212  0.82526432  0.52702614  1
  Cu  Cu18  1  0.56878788  0.32526432  0.47297386  1
  Cu  Cu19  1  0.60302432  0.66018202  0.98838204  1
  Cu  Cu20  1  0.73322149  0.25891175  0.03943527  1
  Cu  Cu21  1  0.76677851  0.75891175  0.53943527  1
  Cu  Cu22  1  0.89697568  0.16018202  0.48838204  1
  Cu  Cu23  1  0.93121212  0.82526432  0.97297386  1
  P  P24  1  0.06877686  0.17393599  0.39905316  1
  P  P25  1  0.09241176  0.75983827  0.89758856  1
  P  P26  1  0.23991222  0.27143101  0.09308308  1
  P  P27  1  0.26008778  0.77143101  0.59308308  1
  P  P28  1  0.40758824  0.25983827  0.39758856  1
  P  P29  1  0.43122314  0.67393599  0.89905316  1
  P  P30  1  0.56877686  0.17393599  0.10094684  1
  P  P31  1  0.59241176  0.75983827  0.60241144  1
  P  P32  1  0.73991222  0.27143101  0.40691692  1
  P  P33  1  0.76008778  0.77143101  0.90691692  1
  P  P34  1  0.90758824  0.25983827  0.10241144  1
  P  P35  1  0.93122314  0.67393599  0.60094684  1
  O  O36  1  0.00022152  0.15642392  0.49872378  1
  O  O37  1  0.03208182  0.78784729  0.02631364  1
  O  O38  1  0.08760999  0.95045952  0.77062891  1
  O  O39  1  0.08322149  0.50811155  0.82076641  1
  O  O40  1  0.06220589  0.33911455  0.25569521  1
  O  O41  1  0.09551935  0.92542117  0.35023528  1
  O  O42  1  0.12697745  0.29318092  0.51165206  1
  O  O43  1  0.16327009  0.77722922  0.99486790  1
  O  O44  1  0.16915585  0.26565770  0.00054241  1
  O  O45  1  0.20574449  0.66190440  0.46966117  1
  O  O46  1  0.23690486  0.02429111  0.64295109  1
  O  O47  1  0.26161981  0.61066024  0.74000959  1
  O  O48  1  0.23838019  0.11066024  0.24000959  1
  O  O49  1  0.26309514  0.52429111  0.14295109  1
  O  O50  1  0.29425551  0.16190440  0.96966117  1
  O  O51  1  0.33084415  0.76565770  0.50054241  1
  O  O52  1  0.33672991  0.27722922  0.49486790  1
  O  O53  1  0.37302255  0.79318092  0.01165206  1
  O  O54  1  0.40448065  0.42542117  0.85023528  1
  O  O55  1  0.43779411  0.83911455  0.75569521  1
  O  O56  1  0.41677851  0.00811155  0.32076641  1
  O  O57  1  0.41239001  0.45045952  0.27062891  1
  O  O58  1  0.46791818  0.28784729  0.52631364  1
  O  O59  1  0.49977848  0.65642392  0.99872378  1
  O  O60  1  0.50022152  0.15642392  0.00127622  1
  O  O61  1  0.53208182  0.78784729  0.47368636  1
  O  O62  1  0.58760999  0.95045952  0.72937109  1
  O  O63  1  0.58322149  0.50811155  0.67923359  1
  O  O64  1  0.56220589  0.33911455  0.24430479  1
  O  O65  1  0.59551935  0.92542117  0.14976472  1
  O  O66  1  0.62697745  0.29318092  0.98834794  1
  O  O67  1  0.66327009  0.77722922  0.50513210  1
  O  O68  1  0.66915585  0.26565770  0.49945759  1
  O  O69  1  0.70574449  0.66190440  0.03033883  1
  O  O70  1  0.73690486  0.02429111  0.85704891  1
  O  O71  1  0.76161981  0.61066024  0.75999041  1
  O  O72  1  0.73838019  0.11066024  0.25999041  1
  O  O73  1  0.76309514  0.52429111  0.35704891  1
  O  O74  1  0.79425551  0.16190440  0.53033883  1
  O  O75  1  0.83084415  0.76565770  0.99945759  1
  O  O76  1  0.83672991  0.27722922  0.00513210  1
  O  O77  1  0.87302255  0.79318092  0.48834794  1
  O  O78  1  0.90448065  0.42542117  0.64976472  1
  O  O79  1  0.93779411  0.83911455  0.74430479  1
  O  O80  1  0.91677851  0.00811155  0.17923359  1
  O  O81  1  0.91239001  0.45045952  0.22937109  1
  O  O82  1  0.96791818  0.28784729  0.97368636  1
  O  O83  1  -0.00022152  0.65642392  0.50127622  1
