# generated using pymatgen
data_LiCr2O4
_symmetry_space_group_name_H-M   'P 1'
_cell_length_a   5.18163414
_cell_length_b   2.92541705
_cell_length_c   5.13852009
_cell_angle_alpha   89.99998766
_cell_angle_beta   69.96616004
_cell_angle_gamma   89.99999258
_symmetry_Int_Tables_number   1
_chemical_formula_structural   LiCr2O4
_chemical_formula_sum   'Li1 Cr2 O4'
_cell_volume   73.17874615
_cell_formula_units_Z   1
loop_
 _symmetry_equiv_pos_site_id
 _symmetry_equiv_pos_as_xyz
  1  'x, y, z'
loop_
 _atom_site_type_symbol
 _atom_site_label
 _atom_site_symmetry_multiplicity
 _atom_site_fract_x
 _atom_site_fract_y
 _atom_site_fract_z
 _atom_site_occupancy
  Li  Li0  1  0.00000000  0.50000000  0.50000000  1
  Cr  Cr1  1  0.50000000  0.00000000  0.50000000  1
  Cr  Cr2  1  0.50000000  0.50000000  0.00000000  1
  O  O3  1  0.71335115  0.00000000  0.74605025  1
  O  O4  1  0.70665511  0.50000000  0.27344612  1
  O  O5  1  0.29334489  0.50000000  0.72655388  1
  O  O6  1  0.28664885  1.00000000  0.25394975  1
