# generated using pymatgen
data_Li7Fe3O10
_symmetry_space_group_name_H-M   'P 1'
_cell_length_a   5.07889520
_cell_length_b   5.09933440
_cell_length_c   7.92012213
_cell_angle_alpha   106.34830645
_cell_angle_beta   103.54905259
_cell_angle_gamma   101.53156019
_symmetry_Int_Tables_number   1
_chemical_formula_structural   Li7Fe3O10
_chemical_formula_sum   'Li7 Fe3 O10'
_cell_volume   183.41689329
_cell_formula_units_Z   1
loop_
 _symmetry_equiv_pos_site_id
 _symmetry_equiv_pos_as_xyz
  1  'x, y, z'
loop_
 _atom_site_type_symbol
 _atom_site_label
 _atom_site_symmetry_multiplicity
 _atom_site_fract_x
 _atom_site_fract_y
 _atom_site_fract_z
 _atom_site_occupancy
  Li  Li0  1  0.08871599  0.68070716  0.68096739  1
  Li  Li1  1  0.20701238  0.91614654  0.41035105  1
  Li  Li2  1  0.38188871  0.26158613  0.77350558  1
  Li  Li3  1  0.50000000  0.50000000  0.50000000  1
  Li  Li4  1  0.61811129  0.73841387  0.22649442  1
  Li  Li5  1  0.79298762  0.08385346  0.58964895  1
  Li  Li6  1  0.91128401  0.31929284  0.31903261  1
  Fe  Fe7  1  0.00000000  0.50000000  0.00000000  1
  Fe  Fe8  1  0.68659424  0.88379497  0.88952764  1
  Fe  Fe9  1  0.31340576  0.11620503  0.11047236  1
  O  O10  1  0.06307340  0.12380306  0.87878627  1
  O  O11  1  0.33924687  0.73548855  0.96622626  1
  O  O12  1  0.13300799  0.27584771  0.54649133  1
  O  O13  1  0.25077485  0.47430862  0.22504992  1
  O  O14  1  0.47631668  0.88793481  0.67104471  1
  O  O15  1  0.52368332  0.11206519  0.32895529  1
  O  O16  1  0.74922515  0.52569138  0.77495008  1
  O  O17  1  0.86699201  0.72415229  0.45350867  1
  O  O18  1  0.66075313  0.26451145  0.03377374  1
  O  O19  1  0.93692660  0.87619694  0.12121373  1
