# generated using pymatgen
data_Li3MnPCO7
_symmetry_space_group_name_H-M   'P 1'
_cell_length_a   5.19450834
_cell_length_b   6.71997332
_cell_length_c   8.78109954
_cell_angle_alpha   100.36619072
_cell_angle_beta   88.41676377
_cell_angle_gamma   90.16746787
_symmetry_Int_Tables_number   1
_chemical_formula_structural   Li3MnPCO7
_chemical_formula_sum   'Li6 Mn2 P2 C2 O14'
_cell_volume   301.40260838
_cell_formula_units_Z   2
loop_
 _symmetry_equiv_pos_site_id
 _symmetry_equiv_pos_as_xyz
  1  'x, y, z'
loop_
 _atom_site_type_symbol
 _atom_site_label
 _atom_site_symmetry_multiplicity
 _atom_site_fract_x
 _atom_site_fract_y
 _atom_site_fract_z
 _atom_site_occupancy
  Li  Li0  1  0.40628366  0.94701981  0.78243290  1
  Li  Li1  1  0.29761989  0.55449715  0.76758142  1
  Li  Li2  1  0.01146406  0.19940078  0.74271933  1
  Li  Li3  1  0.93545851  0.67617662  0.25052934  1
  Li  Li4  1  0.64876977  0.32099828  0.22553468  1
  Li  Li5  1  0.54063354  0.92855494  0.21068876  1
  Mn  Mn6  1  0.82272155  0.69569021  0.62831604  1
  Mn  Mn7  1  0.12401983  0.17976739  0.36496995  1
  P  P8  1  0.62523297  0.19470839  0.57108016  1
  P  P9  1  0.32166148  0.68071447  0.42204513  1
  C  C10  1  0.77649767  0.71081279  0.93979858  1
  C  C11  1  0.16968490  0.16455395  0.05367165  1
  O  O12  1  0.21318581  0.16185841  0.90813577  1
  O  O13  1  0.00272924  0.69176877  0.87561112  1
  O  O14  1  0.58182935  0.72819977  0.84923066  1
  O  O15  1  0.71220907  0.02011956  0.65472152  1
  O  O16  1  0.78474012  0.38046203  0.64640008  1
  O  O17  1  0.32993467  0.23511765  0.59337340  1
  O  O18  1  0.24573287  0.73188042  0.59850136  1
  O  O19  1  0.70112350  0.14347452  0.39477873  1
  O  O20  1  0.61698093  0.64037325  0.39989830  1
  O  O21  1  0.16227456  0.49500418  0.34673275  1
  O  O22  1  0.23468490  0.85539084  0.33863680  1
  O  O23  1  0.36417274  0.14722087  0.14411712  1
  O  O24  1  0.94351445  0.18364817  0.11729322  1
  O  O25  1  0.73355197  0.71337679  0.08491423  1
