# generated using pymatgen
data_Li4TiCu3(PO4)4
_symmetry_space_group_name_H-M   'P 1'
_cell_length_a   4.81568645
_cell_length_b   10.36313908
_cell_length_c   6.05907333
_cell_angle_alpha   90.00000000
_cell_angle_beta   90.00000000
_cell_angle_gamma   89.38117693
_symmetry_Int_Tables_number   1
_chemical_formula_structural   Li4TiCu3(PO4)4
_chemical_formula_sum   'Li4 Ti1 Cu3 P4 O16'
_cell_volume   302.36422611
_cell_formula_units_Z   1
loop_
 _symmetry_equiv_pos_site_id
 _symmetry_equiv_pos_as_xyz
  1  'x, y, z'
loop_
 _atom_site_type_symbol
 _atom_site_label
 _atom_site_symmetry_multiplicity
 _atom_site_fract_x
 _atom_site_fract_y
 _atom_site_fract_z
 _atom_site_occupancy
  Li  Li0  1  0.00966141  0.98734387  0.98565043  1
  Li  Li1  1  0.00966141  0.98734387  0.51434957  1
  Li  Li2  1  0.50125773  0.51242564  0.51060282  1
  Li  Li3  1  0.50125773  0.51242564  0.98939718  1
  Ti  Ti4  1  0.98960580  0.28234448  0.25000000  1
  Cu  Cu5  1  0.00660002  0.72051959  0.75000000  1
  Cu  Cu6  1  0.45973094  0.21175411  0.75000000  1
  Cu  Cu7  1  0.53588207  0.78398148  0.25000000  1
  P  P8  1  0.07538763  0.59212257  0.25000000  1
  P  P9  1  0.40693878  0.10202883  0.25000000  1
  P  P10  1  0.58550606  0.90804212  0.75000000  1
  P  P11  1  0.93127658  0.40110299  0.75000000  1
  O  O12  1  0.19044191  0.44354156  0.25000000  1
  O  O13  1  0.20957296  0.65315428  0.04204505  1
  O  O14  1  0.20957296  0.65315428  0.45795495  1
  O  O15  1  0.24980208  0.40152769  0.75000000  1
  O  O16  1  0.26705131  0.91191767  0.75000000  1
  O  O17  1  0.25674739  0.17701305  0.05419294  1
  O  O18  1  0.25674739  0.17701305  0.44580706  1
  O  O19  1  0.30228246  0.96301524  0.25000000  1
  O  O20  1  0.70896405  0.04785277  0.75000000  1
  O  O21  1  0.72021497  0.83611304  0.54612015  1
  O  O22  1  0.72021497  0.83611304  0.95387985  1
  O  O23  1  0.72345228  0.11923423  0.25000000  1
  O  O24  1  0.75622515  0.58902271  0.25000000  1
  O  O25  1  0.81674766  0.32843716  0.53658472  1
  O  O26  1  0.81674766  0.32843716  0.96341528  1
  O  O27  1  0.78244867  0.53301988  0.75000000  1
