# generated using pymatgen
data_Li4V5Cr4O18
_symmetry_space_group_name_H-M   'P 1'
_cell_length_a   8.89277592
_cell_length_b   24.81764672
_cell_length_c   2.98358902
_cell_angle_alpha   90.00000000
_cell_angle_beta   90.00000000
_cell_angle_gamma   90.00000000
_symmetry_Int_Tables_number   1
_chemical_formula_structural   Li4V5Cr4O18
_chemical_formula_sum   'Li8 V10 Cr8 O36'
_cell_volume   658.47144672
_cell_formula_units_Z   2
loop_
 _symmetry_equiv_pos_site_id
 _symmetry_equiv_pos_as_xyz
  1  'x, y, z'
loop_
 _atom_site_type_symbol
 _atom_site_label
 _atom_site_symmetry_multiplicity
 _atom_site_fract_x
 _atom_site_fract_y
 _atom_site_fract_z
 _atom_site_occupancy
  Li  Li0  1  0.17990269  0.99048243  -0.00000000  1
  Li  Li1  1  0.20724481  0.19037468  -0.00000000  1
  Li  Li2  1  0.29275519  0.69037468  0.00000000  1
  Li  Li3  1  0.32009731  0.49048243  0.00000000  1
  Li  Li4  1  0.67990269  0.50951757  0.00000000  1
  Li  Li5  1  0.70724481  0.30962532  0.00000000  1
  Li  Li6  1  0.79275519  0.80962532  -0.00000000  1
  Li  Li7  1  0.82009731  0.00951757  -0.00000000  1
  V  V8  1  0.00000000  0.50000000  0.00000000  1
  V  V9  1  0.99197997  0.10257728  -0.00000000  1
  V  V10  1  0.14166132  0.80255058  0.50000000  1
  V  V11  1  0.35833868  0.30255058  0.50000000  1
  V  V12  1  0.50802003  0.60257728  0.00000000  1
  V  V13  1  0.50000000  0.00000000  0.00000000  1
  V  V14  1  0.49197997  0.39742272  -0.00000000  1
  V  V15  1  0.64166132  0.69744942  0.50000000  1
  V  V16  1  0.85833868  0.19744942  0.50000000  1
  V  V17  1  0.00802003  0.89742272  -0.00000000  1
  Cr  Cr18  1  0.01782693  0.31282473  -0.00000000  1
  Cr  Cr19  1  0.15149777  0.58577180  0.50000000  1
  Cr  Cr20  1  0.34850223  0.08577180  0.50000000  1
  Cr  Cr21  1  0.48217307  0.81282473  -0.00000000  1
  Cr  Cr22  1  0.51782693  0.18717527  0.00000000  1
  Cr  Cr23  1  0.65149777  0.91422820  0.50000000  1
  Cr  Cr24  1  0.84850223  0.41422820  0.50000000  1
  Cr  Cr25  1  0.98217307  0.68717527  -0.00000000  1
  O  O26  1  -0.00013471  0.42277990  0.00000000  1
  O  O27  1  0.00013471  0.57722010  0.00000000  1
  O  O28  1  0.06386979  0.94317598  0.50000000  1
  O  O29  1  0.04724334  0.15999289  0.50000000  1
  O  O30  1  0.11976243  0.66444694  0.50000000  1
  O  O31  1  0.09087605  0.75545669  -0.00000000  1
  O  O32  1  0.15089327  0.50388365  0.50000000  1
  O  O33  1  0.15156457  0.28685424  0.50000000  1
  O  O34  1  0.18720101  0.85540870  -0.00000000  1
  O  O35  1  0.19782031  0.08410251  0.00000000  1
  O  O36  1  0.30217969  0.58410251  -0.00000000  1
  O  O37  1  0.31279899  0.35540870  0.00000000  1
  O  O38  1  0.34843543  0.78685424  0.50000000  1
  O  O39  1  0.34910673  0.00388365  0.50000000  1
  O  O40  1  0.40912395  0.25545669  -0.00000000  1
  O  O41  1  0.38023757  0.16444694  0.50000000  1
  O  O42  1  0.45275666  0.65999289  0.50000000  1
  O  O43  1  0.43613021  0.44317598  0.50000000  1
  O  O44  1  0.49986529  0.07722010  -0.00000000  1
  O  O45  1  0.50013471  0.92277990  -0.00000000  1
  O  O46  1  0.56386979  0.55682402  0.50000000  1
  O  O47  1  0.54724334  0.34000711  0.50000000  1
  O  O48  1  0.61976243  0.83555306  0.50000000  1
  O  O49  1  0.59087605  0.74454331  0.00000000  1
  O  O50  1  0.65089327  0.99611635  0.50000000  1
  O  O51  1  0.65156457  0.21314576  0.50000000  1
  O  O52  1  0.68720101  0.64459130  0.00000000  1
  O  O53  1  0.69782031  0.41589749  0.00000000  1
  O  O54  1  0.80217969  0.91589749  -0.00000000  1
  O  O55  1  0.81279899  0.14459130  -0.00000000  1
  O  O56  1  0.84843543  0.71314576  0.50000000  1
  O  O57  1  0.84910673  0.49611635  0.50000000  1
  O  O58  1  0.90912395  0.24454331  0.00000000  1
  O  O59  1  0.88023757  0.33555306  0.50000000  1
  O  O60  1  0.95275666  0.84000711  0.50000000  1
  O  O61  1  0.93613021  0.05682402  0.50000000  1
