# generated using pymatgen
data_Li4CrFe3Cu2(PO4)6
_symmetry_space_group_name_H-M   'P 1'
_cell_length_a   8.58742389
_cell_length_b   8.65575959
_cell_length_c   8.66300846
_cell_angle_alpha   61.26686226
_cell_angle_beta   61.34677559
_cell_angle_gamma   61.37858053
_symmetry_Int_Tables_number   1
_chemical_formula_structural   Li4CrFe3Cu2(PO4)6
_chemical_formula_sum   'Li4 Cr1 Fe3 Cu2 P6 O24'
_cell_volume   468.94182230
_cell_formula_units_Z   1
loop_
 _symmetry_equiv_pos_site_id
 _symmetry_equiv_pos_as_xyz
  1  'x, y, z'
loop_
 _atom_site_type_symbol
 _atom_site_label
 _atom_site_symmetry_multiplicity
 _atom_site_fract_x
 _atom_site_fract_y
 _atom_site_fract_z
 _atom_site_occupancy
  Li  Li0  1  0.74983884  0.15121734  0.34932063  1
  Li  Li1  1  0.25054440  0.84435976  0.65211482  1
  Li  Li2  1  0.65199757  0.25040381  0.84546735  1
  Li  Li3  1  0.84418221  0.65102706  0.25100542  1
  Cr  Cr4  1  0.85509142  0.85180210  0.85627321  1
  Fe  Fe5  1  0.14642589  0.14243337  0.13821122  1
  Fe  Fe6  1  0.35282437  0.36127020  0.35654047  1
  Fe  Fe7  1  0.64766460  0.64582892  0.65133050  1
  Cu  Cu8  1  0.02097184  0.00182311  0.99154815  1
  Cu  Cu9  1  0.48018635  0.50997656  0.49900406  1
  P  P10  1  0.04756515  0.74914078  0.45622547  1
  P  P11  1  0.45429314  0.04582447  0.74957121  1
  P  P12  1  0.74954374  0.45404699  0.04792303  1
  P  P13  1  0.24941981  0.53943471  0.95967267  1
  P  P14  1  0.54477463  0.96005600  0.25109004  1
  P  P15  1  0.95433333  0.24746078  0.53914366  1
  O  O16  1  0.12364124  0.29364154  0.49710856  1
  O  O17  1  0.30402745  0.50664294  0.11848009  1
  O  O18  1  0.04511623  0.92104299  0.27615623  1
  O  O19  1  0.52944581  0.11649544  0.29959215  1
  O  O20  1  0.01870070  0.80049726  0.61859452  1
  O  O21  1  0.23827445  0.59146325  0.43063373  1
  O  O22  1  0.26383125  0.06855202  0.90797494  1
  O  O23  1  0.45355639  0.22603464  0.57779408  1
  O  O24  1  0.19330706  0.38136798  0.99339228  1
  O  O25  1  0.59229039  0.42806076  0.24030728  1
  O  O26  1  0.08795615  0.73374895  0.93520986  1
  O  O27  1  0.37599868  0.00284868  0.20412194  1
  O  O28  1  0.61502532  0.01293728  0.80787099  1
  O  O29  1  0.90687882  0.26146228  0.07169009  1
  O  O30  1  0.41097142  0.56425142  0.76656352  1
  O  O31  1  0.80468944  0.61362436  0.01860727  1
  O  O32  1  0.56592448  0.76718694  0.41248246  1
  O  O33  1  0.73610110  0.93033642  0.08766059  1
  O  O34  1  0.76390560  0.41003939  0.57037145  1
  O  O35  1  0.97027501  0.19839876  0.38311415  1
  O  O36  1  0.48605664  0.88310770  0.69686059  1
  O  O37  1  0.93451235  0.08519365  0.73254247  1
  O  O38  1  0.69263150  0.48570330  0.88889468  1
  O  O39  1  0.88722725  0.68825411  0.49253418  1
