# generated using pymatgen
data_Li7NbS6
_symmetry_space_group_name_H-M   'P 1'
_cell_length_a   7.13458555
_cell_length_b   7.55339237
_cell_length_c   10.10266548
_cell_angle_alpha   89.99206459
_cell_angle_beta   88.78057641
_cell_angle_gamma   89.99871898
_symmetry_Int_Tables_number   1
_chemical_formula_structural   Li7NbS6
_chemical_formula_sum   'Li14 Nb2 S12'
_cell_volume   544.31261138
_cell_formula_units_Z   2
loop_
 _symmetry_equiv_pos_site_id
 _symmetry_equiv_pos_as_xyz
  1  'x, y, z'
loop_
 _atom_site_type_symbol
 _atom_site_label
 _atom_site_symmetry_multiplicity
 _atom_site_fract_x
 _atom_site_fract_y
 _atom_site_fract_z
 _atom_site_occupancy
  Li  Li0  1  0.10817241  0.40093210  0.29291069  1
  Li  Li1  1  0.12690941  0.02162831  0.31695518  1
  Li  Li2  1  0.21901193  0.62806706  0.03050478  1
  Li  Li3  1  0.07115396  0.63926196  0.48846935  1
  Li  Li4  1  0.24837105  0.44146334  0.70249922  1
  Li  Li5  1  0.33005543  0.13449938  0.58354476  1
  Li  Li6  1  0.39536570  0.75819533  0.22863858  1
  Li  Li7  1  0.60821888  0.59848054  0.79284232  1
  Li  Li8  1  0.62680552  0.97764113  0.81729738  1
  Li  Li9  1  0.71909257  0.37133845  0.53056880  1
  Li  Li10  1  0.57122604  0.36013125  0.98841780  1
  Li  Li11  1  0.74835790  0.55782280  0.20244115  1
  Li  Li12  1  0.82990682  0.86509152  0.08377355  1
  Li  Li13  1  0.89538975  0.24091595  0.72868499  1
  Nb  Nb14  1  0.02710539  0.23336254  0.01344636  1
  Nb  Nb15  1  0.52699835  0.76588963  0.51337296  1
  S  S16  1  0.04938240  0.71732993  0.24135658  1
  S  S17  1  0.05653853  0.30803787  0.52106685  1
  S  S18  1  0.00230796  0.47973010  0.88178100  1
  S  S19  1  0.30056268  0.23332218  0.12542602  1
  S  S20  1  0.29632057  0.76538452  0.67287247  1
  S  S21  1  0.47820756  0.00744090  0.38199292  1
  S  S22  1  0.55655686  0.69146731  0.02096384  1
  S  S23  1  0.50237349  0.51941497  0.38174724  1
  S  S24  1  0.54942073  0.28199741  0.74139164  1
  S  S25  1  0.79634668  0.23381052  0.17290225  1
  S  S26  1  0.80046701  0.76619681  0.62531818  1
  S  S27  1  0.97836243  0.99172020  0.88214212  1
