# generated using pymatgen
data_Li5TiMn3O8
_symmetry_space_group_name_H-M   'P 1'
_cell_length_a   8.54997974
_cell_length_b   8.81588178
_cell_length_c   8.67323497
_cell_angle_alpha   89.91506757
_cell_angle_beta   89.85779231
_cell_angle_gamma   89.87403095
_symmetry_Int_Tables_number   1
_chemical_formula_structural   Li5TiMn3O8
_chemical_formula_sum   'Li20 Ti4 Mn12 O32'
_cell_volume   653.74607490
_cell_formula_units_Z   4
loop_
 _symmetry_equiv_pos_site_id
 _symmetry_equiv_pos_as_xyz
  1  'x, y, z'
loop_
 _atom_site_type_symbol
 _atom_site_label
 _atom_site_symmetry_multiplicity
 _atom_site_fract_x
 _atom_site_fract_y
 _atom_site_fract_z
 _atom_site_occupancy
  Li  Li0  1  0.00701559  0.99163375  0.99621105  1
  Li  Li1  1  0.36387449  0.63607198  0.84714247  1
  Li  Li2  1  0.86293833  0.13696975  0.85683504  1
  Li  Li3  1  0.65883427  0.33531949  0.83405320  1
  Li  Li4  1  0.15362888  0.83385153  0.82479499  1
  Li  Li5  1  0.86837377  0.32932751  0.63732382  1
  Li  Li6  1  0.15934234  0.62450248  0.63451403  1
  Li  Li7  1  0.63792572  0.13083447  0.63932024  1
  Li  Li8  1  0.36409673  0.84349024  0.62897481  1
  Li  Li9  1  0.98890267  0.50842246  0.50317590  1
  Li  Li10  1  0.49297738  0.99787948  0.48114296  1
  Li  Li11  1  0.65293946  0.84952771  0.35727646  1
  Li  Li12  1  0.35464825  0.16319494  0.34836977  1
  Li  Li13  1  0.84004605  0.62172894  0.31904031  1
  Li  Li14  1  0.14536441  0.36421127  0.33876546  1
  Li  Li15  1  0.63639298  0.67070565  0.12886751  1
  Li  Li16  1  0.36100932  0.35041848  0.12889746  1
  Li  Li17  1  0.15507714  0.14736986  0.13922596  1
  Li  Li18  1  0.86372781  0.85826815  0.15391622  1
  Li  Li19  1  0.51579372  0.49421846  0.00060851  1
  Ti  Ti20  1  0.12823983  0.36751949  0.86823115  1
  Ti  Ti21  1  0.87141893  0.88036158  0.61704055  1
  Ti  Ti22  1  0.37876541  0.61838149  0.36515549  1
  Ti  Ti23  1  0.62673992  0.11291873  0.12987081  1
  Mn  Mn24  1  0.62616173  0.87578231  0.86870175  1
  Mn  Mn25  1  0.37602646  0.11933874  0.86526872  1
  Mn  Mn26  1  0.63199377  0.61695909  0.61586090  1
  Mn  Mn27  1  0.13699268  0.12435146  0.61087046  1
  Mn  Mn28  1  0.38127340  0.36787444  0.62037026  1
  Mn  Mn29  1  0.88592748  0.12993202  0.36348624  1
  Mn  Mn30  1  0.87558556  0.37022006  0.11096511  1
  Mn  Mn31  1  0.12842485  0.62233648  0.11838306  1
  Mn  Mn32  1  0.87873188  0.62669621  0.86981772  1
  Mn  Mn33  1  0.12624955  0.87062280  0.37421413  1
  Mn  Mn34  1  0.63017461  0.37306338  0.36928122  1
  Mn  Mn35  1  0.37153623  0.87376811  0.11749173  1
  O  O36  1  0.39031277  0.86591335  0.86380666  1
  O  O37  1  0.62928937  0.10351753  0.87936694  1
  O  O38  1  0.88667009  0.37513621  0.86360700  1
  O  O39  1  0.12156291  0.14637389  0.87591724  1
  O  O40  1  0.36051754  0.38414130  0.87392924  1
  O  O41  1  0.63406617  0.64892570  0.87314152  1
  O  O42  1  0.12026652  0.61291087  0.86692141  1
  O  O43  1  0.87044696  0.87825444  0.84835477  1
  O  O44  1  0.87944260  0.64559949  0.64369847  1
  O  O45  1  0.11883450  0.37772626  0.64145707  1
  O  O46  1  0.38547821  0.12289617  0.61666174  1
  O  O47  1  0.87891193  0.09923393  0.61691317  1
  O  O48  1  0.64761499  0.87832315  0.60172906  1
  O  O49  1  0.38458980  0.61870396  0.60020267  1
  O  O50  1  0.11650167  0.86826940  0.60346578  1
  O  O51  1  0.63707076  0.36638062  0.60306291  1
  O  O52  1  0.89381196  0.85780444  0.38557602  1
  O  O53  1  0.15134374  0.59955140  0.37292981  1
  O  O54  1  0.13000054  0.13368069  0.36460429  1
  O  O55  1  0.61421596  0.62629848  0.36255903  1
  O  O56  1  0.85877024  0.38529411  0.36709259  1
  O  O57  1  0.39759416  0.38675529  0.36482342  1
  O  O58  1  0.62664660  0.11395246  0.35037493  1
  O  O59  1  0.36031009  0.84817446  0.37700476  1
  O  O60  1  0.12001633  0.87184797  0.14585188  1
  O  O61  1  0.62391622  0.34562068  0.12838043  1
  O  O62  1  0.38821664  0.62191931  0.13844454  1
  O  O63  1  0.62900628  0.89015600  0.12439044  1
  O  O64  1  0.39431185  0.12122677  0.11886851  1
  O  O65  1  0.85750872  0.11339550  0.11315597  1
  O  O66  1  0.12686431  0.37380145  0.10017467  1
  O  O67  1  0.87121696  0.62790875  0.09574656  1
