# generated using pymatgen
data_Li4Mn2Fe3Sn(PO4)6
_symmetry_space_group_name_H-M   'P 1'
_cell_length_a   8.58928004
_cell_length_b   8.69216713
_cell_length_c   8.67178212
_cell_angle_alpha   62.84918203
_cell_angle_beta   63.38517832
_cell_angle_gamma   63.34249521
_symmetry_Int_Tables_number   1
_chemical_formula_structural   Li4Mn2Fe3Sn(PO4)6
_chemical_formula_sum   'Li4 Mn2 Fe3 Sn1 P6 O24'
_cell_volume   490.17454356
_cell_formula_units_Z   1
loop_
 _symmetry_equiv_pos_site_id
 _symmetry_equiv_pos_as_xyz
  1  'x, y, z'
loop_
 _atom_site_type_symbol
 _atom_site_label
 _atom_site_symmetry_multiplicity
 _atom_site_fract_x
 _atom_site_fract_y
 _atom_site_fract_z
 _atom_site_occupancy
  Li  Li0  1  0.74571973  0.15190267  0.35064017  1
  Li  Li1  1  0.29206897  0.84844406  0.64428256  1
  Li  Li2  1  0.64230525  0.28764207  0.84925890  1
  Li  Li3  1  0.85015526  0.64156510  0.29354257  1
  Mn  Mn4  1  0.02023713  0.00588544  0.99960878  1
  Mn  Mn5  1  0.48549355  0.50380042  0.49898216  1
  Fe  Fe6  1  0.15053186  0.15096652  0.14767998  1
  Fe  Fe7  1  0.34826452  0.35525584  0.35049503  1
  Fe  Fe8  1  0.65210065  0.64861281  0.65636649  1
  Sn  Sn9  1  0.85151842  0.84601069  0.85183320  1
  P  P10  1  0.24620144  0.54940717  0.94977573  1
  P  P11  1  0.55830365  0.94901660  0.24932072  1
  P  P12  1  0.94211713  0.24395478  0.54924446  1
  P  P13  1  0.05291248  0.74671898  0.44253618  1
  P  P14  1  0.44443621  0.05451439  0.74426568  1
  P  P15  1  0.74514852  0.44148216  0.05535066  1
  O  O16  1  0.10634791  0.29426592  0.51001912  1
  O  O17  1  0.30781500  0.52237512  0.10086195  1
  O  O18  1  0.05124399  0.91305945  0.26586582  1
  O  O19  1  0.55188112  0.09752058  0.30275054  1
  O  O20  1  0.01104311  0.80751863  0.60703084  1
  O  O21  1  0.24211765  0.60254699  0.42819982  1
  O  O22  1  0.26066956  0.07732249  0.89677619  1
  O  O23  1  0.45334518  0.23473984  0.58416000  1
  O  O24  1  0.17136889  0.40504696  0.98580960  1
  O  O25  1  0.60069272  0.42549630  0.24692719  1
  O  O26  1  0.09533478  0.75161845  0.91936445  1
  O  O27  1  0.40016435  0.99682016  0.18581759  1
  O  O28  1  0.60604672  0.00964075  0.81402696  1
  O  O29  1  0.89668752  0.25376840  0.07698374  1
  O  O30  1  0.39636905  0.57389646  0.75561958  1
  O  O31  1  0.80910261  0.60251815  0.01479988  1
  O  O32  1  0.57441474  0.75641330  0.40252032  1
  O  O33  1  0.75615913  0.91226667  0.09517176  1
  O  O34  1  0.75221444  0.39793442  0.57871368  1
  O  O35  1  0.95539890  0.17908677  0.40604168  1
  O  O36  1  0.47248933  0.90054801  0.68296596  1
  O  O37  1  0.92024146  0.09093014  0.75042176  1
  O  O38  1  0.67871241  0.47207491  0.90335151  1
  O  O39  1  0.90262666  0.67440841  0.47561476  1
