# generated using pymatgen
data_Li8(CoO2)5
_symmetry_space_group_name_H-M   'P 1'
_cell_length_a   3.59700921
_cell_length_b   5.36923079
_cell_length_c   13.91298855
_cell_angle_alpha   83.50407691
_cell_angle_beta   82.64716443
_cell_angle_gamma   70.30119018
_symmetry_Int_Tables_number   1
_chemical_formula_structural   Li8(CoO2)5
_chemical_formula_sum   'Li8 Co5 O10'
_cell_volume   250.19253948
_cell_formula_units_Z   1
loop_
 _symmetry_equiv_pos_site_id
 _symmetry_equiv_pos_as_xyz
  1  'x, y, z'
loop_
 _atom_site_type_symbol
 _atom_site_label
 _atom_site_symmetry_multiplicity
 _atom_site_fract_x
 _atom_site_fract_y
 _atom_site_fract_z
 _atom_site_occupancy
  Li  Li0  1  0.78570627  0.08507304  0.34170430  1
  Li  Li1  1  0.21279567  0.11085331  0.46344456  1
  Li  Li2  1  0.22509126  0.30332125  0.24314135  1
  Li  Li3  1  0.22539305  0.48912813  0.06637456  1
  Li  Li4  1  0.78961003  0.47751953  0.94674916  1
  Li  Li5  1  0.77533363  0.71634073  0.73013888  1
  Li  Li6  1  0.77708463  0.88883116  0.55798736  1
  Li  Li7  1  0.21127149  0.72494706  0.85324954  1
  Co  Co8  1  0.50028013  0.20097712  0.80057338  1
  Co  Co9  1  0.49258849  0.40934649  0.60542792  1
  Co  Co10  1  0.50091097  0.59777170  0.39940539  1
  Co  Co11  1  0.50130348  0.99660340  0.00221576  1
  Co  Co12  1  0.50684773  0.78790776  0.19833278  1
  O  O13  1  0.37620813  0.12975019  0.12101858  1
  O  O14  1  0.62640665  0.07436118  0.67257645  1
  O  O15  1  0.63484593  0.25454306  0.47499924  1
  O  O16  1  0.63598133  0.44650366  0.27705392  1
  O  O17  1  0.36646427  0.33575767  0.93432325  1
  O  O18  1  0.63804046  0.66278779  0.06574020  1
  O  O19  1  0.35628351  0.55791300  0.73135690  1
  O  O20  1  0.36971619  0.73787610  0.52422164  1
  O  O21  1  0.36112436  0.94682168  0.32960557  1
  O  O22  1  0.63558534  0.84911298  0.87989631  1
