# generated using pymatgen
data_Na2Cu(SeO5)2
_symmetry_space_group_name_H-M   'P 1'
_cell_length_a   5.60407532
_cell_length_b   6.55063569
_cell_length_c   7.17977093
_cell_angle_alpha   102.30674207
_cell_angle_beta   103.64314779
_cell_angle_gamma   113.20032821
_symmetry_Int_Tables_number   1
_chemical_formula_structural   Na2Cu(SeO5)2
_chemical_formula_sum   'Na2 Cu1 Se2 O10'
_cell_volume   221.16851975
_cell_formula_units_Z   1
loop_
 _symmetry_equiv_pos_site_id
 _symmetry_equiv_pos_as_xyz
  1  'x, y, z'
loop_
 _atom_site_type_symbol
 _atom_site_label
 _atom_site_symmetry_multiplicity
 _atom_site_fract_x
 _atom_site_fract_y
 _atom_site_fract_z
 _atom_site_occupancy
  Na  Na0  1  0.83681181  0.21289459  0.76275031  1
  Na  Na1  1  0.16318819  0.78710541  0.23724969  1
  Cu  Cu2  1  0.50000000  0.50000000  0.50000000  1
  Se  Se3  1  0.86079820  0.14885748  0.26289701  1
  Se  Se4  1  0.13920180  0.85114252  0.73710299  1
  O  O5  1  0.83541317  0.75288996  0.52943801  1
  O  O6  1  0.16458683  0.24711004  0.47056199  1
  O  O7  1  0.92188729  0.35176331  0.14420078  1
  O  O8  1  0.07811271  0.64823669  0.85579922  1
  O  O9  1  0.79007184  0.88858777  0.11406223  1
  O  O10  1  0.20992816  0.11141223  0.88593777  1
  O  O11  1  0.62639788  0.14309522  0.36906859  1
  O  O12  1  0.37360212  0.85690478  0.63093141  1
  O  O13  1  0.62583239  0.48506220  0.74318335  1
  O  O14  1  0.37416761  0.51493780  0.25681665  1
