# generated using pymatgen
data_Li3Mn3FeO8
_symmetry_space_group_name_H-M   'P 1'
_cell_length_a   10.34776582
_cell_length_b   10.44477850
_cell_length_c   14.72792154
_cell_angle_alpha   19.23396971
_cell_angle_beta   19.47108740
_cell_angle_gamma   33.38855832
_symmetry_Int_Tables_number   1
_chemical_formula_structural   Li3Mn3FeO8
_chemical_formula_sum   'Li3 Mn3 Fe1 O8'
_cell_volume   151.07774445
_cell_formula_units_Z   1
loop_
 _symmetry_equiv_pos_site_id
 _symmetry_equiv_pos_as_xyz
  1  'x, y, z'
loop_
 _atom_site_type_symbol
 _atom_site_label
 _atom_site_symmetry_multiplicity
 _atom_site_fract_x
 _atom_site_fract_y
 _atom_site_fract_z
 _atom_site_occupancy
  Li  Li0  1  0.99992729  0.50005921  0.49997895  1
  Li  Li1  1  0.50017350  0.00028636  0.49971789  1
  Li  Li2  1  0.49983118  0.50021623  0.49998771  1
  Mn  Mn3  1  0.00035578  0.49996709  -0.00018496  1
  Mn  Mn4  1  0.50008339  0.00049790  -0.00045288  1
  Mn  Mn5  1  0.49974397  0.50008172  0.00007682  1
  Fe  Fe6  1  -0.00035413  -0.00051260  0.00057390  1
  O  O7  1  0.03604152  0.98698394  0.23734544  1
  O  O8  1  0.96647354  0.49610830  0.28506121  1
  O  O9  1  0.48628622  0.00817193  0.26985481  1
  O  O10  1  0.96387639  0.01283433  0.76284223  1
  O  O11  1  0.50388208  0.51581819  0.25062693  1
  O  O12  1  0.03375956  0.50392123  0.71477161  1
  O  O13  1  0.51361577  0.99153069  0.73046902  1
  O  O14  1  0.49630393  0.48403648  0.74933031  1
