# generated using pymatgen
data_Li3CrPCO7
_symmetry_space_group_name_H-M   'P 1'
_cell_length_a   8.68386881
_cell_length_b   9.97601044
_cell_length_c   6.45293412
_cell_angle_alpha   90.10049349
_cell_angle_beta   89.79166808
_cell_angle_gamma   85.36309625
_symmetry_Int_Tables_number   1
_chemical_formula_structural   Li3CrPCO7
_chemical_formula_sum   'Li12 Cr4 P4 C4 O28'
_cell_volume   557.18552109
_cell_formula_units_Z   4
loop_
 _symmetry_equiv_pos_site_id
 _symmetry_equiv_pos_as_xyz
  1  'x, y, z'
loop_
 _atom_site_type_symbol
 _atom_site_label
 _atom_site_symmetry_multiplicity
 _atom_site_fract_x
 _atom_site_fract_y
 _atom_site_fract_z
 _atom_site_occupancy
  Li  Li0  1  0.11354758  0.39351066  0.25927739  1
  Li  Li1  1  0.10645499  0.87909341  0.25343433  1
  Li  Li2  1  0.27525333  0.13743509  0.48563533  1
  Li  Li3  1  0.27457693  0.61358548  0.01731546  1
  Li  Li4  1  0.27457036  0.61559772  0.48300592  1
  Li  Li5  1  0.35019400  0.40353937  0.74709788  1
  Li  Li6  1  0.72154634  0.37552100  0.52953745  1
  Li  Li7  1  0.71924875  0.37628234  0.96943423  1
  Li  Li8  1  0.72665406  0.86939394  0.52531697  1
  Li  Li9  1  0.72694832  0.87020309  0.97523830  1
  Li  Li10  1  0.89584745  0.11860096  0.74858045  1
  Li  Li11  1  0.89863092  0.61202613  0.74983024  1
  Cr  Cr12  1  0.26200156  0.14672770  0.99495370  1
  Cr  Cr13  1  0.33676940  0.88208005  0.74712700  1
  Cr  Cr14  1  0.66373916  0.10619658  0.25262613  1
  Cr  Cr15  1  0.66592934  0.60330393  0.25016917  1
  P  P16  1  0.40993345  0.36191144  0.25122796  1
  P  P17  1  0.41280661  0.85920090  0.25015884  1
  P  P18  1  0.58766927  0.14403296  0.75291176  1
  P  P19  1  0.58606024  0.64123992  0.75019900  1
  C  C20  1  0.03442849  0.35040703  0.75299244  1
  C  C21  1  0.02979094  0.85251524  0.75105426  1
  C  C22  1  0.96681148  0.14819904  0.24636849  1
  C  C23  1  0.96781542  0.64647702  0.24993958  1
  O  O24  1  0.06748764  0.47262884  0.75082829  1
  O  O25  1  0.10697583  0.19231444  0.23554791  1
  O  O26  1  0.05708036  0.97750489  0.75428785  1
  O  O27  1  0.14534736  0.25153583  0.75143700  1
  O  O28  1  0.10830613  0.68288312  0.24978975  1
  O  O29  1  0.14642024  0.76076610  0.74807416  1
  O  O30  1  0.31489648  0.41049338  0.05869372  1
  O  O31  1  0.31385778  0.41394749  0.44103165  1
  O  O32  1  0.31412100  0.91573148  0.06118486  1
  O  O33  1  0.31328052  0.91767895  0.43680238  1
  O  O34  1  0.42099707  0.09410376  0.75727833  1
  O  O35  1  0.42012719  0.20258201  0.25172369  1
  O  O36  1  0.42064204  0.59831467  0.75088934  1
  O  O37  1  0.42030663  0.70402616  0.24981939  1
  O  O38  1  0.57461697  0.29837856  0.74993271  1
  O  O39  1  0.57823532  0.40469729  0.25019859  1
  O  O40  1  0.58130533  0.79795316  0.74964543  1
  O  O41  1  0.57772714  0.90693203  0.24840940  1
  O  O42  1  0.68667533  0.08706083  0.93884117  1
  O  O43  1  0.68200800  0.08297792  0.56480523  1
  O  O44  1  0.68657317  0.58428657  0.56323929  1
  O  O45  1  0.68630670  0.58496099  0.93643005  1
  O  O46  1  0.84877828  0.23580406  0.25766155  1
  O  O47  1  0.89107699  0.31817497  0.75281845  1
  O  O48  1  0.84994240  0.73801138  0.24999366  1
  O  O49  1  0.94926910  0.02243954  0.24689167  1
  O  O50  1  0.88976629  0.81512925  0.75013937  1
  O  O51  1  0.94064333  0.52160235  0.25017381  1
