# generated using pymatgen
data_Li3CrPCO7
_symmetry_space_group_name_H-M   'P 1'
_cell_length_a   8.67608407
_cell_length_b   10.03295888
_cell_length_c   6.46006948
_cell_angle_alpha   89.91602699
_cell_angle_beta   90.07645379
_cell_angle_gamma   85.25371326
_symmetry_Int_Tables_number   1
_chemical_formula_structural   Li3CrPCO7
_chemical_formula_sum   'Li12 Cr4 P4 C4 O28'
_cell_volume   560.39884429
_cell_formula_units_Z   4
loop_
 _symmetry_equiv_pos_site_id
 _symmetry_equiv_pos_as_xyz
  1  'x, y, z'
loop_
 _atom_site_type_symbol
 _atom_site_label
 _atom_site_symmetry_multiplicity
 _atom_site_fract_x
 _atom_site_fract_y
 _atom_site_fract_z
 _atom_site_occupancy
  Li  Li0  1  0.10077617  0.38181816  0.25996598  1
  Li  Li1  1  0.10002008  0.88504830  0.25601674  1
  Li  Li2  1  0.28569731  0.12397280  0.47023919  1
  Li  Li3  1  0.27352698  0.62852209  0.03011126  1
  Li  Li4  1  0.27290748  0.62870580  0.46933735  1
  Li  Li5  1  0.65518734  0.10596208  0.25243495  1
  Li  Li6  1  0.72716435  0.35962557  0.51545710  1
  Li  Li7  1  0.72457927  0.36128542  0.98324983  1
  Li  Li8  1  0.72327946  0.88363927  0.51519251  1
  Li  Li9  1  0.72586913  0.88464798  0.98641652  1
  Li  Li10  1  0.88315822  0.10797365  0.74941666  1
  Li  Li11  1  0.89408011  0.61692177  0.74862267  1
  Cr  Cr12  1  0.26135993  0.13116030  0.99627550  1
  Cr  Cr13  1  0.33829600  0.40191962  0.74909792  1
  Cr  Cr14  1  0.33959588  0.88297489  0.74482290  1
  Cr  Cr15  1  0.66877054  0.60447989  0.24986024  1
  P  P16  1  0.41454005  0.36109312  0.25077537  1
  P  P17  1  0.41625011  0.85831650  0.24965430  1
  P  P18  1  0.59052475  0.13960077  0.75291356  1
  P  P19  1  0.59081614  0.64022361  0.74926687  1
  C  C20  1  0.03206882  0.34969054  0.75651377  1
  C  C21  1  0.03129558  0.85423785  0.75149069  1
  C  C22  1  0.96211546  0.14867424  0.24895591  1
  C  C23  1  0.96940873  0.64862281  0.24920892  1
  O  O24  1  0.05522148  0.47381719  0.74765693  1
  O  O25  1  0.11095495  0.18137217  0.23728056  1
  O  O26  1  0.05906239  0.97895990  0.75589846  1
  O  O27  1  0.15711669  0.26244180  0.76135191  1
  O  O28  1  0.10908541  0.68830807  0.24935814  1
  O  O29  1  0.14854807  0.76268861  0.74698020  1
  O  O30  1  0.31507729  0.41733443  0.06291820  1
  O  O31  1  0.31286958  0.41727509  0.43611777  1
  O  O32  1  0.31527107  0.91484326  0.05979115  1
  O  O33  1  0.31424227  0.91618612  0.43413106  1
  O  O34  1  0.41942479  0.09330744  0.75481212  1
  O  O35  1  0.42477377  0.20597822  0.25098926  1
  O  O36  1  0.42250224  0.59750688  0.74909530  1
  O  O37  1  0.41825065  0.70363810  0.24882918  1
  O  O38  1  0.57632153  0.29566865  0.75023369  1
  O  O39  1  0.57884564  0.40900647  0.25154589  1
  O  O40  1  0.58223844  0.79564952  0.74822745  1
  O  O41  1  0.57970667  0.90355275  0.24881060  1
  O  O42  1  0.68468819  0.08781233  0.94339131  1
  O  O43  1  0.68012468  0.08476954  0.56139512  1
  O  O44  1  0.68858547  0.58234853  0.56327293  1
  O  O45  1  0.68820303  0.58271067  0.93639210  1
  O  O46  1  0.85632027  0.24479145  0.26146501  1
  O  O47  1  0.89665712  0.30593913  0.75690314  1
  O  O48  1  0.85051142  0.73778056  0.24975735  1
  O  O49  1  0.93656580  0.02521096  0.24877773  1
  O  O50  1  0.89136580  0.81795235  0.75065282  1
  O  O51  1  0.94618039  0.52403378  0.24867293  1
