# generated using pymatgen
data_Li2Hf2O5
_symmetry_space_group_name_H-M   'P 1'
_cell_length_a   5.60058814
_cell_length_b   5.60058814
_cell_length_c   7.58457173
_cell_angle_alpha   109.61672788
_cell_angle_beta   70.38327212
_cell_angle_gamma   109.16310955
_symmetry_Int_Tables_number   1
_chemical_formula_structural   Li2Hf2O5
_chemical_formula_sum   'Li4 Hf4 O10'
_cell_volume   204.76440195
_cell_formula_units_Z   2
loop_
 _symmetry_equiv_pos_site_id
 _symmetry_equiv_pos_as_xyz
  1  'x, y, z'
loop_
 _atom_site_type_symbol
 _atom_site_label
 _atom_site_symmetry_multiplicity
 _atom_site_fract_x
 _atom_site_fract_y
 _atom_site_fract_z
 _atom_site_occupancy
  Li  Li0  1  0.78759977  0.81727702  0.45917477  1
  Li  Li1  1  0.18272298  0.21240023  0.95917477  1
  Li  Li2  1  0.81727702  0.78759977  0.04082523  1
  Li  Li3  1  0.21240023  0.18272298  0.54082523  1
  Hf  Hf4  1  0.22335787  0.71963457  0.61836806  1
  Hf  Hf5  1  0.28036543  0.77664213  0.11836806  1
  Hf  Hf6  1  0.71963457  0.22335787  0.88163194  1
  Hf  Hf7  1  0.77664213  0.28036543  0.38163194  1
  O  O8  1  0.00000000  0.50000000  0.00000000  1
  O  O9  1  0.92179580  0.36776634  0.63144794  1
  O  O10  1  0.63223366  0.07820420  0.13144794  1
  O  O11  1  0.97317796  0.97317796  0.75000000  1
  O  O12  1  0.50000000  0.50000000  0.50000000  1
  O  O13  1  0.02682204  0.02682204  0.25000000  1
  O  O14  1  0.50000000  0.50000000  0.00000000  1
  O  O15  1  0.36776634  0.92179580  0.86855206  1
  O  O16  1  0.07820420  0.63223366  0.36855206  1
  O  O17  1  0.50000000  -0.00000000  0.50000000  1
