# generated using pymatgen
data_Li3Mn4(P2O7)4
_symmetry_space_group_name_H-M   'P 1'
_cell_length_a   9.70901660
_cell_length_b   9.76053906
_cell_length_c   11.28210416
_cell_angle_alpha   88.69237291
_cell_angle_beta   100.74232744
_cell_angle_gamma   89.39505149
_symmetry_Int_Tables_number   1
_chemical_formula_structural   Li3Mn4(P2O7)4
_chemical_formula_sum   'Li6 Mn8 P16 O56'
_cell_volume   1050.02181967
_cell_formula_units_Z   2
loop_
 _symmetry_equiv_pos_site_id
 _symmetry_equiv_pos_as_xyz
  1  'x, y, z'
loop_
 _atom_site_type_symbol
 _atom_site_label
 _atom_site_symmetry_multiplicity
 _atom_site_fract_x
 _atom_site_fract_y
 _atom_site_fract_z
 _atom_site_occupancy
  Li  Li0  1  0.08759828  0.10421869  0.01814867  1
  Li  Li1  1  0.41669960  0.58926114  0.97588542  1
  Li  Li2  1  0.59181081  0.03358328  0.49590687  1
  Li  Li3  1  0.90770127  0.89421378  0.98228928  1
  Li  Li4  1  0.84455146  0.57952555  0.46882987  1
  Li  Li5  1  0.89909131  0.28802078  0.54980558  1
  Mn  Mn6  1  0.19960676  0.92701865  0.66007849  1
  Mn  Mn7  1  0.27411765  0.22386322  0.83036361  1
  Mn  Mn8  1  0.22890984  0.71096098  0.17142492  1
  Mn  Mn9  1  0.30539175  0.42587496  0.34258757  1
  Mn  Mn10  1  0.69745282  0.58248925  0.67572820  1
  Mn  Mn11  1  0.75828183  0.29319776  0.82787121  1
  Mn  Mn12  1  0.71842597  0.77130858  0.16749656  1
  Mn  Mn13  1  0.80852733  0.07206758  0.33374376  1
  P  P14  1  0.02170206  0.44602543  0.75318907  1
  P  P15  1  0.12236246  0.71199458  0.88018300  1
  P  P16  1  0.06500056  0.93137704  0.24669682  1
  P  P17  1  0.13667562  0.15000971  0.43114865  1
  P  P18  1  0.37466373  0.65627310  0.57761955  1
  P  P19  1  0.42839117  0.42726518  0.75584682  1
  P  P20  1  0.53388663  0.06652656  0.76273951  1
  P  P21  1  0.38049724  0.20697483  0.11274224  1
  P  P22  1  0.61456452  0.79067741  0.88704708  1
  P  P23  1  0.47090199  0.93554321  0.24813649  1
  P  P24  1  0.56500554  0.56586883  0.24381668  1
  P  P25  1  0.62885386  0.34458223  0.41978237  1
  P  P26  1  0.87349198  0.85714331  0.56999527  1
  P  P27  1  0.93809832  0.06804315  0.75568660  1
  P  P28  1  0.88259787  0.28769392  0.11933561  1
  P  P29  1  0.97191675  0.55717348  0.24187545  1
  O  O30  1  0.01542104  0.43002955  0.62112237  1
  O  O31  1  0.02488429  0.84930411  0.55483306  1
  O  O32  1  0.08772773  0.07490879  0.72470424  1
  O  O33  1  0.10195496  0.33469862  0.83874048  1
  O  O34  1  0.09804166  0.58671286  0.78875013  1
  O  O35  1  0.19161041  0.82029741  0.80948143  1
  O  O36  1  0.22611025  0.66058863  0.99571092  1
  O  O37  1  0.02657640  0.24861243  0.10031880  1
  O  O38  1  0.13740135  0.06394091  0.30960093  1
  O  O39  1  0.06249152  0.94354510  0.11242782  1
  O  O40  1  0.12432695  0.54627477  0.21084315  1
  O  O41  1  0.19111163  0.29156260  0.40197051  1
  O  O42  1  0.15679170  0.80520136  0.29740140  1
  O  O43  1  0.22652299  0.07016737  0.53610295  1
  O  O44  1  0.29284490  0.58486922  0.47030757  1
  O  O45  1  0.33500332  0.31113620  0.69348032  1
  O  O46  1  0.32968407  0.80124543  0.60319872  1
  O  O47  1  0.38460040  0.06027741  0.79659197  1
  O  O48  1  0.36349828  0.56973472  0.69960562  1
  O  O49  1  0.41224858  0.42078354  0.88660146  1
  O  O50  1  0.47212140  0.75563255  0.91011818  1
  O  O51  1  0.27884536  0.15653482  0.99922627  1
  O  O52  1  0.31996905  0.32539525  0.17437601  1
  O  O53  1  0.39795476  0.08305380  0.20812142  1
  O  O54  1  0.41297439  0.56926106  0.27181066  1
  O  O55  1  0.38089829  0.83239109  0.16616148  1
  O  O56  1  0.53998123  0.09800027  0.63447694  1
  O  O57  1  0.47784825  0.34059984  0.43843172  1
  O  O58  1  0.53453625  0.65346757  0.57211904  1
  O  O59  1  0.47869141  0.92435192  0.38065382  1
  O  O60  1  0.62243789  0.16280076  0.85496258  1
  O  O61  1  0.58218085  0.42071783  0.73312137  1
  O  O62  1  0.60302212  0.91748274  0.79261984  1
  O  O63  1  0.68960830  0.68051460  0.82733143  1
  O  O64  1  0.71643469  0.84045860  0.00247984  1
  O  O65  1  0.52157307  0.24973393  0.08638285  1
  O  O66  1  0.56873816  0.58882080  0.11194849  1
  O  O67  1  0.62861809  0.41832513  0.28938814  1
  O  O68  1  0.61748127  0.93697277  0.20767514  1
  O  O69  1  0.68646544  0.19858183  0.40771565  1
  O  O70  1  0.66713010  0.67322940  0.31124072  1
  O  O71  1  0.72779741  0.42572321  0.51347527  1
  O  O72  1  0.77939107  0.94567280  0.47043039  1
  O  O73  1  0.84585861  0.19301181  0.69971704  1
  O  O74  1  0.81391172  0.71433429  0.58697442  1
  O  O75  1  0.86541752  0.45913336  0.78209363  1
  O  O76  1  0.93605492  0.05839550  0.88880252  1
  O  O77  1  0.86553284  0.93339845  0.69491247  1
  O  O78  1  0.98354073  0.75341046  0.90821362  1
  O  O79  1  0.78893690  0.33755969  0.00042016  1
  O  O80  1  0.80989265  0.17727967  0.18548252  1
  O  O81  1  0.89718585  0.41335657  0.20932541  1
  O  O82  1  0.88726162  0.66484378  0.15407244  1
  O  O83  1  0.91544929  0.92313347  0.27781603  1
  O  O84  1  0.98222328  0.16634315  0.44240502  1
  O  O85  1  0.97350181  0.57491105  0.37230839  1
