# generated using pymatgen
data_Li2MnP2O7
_symmetry_space_group_name_H-M   'P 1'
_cell_length_a   10.32656935
_cell_length_b   10.32672427
_cell_length_c   13.64726424
_cell_angle_alpha   89.99951247
_cell_angle_beta   89.99888872
_cell_angle_gamma   59.99878895
_symmetry_Int_Tables_number   1
_chemical_formula_structural   Li2MnP2O7
_chemical_formula_sum   'Li16 Mn8 P16 O56'
_cell_volume   1260.34539757
_cell_formula_units_Z   8
loop_
 _symmetry_equiv_pos_site_id
 _symmetry_equiv_pos_as_xyz
  1  'x, y, z'
loop_
 _atom_site_type_symbol
 _atom_site_label
 _atom_site_symmetry_multiplicity
 _atom_site_fract_x
 _atom_site_fract_y
 _atom_site_fract_z
 _atom_site_occupancy
  Li  Li0  1  0.99896705  0.00256070  0.82868842  1
  Li  Li1  1  0.99978377  0.99925231  0.32604107  1
  Li  Li2  1  0.16887712  0.16534159  0.62162109  1
  Li  Li3  1  0.00001731  0.49998223  0.32193980  1
  Li  Li4  1  0.00003292  0.50002351  0.74456655  1
  Li  Li5  1  0.33084672  0.33462036  0.11950625  1
  Li  Li6  1  0.16582190  0.66881909  0.62161523  1
  Li  Li7  1  0.50258069  0.99853180  0.82867686  1
  Li  Li8  1  0.49927153  0.00093838  0.32602872  1
  Li  Li9  1  0.33330530  0.83335848  0.12123720  1
  Li  Li10  1  0.49853192  0.49894378  0.82867917  1
  Li  Li11  1  0.66671361  0.16663005  0.62056101  1
  Li  Li12  1  0.50097218  0.49977458  0.32602167  1
  Li  Li13  1  0.83458483  0.33456784  0.11950346  1
  Li  Li14  1  0.66537454  0.66575930  0.62162862  1
  Li  Li15  1  0.83452482  0.83088955  0.11951108  1
  Mn  Mn16  1  0.99936926  0.00060494  0.01859541  1
  Mn  Mn17  1  0.00070791  0.00049118  0.51714702  1
  Mn  Mn18  1  0.99998822  0.50002228  0.00451111  1
  Mn  Mn19  1  0.00002296  0.49996497  0.51273512  1
  Mn  Mn20  1  0.50056039  0.00001472  0.01852989  1
  Mn  Mn21  1  0.50059532  0.99876170  0.51715568  1
  Mn  Mn22  1  0.50004478  0.49937771  0.01852926  1
  Mn  Mn23  1  0.49880206  0.50067203  0.51709114  1
  P  P24  1  0.16676884  0.16713036  0.14217971  1
  P  P25  1  0.16665962  0.16640993  0.37741559  1
  P  P26  1  0.33549149  0.33121568  0.88116198  1
  P  P27  1  0.16610560  0.66680645  0.14217193  1
  P  P28  1  0.16696411  0.66662071  0.37740702  1
  P  P29  1  0.33119894  0.33574650  0.64596013  1
  P  P30  1  0.33331596  0.83334639  0.87822111  1
  P  P31  1  0.33333826  0.83331880  0.64286874  1
  P  P32  1  0.66667916  0.16666812  0.14307474  1
  P  P33  1  0.66668399  0.16664764  0.37816366  1
  P  P34  1  0.83120938  0.33330989  0.88115757  1
  P  P35  1  0.66710639  0.66613533  0.14217385  1
  P  P36  1  0.66643460  0.66694794  0.37741331  1
  P  P37  1  0.83577475  0.33303281  0.64595444  1
  P  P38  1  0.83333689  0.83552334  0.88115690  1
  P  P39  1  0.83308254  0.83114773  0.64596255  1
  O  O40  1  0.12703592  0.04760561  0.40609519  1
  O  O41  1  0.16001846  0.02691426  0.11246769  1
  O  O42  1  0.02813588  0.31395113  0.11244981  1
  O  O43  1  0.04688408  0.32555381  0.40538488  1
  O  O44  1  0.16801085  0.16550284  0.25921686  1
  O  O45  1  0.17797425  0.34803816  0.62245220  1
  O  O46  1  0.17993810  0.36355924  0.90755969  1
  O  O47  1  0.32432244  0.12823737  0.40719115  1
  O  O48  1  0.31474474  0.15849091  0.11301419  1
  O  O49  1  0.12757984  0.54685814  0.40536725  1
  O  O50  1  0.15791444  0.52818091  0.11243166  1
  O  O51  1  0.02676859  0.81477606  0.11304972  1
  O  O52  1  0.04745104  0.82429561  0.40718534  1
  O  O53  1  0.33725183  0.33608670  0.76109455  1
  O  O54  1  0.16654770  0.66799368  0.25921429  1
  O  O55  1  0.45964600  0.17280738  0.90588231  1
  O  O56  1  0.46731253  0.18896878  0.61201635  1
  O  O57  1  0.33732752  0.47442441  0.61208395  1
  O  O58  1  0.37132803  0.45285726  0.90956920  1
  O  O59  1  0.18632802  0.84117840  0.61202557  1
  O  O60  1  0.17471934  0.87265368  0.90591440  1
  O  O61  1  0.32535897  0.62702272  0.40609440  1
  O  O62  1  0.31308012  0.66005820  0.11244270  1
  O  O63  1  0.62688482  0.04783158  0.40677137  1
  O  O64  1  0.66119516  0.02609898  0.11317307  1
  O  O65  1  0.52604742  0.31277077  0.11325229  1
  O  O66  1  0.54782987  0.32526756  0.40673717  1
  O  O67  1  0.33325599  0.83336387  0.75872400  1
  O  O68  1  0.66681611  0.16655902  0.25975834  1
  O  O69  1  0.45269004  0.67470073  0.90586373  1
  O  O70  1  0.47249881  0.68628032  0.61206852  1
  O  O71  1  0.34122402  0.97245652  0.61204117  1
  O  O72  1  0.37266552  0.95266671  0.90585642  1
  O  O73  1  0.68902607  0.34369413  0.61192901  1
  O  O74  1  0.67278698  0.36759156  0.90592894  1
  O  O75  1  0.82528781  0.12687020  0.40681471  1
  O  O76  1  0.81270285  0.16124713  0.11315948  1
  O  O77  1  0.62827282  0.54742959  0.40716533  1
  O  O78  1  0.65845383  0.52680356  0.11304066  1
  O  O79  1  0.52685053  0.81311358  0.11249582  1
  O  O80  1  0.54764739  0.82532631  0.40609410  1
  O  O81  1  0.83591850  0.32666174  0.76109412  1
  O  O82  1  0.66560077  0.66650104  0.25921709  1
  O  O83  1  0.95284335  0.17585365  0.90956563  1
  O  O84  1  0.97448654  0.18822231  0.61212842  1
  O  O85  1  0.84808737  0.47396926  0.62248837  1
  O  O86  1  0.86355284  0.45653391  0.90749970  1
  O  O87  1  0.68829249  0.83723845  0.61208465  1
  O  O88  1  0.67583370  0.87134460  0.90959117  1
  O  O89  1  0.82559486  0.62754270  0.40540910  1
  O  O90  1  0.81388571  0.65797296  0.11238820  1
  O  O91  1  0.82659380  0.83738913  0.76108556  1
  O  O92  1  0.95653623  0.67994334  0.90750362  1
  O  O93  1  0.97403407  0.67788280  0.62252362  1
  O  O94  1  0.84375812  0.96721473  0.61194426  1
  O  O95  1  0.86759129  0.95963931  0.90588398  1
