# generated using pymatgen
data_Li2FeCoO4
_symmetry_space_group_name_H-M   'P 1'
_cell_length_a   5.18588563
_cell_length_b   5.18588520
_cell_length_c   5.18588621
_cell_angle_alpha   133.67235658
_cell_angle_beta   133.67236479
_cell_angle_gamma   67.60019830
_symmetry_Int_Tables_number   1
_chemical_formula_structural   Li2FeCoO4
_chemical_formula_sum   'Li2 Fe1 Co1 O4'
_cell_volume   71.73064836
_cell_formula_units_Z   1
loop_
 _symmetry_equiv_pos_site_id
 _symmetry_equiv_pos_as_xyz
  1  'x, y, z'
loop_
 _atom_site_type_symbol
 _atom_site_label
 _atom_site_symmetry_multiplicity
 _atom_site_fract_x
 _atom_site_fract_y
 _atom_site_fract_z
 _atom_site_occupancy
  Li  Li0  1  0.25000000  0.75000000  0.50000000  1
  Li  Li1  1  0.50000000  0.50000000  0.00000000  1
  Fe  Fe2  1  -0.00000000  -0.00000000  -0.00000000  1
  Co  Co3  1  0.75000000  0.25000000  0.50000000  1
  O  O4  1  0.52349385  0.02349386  0.50000000  1
  O  O5  1  0.23460254  0.23460254  1.00000000  1
  O  O6  1  0.97650615  0.47650614  0.50000000  1
  O  O7  1  0.76539746  0.76539746  0.00000000  1
