# generated using pymatgen
data_Li2Fe3NiO8
_symmetry_space_group_name_H-M   'P 1'
_cell_length_a   8.38819552
_cell_length_b   8.34529273
_cell_length_c   8.40217699
_cell_angle_alpha   90.10061683
_cell_angle_beta   90.15363249
_cell_angle_gamma   90.35163113
_symmetry_Int_Tables_number   1
_chemical_formula_structural   Li2Fe3NiO8
_chemical_formula_sum   'Li8 Fe12 Ni4 O32'
_cell_volume   588.15463437
_cell_formula_units_Z   4
loop_
 _symmetry_equiv_pos_site_id
 _symmetry_equiv_pos_as_xyz
  1  'x, y, z'
loop_
 _atom_site_type_symbol
 _atom_site_label
 _atom_site_symmetry_multiplicity
 _atom_site_fract_x
 _atom_site_fract_y
 _atom_site_fract_z
 _atom_site_occupancy
  Li  Li0  1  0.12200379  0.87773471  0.37670913  1
  Li  Li1  1  0.25210807  0.75072941  0.74693898  1
  Li  Li2  1  0.24979460  0.25080054  0.24831033  1
  Li  Li3  1  0.37518304  0.12382003  0.87883428  1
  Li  Li4  1  0.62369113  0.62184185  0.62287746  1
  Li  Li5  1  0.75075250  0.75086662  0.24731630  1
  Li  Li6  1  0.75239414  0.24940957  0.74734011  1
  Li  Li7  1  0.87644435  0.37595963  0.12379801  1
  Fe  Fe8  1  0.11794393  0.62372664  0.12754398  1
  Fe  Fe9  1  0.12363855  0.37643878  0.87956817  1
  Fe  Fe10  1  0.12604779  0.12013457  0.62204412  1
  Fe  Fe11  1  0.37320578  0.88179354  0.12479820  1
  Fe  Fe12  1  0.37658422  0.62525277  0.38452445  1
  Fe  Fe13  1  0.38424545  0.37574239  0.62597304  1
  Fe  Fe14  1  0.61831457  0.87585903  0.87350010  1
  Fe  Fe15  1  0.62231441  0.12582558  0.11857827  1
  Fe  Fe16  1  0.62582696  0.38185082  0.37721864  1
  Fe  Fe17  1  0.87370190  0.61727846  0.87607748  1
  Fe  Fe18  1  0.87518366  0.87317649  0.61806368  1
  Fe  Fe19  1  0.88068345  0.12310250  0.37415693  1
  Ni  Ni20  1  0.99950586  0.49991991  0.50043564  1
  Ni  Ni21  1  0.49689133  0.50225688  0.00223648  1
  Ni  Ni22  1  0.49988703  0.99985851  0.50150968  1
  Ni  Ni23  1  0.99923673  0.00179406  0.00104537  1
  O  O24  1  0.10539647  0.12760412  0.38768409  1
  O  O25  1  0.10961490  0.89507095  0.62933964  1
  O  O26  1  0.11702490  0.60884513  0.88344307  1
  O  O27  1  0.12628326  0.38955195  0.10377649  1
  O  O28  1  0.12144591  0.14763806  0.86191891  1
  O  O29  1  0.13509460  0.36473127  0.63470845  1
  O  O30  1  0.13350815  0.61496673  0.36703021  1
  O  O31  1  0.13778304  0.85772047  0.12293897  1
  O  O32  1  0.36369588  0.13432396  0.61614921  1
  O  O33  1  0.35640946  0.37512519  0.85942203  1
  O  O34  1  0.35424128  0.63966209  0.14850393  1
  O  O35  1  0.38313940  0.86307559  0.36861991  1
  O  O36  1  0.37615811  0.61171094  0.60551481  1
  O  O37  1  0.38577704  0.38674314  0.38569782  1
  O  O38  1  0.38895432  0.10712055  0.12701970  1
  O  O39  1  0.39623980  0.87241539  0.88777920  1
  O  O40  1  0.60965164  0.37483107  0.60938376  1
  O  O41  1  0.61239388  0.60663459  0.37242349  1
  O  O42  1  0.61347514  0.88782397  0.11371166  1
  O  O43  1  0.62655781  0.10966600  0.89274551  1
  O  O44  1  0.62504043  0.35712920  0.13987876  1
  O  O45  1  0.63410491  0.13565742  0.36756173  1
  O  O46  1  0.63354583  0.88155937  0.63534503  1
  O  O47  1  0.64164408  0.63695482  0.87313084  1
  O  O48  1  0.86364417  0.36473849  0.38246176  1
  O  O49  1  0.85978877  0.12369556  0.14336934  1
  O  O50  1  0.85814268  0.86494068  0.86136176  1
  O  O51  1  0.88268045  0.63528934  0.63325277  1
  O  O52  1  0.87355187  0.89038464  0.39191721  1
  O  O53  1  0.88504156  0.11513087  0.60975994  1
  O  O54  1  0.89726008  0.38819504  0.87389753  1
  O  O55  1  0.89712898  0.62597014  0.11092963  1
