# generated using pymatgen
data_Li2TiFeO4
_symmetry_space_group_name_H-M   'P 1'
_cell_length_a   5.01973461
_cell_length_b   4.24850430
_cell_length_c   4.24850128
_cell_angle_alpha   89.97046579
_cell_angle_beta   64.95256181
_cell_angle_gamma   64.95242262
_symmetry_Int_Tables_number   1
_chemical_formula_structural   Li2TiFeO4
_chemical_formula_sum   'Li2 Ti1 Fe1 O4'
_cell_volume   72.58032246
_cell_formula_units_Z   1
loop_
 _symmetry_equiv_pos_site_id
 _symmetry_equiv_pos_as_xyz
  1  'x, y, z'
loop_
 _atom_site_type_symbol
 _atom_site_label
 _atom_site_symmetry_multiplicity
 _atom_site_fract_x
 _atom_site_fract_y
 _atom_site_fract_z
 _atom_site_occupancy
  Li  Li0  1  0.00000004  0.00002919  0.99996735  1
  Li  Li1  1  0.99999997  0.49997124  0.50003244  1
  Ti  Ti2  1  0.50000012  0.75000025  0.24999990  1
  Fe  Fe3  1  0.49999930  0.24999924  0.75000087  1
  O  O4  1  0.96992977  0.51506124  0.01506427  1
  O  O5  1  0.03007046  0.98493941  0.48493579  1
  O  O6  1  0.50000016  0.25000010  0.24999953  1
  O  O7  1  0.50000019  0.75000032  0.74999985  1
