# generated using pymatgen
data_Li11V6O5F19
_symmetry_space_group_name_H-M   'P 1'
_cell_length_a   5.10902954
_cell_length_b   5.48015011
_cell_length_c   16.24290602
_cell_angle_alpha   80.55378699
_cell_angle_beta   89.96736369
_cell_angle_gamma   89.53918658
_symmetry_Int_Tables_number   1
_chemical_formula_structural   Li11V6O5F19
_chemical_formula_sum   'Li11 V6 O5 F19'
_cell_volume   448.59161314
_cell_formula_units_Z   1
loop_
 _symmetry_equiv_pos_site_id
 _symmetry_equiv_pos_as_xyz
  1  'x, y, z'
loop_
 _atom_site_type_symbol
 _atom_site_label
 _atom_site_symmetry_multiplicity
 _atom_site_fract_x
 _atom_site_fract_y
 _atom_site_fract_z
 _atom_site_occupancy
  Li  Li0  1  0.03156932  0.10714491  0.53992778  1
  Li  Li1  1  0.02666442  0.07627938  0.77553970  1
  Li  Li2  1  0.50648775  0.21576912  0.43601309  1
  Li  Li3  1  0.48286672  0.23560361  0.18956141  1
  Li  Li4  1  0.00242803  0.41940442  0.09950001  1
  Li  Li5  1  0.51959852  0.12834756  0.88933097  1
  Li  Li6  1  0.46340831  0.60593125  0.54097412  1
  Li  Li7  1  0.98575673  0.68637174  0.44062301  1
  Li  Li8  1  0.48264891  0.58159255  0.77313172  1
  Li  Li9  1  0.47413741  0.83131074  0.11009354  1
  Li  Li10  1  -0.01561855  0.58497509  0.89543629  1
  V  V11  1  0.47868251  0.16869947  0.67191590  1
  V  V12  1  0.01317987  0.34078529  0.32948189  1
  V  V13  1  0.99431969  0.00045952  0.00227233  1
  V  V14  1  0.49609929  0.49839808  0.99812596  1
  V  V15  1  0.02215416  0.66980270  0.67284901  1
  V  V16  1  0.47793524  0.80612135  0.33386047  1
  O  O17  1  0.20870308  0.37371524  0.70552592  1
  O  O18  1  0.29806268  0.50992721  0.37076274  1
  O  O19  1  0.20532108  0.69512423  0.03311331  1
  O  O20  1  0.79496304  0.31019329  0.96723015  1
  O  O21  1  0.29366570  0.87350913  0.70619209  1
  F  F22  1  0.17378350  0.00411777  0.37560223  1
  F  F23  1  0.29681769  0.18463404  0.05422334  1
  F  F24  1  0.66707002  0.16341899  0.30910957  1
  F  F25  1  0.13785228  0.35186205  0.21595593  1
  F  F26  1  0.15746326  0.01735858  0.88770468  1
  F  F27  1  0.36534750  0.24604714  0.54407012  1
  F  F28  1  0.64063372  0.49377119  0.11654234  1
  F  F29  1  0.66412654  0.17900685  0.78134344  1
  F  F30  1  0.86051808  0.32229590  0.44844867  1
  F  F31  1  0.81957308  0.66128650  0.30480286  1
  F  F32  1  0.69547019  0.49914514  0.62963394  1
  F  F33  1  0.34580827  0.48837612  0.88449246  1
  F  F34  1  0.81796984  0.98394345  0.11045781  1
  F  F35  1  0.12964345  0.74676430  0.54419750  1
  F  F36  1  0.38672423  0.89162833  0.21922078  1
  F  F37  1  0.62801248  0.82246386  0.44772746  1
  F  F38  1  0.84497118  0.67680514  0.78423655  1
  F  F39  1  0.69433717  0.81918577  0.95112308  1
  F  F40  1  0.80482461  0.99795800  0.62956584  1
