# generated using pymatgen
data_La3MnO7
_symmetry_space_group_name_H-M   'P 1'
_cell_length_a   5.29513123
_cell_length_b   5.55155667
_cell_length_c   10.60430324
_cell_angle_alpha   105.12766019
_cell_angle_beta   89.96083388
_cell_angle_gamma   89.99173146
_symmetry_Int_Tables_number   1
_chemical_formula_structural   La3MnO7
_chemical_formula_sum   'La6 Mn2 O14'
_cell_volume   300.92402378
_cell_formula_units_Z   2
loop_
 _symmetry_equiv_pos_site_id
 _symmetry_equiv_pos_as_xyz
  1  'x, y, z'
loop_
 _atom_site_type_symbol
 _atom_site_label
 _atom_site_symmetry_multiplicity
 _atom_site_fract_x
 _atom_site_fract_y
 _atom_site_fract_z
 _atom_site_occupancy
  La  La0  1  0.23793462  0.09611820  0.64216732  1
  La  La1  1  0.24386992  0.42811724  0.35173673  1
  La  La2  1  0.23341956  0.24606610  0.00017528  1
  La  La3  1  0.73961015  0.90328124  0.35527035  1
  La  La4  1  0.74231530  0.57021197  0.64571070  1
  La  La5  1  0.73427147  0.75022203  0.99768904  1
  Mn  Mn6  1  0.23850416  0.85033662  0.18872514  1
  Mn  Mn7  1  0.73642154  0.14804115  0.80909861  1
  O  O8  1  0.98877289  0.90799537  0.79148536  1
  O  O9  1  0.99210787  0.09420412  0.20428408  1
  O  O10  1  0.99428844  0.59736076  0.18001691  1
  O  O11  1  0.98436509  0.40167577  0.82257803  1
  O  O12  1  0.23832236  0.80114165  0.01099784  1
  O  O13  1  0.23777077  0.91466970  0.39537398  1
  O  O14  1  0.22061246  0.47980661  0.57225269  1
  O  O15  1  0.48969860  0.90455780  0.79174798  1
  O  O16  1  0.48513134  0.59630318  0.17619935  1
  O  O17  1  0.49362941  0.40178376  0.81726538  1
  O  O18  1  0.49102647  0.08990209  0.20677337  1
  O  O19  1  0.73391952  0.19573347  0.98660074  1
  O  O20  1  0.73848116  0.08525962  0.60213239  1
  O  O21  1  0.72033089  0.51950556  0.42544573  1
