# generated using pymatgen
data_CoPbO3
_symmetry_space_group_name_H-M   'P 1'
_cell_length_a   5.51392768
_cell_length_b   5.77055489
_cell_length_c   5.51392771
_cell_angle_alpha   118.53947233
_cell_angle_beta   59.99999859
_cell_angle_gamma   118.53947615
_symmetry_Int_Tables_number   1
_chemical_formula_structural   CoPbO3
_chemical_formula_sum   'Co2 Pb2 O6'
_cell_volume   126.72648128
_cell_formula_units_Z   2
loop_
 _symmetry_equiv_pos_site_id
 _symmetry_equiv_pos_as_xyz
  1  'x, y, z'
loop_
 _atom_site_type_symbol
 _atom_site_label
 _atom_site_symmetry_multiplicity
 _atom_site_fract_x
 _atom_site_fract_y
 _atom_site_fract_z
 _atom_site_occupancy
  Co  Co0  1  0.35454470  0.06363509  0.35454470  1
  Co  Co1  1  0.64545530  0.93636491  0.64545530  1
  Pb  Pb2  1  0.13838404  0.41515311  0.13838404  1
  Pb  Pb3  1  0.86161596  0.58484689  0.86161596  1
  O  O4  1  0.04967108  0.24027710  0.45726534  1
  O  O5  1  0.45726534  0.24027710  0.73334069  1
  O  O6  1  0.73334069  0.24027710  0.04967108  1
  O  O7  1  0.26665931  0.75972290  0.95032892  1
  O  O8  1  0.54273466  0.75972290  0.26665931  1
  O  O9  1  0.95032892  0.75972290  0.54273466  1
