# generated using pymatgen
data_Fe10O9F11
_symmetry_space_group_name_H-M   'P 1'
_cell_length_a   4.76786158
_cell_length_b   4.77967727
_cell_length_c   15.50422221
_cell_angle_alpha   90.09877320
_cell_angle_beta   90.03018715
_cell_angle_gamma   93.32230356
_symmetry_Int_Tables_number   1
_chemical_formula_structural   Fe10O9F11
_chemical_formula_sum   'Fe10 O9 F11'
_cell_volume   352.72882091
_cell_formula_units_Z   1
loop_
 _symmetry_equiv_pos_site_id
 _symmetry_equiv_pos_as_xyz
  1  'x, y, z'
loop_
 _atom_site_type_symbol
 _atom_site_label
 _atom_site_symmetry_multiplicity
 _atom_site_fract_x
 _atom_site_fract_y
 _atom_site_fract_z
 _atom_site_occupancy
  Fe  Fe0  1  -0.00038565  0.97695319  0.00334946  1
  Fe  Fe1  1  0.03874346  0.01570391  0.19410470  1
  Fe  Fe2  1  0.99116792  0.98812014  0.40145538  1
  Fe  Fe3  1  0.02132039  0.01249773  0.60520439  1
  Fe  Fe4  1  0.03503944  0.00803049  0.79263596  1
  Fe  Fe5  1  0.46102462  0.51444464  0.09409032  1
  Fe  Fe6  1  0.48972580  0.48306893  0.49517731  1
  Fe  Fe7  1  0.49421830  0.48429240  0.30453099  1
  Fe  Fe8  1  0.45241003  0.50500687  0.70004608  1
  Fe  Fe9  1  0.49671819  0.47599391  0.90592603  1
  O  O10  1  0.18673429  0.81070013  0.10161961  1
  O  O11  1  0.20230458  0.80570871  0.70503194  1
  O  O12  1  0.28910060  0.29423602  0.99963086  1
  O  O13  1  0.31571566  0.31916125  0.20198844  1
  O  O14  1  0.29512203  0.28726620  0.39788981  1
  O  O15  1  0.31791717  0.32083061  0.59602349  1
  O  O16  1  0.30994776  0.31402542  0.80417023  1
  O  O17  1  0.68854903  0.69112942  0.99928075  1
  O  O18  1  0.69837988  0.69020131  0.39839721  1
  F  F19  1  0.19485149  0.80689671  0.29872819  1
  F  F20  1  0.20191844  0.79566337  0.49434596  1
  F  F21  1  0.19130000  0.80220052  0.89896615  1
  F  F22  1  0.70539907  0.71183669  0.20377863  1
  F  F23  1  0.70100581  0.70187454  0.59768736  1
  F  F24  1  0.70419428  0.70705165  0.80282425  1
  F  F25  1  0.80167997  0.19656629  0.10277911  1
  F  F26  1  0.80308046  0.19385305  0.49641505  1
  F  F27  1  0.81162747  0.18782684  0.29747853  1
  F  F28  1  0.80841203  0.18333444  0.89918965  1
  F  F29  1  0.79277451  0.21552461  0.70725716  1
