# generated using pymatgen
data_Cu(AgO)2
_symmetry_space_group_name_H-M   'P 1'
_cell_length_a   2.94413243
_cell_length_b   5.70862716
_cell_length_c   4.52252701
_cell_angle_alpha   66.66457015
_cell_angle_beta   90.00000000
_cell_angle_gamma   104.94352610
_symmetry_Int_Tables_number   1
_chemical_formula_structural   Cu(AgO)2
_chemical_formula_sum   'Cu1 Ag2 O2'
_cell_volume   66.98361356
_cell_formula_units_Z   1
loop_
 _symmetry_equiv_pos_site_id
 _symmetry_equiv_pos_as_xyz
  1  'x, y, z'
loop_
 _atom_site_type_symbol
 _atom_site_label
 _atom_site_symmetry_multiplicity
 _atom_site_fract_x
 _atom_site_fract_y
 _atom_site_fract_z
 _atom_site_occupancy
  Cu  Cu0  1  0.00000000  0.00000000  -0.00000000  1
  Ag  Ag1  1  0.64920717  0.29841534  0.35079283  1
  Ag  Ag2  1  0.35079283  0.70158466  0.64920717  1
  O  O3  1  0.36994794  0.73989488  0.13005206  1
  O  O4  1  0.63005206  0.26010512  0.86994794  1
