# generated using pymatgen
data_Co6O5F7
_symmetry_space_group_name_H-M   'P 1'
_cell_length_a   7.67052340
_cell_length_b   5.58384126
_cell_length_c   5.58384126
_cell_angle_alpha   68.05784198
_cell_angle_beta   68.19649149
_cell_angle_gamma   68.19649149
_symmetry_Int_Tables_number   1
_chemical_formula_structural   Co6O5F7
_chemical_formula_sum   'Co6 O5 F7'
_cell_volume   198.31057006
_cell_formula_units_Z   1
loop_
 _symmetry_equiv_pos_site_id
 _symmetry_equiv_pos_as_xyz
  1  'x, y, z'
loop_
 _atom_site_type_symbol
 _atom_site_label
 _atom_site_symmetry_multiplicity
 _atom_site_fract_x
 _atom_site_fract_y
 _atom_site_fract_z
 _atom_site_occupancy
  Co  Co0  1  0.83333300  0.66212287  0.67121013  1
  Co  Co1  1  0.33333300  0.69579206  0.63754094  1
  Co  Co2  1  0.66917660  0.32546543  0.33510607  1
  Co  Co3  1  0.15508890  0.34003415  0.34828846  1
  Co  Co4  1  0.51157710  0.98504554  0.99329985  1
  Co  Co5  1  0.99749040  0.99822793  0.00786757  1
  O  O6  1  0.67378989  0.01608708  0.63529262  1
  O  O7  1  0.33333300  0.98032156  0.35301144  1
  O  O8  1  0.67381696  0.62799003  0.02455101  1
  O  O9  1  0.99285004  0.30878199  0.70534297  1
  O  O10  1  0.99287711  0.69804138  0.31724592  1
  F  F11  1  0.33333300  0.37257602  0.96075698  1
  F  F12  1  0.62317205  0.56012951  0.56816794  1
  F  F13  1  0.29746562  0.89520219  0.89677929  1
  F  F14  1  0.96673870  0.23143970  0.23231121  1
  F  F15  1  0.36920038  0.43655371  0.43813081  1
  F  F16  1  0.04349395  0.76516606  0.77320349  1
  F  F17  1  0.69992830  0.10102279  0.10189430  1
