# generated using pymatgen
data_FeOF
_symmetry_space_group_name_H-M   'P 1'
_cell_length_a   9.48215734
_cell_length_b   14.25378594
_cell_length_c   3.09756252
_cell_angle_alpha   90.00000000
_cell_angle_beta   90.00000000
_cell_angle_gamma   90.03265170
_symmetry_Int_Tables_number   1
_chemical_formula_structural   FeOF
_chemical_formula_sum   'Fe12 O12 F12'
_cell_volume   418.65607764
_cell_formula_units_Z   12
loop_
 _symmetry_equiv_pos_site_id
 _symmetry_equiv_pos_as_xyz
  1  'x, y, z'
loop_
 _atom_site_type_symbol
 _atom_site_label
 _atom_site_symmetry_multiplicity
 _atom_site_fract_x
 _atom_site_fract_y
 _atom_site_fract_z
 _atom_site_occupancy
  Fe  Fe0  1  0.01071523  0.99423369  -0.00000000  1
  Fe  Fe1  1  0.00284512  0.33387231  -0.00000000  1
  Fe  Fe2  1  0.01680266  0.66355541  -0.00000000  1
  Fe  Fe3  1  0.25011127  0.14623834  0.50000000  1
  Fe  Fe4  1  0.25716586  0.51629104  0.50000000  1
  Fe  Fe5  1  0.22854745  0.83117946  0.50000000  1
  Fe  Fe6  1  0.51667876  0.32977356  0.00000000  1
  Fe  Fe7  1  0.50707854  0.00156589  -0.00000000  1
  Fe  Fe8  1  0.50546890  0.65944682  -0.00000000  1
  Fe  Fe9  1  0.72814036  0.16154547  0.50000000  1
  Fe  Fe10  1  0.72465764  0.50060584  0.50000000  1
  Fe  Fe11  1  0.75393214  0.85089789  0.50000000  1
  O  O12  1  0.09082481  0.59634393  0.50000000  1
  O  O13  1  0.10086154  0.93714339  0.50000000  1
  O  O14  1  0.14675277  0.10453525  0.00000000  1
  O  O15  1  0.15144498  0.76552802  -0.00000000  1
  O  O16  1  0.35065502  0.56794048  -0.00000000  1
  O  O17  1  0.40572768  0.06014507  0.50000000  1
  O  O18  1  0.59710090  0.26855235  0.50000000  1
  O  O19  1  0.59156192  0.93386881  0.50000000  1
  O  O20  1  0.60073887  0.60793386  0.50000000  1
  O  O21  1  0.65624098  0.09947112  0.00000000  1
  O  O22  1  0.65017989  0.43554083  0.00000000  1
  O  O23  1  0.84921989  0.90165500  -0.00000000  1
  F  F24  1  0.10302142  0.27090087  0.50000000  1
  F  F25  1  0.15874556  0.43442489  -0.00000000  1
  F  F26  1  0.34362227  0.23352804  0.00000000  1
  F  F27  1  0.34703740  0.89245435  0.00000000  1
  F  F28  1  0.39566237  0.39683986  0.50000000  1
  F  F29  1  0.40558651  0.73603808  0.50000000  1
  F  F30  1  0.65321896  0.77033980  0.00000000  1
  F  F31  1  0.85020464  0.23264728  -0.00000000  1
  F  F32  1  0.84545093  0.56411633  0.00000000  1
  F  F33  1  0.90341852  0.07031786  0.50000000  1
  F  F34  1  0.90500237  0.40193015  0.50000000  1
  F  F35  1  0.89557589  0.72859667  0.50000000  1
