# generated using pymatgen
data_FeOF
_symmetry_space_group_name_H-M   'P 1'
_cell_length_a   9.49412896
_cell_length_b   14.29420832
_cell_length_c   3.09526106
_cell_angle_alpha   90.00000000
_cell_angle_beta   90.00000000
_cell_angle_gamma   90.41485296
_symmetry_Int_Tables_number   1
_chemical_formula_structural   FeOF
_chemical_formula_sum   'Fe12 O12 F12'
_cell_volume   420.05013969
_cell_formula_units_Z   12
loop_
 _symmetry_equiv_pos_site_id
 _symmetry_equiv_pos_as_xyz
  1  'x, y, z'
loop_
 _atom_site_type_symbol
 _atom_site_label
 _atom_site_symmetry_multiplicity
 _atom_site_fract_x
 _atom_site_fract_y
 _atom_site_fract_z
 _atom_site_occupancy
  Fe  Fe0  1  0.01974538  0.99877091  -0.00000000  1
  Fe  Fe1  1  0.00626259  0.33636000  -0.00000000  1
  Fe  Fe2  1  0.01342868  0.66108553  0.00000000  1
  Fe  Fe3  1  0.25557706  0.14734620  0.50000000  1
  Fe  Fe4  1  0.23186754  0.49658053  0.50000000  1
  Fe  Fe5  1  0.25793450  0.85199448  0.50000000  1
  Fe  Fe6  1  0.51795856  0.32805661  -0.00000000  1
  Fe  Fe7  1  0.50264008  0.00045858  0.00000000  1
  Fe  Fe8  1  0.51816875  0.66927163  -0.00000000  1
  Fe  Fe9  1  0.72791834  0.16071569  0.50000000  1
  Fe  Fe10  1  0.72029673  0.50007996  0.50000000  1
  Fe  Fe11  1  0.72479580  0.83847995  0.50000000  1
  O  O12  1  0.09845045  0.60185686  0.50000000  1
  O  O13  1  0.09354354  0.93356557  0.50000000  1
  O  O14  1  0.14911047  0.10554458  0.00000000  1
  O  O15  1  0.14967489  0.43228620  -0.00000000  1
  O  O16  1  0.35234006  0.89656543  0.00000000  1
  O  O17  1  0.40792148  0.06548799  0.50000000  1
  O  O18  1  0.59784481  0.26835659  0.50000000  1
  O  O19  1  0.59904771  0.93879480  0.50000000  1
  O  O20  1  0.59320078  0.60322417  0.50000000  1
  O  O21  1  0.65794503  0.10106384  0.00000000  1
  O  O22  1  0.65139000  0.43464322  0.00000000  1
  O  O23  1  0.65418348  0.76908076  0.00000000  1
  F  F24  1  0.09697861  0.26872481  0.50000000  1
  F  F25  1  0.15202263  0.76768041  0.00000000  1
  F  F26  1  0.34323730  0.23742482  -0.00000000  1
  F  F27  1  0.34444661  0.56310999  0.00000000  1
  F  F28  1  0.40023946  0.39990671  0.50000000  1
  F  F29  1  0.39531367  0.72754983  0.50000000  1
  F  F30  1  0.85647618  0.23592484  0.00000000  1
  F  F31  1  0.84928626  0.89879165  0.00000000  1
  F  F32  1  0.84767090  0.56516436  0.00000000  1
  F  F33  1  0.90383791  0.06672713  0.50000000  1
  F  F34  1  0.90050411  0.39923818  0.50000000  1
  F  F35  1  0.90874163  0.73008717  0.50000000  1
