# generated using pymatgen
data_HfZrO4
_symmetry_space_group_name_H-M   'P 1'
_cell_length_a   10.22960129
_cell_length_b   10.22960129
_cell_length_c   10.22960129
_cell_angle_alpha   90.00000000
_cell_angle_beta   90.00000000
_cell_angle_gamma   90.00000000
_symmetry_Int_Tables_number   1
_chemical_formula_structural   HfZrO4
_chemical_formula_sum   'Hf16 Zr16 O64'
_cell_volume   1070.47399341
_cell_formula_units_Z   16
loop_
 _symmetry_equiv_pos_site_id
 _symmetry_equiv_pos_as_xyz
  1  'x, y, z'
loop_
 _atom_site_type_symbol
 _atom_site_label
 _atom_site_symmetry_multiplicity
 _atom_site_fract_x
 _atom_site_fract_y
 _atom_site_fract_z
 _atom_site_occupancy
  Hf  Hf0  1  0.12381126  0.37437935  0.37387316  1
  Hf  Hf1  1  0.12612684  0.87618874  0.87437935  1
  Hf  Hf2  1  0.12562065  0.62612684  0.62381126  1
  Hf  Hf3  1  0.12458306  0.12458306  0.12458306  1
  Hf  Hf4  1  0.37541694  0.87541694  0.62458306  1
  Hf  Hf5  1  0.37437935  0.37387316  0.12381126  1
  Hf  Hf6  1  0.37387316  0.12381126  0.37437935  1
  Hf  Hf7  1  0.37618874  0.62562065  0.87387316  1
  Hf  Hf8  1  0.62381126  0.12562065  0.62612684  1
  Hf  Hf9  1  0.62612684  0.62381126  0.12562065  1
  Hf  Hf10  1  0.62562065  0.87387316  0.37618874  1
  Hf  Hf11  1  0.62458306  0.37541694  0.87541694  1
  Hf  Hf12  1  0.87541694  0.62458306  0.37541694  1
  Hf  Hf13  1  0.87437935  0.12612684  0.87618874  1
  Hf  Hf14  1  0.87387316  0.37618874  0.62562065  1
  Hf  Hf15  1  0.87618874  0.87437935  0.12612684  1
  Zr  Zr16  1  0.12610159  0.62522586  0.12356044  1
  Zr  Zr17  1  0.12356044  0.12610159  0.62522586  1
  Zr  Zr18  1  0.12512586  0.87487414  0.37487414  1
  Zr  Zr19  1  0.12522586  0.37643956  0.87389841  1
  Zr  Zr20  1  0.37477414  0.62356044  0.37389841  1
  Zr  Zr21  1  0.37487414  0.12512586  0.87487414  1
  Zr  Zr22  1  0.37643956  0.87389841  0.12522586  1
  Zr  Zr23  1  0.37389841  0.37477414  0.62356044  1
  Zr  Zr24  1  0.62610159  0.87477414  0.87643956  1
  Zr  Zr25  1  0.62356044  0.37389841  0.37477414  1
  Zr  Zr26  1  0.62512586  0.62512586  0.62512586  1
  Zr  Zr27  1  0.62522586  0.12356044  0.12610159  1
  Zr  Zr28  1  0.87477414  0.87643956  0.62610159  1
  Zr  Zr29  1  0.87487414  0.37487414  0.12512586  1
  Zr  Zr30  1  0.87643956  0.62610159  0.87477414  1
  Zr  Zr31  1  0.87389841  0.12522586  0.37643956  1
  O  O32  1  0.99647305  0.74493322  0.24936906  1
  O  O33  1  0.00025977  0.99564151  0.25048805  1
  O  O34  1  0.00146561  0.75506111  0.99936975  1
  O  O35  1  0.99769427  0.00230573  0.50230573  1
  O  O36  1  0.00237413  0.00237413  0.00237413  1
  O  O37  1  0.99936975  0.00146561  0.75506111  1
  O  O38  1  0.00435849  0.75048805  0.49974023  1
  O  O39  1  0.99873270  0.25134109  0.75065750  1
  O  O40  1  0.24865891  0.24934250  0.49873270  1
  O  O41  1  0.24934250  0.49873270  0.24865891  1
  O  O42  1  0.25123098  0.24876902  0.75123098  1
  O  O43  1  0.24936906  0.99647305  0.74493322  1
  O  O44  1  0.24951195  0.99974023  0.49564151  1
  O  O45  1  0.25506111  0.50063025  0.99853439  1
  O  O46  1  0.25506678  0.74936906  0.50352695  1
  O  O47  1  0.24851633  0.74851633  0.75148367  1
  O  O48  1  0.25148367  0.25148367  0.25148367  1
  O  O49  1  0.24493322  0.25063094  0.00352695  1
  O  O50  1  0.24493889  0.49936975  0.49853439  1
  O  O51  1  0.25048805  0.00025977  0.99564151  1
  O  O52  1  0.25063094  0.00352695  0.24493322  1
  O  O53  1  0.24876902  0.75123098  0.25123098  1
  O  O54  1  0.25065750  0.50126730  0.74865891  1
  O  O55  1  0.25134109  0.75065750  0.99873270  1
  O  O56  1  0.50126730  0.74865891  0.25065750  1
  O  O57  1  0.49762587  0.99762587  0.50237413  1
  O  O58  1  0.50230573  0.99769427  0.00230573  1
  O  O59  1  0.50063025  0.99853439  0.25506111  1
  O  O60  1  0.49564151  0.24951195  0.99974023  1
  O  O61  1  0.49853439  0.24493889  0.49936975  1
  O  O62  1  0.50352695  0.25506678  0.74936906  1
  O  O63  1  0.49974023  0.00435849  0.75048805  1
  O  O64  1  0.50025977  0.50435849  0.74951195  1
  O  O65  1  0.49647305  0.75506678  0.75063094  1
  O  O66  1  0.50146561  0.74493889  0.00063025  1
  O  O67  1  0.49936975  0.49853439  0.24493889  1
  O  O68  1  0.49769427  0.49769427  0.49769427  1
  O  O69  1  0.50237413  0.49762587  0.99762587  1
  O  O70  1  0.50435849  0.74951195  0.50025977  1
  O  O71  1  0.49873270  0.24865891  0.24934250  1
  O  O72  1  0.74865891  0.25065750  0.50126730  1
  O  O73  1  0.74934250  0.00126730  0.75134109  1
  O  O74  1  0.75123098  0.25123098  0.24876902  1
  O  O75  1  0.74936906  0.50352695  0.25506678  1
  O  O76  1  0.74951195  0.50025977  0.50435849  1
  O  O77  1  0.75506111  0.99936975  0.00146561  1
  O  O78  1  0.75506678  0.75063094  0.49647305  1
  O  O79  1  0.74851633  0.75148367  0.24851633  1
  O  O80  1  0.75148367  0.24851633  0.74851633  1
  O  O81  1  0.74493322  0.24936906  0.99647305  1
  O  O82  1  0.74493889  0.00063025  0.50146561  1
  O  O83  1  0.75048805  0.49974023  0.00435849  1
  O  O84  1  0.75063094  0.49647305  0.75506678  1
  O  O85  1  0.74876902  0.74876902  0.74876902  1
  O  O86  1  0.75065750  0.99873270  0.25134109  1
  O  O87  1  0.75134109  0.74934250  0.00126730  1
  O  O88  1  0.00126730  0.75134109  0.74934250  1
  O  O89  1  0.99564151  0.25048805  0.00025977  1
  O  O90  1  0.00230573  0.50230573  0.99769427  1
  O  O91  1  0.00063025  0.50146561  0.74493889  1
  O  O92  1  0.99762587  0.50237413  0.49762587  1
  O  O93  1  0.99853439  0.25506111  0.50063025  1
  O  O94  1  0.00352695  0.24493322  0.25063094  1
  O  O95  1  0.99974023  0.49564151  0.24951195  1
