# generated using pymatgen
data_FeOF
_symmetry_space_group_name_H-M   'P 1'
_cell_length_a   14.21568674
_cell_length_b   14.25999978
_cell_length_c   3.09145237
_cell_angle_alpha   90.00000000
_cell_angle_beta   90.00000000
_cell_angle_gamma   89.86133494
_symmetry_Int_Tables_number   1
_chemical_formula_structural   FeOF
_chemical_formula_sum   'Fe18 O18 F18'
_cell_volume   626.68406425
_cell_formula_units_Z   18
loop_
 _symmetry_equiv_pos_site_id
 _symmetry_equiv_pos_as_xyz
  1  'x, y, z'
loop_
 _atom_site_type_symbol
 _atom_site_label
 _atom_site_symmetry_multiplicity
 _atom_site_fract_x
 _atom_site_fract_y
 _atom_site_fract_z
 _atom_site_occupancy
  Fe  Fe0  1  0.01685224  0.99428343  -0.00000000  1
  Fe  Fe1  1  0.01055291  0.32942908  0.00000000  1
  Fe  Fe2  1  0.99619426  0.66965819  0.00000000  1
  Fe  Fe3  1  0.15347777  0.16411447  0.50000000  1
  Fe  Fe4  1  0.15863715  0.49050467  0.50000000  1
  Fe  Fe5  1  0.15688882  0.81923720  0.50000000  1
  Fe  Fe6  1  0.34058848  0.99241438  -0.00000000  1
  Fe  Fe7  1  0.34367888  0.33475177  -0.00000000  1
  Fe  Fe8  1  0.33637062  0.67560879  -0.00000000  1
  Fe  Fe9  1  0.48388449  0.50328604  0.50000000  1
  Fe  Fe10  1  0.51820791  0.16783924  0.50000000  1
  Fe  Fe11  1  0.48937461  0.83063022  0.50000000  1
  Fe  Fe12  1  0.67038858  0.00599240  -0.00000000  1
  Fe  Fe13  1  0.66924730  0.32378609  0.00000000  1
  Fe  Fe14  1  0.68102186  0.66333346  0.00000000  1
  Fe  Fe15  1  0.82047317  0.16469384  0.50000000  1
  Fe  Fe16  1  0.83837103  0.51411683  0.50000000  1
  Fe  Fe17  1  0.81413804  0.83753381  0.50000000  1
  O  O18  1  0.06649381  0.27057006  0.50000000  1
  O  O19  1  0.06867967  0.93093695  0.50000000  1
  O  O20  1  0.10369782  0.10212000  0.00000000  1
  O  O21  1  0.09792973  0.43741021  0.00000000  1
  O  O22  1  0.09420061  0.76046232  0.00000000  1
  O  O23  1  0.26554372  0.73208115  0.50000000  1
  O  O24  1  0.39255034  0.60391533  0.50000000  1
  O  O25  1  0.39927118  0.93929845  0.50000000  1
  O  O26  1  0.43692206  0.43413319  0.00000000  1
  O  O27  1  0.43794983  0.76982936  -0.00000000  1
  O  O28  1  0.56238077  0.23712850  -0.00000000  1
  O  O29  1  0.59942880  0.06188932  0.50000000  1
  O  O30  1  0.73550435  0.27440032  0.50000000  1
  O  O31  1  0.73170961  0.59817633  0.50000000  1
  O  O32  1  0.72864311  0.93880829  0.50000000  1
  O  O33  1  0.77127702  0.10336548  0.00000000  1
  O  O34  1  0.77007367  0.76766709  0.00000000  1
  O  O35  1  0.90441095  0.56914413  0.00000000  1
  F  F36  1  0.06543308  0.60166328  0.50000000  1
  F  F37  1  0.23482933  0.23364153  -0.00000000  1
  F  F38  1  0.22630470  0.55983521  0.00000000  1
  F  F39  1  0.23058954  0.90029193  0.00000000  1
  F  F40  1  0.26916030  0.06732660  0.50000000  1
  F  F41  1  0.26464070  0.39744539  0.50000000  1
  F  F42  1  0.39656091  0.25594127  0.50000000  1
  F  F43  1  0.42998815  0.10546885  0.00000000  1
  F  F44  1  0.56503041  0.56791608  -0.00000000  1
  F  F45  1  0.56624741  0.89456966  -0.00000000  1
  F  F46  1  0.60624985  0.40562028  0.50000000  1
  F  F47  1  0.60400414  0.72989052  0.50000000  1
  F  F48  1  0.77183488  0.43766193  0.00000000  1
  F  F49  1  0.90147980  0.23407978  0.00000000  1
  F  F50  1  0.89928264  0.89872308  0.00000000  1
  F  F51  1  0.93836313  0.06505254  0.50000000  1
  F  F52  1  0.93244967  0.39781964  0.50000000  1
  F  F53  1  0.93253521  0.73450207  0.50000000  1
