# generated using pymatgen
data_K4Li5Cr2O8
_symmetry_space_group_name_H-M   'P 1'
_cell_length_a   5.62244081
_cell_length_b   8.77442318
_cell_length_c   10.88108402
_cell_angle_alpha   90.38119153
_cell_angle_beta   100.27510763
_cell_angle_gamma   90.41046446
_symmetry_Int_Tables_number   1
_chemical_formula_structural   K4Li5Cr2O8
_chemical_formula_sum   'K8 Li10 Cr4 O16'
_cell_volume   528.16422700
_cell_formula_units_Z   2
loop_
 _symmetry_equiv_pos_site_id
 _symmetry_equiv_pos_as_xyz
  1  'x, y, z'
loop_
 _atom_site_type_symbol
 _atom_site_label
 _atom_site_symmetry_multiplicity
 _atom_site_fract_x
 _atom_site_fract_y
 _atom_site_fract_z
 _atom_site_occupancy
  K  K0  1  0.15551569  0.01038086  0.86970707  1
  K  K1  1  0.16979713  0.76799954  0.36226326  1
  K  K2  1  0.34233072  0.50743889  0.63526254  1
  K  K3  1  0.36543724  0.21908497  0.13633669  1
  K  K4  1  0.61438571  0.78024838  0.89679954  1
  K  K5  1  0.70448571  0.46440387  0.34597780  1
  K  K6  1  0.86554568  0.26951355  0.61472225  1
  K  K7  1  0.83838965  0.02258906  0.16541694  1
  Li  Li8  1  0.09738624  0.75797596  0.70740348  1
  Li  Li9  1  0.09287735  0.47052779  0.20121470  1
  Li  Li10  1  0.30361287  0.48740555  0.92636473  1
  Li  Li11  1  0.18550155  0.99147336  0.57191155  1
  Li  Li12  1  0.40819866  0.26100097  0.79537568  1
  Li  Li13  1  0.60185105  0.02723564  0.69569366  1
  Li  Li14  1  0.58634492  0.73848773  0.19652097  1
  Li  Li15  1  0.68411761  0.51016592  0.06937225  1
  Li  Li16  1  0.76673535  0.01213449  0.42568995  1
  Li  Li17  1  0.90208384  0.53161371  0.80605823  1
  Cr  Cr18  1  0.16017694  0.70996418  0.05787858  1
  Cr  Cr19  1  0.68571837  0.77659205  0.56259058  1
  Cr  Cr20  1  0.82872390  0.28905871  0.93582428  1
  Cr  Cr21  1  0.29776830  0.21514906  0.43888892  1
  O  O22  1  0.09899657  0.32075429  0.84715191  1
  O  O23  1  0.13871452  0.69304206  0.87619426  1
  O  O24  1  0.08441703  0.05918146  0.40112943  1
  O  O25  1  0.19702600  0.40378117  0.39363074  1
  O  O26  1  0.36464537  0.19223169  0.61343290  1
  O  O27  1  0.35492483  0.88705556  0.09475303  1
  O  O28  1  0.41075890  0.82014749  0.62616281  1
  O  O29  1  0.36810605  0.54511013  0.12467981  1
  O  O30  1  0.61793434  0.45967275  0.88009597  1
  O  O31  1  0.57156623  0.18164470  0.38285912  1
  O  O32  1  0.67149259  0.10700427  0.86179437  1
  O  O33  1  0.66210589  0.78936224  0.39721231  1
  O  O34  1  0.83813176  0.60693903  0.62643210  1
  O  O35  1  0.88491981  0.93528462  0.63003619  1
  O  O36  1  0.85837438  0.32116777  0.10961868  1
  O  O37  1  0.89747326  0.67482953  0.14838472  1
