# generated using pymatgen
data_BaLa2Cl8
_symmetry_space_group_name_H-M   'P 1'
_cell_length_a   7.99346225
_cell_length_b   10.15721774
_cell_length_c   10.15721775
_cell_angle_alpha   98.90704320
_cell_angle_beta   113.17163414
_cell_angle_gamma   66.82836359
_symmetry_Int_Tables_number   1
_chemical_formula_structural   BaLa2Cl8
_chemical_formula_sum   'Ba2 La4 Cl16'
_cell_volume   696.99161774
_cell_formula_units_Z   2
loop_
 _symmetry_equiv_pos_site_id
 _symmetry_equiv_pos_as_xyz
  1  'x, y, z'
loop_
 _atom_site_type_symbol
 _atom_site_label
 _atom_site_symmetry_multiplicity
 _atom_site_fract_x
 _atom_site_fract_y
 _atom_site_fract_z
 _atom_site_occupancy
  Ba  Ba0  1  0.75000000  0.50000000  0.50000000  1
  Ba  Ba1  1  -0.00000000  -0.00000000  -0.00000000  1
  La  La2  1  0.31095001  0.92637978  0.65284872  1
  La  La3  1  0.34189871  0.34715128  0.92637978  1
  La  La4  1  0.76267021  0.65284872  0.07362022  1
  La  La5  1  0.58448108  0.07362022  0.34715128  1
  Cl  Cl6  1  0.33952999  0.81305343  0.90528622  1
  Cl  Cl7  1  0.14603300  0.52057914  0.69798696  1
  Cl  Cl8  1  0.33338886  0.69798696  0.47942086  1
  Cl  Cl9  1  0.54809808  0.78900291  0.26442181  1
  Cl  Cl10  1  0.91866867  0.92908705  0.58310675  1
  Cl  Cl11  1  0.07267917  0.21099709  0.73557819  1
  Cl  Cl12  1  0.71632273  0.73557819  0.78900291  1
  Cl  Cl13  1  0.15224428  0.58310675  0.07091295  1
  Cl  Cl14  1  0.26464797  0.07091295  0.41689325  1
  Cl  Cl15  1  0.84741658  0.90528622  0.18694657  1
  Cl  Cl16  1  0.66443808  0.41689325  0.92908705  1
  Cl  Cl17  1  0.56575623  0.09471378  0.81305343  1
  Cl  Cl18  1  0.24729720  0.18694657  0.09471378  1
  Cl  Cl19  1  0.55195397  0.30201304  0.52057914  1
  Cl  Cl20  1  0.96862418  0.47942086  0.30201304  1
  Cl  Cl21  1  0.66289902  0.26442181  0.21099709  1
