# generated using pymatgen
data_H3CO3
_symmetry_space_group_name_H-M   'P 1'
_cell_length_a   4.83016579
_cell_length_b   4.40180666
_cell_length_c   13.35093734
_cell_angle_alpha   90.00002329
_cell_angle_beta   103.00110471
_cell_angle_gamma   90.00001329
_symmetry_Int_Tables_number   1
_chemical_formula_structural   H3CO3
_chemical_formula_sum   'H12 C4 O12'
_cell_volume   276.58381211
_cell_formula_units_Z   4
loop_
 _symmetry_equiv_pos_site_id
 _symmetry_equiv_pos_as_xyz
  1  'x, y, z'
loop_
 _atom_site_type_symbol
 _atom_site_label
 _atom_site_symmetry_multiplicity
 _atom_site_fract_x
 _atom_site_fract_y
 _atom_site_fract_z
 _atom_site_occupancy
  H  H0  1  0.00079638  0.99244447  0.25487030  1
  H  H1  1  0.50079649  0.50755544  0.75487038  1
  H  H2  1  0.99920362  0.00755553  0.74512970  1
  H  H3  1  0.49920351  0.49244456  0.24512962  1
  H  H4  1  0.23761019  0.74948929  0.13616558  1
  H  H5  1  0.73761011  0.75051072  0.63616559  1
  H  H6  1  0.76238981  0.25051071  0.86383442  1
  H  H7  1  0.26238989  0.24948928  0.36383441  1
  H  H8  1  0.90603193  0.96398653  0.36330895  1
  H  H9  1  0.40603191  0.53601348  0.86330895  1
  H  H10  1  0.09396807  0.03601347  0.63669105  1
  H  H11  1  0.59396809  0.46398652  0.13669105  1
  C  C12  1  0.55183495  0.54977145  0.45149306  1
  C  C13  1  0.05183528  0.95022847  0.95149304  1
  C  C14  1  0.44816505  0.45022855  0.54850694  1
  C  C15  1  0.94816472  0.04977153  0.04850696  1
  O  O16  1  0.43992208  0.40094762  0.36678224  1
  O  O17  1  0.93992212  0.09905219  0.86678232  1
  O  O18  1  0.56007792  0.59905238  0.63321776  1
  O  O19  1  0.06007788  0.90094781  0.13321768  1
  O  O20  1  0.72836286  0.75278938  0.45632209  1
  O  O21  1  0.22836303  0.74721022  0.95632216  1
  O  O22  1  0.27163714  0.24721062  0.54367791  1
  O  O23  1  0.77163697  0.25278978  0.04367784  1
  O  O24  1  0.01132197  0.08720429  0.32271840  1
  O  O25  1  0.51132197  0.41279599  0.82271824  1
  O  O26  1  0.98867803  0.91279571  0.67728160  1
  O  O27  1  0.48867803  0.58720401  0.17728176  1
