# generated using pymatgen
data_LaFeO3
_symmetry_space_group_name_H-M   'P 1'
_cell_length_a   4.04615395
_cell_length_b   6.75993672
_cell_length_c   11.06507070
_cell_angle_alpha   89.99330377
_cell_angle_beta   89.99916683
_cell_angle_gamma   90.02750133
_symmetry_Int_Tables_number   1
_chemical_formula_structural   LaFeO3
_chemical_formula_sum   'La4 Fe4 O12'
_cell_volume   302.64895164
_cell_formula_units_Z   4
loop_
 _symmetry_equiv_pos_site_id
 _symmetry_equiv_pos_as_xyz
  1  'x, y, z'
loop_
 _atom_site_type_symbol
 _atom_site_label
 _atom_site_symmetry_multiplicity
 _atom_site_fract_x
 _atom_site_fract_y
 _atom_site_fract_z
 _atom_site_occupancy
  La  La0  1  0.50038184  0.00021458  -0.00000074  1
  La  La1  1  -0.00014653  0.49992318  -0.00015354  1
  La  La2  1  0.00039387  0.49977705  0.49989142  1
  La  La3  1  0.49974591  0.00014496  0.49988337  1
  Fe  Fe4  1  0.42610439  0.31128339  0.24990986  1
  Fe  Fe5  1  0.57386184  0.68855853  0.74984073  1
  Fe  Fe6  1  0.07460985  0.81126788  0.24992582  1
  Fe  Fe7  1  0.92393737  0.18909008  0.74994382  1
  O  O8  1  0.02364149  0.16586945  0.58383540  1
  O  O9  1  0.41714257  0.01565948  0.25016231  1
  O  O10  1  0.97670562  0.83443562  0.08371869  1
  O  O11  1  0.52382459  0.33409983  0.08361452  1
  O  O12  1  0.52388080  0.33400991  0.41632018  1
  O  O13  1  0.97641204  0.83444368  0.41632325  1
  O  O14  1  0.47615458  0.66554965  0.91631887  1
  O  O15  1  0.58269311  0.98405167  0.75023573  1
  O  O16  1  0.91713298  0.48472169  0.75017693  1
  O  O17  1  0.08318230  0.51558158  0.25018665  1
  O  O18  1  0.47667392  0.66547269  0.58357628  1
  O  O19  1  0.02366847  0.16584509  0.91629142  1
