# generated using pymatgen
data_Sr2CdWO6
_symmetry_space_group_name_H-M   'P 1'
_cell_length_a   5.89416678
_cell_length_b   5.95289967
_cell_length_c   8.34868128
_cell_angle_alpha   90.00000000
_cell_angle_beta   90.00000000
_cell_angle_gamma   90.00000000
_symmetry_Int_Tables_number   1
_chemical_formula_structural   Sr2CdWO6
_chemical_formula_sum   'Sr4 Cd2 W2 O12'
_cell_volume   292.93338162
_cell_formula_units_Z   2
loop_
 _symmetry_equiv_pos_site_id
 _symmetry_equiv_pos_as_xyz
  1  'x, y, z'
loop_
 _atom_site_type_symbol
 _atom_site_label
 _atom_site_symmetry_multiplicity
 _atom_site_fract_x
 _atom_site_fract_y
 _atom_site_fract_z
 _atom_site_occupancy
  Sr  Sr0  1  0.00000000  0.51568293  0.25431385  1
  Sr  Sr1  1  0.50000000  0.99028636  0.24856682  1
  Sr  Sr2  1  0.00000000  0.51568293  0.74568615  1
  Sr  Sr3  1  0.50000000  0.99028636  0.75143318  1
  Cd  Cd4  1  0.50000000  0.47149626  0.00000000  1
  Cd  Cd5  1  -0.00000000  0.99809223  0.50000000  1
  W  W6  1  -0.00000000  0.96779559  0.00000000  1
  W  W7  1  0.50000000  0.49106561  0.50000000  1
  O  O8  1  0.26876756  0.72512312  0.50000000  1
  O  O9  1  0.26468959  0.26284207  0.50000000  1
  O  O10  1  -0.00000000  0.95876876  0.23290409  1
  O  O11  1  -0.00000000  0.95876876  0.76709591  1
  O  O12  1  0.50000000  0.48526593  0.73246482  1
  O  O13  1  0.22296412  0.72412668  0.00000000  1
  O  O14  1  0.73123244  0.72512312  0.50000000  1
  O  O15  1  0.77703588  0.72412668  0.00000000  1
  O  O16  1  0.75531542  0.18367931  0.00000000  1
  O  O17  1  0.73531041  0.26284207  0.50000000  1
  O  O18  1  0.50000000  0.48526593  0.26753518  1
  O  O19  1  0.24468458  0.18367931  0.00000000  1
