# generated using pymatgen
data_H4CN2O
_symmetry_space_group_name_H-M   'P 1'
_cell_length_a   7.42530787
_cell_length_b   7.42530787
_cell_length_c   16.49971530
_cell_angle_alpha   90.00000000
_cell_angle_beta   90.00000000
_cell_angle_gamma   90.00000000
_symmetry_Int_Tables_number   1
_chemical_formula_structural   H4CN2O
_chemical_formula_sum   'H48 C12 N24 O12'
_cell_volume   909.71505292
_cell_formula_units_Z   12
loop_
 _symmetry_equiv_pos_site_id
 _symmetry_equiv_pos_as_xyz
  1  'x, y, z'
loop_
 _atom_site_type_symbol
 _atom_site_label
 _atom_site_symmetry_multiplicity
 _atom_site_fract_x
 _atom_site_fract_y
 _atom_site_fract_z
 _atom_site_occupancy
  H  H0  1  0.39661846  0.60687528  0.62131256  1
  H  H1  1  0.60338154  0.39312472  0.12131256  1
  H  H2  1  0.10687528  0.10338154  0.37131256  1
  H  H3  1  0.89312472  0.89661846  0.87131256  1
  H  H4  1  0.39312472  0.60338154  0.87868744  1
  H  H5  1  0.60687528  0.39661846  0.37868744  1
  H  H6  1  0.10338154  0.10687528  0.62868744  1
  H  H7  1  0.89661846  0.89312472  0.12868744  1
  H  H8  1  0.82766212  0.19382985  0.83822885  1
  H  H9  1  0.17233788  0.80617015  0.33822885  1
  H  H10  1  0.69382985  0.67233788  0.58822885  1
  H  H11  1  0.30617015  0.32766212  0.08822885  1
  H  H12  1  0.80617015  0.17233788  0.66177115  1
  H  H13  1  0.19382985  0.82766212  0.16177115  1
  H  H14  1  0.67233788  0.69382985  0.41177115  1
  H  H15  1  0.32766212  0.30617015  0.91177115  1
  H  H16  1  0.71905068  0.33474404  0.91202238  1
  H  H17  1  0.28094932  0.66525596  0.41202238  1
  H  H18  1  0.83474404  0.78094932  0.66202238  1
  H  H19  1  0.16525596  0.21905068  0.16202238  1
  H  H20  1  0.66525596  0.28094932  0.58797762  1
  H  H21  1  0.33474404  0.71905068  0.08797762  1
  H  H22  1  0.78094932  0.83474404  0.33797762  1
  H  H23  1  0.21905068  0.16525596  0.83797762  1
  H  H24  1  0.71614866  0.77709762  0.91469435  1
  H  H25  1  0.28385134  0.22290238  0.41469435  1
  H  H26  1  0.27709762  0.78385134  0.66469435  1
  H  H27  1  0.72290238  0.21614866  0.16469435  1
  H  H28  1  0.22290238  0.28385134  0.58530565  1
  H  H29  1  0.77709762  0.71614866  0.08530565  1
  H  H30  1  0.78385134  0.27709762  0.33530565  1
  H  H31  1  0.21614866  0.72290238  0.83530565  1
  H  H32  1  0.59980643  0.91609272  0.01498195  1
  H  H33  1  0.40019357  0.08390728  0.51498195  1
  H  H34  1  0.41609272  0.90019357  0.76498195  1
  H  H35  1  0.58390728  0.09980643  0.26498195  1
  H  H36  1  0.08390728  0.40019357  0.48501805  1
  H  H37  1  0.91609272  0.59980643  0.98501805  1
  H  H38  1  0.90019357  0.41609272  0.23501805  1
  H  H39  1  0.09980643  0.58390728  0.73501805  1
  H  H40  1  0.68087887  0.89590623  0.82555147  1
  H  H41  1  0.31912113  0.10409377  0.32555147  1
  H  H42  1  0.39590623  0.81912113  0.57555147  1
  H  H43  1  0.60409377  0.18087887  0.07555147  1
  H  H44  1  0.10409377  0.31912113  0.67444853  1
  H  H45  1  0.89590623  0.68087887  0.17444853  1
  H  H46  1  0.81912113  0.39590623  0.42444853  1
  H  H47  1  0.18087887  0.60409377  0.92444853  1
  C  C48  1  0.04084592  0.95915408  0.75000000  1
  C  C49  1  0.95915408  0.04084592  0.25000000  1
  C  C50  1  0.45915408  0.45915408  0.50000000  1
  C  C51  1  0.54084592  0.54084592  -0.00000000  1
  C  C52  1  0.71106998  0.05991394  0.93125981  1
  C  C53  1  0.28893002  0.94008606  0.43125981  1
  C  C54  1  0.55991394  0.78893002  0.68125981  1
  C  C55  1  0.44008606  0.21106998  0.18125981  1
  C  C56  1  0.94008606  0.28893002  0.56874019  1
  C  C57  1  0.05991394  0.71106998  0.06874019  1
  C  C58  1  0.78893002  0.55991394  0.31874019  1
  C  C59  1  0.21106998  0.44008606  0.81874019  1
  N  N60  1  0.62938764  0.04716929  0.00048500  1
  N  N61  1  0.37061236  0.95283071  0.50048500  1
  N  N62  1  0.54716929  0.87061236  0.75048500  1
  N  N63  1  0.45283071  0.12938764  0.25048500  1
  N  N64  1  0.95283071  0.37061236  0.49951500  1
  N  N65  1  0.04716929  0.62938764  0.99951500  1
  N  N66  1  0.87061236  0.54716929  0.24951500  1
  N  N67  1  0.12938764  0.45283071  0.74951500  1
  N  N68  1  0.76312328  0.21022953  0.89343231  1
  N  N69  1  0.23687672  0.78977047  0.39343231  1
  N  N70  1  0.71022953  0.73687672  0.64343231  1
  N  N71  1  0.28977047  0.26312328  0.14343231  1
  N  N72  1  0.78977047  0.23687672  0.60656769  1
  N  N73  1  0.21022953  0.76312328  0.10656769  1
  N  N74  1  0.73687672  0.71022953  0.35656769  1
  N  N75  1  0.26312328  0.28977047  0.85656769  1
  N  N76  1  0.75564392  0.89814239  0.88456673  1
  N  N77  1  0.24435608  0.10185761  0.38456673  1
  N  N78  1  0.39814239  0.74435608  0.63456673  1
  N  N79  1  0.60185761  0.25564392  0.13456673  1
  N  N80  1  0.10185761  0.24435608  0.61543327  1
  N  N81  1  0.89814239  0.75564392  0.11543327  1
  N  N82  1  0.74435608  0.39814239  0.36543327  1
  N  N83  1  0.25564392  0.60185761  0.86543327  1
  O  O84  1  0.12902317  0.92191047  0.81694010  1
  O  O85  1  0.87097683  0.07808953  0.31694010  1
  O  O86  1  0.42191047  0.37097683  0.56694010  1
  O  O87  1  0.57808953  0.62902317  0.06694010  1
  O  O88  1  0.07808953  0.87097683  0.68305990  1
  O  O89  1  0.92191047  0.12902317  0.18305990  1
  O  O90  1  0.37097683  0.42191047  0.43305990  1
  O  O91  1  0.62902317  0.57808953  0.93305990  1
  O  O92  1  0.91889390  0.08110610  0.75000000  1
  O  O93  1  0.08110610  0.91889390  0.25000000  1
  O  O94  1  0.58110610  0.58110610  0.50000000  1
  O  O95  1  0.41889390  0.41889390  -0.00000000  1
