# generated using pymatgen
data_MgPNO5
_symmetry_space_group_name_H-M   'P 1'
_cell_length_a   5.10665447
_cell_length_b   5.85074376
_cell_length_c   7.03399767
_cell_angle_alpha   90.00000000
_cell_angle_beta   90.00000000
_cell_angle_gamma   90.00000000
_symmetry_Int_Tables_number   1
_chemical_formula_structural   MgPNO5
_chemical_formula_sum   'Mg2 P2 N2 O10'
_cell_volume   210.15986052
_cell_formula_units_Z   2
loop_
 _symmetry_equiv_pos_site_id
 _symmetry_equiv_pos_as_xyz
  1  'x, y, z'
loop_
 _atom_site_type_symbol
 _atom_site_label
 _atom_site_symmetry_multiplicity
 _atom_site_fract_x
 _atom_site_fract_y
 _atom_site_fract_z
 _atom_site_occupancy
  Mg  Mg0  1  0.60405967  0.00000000  0.98297506  1
  Mg  Mg1  1  0.10405967  0.50000000  0.01702494  1
  P  P2  1  0.56319519  0.50000000  0.79306735  1
  P  P3  1  0.06319519  0.00000000  0.20693265  1
  N  N4  1  0.79223493  -0.00000000  0.54155000  1
  N  N5  1  0.29223493  0.50000000  0.45845000  1
  O  O6  1  0.85723957  0.50000000  0.80117056  1
  O  O7  1  0.35723957  -0.00000000  0.19882944  1
  O  O8  1  0.53490647  0.50000000  0.55465632  1
  O  O9  1  0.03490647  -0.00000000  0.44534368  1
  O  O10  1  0.42119023  0.70952809  0.87606454  1
  O  O11  1  0.42119023  0.29047191  0.87606454  1
  O  O12  1  0.92119023  0.79047191  0.12393546  1
  O  O13  1  0.92119023  0.20952809  0.12393546  1
  O  O14  1  0.83798371  0.00000000  0.70981298  1
  O  O15  1  0.33798371  0.50000000  0.29018702  1
