# generated using pymatgen
data_MnZn2SiO6
_symmetry_space_group_name_H-M   'P 1'
_cell_length_a   11.52788281
_cell_length_b   5.21982421
_cell_length_c   8.00120841
_cell_angle_alpha   90.00000000
_cell_angle_beta   81.33501186
_cell_angle_gamma   90.00000000
_symmetry_Int_Tables_number   1
_chemical_formula_structural   MnZn2SiO6
_chemical_formula_sum   'Mn4 Zn8 Si4 O24'
_cell_volume   475.96555798
_cell_formula_units_Z   4
loop_
 _symmetry_equiv_pos_site_id
 _symmetry_equiv_pos_as_xyz
  1  'x, y, z'
loop_
 _atom_site_type_symbol
 _atom_site_label
 _atom_site_symmetry_multiplicity
 _atom_site_fract_x
 _atom_site_fract_y
 _atom_site_fract_z
 _atom_site_occupancy
  Mn  Mn0  1  0.04023319  0.24309898  0.93622321  1
  Mn  Mn1  1  0.95976681  0.74309898  0.56377679  1
  Mn  Mn2  1  0.95976681  0.75690102  0.06377679  1
  Mn  Mn3  1  0.04023319  0.25690102  0.43622321  1
  Zn  Zn4  1  0.22805352  0.91320997  0.63433348  1
  Zn  Zn5  1  0.77194648  0.41320997  0.86566652  1
  Zn  Zn6  1  0.77194648  0.08679003  0.36566652  1
  Zn  Zn7  1  0.22805352  0.58679003  0.13433348  1
  Zn  Zn8  1  0.41992940  0.57789909  0.77800357  1
  Zn  Zn9  1  0.58007060  0.07789909  0.72199643  1
  Zn  Zn10  1  0.58007060  0.42210091  0.22199643  1
  Zn  Zn11  1  0.41992940  0.92210091  0.27800357  1
  Si  Si12  1  0.31740656  0.09212301  0.94879748  1
  Si  Si13  1  0.68259344  0.59212301  0.55120252  1
  Si  Si14  1  0.68259344  0.90787699  0.05120252  1
  Si  Si15  1  0.31740656  0.40787699  0.44879748  1
  O  O16  1  0.19835800  0.09250696  0.85455166  1
  O  O17  1  0.80164200  0.59250696  0.64544834  1
  O  O18  1  0.80164200  0.90749304  0.14544834  1
  O  O19  1  0.19835800  0.40749304  0.35455166  1
  O  O20  1  0.35548754  0.38790248  0.98319915  1
  O  O21  1  0.64451246  0.88790248  0.51680085  1
  O  O22  1  0.64451246  0.61209752  0.01680085  1
  O  O23  1  0.35548754  0.11209752  0.48319915  1
  O  O24  1  0.29705186  0.56882942  0.62645656  1
  O  O25  1  0.70294814  0.06882942  0.87354344  1
  O  O26  1  0.70294814  0.43117058  0.37354344  1
  O  O27  1  0.29705186  0.93117058  0.12645656  1
  O  O28  1  0.42338391  0.95262738  0.81814260  1
  O  O29  1  0.57661609  0.45262738  0.68185740  1
  O  O30  1  0.57661609  0.04737262  0.18185740  1
  O  O31  1  0.42338391  0.54737262  0.31814260  1
  O  O32  1  0.10041421  0.56304701  0.00157782  1
  O  O33  1  0.89958579  0.06304701  0.49842218  1
  O  O34  1  0.89958579  0.43695299  0.99842218  1
  O  O35  1  0.10041421  0.93695299  0.50157782  1
  O  O36  1  0.03024595  0.43650511  0.64084400  1
  O  O37  1  0.96975405  0.93650511  0.85915600  1
  O  O38  1  0.96975405  0.56349489  0.35915600  1
  O  O39  1  0.03024595  0.06349489  0.14084400  1
