# generated using pymatgen
data_BiCO3
_symmetry_space_group_name_H-M   'P 1'
_cell_length_a   6.97756967
_cell_length_b   5.21368502
_cell_length_c   8.63450172
_cell_angle_alpha   90.02580015
_cell_angle_beta   99.08810501
_cell_angle_gamma   90.62654400
_symmetry_Int_Tables_number   1
_chemical_formula_structural   BiCO3
_chemical_formula_sum   'Bi4 C4 O12'
_cell_volume   310.15076458
_cell_formula_units_Z   4
loop_
 _symmetry_equiv_pos_site_id
 _symmetry_equiv_pos_as_xyz
  1  'x, y, z'
loop_
 _atom_site_type_symbol
 _atom_site_label
 _atom_site_symmetry_multiplicity
 _atom_site_fract_x
 _atom_site_fract_y
 _atom_site_fract_z
 _atom_site_occupancy
  Bi  Bi0  1  0.29653449  0.25456910  0.84220115  1
  Bi  Bi1  1  0.13359437  0.75210514  0.33655417  1
  Bi  Bi2  1  0.86640563  0.24789486  0.66344583  1
  Bi  Bi3  1  0.70346551  0.74543090  0.15779885  1
  C  C4  1  0.16543064  0.25380883  0.22070338  1
  C  C5  1  0.34642015  0.76135638  0.72331583  1
  C  C6  1  0.65357985  0.23864362  0.27668417  1
  C  C7  1  0.83456936  0.74619117  0.77929662  1
  O  O8  1  0.19883909  0.46821456  0.15185535  1
  O  O9  1  0.19826528  0.03984843  0.15273128  1
  O  O10  1  0.10170005  0.25485403  0.35355851  1
  O  O11  1  0.30349543  0.76591354  0.86378025  1
  O  O12  1  0.36487045  0.54436906  0.65316546  1
  O  O13  1  0.36630972  0.97652440  0.65019416  1
  O  O14  1  0.63369028  0.02347560  0.34980584  1
  O  O15  1  0.63512955  0.45563094  0.34683454  1
  O  O16  1  0.69650457  0.23408646  0.13621975  1
  O  O17  1  0.89829995  0.74514597  0.64644149  1
  O  O18  1  0.80173472  0.96015157  0.84726872  1
  O  O19  1  0.80116091  0.53178544  0.84814465  1
