# generated using pymatgen
data_Cr3Pt
_symmetry_space_group_name_H-M   'P 1'
_cell_length_a   5.36343875
_cell_length_b   5.36343694
_cell_length_c   4.12203099
_cell_angle_alpha   90.00000000
_cell_angle_beta   90.00000000
_cell_angle_gamma   119.99999911
_symmetry_Int_Tables_number   1
_chemical_formula_structural   Cr3Pt
_chemical_formula_sum   'Cr6 Pt2'
_cell_volume   102.69005643
_cell_formula_units_Z   2
loop_
 _symmetry_equiv_pos_site_id
 _symmetry_equiv_pos_as_xyz
  1  'x, y, z'
loop_
 _atom_site_type_symbol
 _atom_site_label
 _atom_site_symmetry_multiplicity
 _atom_site_fract_x
 _atom_site_fract_y
 _atom_site_fract_z
 _atom_site_occupancy
  Cr  Cr0  1  0.15122283  0.30244566  0.25000000  1
  Cr  Cr1  1  0.69755334  0.84877717  0.25000000  1
  Cr  Cr2  1  0.15122383  0.84877717  0.25000000  1
  Cr  Cr3  1  0.84877717  0.69755534  0.74999900  1
  Cr  Cr4  1  0.30244466  0.15122383  0.74999900  1
  Cr  Cr5  1  0.84877717  0.15122383  0.74999900  1
  Pt  Pt6  1  0.33333400  0.66666800  0.74999900  1
  Pt  Pt7  1  0.66666600  0.33333300  0.25000000  1
