# generated using pymatgen
data_HfCo3
_symmetry_space_group_name_H-M   'P 1'
_cell_length_a   5.33410707
_cell_length_b   5.33393747
_cell_length_c   4.24098487
_cell_angle_alpha   90.00000000
_cell_angle_beta   90.00000000
_cell_angle_gamma   120.01194719
_symmetry_Int_Tables_number   1
_chemical_formula_structural   HfCo3
_chemical_formula_sum   'Hf2 Co6'
_cell_volume   104.48518307
_cell_formula_units_Z   2
loop_
 _symmetry_equiv_pos_site_id
 _symmetry_equiv_pos_as_xyz
  1  'x, y, z'
loop_
 _atom_site_type_symbol
 _atom_site_label
 _atom_site_symmetry_multiplicity
 _atom_site_fract_x
 _atom_site_fract_y
 _atom_site_fract_z
 _atom_site_occupancy
  Hf  Hf0  1  0.33327627  0.66673516  0.75000100  1
  Hf  Hf1  1  0.66669302  0.33328850  0.25000100  1
  Co  Co2  1  0.15505250  0.31002923  0.25000100  1
  Co  Co3  1  0.68995952  0.84494080  0.25000100  1
  Co  Co4  1  0.15507306  0.84492125  0.25000100  1
  Co  Co5  1  0.84491383  0.68987799  0.75000100  1
  Co  Co6  1  0.31012861  0.15509633  0.75000100  1
  Co  Co7  1  0.84490319  0.15511374  0.75000100  1
