# generated using pymatgen
data_TiV4Si3
_symmetry_space_group_name_H-M   'P 1'
_cell_length_a   4.71618706
_cell_length_b   7.14608065
_cell_length_c   7.14608065
_cell_angle_alpha   83.74869435
_cell_angle_beta   70.73218764
_cell_angle_gamma   70.73218764
_symmetry_Int_Tables_number   1
_chemical_formula_structural   TiV4Si3
_chemical_formula_sum   'Ti2 V8 Si6'
_cell_volume   214.61417196
_cell_formula_units_Z   2
loop_
 _symmetry_equiv_pos_site_id
 _symmetry_equiv_pos_as_xyz
  1  'x, y, z'
loop_
 _atom_site_type_symbol
 _atom_site_label
 _atom_site_symmetry_multiplicity
 _atom_site_fract_x
 _atom_site_fract_y
 _atom_site_fract_z
 _atom_site_occupancy
  Ti  Ti0  1  0.75000000  0.50000000  0.50000000  1
  Ti  Ti1  1  0.25000000  0.50000000  0.50000000  1
  V  V2  1  0.72010899  0.85187817  0.70790384  1
  V  V3  1  0.27989101  0.14812183  0.29209616  1
  V  V4  1  0.77989101  0.29209616  0.14812183  1
  V  V5  1  0.22010899  0.70790384  0.85187817  1
  V  V6  1  0.57198717  0.70790384  0.14812183  1
  V  V7  1  0.42801283  0.29209616  0.85187817  1
  V  V8  1  0.07198717  0.14812183  0.70790384  1
  V  V9  1  0.92801283  0.85187817  0.29209616  1
  Si  Si10  1  0.17028028  0.50000000  0.15943945  1
  Si  Si11  1  0.82971972  0.50000000  0.84056055  1
  Si  Si12  1  0.32971972  0.84056055  0.50000000  1
  Si  Si13  1  0.67028028  0.15943945  0.50000000  1
  Si  Si14  1  0.25000000  0.00000000  0.00000000  1
  Si  Si15  1  0.75000000  0.00000000  0.00000000  1
