# generated using pymatgen
data_Pb2OF2
_symmetry_space_group_name_H-M   'P 1'
_cell_length_a   5.79744727
_cell_length_b   8.35144247
_cell_length_c   8.35144247
_cell_angle_alpha   90.00000000
_cell_angle_beta   90.00000000
_cell_angle_gamma   90.00000000
_symmetry_Int_Tables_number   1
_chemical_formula_structural   Pb2OF2
_chemical_formula_sum   'Pb8 O4 F8'
_cell_volume   404.35218550
_cell_formula_units_Z   4
loop_
 _symmetry_equiv_pos_site_id
 _symmetry_equiv_pos_as_xyz
  1  'x, y, z'
loop_
 _atom_site_type_symbol
 _atom_site_label
 _atom_site_symmetry_multiplicity
 _atom_site_fract_x
 _atom_site_fract_y
 _atom_site_fract_z
 _atom_site_occupancy
  Pb  Pb0  1  0.79571094  0.00000000  0.74070573  1
  Pb  Pb1  1  0.20428906  0.25929427  0.00000000  1
  Pb  Pb2  1  0.79571094  0.00000000  0.25929427  1
  Pb  Pb3  1  0.20428906  0.74070573  0.00000000  1
  Pb  Pb4  1  0.68986368  0.50000000  0.76130944  1
  Pb  Pb5  1  0.31013632  0.23869056  0.50000000  1
  Pb  Pb6  1  0.68986368  0.50000000  0.23869056  1
  Pb  Pb7  1  0.31013632  0.76130944  0.50000000  1
  O  O8  1  0.00000000  0.00000000  0.00000000  1
  O  O9  1  0.50000000  0.50000000  0.50000000  1
  O  O10  1  0.47613564  0.50000000  0.00000000  1
  O  O11  1  0.52386436  0.00000000  0.50000000  1
  F  F12  1  -0.00000000  0.71933806  0.71933806  1
  F  F13  1  -0.00000000  0.28066194  0.71933806  1
  F  F14  1  0.00000000  0.28066194  0.28066194  1
  F  F15  1  0.00000000  0.71933806  0.28066194  1
  F  F16  1  0.50000000  0.79698549  0.79698549  1
  F  F17  1  0.50000000  0.20301451  0.79698549  1
  F  F18  1  0.50000000  0.20301451  0.20301451  1
  F  F19  1  0.50000000  0.79698549  0.20301451  1
