# generated using pymatgen
data_ZrCu3
_symmetry_space_group_name_H-M   'P 1'
_cell_length_a   5.65586835
_cell_length_b   5.65586794
_cell_length_c   4.24363439
_cell_angle_alpha   90.00000000
_cell_angle_beta   90.00000000
_cell_angle_gamma   120.00000243
_symmetry_Int_Tables_number   1
_chemical_formula_structural   ZrCu3
_chemical_formula_sum   'Zr2 Cu6'
_cell_volume   117.56204554
_cell_formula_units_Z   2
loop_
 _symmetry_equiv_pos_site_id
 _symmetry_equiv_pos_as_xyz
  1  'x, y, z'
loop_
 _atom_site_type_symbol
 _atom_site_label
 _atom_site_symmetry_multiplicity
 _atom_site_fract_x
 _atom_site_fract_y
 _atom_site_fract_z
 _atom_site_occupancy
  Zr  Zr0  1  0.33333300  0.66666700  0.75000200  1
  Zr  Zr1  1  0.66666700  0.33333300  0.25000000  1
  Cu  Cu2  1  0.15126900  0.30253699  0.25000000  1
  Cu  Cu3  1  0.69746101  0.84873000  0.25000000  1
  Cu  Cu4  1  0.15126900  0.84873000  0.25000000  1
  Cu  Cu5  1  0.84873200  0.69746301  0.75000200  1
  Cu  Cu6  1  0.30253899  0.15127000  0.75000200  1
  Cu  Cu7  1  0.84873000  0.15127000  0.75000200  1
