# generated using pymatgen
data_SbAu3
_symmetry_space_group_name_H-M   'P 1'
_cell_length_a   5.31190511
_cell_length_b   5.31190511
_cell_length_c   5.31190511
_cell_angle_alpha   132.49934436
_cell_angle_beta   132.49934436
_cell_angle_gamma   69.44150096
_symmetry_Int_Tables_number   1
_chemical_formula_structural   SbAu3
_chemical_formula_sum   'Sb1 Au3'
_cell_volume   79.93281951
_cell_formula_units_Z   1
loop_
 _symmetry_equiv_pos_site_id
 _symmetry_equiv_pos_as_xyz
  1  'x, y, z'
loop_
 _atom_site_type_symbol
 _atom_site_label
 _atom_site_symmetry_multiplicity
 _atom_site_fract_x
 _atom_site_fract_y
 _atom_site_fract_z
 _atom_site_occupancy
  Sb  Sb0  1  -0.00000000  -0.00000000  -0.00000000  1
  Au  Au1  1  0.74999900  0.25000100  0.49999800  1
  Au  Au2  1  0.25000100  0.74999900  0.49999800  1
  Au  Au3  1  0.50000000  0.50000000  -0.00000000  1
