# generated using pymatgen
data_Mg16Al12Bi
_symmetry_space_group_name_H-M   'P 1'
_cell_length_a   9.18474350
_cell_length_b   9.18474399
_cell_length_c   9.18474350
_cell_angle_alpha   109.47121886
_cell_angle_beta   109.47122330
_cell_angle_gamma   109.47121886
_symmetry_Int_Tables_number   1
_chemical_formula_structural   Mg16Al12Bi
_chemical_formula_sum   'Mg16 Al12 Bi1'
_cell_volume   596.45713033
_cell_formula_units_Z   1
loop_
 _symmetry_equiv_pos_site_id
 _symmetry_equiv_pos_as_xyz
  1  'x, y, z'
loop_
 _atom_site_type_symbol
 _atom_site_label
 _atom_site_symmetry_multiplicity
 _atom_site_fract_x
 _atom_site_fract_y
 _atom_site_fract_z
 _atom_site_occupancy
  Mg  Mg0  1  0.00000000  0.34868906  0.00000000  1
  Mg  Mg1  1  0.31488355  0.59863689  1.00000000  1
  Mg  Mg2  1  0.59863689  0.31488355  0.00000000  1
  Mg  Mg3  1  0.34868906  1.00000000  1.00000000  1
  Mg  Mg4  1  0.68511545  0.68511545  0.28375234  1
  Mg  Mg5  1  1.00000000  0.59863689  0.31488355  1
  Mg  Mg6  1  0.59863689  0.00000000  0.31488455  1
  Mg  Mg7  1  1.00000000  1.00000000  0.34868906  1
  Mg  Mg8  1  0.40136411  0.71624766  0.40136411  1
  Mg  Mg9  1  0.71624866  0.40136411  0.40136411  1
  Mg  Mg10  1  0.00000000  0.31488355  0.59863689  1
  Mg  Mg11  1  0.31488455  0.00000000  0.59863689  1
  Mg  Mg12  1  0.65130994  0.65130994  0.65130994  1
  Mg  Mg13  1  0.28375234  0.68511545  0.68511545  1
  Mg  Mg14  1  0.68511545  0.28375234  0.68511545  1
  Mg  Mg15  1  0.40136411  0.40136411  0.71624866  1
  Al  Al16  1  0.81196988  0.62732130  1.00000000  1
  Al  Al17  1  0.62732130  0.81196888  1.00000000  1
  Al  Al18  1  0.37267970  0.37267970  0.18464759  1
  Al  Al19  1  0.18803012  0.81535041  0.18803012  1
  Al  Al20  1  0.81535041  0.18803012  0.18803012  1
  Al  Al21  1  0.37267870  0.18464859  0.37267870  1
  Al  Al22  1  0.18464759  0.37267970  0.37267970  1
  Al  Al23  1  0.81196988  0.00000000  0.62732130  1
  Al  Al24  1  1.00000000  0.81196888  0.62732130  1
  Al  Al25  1  0.62732130  0.00000000  0.81196988  1
  Al  Al26  1  1.00000000  0.62732130  0.81196988  1
  Al  Al27  1  0.18803012  0.18803012  0.81535041  1
  Bi  Bi28  1  -0.00000000  -0.00000000  -0.00000000  1
