# generated using pymatgen
data_Na3Zn
_symmetry_space_group_name_H-M   'P 1'
_cell_length_a   7.04579389
_cell_length_b   7.04579354
_cell_length_c   5.44558282
_cell_angle_alpha   90.00000000
_cell_angle_beta   90.00000000
_cell_angle_gamma   119.99999673
_symmetry_Int_Tables_number   1
_chemical_formula_structural   Na3Zn
_chemical_formula_sum   'Na6 Zn2'
_cell_volume   234.11803002
_cell_formula_units_Z   2
loop_
 _symmetry_equiv_pos_site_id
 _symmetry_equiv_pos_as_xyz
  1  'x, y, z'
loop_
 _atom_site_type_symbol
 _atom_site_label
 _atom_site_symmetry_multiplicity
 _atom_site_fract_x
 _atom_site_fract_y
 _atom_site_fract_z
 _atom_site_occupancy
  Na  Na0  1  0.17310778  0.34621656  0.25000100  1
  Na  Na1  1  0.65378444  0.82689322  0.25000100  1
  Na  Na2  1  0.17310878  0.82689322  0.25000100  1
  Na  Na3  1  0.82689322  0.65378344  0.75000000  1
  Na  Na4  1  0.34621756  0.17310878  0.75000000  1
  Na  Na5  1  0.82689222  0.17310878  0.75000000  1
  Zn  Zn6  1  0.33333300  0.66666600  0.75000000  1
  Zn  Zn7  1  0.66666600  0.33333200  0.25000100  1
