# generated using pymatgen
data_RbTmS2O9
_symmetry_space_group_name_H-M   'P 1'
_cell_length_a   8.51484213
_cell_length_b   10.63305371
_cell_length_c   10.09954145
_cell_angle_alpha   120.29121604
_cell_angle_beta   90.00000000
_cell_angle_gamma   90.00000000
_symmetry_Int_Tables_number   1
_chemical_formula_structural   RbTmS2O9
_chemical_formula_sum   'Rb4 Tm4 S8 O36'
_cell_volume   789.55969479
_cell_formula_units_Z   4
loop_
 _symmetry_equiv_pos_site_id
 _symmetry_equiv_pos_as_xyz
  1  'x, y, z'
loop_
 _atom_site_type_symbol
 _atom_site_label
 _atom_site_symmetry_multiplicity
 _atom_site_fract_x
 _atom_site_fract_y
 _atom_site_fract_z
 _atom_site_occupancy
  Rb  Rb0  1  0.33922388  0.67727130  0.95767057  1
  Rb  Rb1  1  0.66077612  0.32272870  0.04232943  1
  Rb  Rb2  1  0.83922388  0.82272870  0.54232943  1
  Rb  Rb3  1  0.16077612  0.17727130  0.45767057  1
  Tm  Tm4  1  0.37307797  0.97007376  0.71818048  1
  Tm  Tm5  1  0.62692203  0.02992624  0.28181952  1
  Tm  Tm6  1  0.87307797  0.52992624  0.78181952  1
  Tm  Tm7  1  0.12692203  0.47007376  0.21818048  1
  S  S8  1  0.13154225  0.31473068  0.87719875  1
  S  S9  1  0.86845775  0.68526932  0.12280125  1
  S  S10  1  0.63154225  0.18526932  0.62280125  1
  S  S11  1  0.36845775  0.81473068  0.37719875  1
  S  S12  1  0.19653397  0.61212249  0.59853743  1
  S  S13  1  0.80346603  0.38787751  0.40146257  1
  S  S14  1  0.69653397  0.88787751  0.90146257  1
  S  S15  1  0.30346603  0.11212249  0.09853743  1
  O  O16  1  0.79687310  0.01926564  0.97138333  1
  O  O17  1  0.20312690  0.98073436  0.02861667  1
  O  O18  1  0.29687310  0.48073436  0.52861667  1
  O  O19  1  0.70312690  0.51926564  0.47138333  1
  O  O20  1  0.20385661  0.17480816  0.76343772  1
  O  O21  1  0.79614339  0.82519184  0.23656228  1
  O  O22  1  0.70385661  0.32519184  0.73656228  1
  O  O23  1  0.29614339  0.67480816  0.26343772  1
  O  O24  1  0.29684998  0.74638964  0.68271063  1
  O  O25  1  0.70315002  0.25361036  0.31728937  1
  O  O26  1  0.79684998  0.75361036  0.81728937  1
  O  O27  1  0.20315002  0.24638964  0.18271063  1
  O  O28  1  0.39544315  0.12155454  0.97844748  1
  O  O29  1  0.60455685  0.87844546  0.02155252  1
  O  O30  1  0.89544315  0.37844546  0.52155252  1
  O  O31  1  0.10455685  0.62155454  0.47844748  1
  O  O32  1  0.12387814  0.93859293  0.77821388  1
  O  O33  1  0.87612186  0.06140707  0.22178612  1
  O  O34  1  0.62387814  0.56140707  0.72178612  1
  O  O35  1  0.37612186  0.43859293  0.27821388  1
  O  O36  1  0.25219686  0.41757496  0.98782909  1
  O  O37  1  0.74780314  0.58242504  0.01217091  1
  O  O38  1  0.75219686  0.08242504  0.51217091  1
  O  O39  1  0.24780314  0.91757496  0.48782909  1
  O  O40  1  0.01120001  0.30038900  0.97573159  1
  O  O41  1  0.98879999  0.69961100  0.02426841  1
  O  O42  1  0.51120001  0.19961100  0.52426841  1
  O  O43  1  0.48879999  0.80038900  0.47573159  1
  O  O44  1  0.06001288  0.38038099  0.79072556  1
  O  O45  1  0.93998712  0.61961901  0.20927444  1
  O  O46  1  0.56001288  0.11961901  0.70927444  1
  O  O47  1  0.43998712  0.88038099  0.29072556  1
  O  O48  1  0.59150680  0.88979083  0.78569862  1
  O  O49  1  0.40849320  0.11020917  0.21430138  1
  O  O50  1  0.09150680  0.61020917  0.71430138  1
  O  O51  1  0.90849320  0.38979083  0.28569862  1
