# generated using pymatgen
data_Al(HO)3
_symmetry_space_group_name_H-M   'P 1'
_cell_length_a   5.03390223
_cell_length_b   5.01923720
_cell_length_c   7.04835513
_cell_angle_alpha   90.00000000
_cell_angle_beta   90.00000000
_cell_angle_gamma   90.00000000
_symmetry_Int_Tables_number   1
_chemical_formula_structural   Al(HO)3
_chemical_formula_sum   'Al4 H12 O12'
_cell_volume   178.08620294
_cell_formula_units_Z   4
loop_
 _symmetry_equiv_pos_site_id
 _symmetry_equiv_pos_as_xyz
  1  'x, y, z'
loop_
 _atom_site_type_symbol
 _atom_site_label
 _atom_site_symmetry_multiplicity
 _atom_site_fract_x
 _atom_site_fract_y
 _atom_site_fract_z
 _atom_site_occupancy
  Al  Al0  1  -0.00000000  0.00000000  -0.00000000  1
  Al  Al1  1  0.50000000  0.50000000  0.50000000  1
  Al  Al2  1  -0.00000000  0.00000000  0.50000000  1
  Al  Al3  1  0.50000000  0.50000000  -0.00000000  1
  H  H4  1  0.29378669  0.26343782  0.25000000  1
  H  H5  1  0.20621331  0.76343782  0.25000000  1
  H  H6  1  0.70621331  0.73656218  0.75000000  1
  H  H7  1  0.79378669  0.23656218  0.75000000  1
  H  H8  1  0.50000000  0.00000000  0.50000000  1
  H  H9  1  0.00000000  0.50000000  -0.00000000  1
  H  H10  1  0.50000000  0.00000000  -0.00000000  1
  H  H11  1  0.00000000  0.50000000  0.50000000  1
  H  H12  1  0.85274260  0.34862808  0.25000000  1
  H  H13  1  0.64725740  0.84862808  0.25000000  1
  H  H14  1  0.14725740  0.65137192  0.75000000  1
  H  H15  1  0.35274260  0.15137192  0.75000000  1
  O  O16  1  0.37616734  0.44261537  0.25000000  1
  O  O17  1  0.12383266  0.94261537  0.25000000  1
  O  O18  1  0.62383266  0.55738463  0.75000000  1
  O  O19  1  0.87616734  0.05738463  0.75000000  1
  O  O20  1  0.84864602  0.33830860  0.42656046  1
  O  O21  1  0.65135398  0.83830860  0.07343954  1
  O  O22  1  0.15135398  0.66169140  0.92656046  1
  O  O23  1  0.34864602  0.16169140  0.57343954  1
  O  O24  1  0.15135398  0.66169140  0.57343954  1
  O  O25  1  0.34864602  0.16169140  0.92656046  1
  O  O26  1  0.84864602  0.33830860  0.07343954  1
  O  O27  1  0.65135398  0.83830860  0.42656046  1
