# generated using pymatgen
data_Nd5Cu5O13
_symmetry_space_group_name_H-M   'P 1'
_cell_length_a   3.84155651
_cell_length_b   8.50284875
_cell_length_c   8.45847538
_cell_angle_alpha   90.27533905
_cell_angle_beta   90.00000000
_cell_angle_gamma   90.00000000
_symmetry_Int_Tables_number   1
_chemical_formula_structural   Nd5Cu5O13
_chemical_formula_sum   'Nd5 Cu5 O13'
_cell_volume   276.28592108
_cell_formula_units_Z   1
loop_
 _symmetry_equiv_pos_site_id
 _symmetry_equiv_pos_as_xyz
  1  'x, y, z'
loop_
 _atom_site_type_symbol
 _atom_site_label
 _atom_site_symmetry_multiplicity
 _atom_site_fract_x
 _atom_site_fract_y
 _atom_site_fract_z
 _atom_site_occupancy
  Nd  Nd0  1  0.50000000  0.50000000  0.50000000  1
  Nd  Nd1  1  0.50000000  0.73005966  0.14313597  1
  Nd  Nd2  1  0.50000000  0.26994034  0.85686403  1
  Nd  Nd3  1  0.50000000  0.14614170  0.26694287  1
  Nd  Nd4  1  0.50000000  0.85385830  0.73305713  1
  Cu  Cu5  1  -0.00000000  0.00000000  0.00000000  1
  Cu  Cu6  1  0.00000000  0.42734686  0.15911688  1
  Cu  Cu7  1  -0.00000000  0.57265314  0.84088312  1
  Cu  Cu8  1  -0.00000000  0.83411011  0.42933001  1
  Cu  Cu9  1  -0.00000000  0.16588989  0.57066999  1
  O  O10  1  0.00000000  0.23211680  0.04961118  1
  O  O11  1  -0.00000000  0.76788320  0.95038882  1
  O  O12  1  0.00000000  0.29702532  0.38932261  1
  O  O13  1  0.00000000  0.70297468  0.61067739  1
  O  O14  1  0.00000000  0.61075933  0.28713045  1
  O  O15  1  0.00000000  0.38924067  0.71286955  1
  O  O16  1  0.00000000  0.95289863  0.23932157  1
  O  O17  1  -0.00000000  0.04710137  0.76067843  1
  O  O18  1  0.50000000  0.42452116  0.17131259  1
  O  O19  1  0.50000000  0.57547884  0.82868741  1
  O  O20  1  0.50000000  0.81470907  0.42981343  1
  O  O21  1  0.50000000  0.18529093  0.57018657  1
  O  O22  1  0.50000000  -0.00000000  0.00000000  1
