# generated using pymatgen
data_ScH4(SO5)2
_symmetry_space_group_name_H-M   'P 1'
_cell_length_a   8.76019719
_cell_length_b   9.53064453
_cell_length_c   10.77599897
_cell_angle_alpha   90.00000000
_cell_angle_beta   90.00000000
_cell_angle_gamma   101.66892928
_symmetry_Int_Tables_number   1
_chemical_formula_structural   ScH4(SO5)2
_chemical_formula_sum   'Sc4 H16 S8 O40'
_cell_volume   881.09740569
_cell_formula_units_Z   4
loop_
 _symmetry_equiv_pos_site_id
 _symmetry_equiv_pos_as_xyz
  1  'x, y, z'
loop_
 _atom_site_type_symbol
 _atom_site_label
 _atom_site_symmetry_multiplicity
 _atom_site_fract_x
 _atom_site_fract_y
 _atom_site_fract_z
 _atom_site_occupancy
  Sc  Sc0  1  0.75437067  0.49667467  0.12560918  1
  Sc  Sc1  1  0.74562933  0.50332533  0.62560918  1
  Sc  Sc2  1  0.24562933  0.50332533  0.87439082  1
  Sc  Sc3  1  0.25437067  0.49667467  0.37439082  1
  H  H4  1  0.98650649  0.95776513  0.16795266  1
  H  H5  1  0.51349351  0.04223487  0.66795266  1
  H  H6  1  0.01349351  0.04223487  0.83204734  1
  H  H7  1  0.48650649  0.95776513  0.33204734  1
  H  H8  1  0.91756754  0.07218885  0.24846568  1
  H  H9  1  0.58243246  0.92781115  0.74846568  1
  H  H10  1  0.08243246  0.92781115  0.75153432  1
  H  H11  1  0.41756754  0.07218885  0.25153432  1
  H  H12  1  0.71684810  0.10375844  0.05887906  1
  H  H13  1  0.78315190  0.89624156  0.55887906  1
  H  H14  1  0.28315190  0.89624156  0.94112094  1
  H  H15  1  0.21684810  0.10375844  0.44112094  1
  H  H16  1  0.66133740  0.94178418  0.01753346  1
  H  H17  1  0.83866260  0.05821582  0.51753346  1
  H  H18  1  0.33866260  0.05821582  0.98246654  1
  H  H19  1  0.16133740  0.94178418  0.48246654  1
  S  S20  1  0.14031617  0.68117891  0.12640570  1
  S  S21  1  0.35968383  0.31882109  0.62640570  1
  S  S22  1  0.85968383  0.31882109  0.87359430  1
  S  S23  1  0.64031617  0.68117891  0.37359430  1
  S  S24  1  0.36011901  0.32150507  0.12303474  1
  S  S25  1  0.13988099  0.67849493  0.62303474  1
  S  S26  1  0.63988099  0.67849493  0.87696526  1
  S  S27  1  0.86011901  0.32150507  0.37696526  1
  O  O28  1  0.98914734  0.57633681  0.12417327  1
  O  O29  1  0.51085266  0.42366319  0.62417327  1
  O  O30  1  0.01085266  0.42366319  0.87582673  1
  O  O31  1  0.48914734  0.57633681  0.37582673  1
  O  O32  1  0.22663457  0.66209998  0.00916596  1
  O  O33  1  0.27336543  0.33790002  0.50916596  1
  O  O34  1  0.77336543  0.33790002  0.99083404  1
  O  O35  1  0.72663457  0.66209998  0.49083404  1
  O  O36  1  0.12174152  0.82866135  0.13577428  1
  O  O37  1  0.37825848  0.17133865  0.63577428  1
  O  O38  1  0.87825848  0.17133865  0.86422572  1
  O  O39  1  0.62174152  0.82866135  0.36422572  1
  O  O40  1  0.23360406  0.64310407  0.23283950  1
  O  O41  1  0.26639594  0.35689593  0.73283950  1
  O  O42  1  0.76639594  0.35689593  0.76716050  1
  O  O43  1  0.73360406  0.64310407  0.26716050  1
  O  O44  1  0.51496432  0.41992830  0.12443058  1
  O  O45  1  0.98503568  0.58007170  0.62443058  1
  O  O46  1  0.48503568  0.58007170  0.87556942  1
  O  O47  1  0.01496432  0.41992830  0.37556942  1
  O  O48  1  0.37407878  0.17083633  0.11403571  1
  O  O49  1  0.12592122  0.82916367  0.61403571  1
  O  O50  1  0.62592122  0.82916367  0.88596429  1
  O  O51  1  0.87407878  0.17083633  0.38596429  1
  O  O52  1  0.27563230  0.34256292  0.23937064  1
  O  O53  1  0.22436770  0.65743708  0.73937064  1
  O  O54  1  0.72436770  0.65743708  0.76062936  1
  O  O55  1  0.77563230  0.34256292  0.26062936  1
  O  O56  1  0.26895260  0.35867122  0.01570323  1
  O  O57  1  0.23104740  0.64132878  0.51570323  1
  O  O58  1  0.73104740  0.64132878  0.98429677  1
  O  O59  1  0.76895260  0.35867122  0.48429677  1
  O  O60  1  0.94485115  0.04707908  0.16274258  1
  O  O61  1  0.55514885  0.95292092  0.66274258  1
  O  O62  1  0.05514885  0.95292092  0.83725742  1
  O  O63  1  0.44485115  0.04707908  0.33725742  1
  O  O64  1  0.65979025  0.00962901  0.08807801  1
  O  O65  1  0.84020975  0.99037099  0.58807801  1
  O  O66  1  0.34020975  0.99037099  0.91192199  1
  O  O67  1  0.15979025  0.00962901  0.41192199  1
