# generated using pymatgen
data_V(MoS2)2
_symmetry_space_group_name_H-M   'P 1'
_cell_length_a   6.49474721
_cell_length_b   6.86694197
_cell_length_c   12.10763174
_cell_angle_alpha   85.62578661
_cell_angle_beta   74.44229298
_cell_angle_gamma   61.77732829
_symmetry_Int_Tables_number   1
_chemical_formula_structural   V(MoS2)2
_chemical_formula_sum   'V4 Mo8 S16'
_cell_volume   457.54639518
_cell_formula_units_Z   4
loop_
 _symmetry_equiv_pos_site_id
 _symmetry_equiv_pos_as_xyz
  1  'x, y, z'
loop_
 _atom_site_type_symbol
 _atom_site_label
 _atom_site_symmetry_multiplicity
 _atom_site_fract_x
 _atom_site_fract_y
 _atom_site_fract_z
 _atom_site_occupancy
  V  V0  1  0.01591077  0.26675478  0.44988784  1
  V  V1  1  0.76744661  0.76675478  0.94988784  1
  V  V2  1  0.25691290  0.78574033  0.94845056  1
  V  V3  1  0.50889621  0.28574033  0.44845056  1
  Mo  Mo4  1  0.42572634  0.22721565  0.70664719  1
  Mo  Mo5  1  0.14041082  0.72721565  0.20664719  1
  Mo  Mo6  1  0.84607347  0.82627363  0.69177983  1
  Mo  Mo7  1  0.13587306  0.32627363  0.19177983  1
  Mo  Mo8  1  0.37649288  0.83953305  0.69056859  1
  Mo  Mo9  1  0.59340549  0.33953305  0.19056859  1
  Mo  Mo10  1  0.89436308  0.21413772  0.70794411  1
  Mo  Mo11  1  0.68355509  0.71413772  0.20794411  1
  S  S12  1  0.62650469  0.95142866  0.54997087  1
  S  S13  1  0.37209578  0.45142866  0.04997087  1
  S  S14  1  0.64459922  0.10162964  0.84856380  1
  S  S15  1  0.90520734  0.60162964  0.34856380  1
  S  S16  1  0.16354473  0.62153138  0.80782577  1
  S  S17  1  0.90709812  0.12153138  0.30782577  1
  S  S18  1  0.11041558  0.43140347  0.59001236  1
  S  S19  1  0.36816859  0.93140347  0.09001236  1
  S  S20  1  0.65687585  0.60926067  0.81353678  1
  S  S21  1  0.42032670  0.10926067  0.31353678  1
  S  S22  1  0.61524686  0.44433816  0.58531392  1
  S  S23  1  0.85510105  0.94433816  0.08531392  1
  S  S24  1  0.12644907  0.93034140  0.55879668  1
  S  S25  1  0.88441284  0.43034140  0.05879668  1
  S  S26  1  0.14478123  0.12341145  0.83970168  1
  S  S27  1  0.39210564  0.62341145  0.33970168  1
