# generated using pymatgen
data_Dy2Mn3Cu9P7
_symmetry_space_group_name_H-M   'P 1'
_cell_length_a   3.75366209
_cell_length_b   9.46731941
_cell_length_c   9.46824707
_cell_angle_alpha   119.97704167
_cell_angle_beta   90.00000000
_cell_angle_gamma   90.00000000
_symmetry_Int_Tables_number   1
_chemical_formula_structural   Dy2Mn3Cu9P7
_chemical_formula_sum   'Dy2 Mn3 Cu9 P7'
_cell_volume   291.46260501
_cell_formula_units_Z   1
loop_
 _symmetry_equiv_pos_site_id
 _symmetry_equiv_pos_as_xyz
  1  'x, y, z'
loop_
 _atom_site_type_symbol
 _atom_site_label
 _atom_site_symmetry_multiplicity
 _atom_site_fract_x
 _atom_site_fract_y
 _atom_site_fract_z
 _atom_site_occupancy
  Dy  Dy0  1  -0.00000000  0.66653810  0.33311085  1
  Dy  Dy1  1  0.50000000  0.33334357  0.66669238  1
  Mn  Mn2  1  0.50000000  0.13351529  0.91240425  1
  Mn  Mn3  1  0.50000000  0.08761857  0.22100532  1
  Mn  Mn4  1  0.50000000  0.77893130  0.86668682  1
  Cu  Cu5  1  -0.00000000  0.38049068  0.95341274  1
  Cu  Cu6  1  0.00000000  0.04647891  0.42707630  1
  Cu  Cu7  1  0.00000000  0.57289879  0.61945025  1
  Cu  Cu8  1  0.00000000  0.88653722  0.72044764  1
  Cu  Cu9  1  -0.00000000  0.27945125  0.16610043  1
  Cu  Cu10  1  0.00000000  0.83390500  0.11330638  1
  Cu  Cu11  1  0.50000000  0.95977262  0.57084074  1
  Cu  Cu12  1  0.50000000  0.42912656  0.38887075  1
  Cu  Cu13  1  0.50000000  0.61114437  0.04025767  1
  P  P14  1  0.00000000  0.12980641  0.71455050  1
  P  P15  1  0.00000000  0.28555838  0.41548484  1
  P  P16  1  0.00000000  0.58466685  0.87027826  1
  P  P17  1  0.50000000  0.71018920  0.58556534  1
  P  P18  1  0.50000000  0.41443327  0.12461754  1
  P  P19  1  0.50000000  0.87543953  0.28982420  1
  P  P20  1  0.00000000  0.00015413  0.00001680  1
