# generated using pymatgen
data_RbSb3S5O
_symmetry_space_group_name_H-M   'P 1'
_cell_length_a   5.97201971
_cell_length_b   9.11892507
_cell_length_c   10.99930183
_cell_angle_alpha   76.63692662
_cell_angle_beta   86.36977464
_cell_angle_gamma   83.24784313
_symmetry_Int_Tables_number   1
_chemical_formula_structural   RbSb3S5O
_chemical_formula_sum   'Rb2 Sb6 S10 O2'
_cell_volume   578.33908887
_cell_formula_units_Z   2
loop_
 _symmetry_equiv_pos_site_id
 _symmetry_equiv_pos_as_xyz
  1  'x, y, z'
loop_
 _atom_site_type_symbol
 _atom_site_label
 _atom_site_symmetry_multiplicity
 _atom_site_fract_x
 _atom_site_fract_y
 _atom_site_fract_z
 _atom_site_occupancy
  Rb  Rb0  1  0.78747016  0.86686388  0.15854774  1
  Rb  Rb1  1  0.21252984  0.13313612  0.84145226  1
  Sb  Sb2  1  0.71562417  0.34227525  0.46382086  1
  Sb  Sb3  1  0.28437583  0.65772475  0.53617914  1
  Sb  Sb4  1  0.29644062  0.47986604  0.12535510  1
  Sb  Sb5  1  0.70355938  0.52013396  0.87464490  1
  Sb  Sb6  1  0.28336284  0.08181248  0.36792130  1
  Sb  Sb7  1  0.71663716  0.91818752  0.63207870  1
  S  S8  1  0.69330668  0.08693516  0.37638465  1
  S  S9  1  0.30669332  0.91306484  0.62361535  1
  S  S10  1  0.70468369  0.48008749  0.11468058  1
  S  S11  1  0.29531631  0.51991251  0.88531942  1
  S  S12  1  0.31511300  0.41480585  0.42236056  1
  S  S13  1  0.68488700  0.58519415  0.57763944  1
  S  S14  1  0.32387861  0.19287838  0.11720196  1
  S  S15  1  0.67612139  0.80712162  0.88279804  1
  S  S16  1  0.29637021  0.82419500  0.31876353  1
  S  S17  1  0.70362979  0.17580500  0.68123647  1
  O  O18  1  0.55316287  0.15591108  0.05221605  1
  O  O19  1  0.44683713  0.84408892  0.94778395  1
