# generated using pymatgen
data_Hg3(ClO5)2
_symmetry_space_group_name_H-M   'P 1'
_cell_length_a   5.18534475
_cell_length_b   9.64909120
_cell_length_c   11.48580428
_cell_angle_alpha   93.35256733
_cell_angle_beta   90.00000000
_cell_angle_gamma   105.58668924
_symmetry_Int_Tables_number   1
_chemical_formula_structural   Hg3(ClO5)2
_chemical_formula_sum   'Hg6 Cl4 O20'
_cell_volume   552.52422207
_cell_formula_units_Z   2
loop_
 _symmetry_equiv_pos_site_id
 _symmetry_equiv_pos_as_xyz
  1  'x, y, z'
loop_
 _atom_site_type_symbol
 _atom_site_label
 _atom_site_symmetry_multiplicity
 _atom_site_fract_x
 _atom_site_fract_y
 _atom_site_fract_z
 _atom_site_occupancy
  Hg  Hg0  1  0.08751309  0.13928955  0.51501932  1
  Hg  Hg1  1  0.94822353  0.86071045  0.98498068  1
  Hg  Hg2  1  0.91248691  0.86071045  0.48498068  1
  Hg  Hg3  1  0.05177647  0.13928955  0.01501932  1
  Hg  Hg4  1  -0.00000000  0.50000000  0.50000000  1
  Hg  Hg5  1  0.50000000  0.50000000  -0.00000000  1
  Cl  Cl6  1  0.55748996  0.25578897  0.27104042  1
  Cl  Cl7  1  0.30170099  0.74421103  0.22895958  1
  Cl  Cl8  1  0.44251004  0.74421103  0.72895958  1
  Cl  Cl9  1  0.69829901  0.25578897  0.77104042  1
  O  O10  1  0.78548136  0.63193649  0.46190986  1
  O  O11  1  0.15354487  0.36806351  0.03809014  1
  O  O12  1  0.21451864  0.36806351  0.53809014  1
  O  O13  1  0.84645513  0.63193649  0.96190986  1
  O  O14  1  0.70649035  0.39985901  0.24061308  1
  O  O15  1  0.30663134  0.60014099  0.25938692  1
  O  O16  1  0.29350965  0.60014099  0.75938692  1
  O  O17  1  0.69336866  0.39985901  0.74061308  1
  O  O18  1  0.27089542  0.24726065  0.27885668  1
  O  O19  1  0.02363477  0.75273935  0.22114332  1
  O  O20  1  0.72910458  0.75273935  0.72114332  1
  O  O21  1  0.97636523  0.24726065  0.77885668  1
  O  O22  1  0.59244652  0.14924787  0.18058863  1
  O  O23  1  0.44319866  0.85075213  0.31941137  1
  O  O24  1  0.40755348  0.85075213  0.81941137  1
  O  O25  1  0.55680134  0.14924787  0.68058863  1
  O  O26  1  0.65182356  0.22472973  0.38421091  1
  O  O27  1  0.42709383  0.77527027  0.11578909  1
  O  O28  1  0.34817644  0.77527027  0.61578909  1
  O  O29  1  0.57290617  0.22472973  0.88421091  1
