# generated using pymatgen
data_Ba(CO2)2
_symmetry_space_group_name_H-M   'P 1'
_cell_length_a   5.01494568
_cell_length_b   9.56923551
_cell_length_c   8.94637214
_cell_angle_alpha   88.06310825
_cell_angle_beta   85.44149156
_cell_angle_gamma   78.78714441
_symmetry_Int_Tables_number   1
_chemical_formula_structural   Ba(CO2)2
_chemical_formula_sum   'Ba4 C8 O16'
_cell_volume   419.72792327
_cell_formula_units_Z   4
loop_
 _symmetry_equiv_pos_site_id
 _symmetry_equiv_pos_as_xyz
  1  'x, y, z'
loop_
 _atom_site_type_symbol
 _atom_site_label
 _atom_site_symmetry_multiplicity
 _atom_site_fract_x
 _atom_site_fract_y
 _atom_site_fract_z
 _atom_site_occupancy
  Ba  Ba0  1  0.97978604  0.73564895  0.42149034  1
  Ba  Ba1  1  0.02021396  0.26435105  0.57850966  1
  Ba  Ba2  1  0.04024157  0.25526474  0.07270368  1
  Ba  Ba3  1  0.95975843  0.74473526  0.92729632  1
  C  C4  1  0.48064477  0.55762975  0.68077095  1
  C  C5  1  0.51935523  0.44237025  0.31922905  1
  C  C6  1  0.43369623  0.44098171  0.80410859  1
  C  C7  1  0.56630377  0.55901829  0.19589141  1
  C  C8  1  0.59921629  0.00614036  0.68403271  1
  C  C9  1  0.40078371  0.99385964  0.31596729  1
  C  C10  1  0.37099039  0.98935068  0.80972437  1
  C  C11  1  0.62900961  0.01064932  0.19027563  1
  O  O12  1  0.28431817  0.66154837  0.66778948  1
  O  O13  1  0.71568183  0.33845163  0.33221052  1
  O  O14  1  0.70926386  0.53994796  0.60498936  1
  O  O15  1  0.29073614  0.46005204  0.39501064  1
  O  O16  1  0.18702021  0.44877334  0.85705635  1
  O  O17  1  0.81297979  0.55122666  0.14294365  1
  O  O18  1  0.63627745  0.35003389  0.84115628  1
  O  O19  1  0.36372255  0.64996611  0.15884372  1
  O  O20  1  0.80085016  0.90300215  0.67032125  1
  O  O21  1  0.19914984  0.09699785  0.32967875  1
  O  O22  1  0.56869554  0.12096549  0.60714945  1
  O  O23  1  0.43130446  0.87903451  0.39285055  1
  O  O24  1  0.15922659  0.08729212  0.81991393  1
  O  O25  1  0.84077341  0.91270788  0.18008607  1
  O  O26  1  0.41182183  0.87931687  0.89409621  1
  O  O27  1  0.58817817  0.12068313  0.10590379  1
