# generated using pymatgen
data_Si
_symmetry_space_group_name_H-M   'P 1'
_cell_length_a   10.22146038
_cell_length_b   10.22146038
_cell_length_c   10.38879335
_cell_angle_alpha   90.00000000
_cell_angle_beta   90.00000000
_cell_angle_gamma   119.97908874
_symmetry_Int_Tables_number   1
_chemical_formula_structural   Si
_chemical_formula_sum   Si40
_cell_volume   940.18455442
_cell_formula_units_Z   40
loop_
 _symmetry_equiv_pos_site_id
 _symmetry_equiv_pos_as_xyz
  1  'x, y, z'
loop_
 _atom_site_type_symbol
 _atom_site_label
 _atom_site_symmetry_multiplicity
 _atom_site_fract_x
 _atom_site_fract_y
 _atom_site_fract_z
 _atom_site_occupancy
  Si  Si0  1  0.29050107  0.08098792  0.68759492  1
  Si  Si1  1  0.70949893  0.91901208  0.68759492  1
  Si  Si2  1  0.91901208  0.70949893  0.31240508  1
  Si  Si3  1  0.08098792  0.29050107  0.31240508  1
  Si  Si4  1  0.70949893  0.91901208  0.31240508  1
  Si  Si5  1  0.29050107  0.08098792  0.31240508  1
  Si  Si6  1  0.08098792  0.29050107  0.68759492  1
  Si  Si7  1  0.91901208  0.70949893  0.68759492  1
  Si  Si8  1  0.11950711  0.49998007  0.81269708  1
  Si  Si9  1  0.88049289  0.50001993  0.81269708  1
  Si  Si10  1  0.50001993  0.88049289  0.18730292  1
  Si  Si11  1  0.49998007  0.11950711  0.18730292  1
  Si  Si12  1  0.88049289  0.50001993  0.18730292  1
  Si  Si13  1  0.11950711  0.49998007  0.18730292  1
  Si  Si14  1  0.49998007  0.11950711  0.81269708  1
  Si  Si15  1  0.50001993  0.88049289  0.81269708  1
  Si  Si16  1  0.11942921  0.11942921  0.81269983  1
  Si  Si17  1  0.88057079  0.88057079  0.81269983  1
  Si  Si18  1  0.88057079  0.88057079  0.18730017  1
  Si  Si19  1  0.11942921  0.11942921  0.18730017  1
  Si  Si20  1  0.36757575  0.63242425  0.50000000  1
  Si  Si21  1  0.63242425  0.36757575  0.50000000  1
  Si  Si22  1  0.29071498  0.70928502  0.68760721  1
  Si  Si23  1  0.70928502  0.29071498  0.68760721  1
  Si  Si24  1  0.29071498  0.70928502  0.31239279  1
  Si  Si25  1  0.70928502  0.29071498  0.31239279  1
  Si  Si26  1  0.16678047  0.83321953  0.61225609  1
  Si  Si27  1  0.83321953  0.16678047  0.61225609  1
  Si  Si28  1  0.16678047  0.83321953  0.38774391  1
  Si  Si29  1  0.83321953  0.16678047  0.38774391  1
  Si  Si30  1  0.36723730  0.23460933  0.50000000  1
  Si  Si31  1  0.63276270  0.76539067  0.50000000  1
  Si  Si32  1  0.76539067  0.63276270  0.50000000  1
  Si  Si33  1  0.23460933  0.36723730  0.50000000  1
  Si  Si34  1  0.25745456  0.25745456  0.00000000  1
  Si  Si35  1  0.74254544  0.74254544  -0.00000000  1
  Si  Si36  1  0.25759357  0.49997686  -0.00000000  1
  Si  Si37  1  0.74240643  0.50002314  -0.00000000  1
  Si  Si38  1  0.50002314  0.74240643  0.00000000  1
  Si  Si39  1  0.49997686  0.25759357  0.00000000  1
