# generated using pymatgen
data_NaS2N(O2F)2
_symmetry_space_group_name_H-M   'P 1'
_cell_length_a   7.56191926
_cell_length_b   9.21056878
_cell_length_c   9.32339740
_cell_angle_alpha   90.00000000
_cell_angle_beta   90.00000000
_cell_angle_gamma   106.50585427
_symmetry_Int_Tables_number   1
_chemical_formula_structural   NaS2N(O2F)2
_chemical_formula_sum   'Na4 S8 N4 O16 F8'
_cell_volume   622.61058442
_cell_formula_units_Z   4
loop_
 _symmetry_equiv_pos_site_id
 _symmetry_equiv_pos_as_xyz
  1  'x, y, z'
loop_
 _atom_site_type_symbol
 _atom_site_label
 _atom_site_symmetry_multiplicity
 _atom_site_fract_x
 _atom_site_fract_y
 _atom_site_fract_z
 _atom_site_occupancy
  Na  Na0  1  0.75505088  0.06837214  0.48359614  1
  Na  Na1  1  0.75505088  0.56837214  0.01640386  1
  Na  Na2  1  0.24494912  0.93162786  0.51640386  1
  Na  Na3  1  0.24494912  0.43162786  0.98359614  1
  S  S4  1  0.86402597  0.38755836  0.72484518  1
  S  S5  1  0.86402597  0.88755836  0.77515482  1
  S  S6  1  0.13597403  0.61244164  0.27515482  1
  S  S7  1  0.13597403  0.11244164  0.22484518  1
  S  S8  1  0.47874922  0.27018886  0.71948099  1
  S  S9  1  0.47874922  0.77018886  0.78051901  1
  S  S10  1  0.52125078  0.72981114  0.28051901  1
  S  S11  1  0.52125078  0.22981114  0.21948099  1
  N  N12  1  0.66600937  0.35973166  0.79410707  1
  N  N13  1  0.66600937  0.85973166  0.70589293  1
  N  N14  1  0.33399063  0.64026834  0.20589293  1
  N  N15  1  0.33399063  0.14026834  0.29410707  1
  O  O16  1  0.89290686  0.27062640  0.63398205  1
  O  O17  1  0.89290686  0.77062640  0.86601795  1
  O  O18  1  0.10709314  0.72937360  0.36601795  1
  O  O19  1  0.10709314  0.22937360  0.13398205  1
  O  O20  1  0.48342852  0.13772192  0.63790341  1
  O  O21  1  0.48342852  0.63772192  0.86209659  1
  O  O22  1  0.51657148  0.86227808  0.36209659  1
  O  O23  1  0.51657148  0.36227808  0.13790341  1
  O  O24  1  0.99563734  0.44928574  0.83605100  1
  O  O25  1  0.99563734  0.94928574  0.66394900  1
  O  O26  1  0.00436266  0.55071426  0.16394900  1
  O  O27  1  0.00436266  0.05071426  0.33605100  1
  O  O28  1  0.33227463  0.25776897  0.82014737  1
  O  O29  1  0.33227463  0.75776897  0.67985263  1
  O  O30  1  0.66772537  0.74223103  0.17985263  1
  O  O31  1  0.66772537  0.24223103  0.32014737  1
  F  F32  1  0.87622527  0.52667012  0.61867506  1
  F  F33  1  0.87622527  0.02667012  0.88132494  1
  F  F34  1  0.12377473  0.47332988  0.38132494  1
  F  F35  1  0.12377473  0.97332988  0.11867506  1
  F  F36  1  0.44894562  0.38554889  0.59920583  1
  F  F37  1  0.44894562  0.88554889  0.90079417  1
  F  F38  1  0.55105438  0.61445111  0.40079417  1
  F  F39  1  0.55105438  0.11445111  0.09920583  1
