# generated using pymatgen
data_Ca6Si6O19
_symmetry_space_group_name_H-M   'P 1'
_cell_length_a   7.06721808
_cell_length_b   7.42366307
_cell_length_c   17.41876116
_cell_angle_alpha   90.00000000
_cell_angle_beta   90.40180830
_cell_angle_gamma   90.00000000
_symmetry_Int_Tables_number   1
_chemical_formula_structural   Ca6Si6O19
_chemical_formula_sum   'Ca12 Si12 O38'
_cell_volume   913.84666402
_cell_formula_units_Z   2
loop_
 _symmetry_equiv_pos_site_id
 _symmetry_equiv_pos_as_xyz
  1  'x, y, z'
loop_
 _atom_site_type_symbol
 _atom_site_label
 _atom_site_symmetry_multiplicity
 _atom_site_fract_x
 _atom_site_fract_y
 _atom_site_fract_z
 _atom_site_occupancy
  Ca  Ca0  1  -0.00000000  0.37466609  0.25000000  1
  Ca  Ca1  1  -0.00000000  0.62533391  0.75000000  1
  Ca  Ca2  1  -0.00000000  0.87563090  0.25000000  1
  Ca  Ca3  1  -0.00000000  0.12436910  0.75000000  1
  Ca  Ca4  1  0.84023091  0.12562621  0.43462110  1
  Ca  Ca5  1  0.15976909  0.12562621  0.06537890  1
  Ca  Ca6  1  0.15976909  0.87437379  0.56537890  1
  Ca  Ca7  1  0.84023091  0.87437379  0.93462110  1
  Ca  Ca8  1  0.83931584  0.62456772  0.43302138  1
  Ca  Ca9  1  0.16068416  0.62456772  0.06697862  1
  Ca  Ca10  1  0.16068416  0.37543228  0.56697862  1
  Ca  Ca11  1  0.83931584  0.37543228  0.93302138  1
  Si  Si12  1  0.73093959  0.16535029  0.10540405  1
  Si  Si13  1  0.26906041  0.16535029  0.39459595  1
  Si  Si14  1  0.26906041  0.83464971  0.89459595  1
  Si  Si15  1  0.73093959  0.83464971  0.60540405  1
  Si  Si16  1  0.73228863  0.58546281  0.10539324  1
  Si  Si17  1  0.26771137  0.58546281  0.39460676  1
  Si  Si18  1  0.26771137  0.41453719  0.89460676  1
  Si  Si19  1  0.73228863  0.41453719  0.60539324  1
  Si  Si20  1  0.55466143  0.87525212  0.34078119  1
  Si  Si21  1  0.44533857  0.87525212  0.15921881  1
  Si  Si22  1  0.44533857  0.12474788  0.65921881  1
  Si  Si23  1  0.55466143  0.12474788  0.84078119  1
  O  O24  1  0.50000000  0.87467590  0.25000000  1
  O  O25  1  0.50000000  0.12532410  0.75000000  1
  O  O26  1  0.65772385  0.37563137  0.10571210  1
  O  O27  1  0.34227615  0.37563137  0.39428790  1
  O  O28  1  0.34227615  0.62436863  0.89428790  1
  O  O29  1  0.65772385  0.62436863  0.60571210  1
  O  O30  1  0.88446491  0.62528205  0.17367863  1
  O  O31  1  0.11553509  0.62528205  0.32632137  1
  O  O32  1  0.11553509  0.37471795  0.82632137  1
  O  O33  1  0.88446491  0.37471795  0.67367863  1
  O  O34  1  0.88362527  0.12521840  0.17350715  1
  O  O35  1  0.11637473  0.12521840  0.32649285  1
  O  O36  1  0.11637473  0.87478160  0.82649285  1
  O  O37  1  0.88362527  0.87478160  0.67350715  1
  O  O38  1  0.52730844  0.05445880  0.11525907  1
  O  O39  1  0.47269156  0.05445880  0.38474093  1
  O  O40  1  0.47269156  0.94554120  0.88474093  1
  O  O41  1  0.52730844  0.94554120  0.61525907  1
  O  O42  1  0.52884631  0.69731352  0.11472034  1
  O  O43  1  0.47115369  0.69731352  0.38527966  1
  O  O44  1  0.47115369  0.30268648  0.88527966  1
  O  O45  1  0.52884631  0.30268648  0.61472034  1
  O  O46  1  0.83270953  0.62721294  0.02318559  1
  O  O47  1  0.16729047  0.62721294  0.47681441  1
  O  O48  1  0.16729047  0.37278706  0.97681441  1
  O  O49  1  0.83270953  0.37278706  0.52318559  1
  O  O50  1  0.82963749  0.12282278  0.02291264  1
  O  O51  1  0.17036251  0.12282278  0.47708736  1
  O  O52  1  0.17036251  0.87717722  0.97708736  1
  O  O53  1  0.82963749  0.87717722  0.52291264  1
  O  O54  1  0.78052168  0.87479383  0.35260581  1
  O  O55  1  0.21947832  0.87479383  0.14739419  1
  O  O56  1  0.21947832  0.12520617  0.64739419  1
  O  O57  1  0.78052168  0.12520617  0.85260581  1
  O  O58  1  0.80036222  0.37545690  0.35375126  1
  O  O59  1  0.19963778  0.37545690  0.14624874  1
  O  O60  1  0.19963778  0.62454310  0.64624874  1
  O  O61  1  0.80036222  0.62454310  0.85375126  1
