# generated using pymatgen
data_Ca6Si6O19
_symmetry_space_group_name_H-M   'P 1'
_cell_length_a   7.41978890
_cell_length_b   7.95629222
_cell_length_c   17.37403446
_cell_angle_alpha   90.46195771
_cell_angle_beta   90.00000000
_cell_angle_gamma   117.79337389
_symmetry_Int_Tables_number   1
_chemical_formula_structural   Ca6Si6O19
_chemical_formula_sum   'Ca12 Si12 O38'
_cell_volume   907.29598094
_cell_formula_units_Z   2
loop_
 _symmetry_equiv_pos_site_id
 _symmetry_equiv_pos_as_xyz
  1  'x, y, z'
loop_
 _atom_site_type_symbol
 _atom_site_label
 _atom_site_symmetry_multiplicity
 _atom_site_fract_x
 _atom_site_fract_y
 _atom_site_fract_z
 _atom_site_occupancy
  Ca  Ca0  1  0.12502262  0.49709164  0.24829679  1
  Ca  Ca1  1  0.62793098  0.50290836  0.25170321  1
  Ca  Ca2  1  0.87497738  0.50290836  0.75170321  1
  Ca  Ca3  1  0.37206902  0.49709164  0.74829679  1
  Ca  Ca4  1  0.80001180  0.33791415  0.43305845  1
  Ca  Ca5  1  0.46209765  0.66208585  0.06694155  1
  Ca  Ca6  1  0.19998820  0.66208585  0.56694155  1
  Ca  Ca7  1  0.53790235  0.33791415  0.93305845  1
  Ca  Ca8  1  0.28953332  0.34085074  0.43172573  1
  Ca  Ca9  1  0.94868258  0.65914926  0.06827427  1
  Ca  Ca10  1  0.71046668  0.65914926  0.56827427  1
  Ca  Ca11  1  0.05131742  0.34085074  0.93172573  1
  Si  Si12  1  0.78030734  0.23141708  0.10476814  1
  Si  Si13  1  0.54889026  0.76858292  0.39523186  1
  Si  Si14  1  0.21969266  0.76858292  0.89523186  1
  Si  Si15  1  0.45110974  0.23141708  0.60476814  1
  Si  Si16  1  0.20537181  0.23205025  0.10534062  1
  Si  Si17  1  0.97332156  0.76794975  0.39465938  1
  Si  Si18  1  0.79462819  0.76794975  0.89465938  1
  Si  Si19  1  0.02667844  0.23205025  0.60534062  1
  Si  Si20  1  0.40541612  0.05643594  0.34064254  1
  Si  Si21  1  0.34898018  0.94356406  0.15935746  1
  Si  Si22  1  0.59458388  0.94356406  0.65935746  1
  Si  Si23  1  0.65101982  0.05643594  0.84064254  1
  O  O24  1  0.37631363  -0.00000000  0.25000000  1
  O  O25  1  0.62368637  -0.00000000  0.75000000  1
  O  O26  1  0.95889054  0.16342212  0.10836462  1
  O  O27  1  0.79546842  0.83657788  0.39163538  1
  O  O28  1  0.04110946  0.83657788  0.89163538  1
  O  O29  1  0.20453158  0.16342212  0.60836462  1
  O  O30  1  0.32834213  0.38685664  0.17240612  1
  O  O31  1  0.94148549  0.61314336  0.32759388  1
  O  O32  1  0.67165787  0.61314336  0.82759388  1
  O  O33  1  0.05851451  0.38685664  0.67240612  1
  O  O34  1  0.81190980  0.38619525  0.17201495  1
  O  O35  1  0.42571455  0.61380475  0.32798505  1
  O  O36  1  0.18809020  0.61380475  0.82798505  1
  O  O37  1  0.57428545  0.38619525  0.67201495  1
  O  O38  1  0.57017319  0.02505145  0.11549027  1
  O  O39  1  0.54512175  0.97494855  0.38450973  1
  O  O40  1  0.42982681  0.97494855  0.88450973  1
  O  O41  1  0.45487825  0.02505145  0.61549027  1
  O  O42  1  0.21213748  0.02706241  0.11464029  1
  O  O43  1  0.18507507  0.97293759  0.38535971  1
  O  O44  1  0.78786252  0.97293759  0.88535971  1
  O  O45  1  0.81492493  0.02706241  0.61464029  1
  O  O46  1  0.29255552  0.32870094  0.02193684  1
  O  O47  1  0.96385457  0.67129906  0.47806316  1
  O  O48  1  0.70744448  0.67129906  0.97806316  1
  O  O49  1  0.03614543  0.32870094  0.52193684  1
  O  O50  1  0.78754200  0.32766097  0.02148678  1
  O  O51  1  0.45988102  0.67233903  0.47851322  1
  O  O52  1  0.21245800  0.67233903  0.97851322  1
  O  O53  1  0.54011898  0.32766097  0.52148678  1
  O  O54  1  0.51704436  0.28276134  0.35271796  1
  O  O55  1  0.23428302  0.71723866  0.14728204  1
  O  O56  1  0.48295564  0.71723866  0.64728204  1
  O  O57  1  0.76571698  0.28276134  0.85271796  1
  O  O58  1  0.02110313  0.29171470  0.35117880  1
  O  O59  1  0.72938843  0.70828530  0.14882120  1
  O  O60  1  0.97889687  0.70828530  0.64882120  1
  O  O61  1  0.27061157  0.29171470  0.85117880  1
