# generated using pymatgen
data_CaSiBO5
_symmetry_space_group_name_H-M   'P 1'
_cell_length_a   4.97206984
_cell_length_b   7.71970231
_cell_length_c   9.58514561
_cell_angle_alpha   90.00000000
_cell_angle_beta   91.67049449
_cell_angle_gamma   90.00000000
_symmetry_Int_Tables_number   1
_chemical_formula_structural   CaSiBO5
_chemical_formula_sum   'Ca4 Si4 B4 O20'
_cell_volume   367.74931793
_cell_formula_units_Z   4
loop_
 _symmetry_equiv_pos_site_id
 _symmetry_equiv_pos_as_xyz
  1  'x, y, z'
loop_
 _atom_site_type_symbol
 _atom_site_label
 _atom_site_symmetry_multiplicity
 _atom_site_fract_x
 _atom_site_fract_y
 _atom_site_fract_z
 _atom_site_occupancy
  Ca  Ca0  1  0.99210526  0.38344750  0.82939503  1
  Ca  Ca1  1  0.00789474  0.88344750  0.67060497  1
  Ca  Ca2  1  0.00789474  0.61655250  0.17060497  1
  Ca  Ca3  1  0.99210526  0.11655250  0.32939503  1
  Si  Si4  1  0.46928886  0.24515402  0.58655532  1
  Si  Si5  1  0.53071114  0.74515402  0.91344468  1
  Si  Si6  1  0.53071114  0.75484598  0.41344468  1
  Si  Si7  1  0.46928886  0.25484598  0.08655532  1
  B  B8  1  0.56179279  0.09378349  0.82850128  1
  B  B9  1  0.43820721  0.59378349  0.67149872  1
  B  B10  1  0.43820721  0.90621651  0.17149872  1
  B  B11  1  0.56179279  0.40621651  0.32850128  1
  O  O12  1  0.23749043  0.10334470  0.54778425  1
  O  O13  1  0.76250957  0.60334470  0.95221575  1
  O  O14  1  0.76250957  0.89665530  0.45221575  1
  O  O15  1  0.23749043  0.39665530  0.04778425  1
  O  O16  1  0.64223601  0.20515103  0.94818562  1
  O  O17  1  0.35776399  0.70515103  0.55181438  1
  O  O18  1  0.35776399  0.79484897  0.05181438  1
  O  O19  1  0.64223601  0.29484897  0.44818562  1
  O  O20  1  0.69468467  0.16889750  0.70295669  1
  O  O21  1  0.30531533  0.66889750  0.79704331  1
  O  O22  1  0.30531533  0.83110250  0.29704331  1
  O  O23  1  0.69468467  0.33110250  0.20295669  1
  O  O24  1  0.32669535  0.41870664  0.65159525  1
  O  O25  1  0.67330465  0.91870664  0.84840475  1
  O  O26  1  0.67330465  0.58129336  0.34840475  1
  O  O27  1  0.32669535  0.08129336  0.15159525  1
  O  O28  1  0.26808751  0.09809098  0.80216332  1
  O  O29  1  0.73191249  0.59809098  0.69783668  1
  O  O30  1  0.73191249  0.90190902  0.19783668  1
  O  O31  1  0.26808751  0.40190902  0.30216332  1
