# generated using pymatgen
data_Y2Co14Cu3
_symmetry_space_group_name_H-M   'P 1'
_cell_length_a   8.14719839
_cell_length_b   8.31749821
_cell_length_c   8.31749821
_cell_angle_alpha   119.98844669
_cell_angle_beta   90.00000000
_cell_angle_gamma   90.00000000
_symmetry_Int_Tables_number   1
_chemical_formula_structural   Y2Co14Cu3
_chemical_formula_sum   'Y4 Co28 Cu6'
_cell_volume   488.17429105
_cell_formula_units_Z   2
loop_
 _symmetry_equiv_pos_site_id
 _symmetry_equiv_pos_as_xyz
  1  'x, y, z'
loop_
 _atom_site_type_symbol
 _atom_site_label
 _atom_site_symmetry_multiplicity
 _atom_site_fract_x
 _atom_site_fract_y
 _atom_site_fract_z
 _atom_site_occupancy
  Y  Y0  1  0.75000000  0.00016376  0.99983624  1
  Y  Y1  1  0.25000000  0.99983624  0.00016376  1
  Y  Y2  1  0.25000000  0.66685764  0.33314236  1
  Y  Y3  1  0.75000000  0.33314236  0.66685764  1
  Co  Co4  1  0.61044202  0.66666215  0.33333785  1
  Co  Co5  1  0.38955798  0.33333785  0.66666215  1
  Co  Co6  1  0.11044202  0.33333785  0.66666215  1
  Co  Co7  1  0.88955798  0.66666215  0.33333785  1
  Co  Co8  1  0.75000000  0.67224966  0.04638743  1
  Co  Co9  1  0.75000000  0.37396363  0.32765137  1
  Co  Co10  1  0.75000000  0.95371562  0.62585712  1
  Co  Co11  1  0.75000000  0.37414288  0.04628438  1
  Co  Co12  1  0.75000000  0.95361257  0.32775034  1
  Co  Co13  1  0.75000000  0.67234863  0.62603637  1
  Co  Co14  1  0.25000000  0.32775034  0.95361257  1
  Co  Co15  1  0.25000000  0.62603637  0.67234863  1
  Co  Co16  1  0.25000000  0.04628438  0.37414288  1
  Co  Co17  1  0.25000000  0.62585712  0.95371562  1
  Co  Co18  1  0.25000000  0.04638743  0.67224966  1
  Co  Co19  1  0.25000000  0.32765137  0.37396363  1
  Co  Co20  1  0.48584648  0.83831387  0.67657485  1
  Co  Co21  1  0.48555614  0.83831591  0.16168409  1
  Co  Co22  1  0.48584648  0.32342515  0.16168613  1
  Co  Co23  1  0.51415352  0.16168613  0.32342515  1
  Co  Co24  1  0.51444386  0.16168409  0.83831591  1
  Co  Co25  1  0.51415352  0.67657485  0.83831387  1
  Co  Co26  1  0.98584648  0.16168613  0.32342515  1
  Co  Co27  1  0.98555614  0.16168409  0.83831591  1
  Co  Co28  1  0.98584648  0.67657485  0.83831387  1
  Co  Co29  1  0.01415352  0.83831387  0.67657485  1
  Co  Co30  1  0.01444386  0.83831591  0.16168409  1
  Co  Co31  1  0.01415352  0.32342515  0.16168613  1
  Cu  Cu32  1  0.50000000  0.50000000  0.00000000  1
  Cu  Cu33  1  0.50000000  0.50000000  0.50000000  1
  Cu  Cu34  1  0.50000000  0.00000000  0.50000000  1
  Cu  Cu35  1  -0.00000000  0.50000000  0.00000000  1
  Cu  Cu36  1  -0.00000000  0.50000000  0.50000000  1
  Cu  Cu37  1  0.00000000  0.00000000  0.50000000  1
