# generated using pymatgen
data_MoH4C(NO2)2
_symmetry_space_group_name_H-M   'P 1'
_cell_length_a   7.54333425
_cell_length_b   7.81796853
_cell_length_c   13.16958080
_cell_angle_alpha   91.75608539
_cell_angle_beta   90.00000000
_cell_angle_gamma   90.00000000
_symmetry_Int_Tables_number   1
_chemical_formula_structural   MoH4C(NO2)2
_chemical_formula_sum   'Mo6 H24 C6 N12 O24'
_cell_volume   776.29216533
_cell_formula_units_Z   6
loop_
 _symmetry_equiv_pos_site_id
 _symmetry_equiv_pos_as_xyz
  1  'x, y, z'
loop_
 _atom_site_type_symbol
 _atom_site_label
 _atom_site_symmetry_multiplicity
 _atom_site_fract_x
 _atom_site_fract_y
 _atom_site_fract_z
 _atom_site_occupancy
  Mo  Mo0  1  0.51350139  0.50000000  0.25000000  1
  Mo  Mo1  1  0.48649861  0.50000000  0.75000000  1
  Mo  Mo2  1  0.25091204  0.16856349  0.33919060  1
  Mo  Mo3  1  0.25091204  0.83143651  0.16080940  1
  Mo  Mo4  1  0.74908796  0.83143651  0.66080940  1
  Mo  Mo5  1  0.74908796  0.16856349  0.83919060  1
  H  H6  1  0.94021554  0.69840192  0.33905785  1
  H  H7  1  0.94021554  0.30159808  0.16094215  1
  H  H8  1  0.05978446  0.30159808  0.66094215  1
  H  H9  1  0.05978446  0.69840192  0.83905785  1
  H  H10  1  0.95276006  0.71411077  0.47071927  1
  H  H11  1  0.95276006  0.28588923  0.02928073  1
  H  H12  1  0.04723994  0.28588923  0.52928073  1
  H  H13  1  0.04723994  0.71411077  0.97071927  1
  H  H14  1  0.41008673  0.63896703  0.48385400  1
  H  H15  1  0.41008673  0.36103297  0.01614600  1
  H  H16  1  0.58991327  0.36103297  0.51614600  1
  H  H17  1  0.58991327  0.63896703  0.98385400  1
  H  H18  1  0.21201406  0.64365516  0.55161084  1
  H  H19  1  0.21201406  0.35634484  0.94838916  1
  H  H20  1  0.78798594  0.35634484  0.44838916  1
  H  H21  1  0.78798594  0.64365516  0.05161084  1
  H  H22  1  0.66087582  0.02405195  0.40450711  1
  H  H23  1  0.66087582  0.97594805  0.09549289  1
  H  H24  1  0.33912418  0.97594805  0.59549289  1
  H  H25  1  0.33912418  0.02405195  0.90450711  1
  H  H26  1  0.85690878  0.03783413  0.33562836  1
  H  H27  1  0.85690878  0.96216587  0.16437164  1
  H  H28  1  0.14309122  0.96216587  0.66437164  1
  H  H29  1  0.14309122  0.03783413  0.83562836  1
  C  C30  1  0.18834263  0.67568732  0.39821541  1
  C  C31  1  0.18834263  0.32431268  0.10178459  1
  C  C32  1  0.81165737  0.32431268  0.60178459  1
  C  C33  1  0.81165737  0.67568732  0.89821541  1
  C  C34  1  0.63428734  -0.00000000  0.25000000  1
  C  C35  1  0.36571266  -0.00000000  0.75000000  1
  N  N36  1  0.01581808  0.71695933  0.40227732  1
  N  N37  1  0.01581808  0.28304067  0.09772268  1
  N  N38  1  0.98418192  0.28304067  0.59772268  1
  N  N39  1  0.98418192  0.71695933  0.90227732  1
  N  N40  1  0.27552606  0.64058599  0.48361750  1
  N  N41  1  0.27552606  0.35941401  0.01638250  1
  N  N42  1  0.72447394  0.35941401  0.51638250  1
  N  N43  1  0.72447394  0.64058599  0.98361750  1
  N  N44  1  0.72238381  0.03697436  0.33612533  1
  N  N45  1  0.72238381  0.96302564  0.16387467  1
  N  N46  1  0.27761619  0.96302564  0.66387467  1
  N  N47  1  0.27761619  0.03697436  0.83612533  1
  O  O48  1  0.27065171  0.67013858  0.31186146  1
  O  O49  1  0.27065171  0.32986142  0.18813854  1
  O  O50  1  0.72934829  0.32986142  0.68813854  1
  O  O51  1  0.72934829  0.67013858  0.81186146  1
  O  O52  1  0.46220144  -0.00000000  0.25000000  1
  O  O53  1  0.53779856  -0.00000000  0.75000000  1
  O  O54  1  0.43726916  0.33843062  0.35123349  1
  O  O55  1  0.43726916  0.66156938  0.14876651  1
  O  O56  1  0.56273084  0.66156938  0.64876651  1
  O  O57  1  0.56273084  0.33843062  0.85123349  1
  O  O58  1  0.13134278  -0.00000000  0.25000000  1
  O  O59  1  0.86865722  -0.00000000  0.75000000  1
  O  O60  1  0.30342677  0.05459745  0.44600498  1
  O  O61  1  0.30342677  0.94540255  0.05399502  1
  O  O62  1  0.69657323  0.94540255  0.55399502  1
  O  O63  1  0.69657323  0.05459745  0.94600498  1
  O  O64  1  0.06039601  0.28238867  0.37681700  1
  O  O65  1  0.06039601  0.71761133  0.12318300  1
  O  O66  1  0.93960399  0.71761133  0.62318300  1
  O  O67  1  0.93960399  0.28238867  0.87681700  1
  O  O68  1  0.65568333  0.61915137  0.32842146  1
  O  O69  1  0.65568333  0.38084863  0.17157854  1
  O  O70  1  0.34431667  0.38084863  0.67157854  1
  O  O71  1  0.34431667  0.61915137  0.82842146  1
