# generated using pymatgen
data_Ca6Si6O19
_symmetry_space_group_name_H-M   'P 1'
_cell_length_a   7.08056231
_cell_length_b   7.43247618
_cell_length_c   8.88818118
_cell_angle_alpha   101.99037324
_cell_angle_beta   90.00550961
_cell_angle_gamma   89.59614236
_symmetry_Int_Tables_number   1
_chemical_formula_structural   Ca6Si6O19
_chemical_formula_sum   'Ca6 Si6 O19'
_cell_volume   457.53345805
_cell_formula_units_Z   1
loop_
 _symmetry_equiv_pos_site_id
 _symmetry_equiv_pos_as_xyz
  1  'x, y, z'
loop_
 _atom_site_type_symbol
 _atom_site_label
 _atom_site_symmetry_multiplicity
 _atom_site_fract_x
 _atom_site_fract_y
 _atom_site_fract_z
 _atom_site_occupancy
  Ca  Ca0  1  0.00000000  0.50000000  0.50000000  1
  Ca  Ca1  1  0.00000000  -0.00000000  0.50000000  1
  Ca  Ca2  1  0.83837951  0.15684600  0.13151752  1
  Ca  Ca3  1  0.16162049  0.84315400  0.86848248  1
  Ca  Ca4  1  0.83612762  0.65588857  0.13097597  1
  Ca  Ca5  1  0.16387238  0.34411143  0.86902403  1
  Si  Si6  1  0.26482850  0.21460916  0.20851911  1
  Si  Si7  1  0.73517150  0.78539084  0.79148089  1
  Si  Si8  1  0.26744785  0.63644318  0.21243771  1
  Si  Si9  1  0.73255215  0.36355682  0.78756229  1
  Si  Si10  1  0.55266095  0.95119988  0.31868737  1
  Si  Si11  1  0.44733905  0.04880012  0.68131263  1
  O  O12  1  0.50000000  -0.00000000  0.50000000  1
  O  O13  1  0.33880037  0.42295565  0.20432814  1
  O  O14  1  0.66119963  0.57704435  0.79567186  1
  O  O15  1  0.12036489  0.70965292  0.35180981  1
  O  O16  1  0.87963511  0.29034708  0.64819019  1
  O  O17  1  0.11236345  0.21198531  0.34459099  1
  O  O18  1  0.88763655  0.78801469  0.65540901  1
  O  O19  1  0.46622723  0.10583479  0.22941913  1
  O  O20  1  0.53377277  0.89416521  0.77058087  1
  O  O21  1  0.47172699  0.74942872  0.23180432  1
  O  O22  1  0.52827301  0.25057128  0.76819568  1
  O  O23  1  0.16466008  0.64215009  0.04836927  1
  O  O24  1  0.83533992  0.35784991  0.95163073  1
  O  O25  1  0.16696354  0.13056961  0.04282053  1
  O  O26  1  0.83303646  0.86943039  0.95717947  1
  O  O27  1  0.77820597  0.94510965  0.29511548  1
  O  O28  1  0.22179403  0.05489035  0.70488452  1
  O  O29  1  0.80033946  0.44711576  0.29040306  1
  O  O30  1  0.19966054  0.55288424  0.70959694  1
