# generated using pymatgen
data_RbSc(PO4)2
_symmetry_space_group_name_H-M   'P 1'
_cell_length_a   5.40120042
_cell_length_b   9.16710424
_cell_length_c   15.39408723
_cell_angle_alpha   90.00000000
_cell_angle_beta   93.45234212
_cell_angle_gamma   90.00000000
_symmetry_Int_Tables_number   1
_chemical_formula_structural   RbSc(PO4)2
_chemical_formula_sum   'Rb4 Sc4 P8 O32'
_cell_volume   760.82985531
_cell_formula_units_Z   4
loop_
 _symmetry_equiv_pos_site_id
 _symmetry_equiv_pos_as_xyz
  1  'x, y, z'
loop_
 _atom_site_type_symbol
 _atom_site_label
 _atom_site_symmetry_multiplicity
 _atom_site_fract_x
 _atom_site_fract_y
 _atom_site_fract_z
 _atom_site_occupancy
  Rb  Rb0  1  0.26510495  0.98146938  0.61208530  1
  Rb  Rb1  1  0.73489505  0.48146938  0.88791470  1
  Rb  Rb2  1  0.73489505  0.01853062  0.38791470  1
  Rb  Rb3  1  0.26510495  0.51853062  0.11208530  1
  Sc  Sc4  1  0.26069833  0.45780473  0.65295907  1
  Sc  Sc5  1  0.73930167  0.95780473  0.84704093  1
  Sc  Sc6  1  0.73930167  0.54219527  0.34704093  1
  Sc  Sc7  1  0.26069833  0.04219527  0.15295907  1
  P  P8  1  0.73388146  0.66365241  0.56558392  1
  P  P9  1  0.26611854  0.16365241  0.93441608  1
  P  P10  1  0.26611854  0.33634759  0.43441608  1
  P  P11  1  0.73388146  0.83634759  0.06558392  1
  P  P12  1  0.22155674  0.73655383  0.81583035  1
  P  P13  1  0.77844326  0.23655383  0.68416965  1
  P  P14  1  0.77844326  0.26344617  0.18416965  1
  P  P15  1  0.22155674  0.76344617  0.31583035  1
  O  O16  1  0.94060997  0.56497614  0.60572293  1
  O  O17  1  0.05939003  0.06497614  0.89427707  1
  O  O18  1  0.05939003  0.43502386  0.39427707  1
  O  O19  1  0.94060997  0.93502386  0.10572293  1
  O  O20  1  0.73445462  0.65784229  0.46516524  1
  O  O21  1  0.26554538  0.15784229  0.03483476  1
  O  O22  1  0.26554538  0.34215771  0.53483476  1
  O  O23  1  0.73445462  0.84215771  0.96516524  1
  O  O24  1  0.47645516  0.61468639  0.59310518  1
  O  O25  1  0.52354484  0.11468639  0.90689482  1
  O  O26  1  0.52354484  0.38531361  0.40689482  1
  O  O27  1  0.47645516  0.88531361  0.09310518  1
  O  O28  1  0.22042435  0.32339807  0.90684607  1
  O  O29  1  0.77957565  0.82339807  0.59315393  1
  O  O30  1  0.77957565  0.67660193  0.09315393  1
  O  O31  1  0.22042435  0.17660193  0.40684607  1
  O  O32  1  0.27183342  0.59924737  0.76042672  1
  O  O33  1  0.72816658  0.09924737  0.73957328  1
  O  O34  1  0.72816658  0.40075263  0.23957328  1
  O  O35  1  0.27183342  0.90075263  0.26042672  1
  O  O36  1  0.41768360  0.85251217  0.79760486  1
  O  O37  1  0.58231640  0.35251217  0.70239514  1
  O  O38  1  0.58231640  0.14748783  0.20239514  1
  O  O39  1  0.41768360  0.64748783  0.29760486  1
  O  O40  1  0.95842033  0.79622802  0.79421196  1
  O  O41  1  0.04157967  0.29622802  0.70578804  1
  O  O42  1  0.04157967  0.20377198  0.20578804  1
  O  O43  1  0.95842033  0.70377198  0.29421196  1
  O  O44  1  0.24350439  0.67397267  0.90958813  1
  O  O45  1  0.75649561  0.17397267  0.59041187  1
  O  O46  1  0.75649561  0.32602733  0.09041187  1
  O  O47  1  0.24350439  0.82602733  0.40958813  1
