# generated using pymatgen
data_Ca6Si6O19
_symmetry_space_group_name_H-M   'P 1'
_cell_length_a   7.41039145
_cell_length_b   7.93385280
_cell_length_c   8.89577309
_cell_angle_alpha   84.06480512
_cell_angle_beta   77.98097137
_cell_angle_gamma   62.18421098
_symmetry_Int_Tables_number   1
_chemical_formula_structural   Ca6Si6O19
_chemical_formula_sum   'Ca6 Si6 O19'
_cell_volume   452.42426810
_cell_formula_units_Z   1
loop_
 _symmetry_equiv_pos_site_id
 _symmetry_equiv_pos_as_xyz
  1  'x, y, z'
loop_
 _atom_site_type_symbol
 _atom_site_label
 _atom_site_symmetry_multiplicity
 _atom_site_fract_x
 _atom_site_fract_y
 _atom_site_fract_z
 _atom_site_occupancy
  Ca  Ca0  1  0.74568153  0.50817499  0.49527226  1
  Ca  Ca1  1  0.25431847  0.49182501  0.50472774  1
  Ca  Ca2  1  0.67004548  0.33696394  0.12990288  1
  Ca  Ca3  1  0.32995452  0.66303606  0.87009712  1
  Ca  Ca4  1  0.18073940  0.33574065  0.13487791  1
  Ca  Ca5  1  0.81926060  0.66425935  0.86512209  1
  Si  Si6  1  0.91015511  0.76255751  0.20836931  1
  Si  Si7  1  0.08984489  0.23744249  0.79163069  1
  Si  Si8  1  0.47770431  0.77091737  0.21498151  1
  Si  Si9  1  0.52229569  0.22908263  0.78501849  1
  Si  Si10  1  0.02023135  0.05702907  0.31899171  1
  Si  Si11  1  0.97976865  0.94297093  0.68100829  1
  O  O12  1  0.00000000  -0.00000000  0.50000000  1
  O  O13  1  0.66067474  0.83240936  0.21875059  1
  O  O14  1  0.33932526  0.16759064  0.78124941  1
  O  O15  1  0.47033391  0.62155196  0.35198883  1
  O  O16  1  0.52966609  0.37844804  0.64801117  1
  O  O17  1  0.99949631  0.60741210  0.34240815  1
  O  O18  1  0.00050369  0.39258790  0.65759185  1
  O  O19  1  0.91682096  0.96672384  0.22473233  1
  O  O20  1  0.08317904  0.03327616  0.77526767  1
  O  O21  1  0.26506731  0.98134606  0.23451054  1
  O  O22  1  0.73493269  0.01865394  0.76548946  1
  O  O23  1  0.52264060  0.67462334  0.04883926  1
  O  O24  1  0.47735940  0.32537666  0.95116074  1
  O  O25  1  0.03514906  0.66532329  0.04153772  1
  O  O26  1  0.96485094  0.33467671  0.95846228  1
  O  O27  1  0.90711386  0.28374993  0.29446758  1
  O  O28  1  0.09288614  0.71625007  0.70553242  1
  O  O29  1  0.40936637  0.29128435  0.29528182  1
  O  O30  1  0.59063363  0.70871565  0.70471818  1
