# generated using pymatgen
data_Na2U2FeH8(C3O7)4
_symmetry_space_group_name_H-M   'P 1'
_cell_length_a   6.54680797
_cell_length_b   7.97538056
_cell_length_c   13.03154565
_cell_angle_alpha   75.63254282
_cell_angle_beta   84.51677894
_cell_angle_gamma   67.80861518
_symmetry_Int_Tables_number   1
_chemical_formula_structural   Na2U2FeH8(C3O7)4
_chemical_formula_sum   'Na2 U2 Fe1 H8 C12 O28'
_cell_volume   610.31373923
_cell_formula_units_Z   1
loop_
 _symmetry_equiv_pos_site_id
 _symmetry_equiv_pos_as_xyz
  1  'x, y, z'
loop_
 _atom_site_type_symbol
 _atom_site_label
 _atom_site_symmetry_multiplicity
 _atom_site_fract_x
 _atom_site_fract_y
 _atom_site_fract_z
 _atom_site_occupancy
  Na  Na0  1  0.74963073  0.83699571  0.79258878  1
  Na  Na1  1  0.25036927  0.16300429  0.20741122  1
  U  U2  1  0.76363979  0.33798649  0.80391505  1
  U  U3  1  0.23636021  0.66201351  0.19608495  1
  Fe  Fe4  1  0.50000000  -0.00000000  0.50000000  1
  H  H5  1  0.91927326  0.85033092  0.57396720  1
  H  H6  1  0.08072674  0.14966908  0.42603280  1
  H  H7  1  0.81714476  0.05597353  0.59570565  1
  H  H8  1  0.18285524  0.94402647  0.40429435  1
  H  H9  1  0.74159760  0.98013858  0.31050546  1
  H  H10  1  0.25840240  0.01986142  0.68949454  1
  H  H11  1  0.65445984  0.19267727  0.31947493  1
  H  H12  1  0.34554016  0.80732273  0.68052507  1
  C  C13  1  0.31050258  0.25146432  0.77468824  1
  C  C14  1  0.68949742  0.74853568  0.22531176  1
  C  C15  1  0.21635250  0.45510701  0.78127965  1
  C  C16  1  0.78364750  0.54489299  0.21872035  1
  C  C17  1  0.80514219  0.38297994  0.54583595  1
  C  C18  1  0.19485781  0.61702006  0.45416405  1
  C  C19  1  0.70079753  0.58435003  0.56150194  1
  C  C20  1  0.29920247  0.41564997  0.43849806  1
  C  C21  1  0.52441806  0.58926302  0.97861328  1
  C  C22  1  0.47558194  0.41073698  0.02138672  1
  C  C23  1  0.97365809  0.93302854  0.97485397  1
  C  C24  1  0.02634191  0.06697146  0.02514603  1
  O  O25  1  0.17099893  0.17888935  0.76739265  1
  O  O26  1  0.82900107  0.82111065  0.23260735  1
  O  O27  1  0.00894752  0.52729311  0.79069741  1
  O  O28  1  0.99105248  0.47270689  0.20930259  1
  O  O29  1  0.35391682  0.53359370  0.77626783  1
  O  O30  1  0.64608318  0.46640630  0.22373217  1
  O  O31  1  0.51805591  0.17098152  0.77585934  1
  O  O32  1  0.48194409  0.82901848  0.22414066  1
  O  O33  1  0.82314008  0.25840560  0.63391826  1
  O  O34  1  0.17685992  0.74159440  0.36608174  1
  O  O35  1  0.68450171  0.59562068  0.65878212  1
  O  O36  1  0.31549829  0.40437932  0.34121788  1
  O  O37  1  0.63999421  0.71851069  0.48313244  1
  O  O38  1  0.36000579  0.28148931  0.51686756  1
  O  O39  1  0.86175532  0.35225340  0.45684536  1
  O  O40  1  0.13824468  0.64774660  0.54315464  1
  O  O41  1  0.63237194  0.59796397  0.89215361  1
  O  O42  1  0.36762806  0.40203603  0.10784639  1
  O  O43  1  0.45600692  0.71238555  0.03154011  1
  O  O44  1  0.54399308  0.28761445  0.96845989  1
  O  O45  1  0.88811641  0.00138023  0.88258693  1
  O  O46  1  0.11188359  0.99861977  0.11741307  1
  O  O47  1  0.01727691  0.76847518  0.02764198  1
  O  O48  1  0.98272309  0.23152482  0.97235802  1
  O  O49  1  0.78476267  0.94298426  0.59831992  1
  O  O50  1  0.21523733  0.05701574  0.40168008  1
  O  O51  1  0.68294870  0.06495224  0.35971146  1
  O  O52  1  0.31705130  0.93504776  0.64028854  1
