# generated using pymatgen
data_K2Na4Ca5(Si6O17)2
_symmetry_space_group_name_H-M   'P 1'
_cell_length_a   7.45436031
_cell_length_b   10.31260056
_cell_length_c   12.79594492
_cell_angle_alpha   111.28966666
_cell_angle_beta   90.00000000
_cell_angle_gamma   111.18742905
_symmetry_Int_Tables_number   1
_chemical_formula_structural   K2Na4Ca5(Si6O17)2
_chemical_formula_sum   'K2 Na4 Ca5 Si12 O34'
_cell_volume   844.78374072
_cell_formula_units_Z   1
loop_
 _symmetry_equiv_pos_site_id
 _symmetry_equiv_pos_as_xyz
  1  'x, y, z'
loop_
 _atom_site_type_symbol
 _atom_site_label
 _atom_site_symmetry_multiplicity
 _atom_site_fract_x
 _atom_site_fract_y
 _atom_site_fract_z
 _atom_site_occupancy
  K  K0  1  0.84188669  0.68377338  0.49957963  1
  K  K1  1  0.15874354  0.31748707  0.50166747  1
  Na  Na2  1  0.00130984  0.00261968  0.00105202  1
  Na  Na3  1  0.50051021  0.00102042  0.00299338  1
  Na  Na4  1  0.25693826  0.51387652  0.00941940  1
  Na  Na5  1  0.50346558  0.00693116  0.51882207  1
  Ca  Ca6  1  0.74414441  0.48828882  0.99324221  1
  Ca  Ca7  1  0.09116125  0.68112841  0.84525468  1
  Ca  Ca8  1  0.58996716  0.68112841  0.84525468  1
  Ca  Ca9  1  0.91299449  0.32089233  0.15708590  1
  Ca  Ca10  1  0.40789784  0.32089233  0.15708590  1
  Si  Si11  1  0.93410868  0.29216628  0.75144019  1
  Si  Si12  1  0.35805761  0.29216628  0.75144019  1
  Si  Si13  1  0.06343819  0.71364031  0.25276754  1
  Si  Si14  1  0.65020211  0.71364031  0.25276754  1
  Si  Si15  1  0.70093228  0.40186456  0.63264948  1
  Si  Si16  1  0.30075567  0.60151134  0.36819932  1
  Si  Si17  1  0.81000461  0.03738161  0.25119157  1
  Si  Si18  1  0.22737700  0.03738161  0.25119157  1
  Si  Si19  1  0.19068792  0.96435014  0.74889519  1
  Si  Si20  1  0.77366221  0.96435014  0.74889519  1
  Si  Si21  1  0.63401441  0.26802882  0.36950959  1
  Si  Si22  1  0.36694188  0.73388376  0.63058032  1
  O  O23  1  0.96474979  0.43765266  0.86379507  1
  O  O24  1  0.47290287  0.43765266  0.86379507  1
  O  O25  1  0.00750758  0.56393329  0.13935872  1
  O  O26  1  0.55642571  0.56393329  0.13935872  1
  O  O27  1  0.82833654  0.30091531  0.63964564  1
  O  O28  1  0.47257877  0.30091531  0.63964564  1
  O  O29  1  0.17339404  0.70158911  0.36099622  1
  O  O30  1  0.52819507  0.70158911  0.36099622  1
  O  O31  1  0.13883735  0.27767470  0.71072426  1
  O  O32  1  0.87077977  0.74155954  0.30442881  1
  O  O33  1  0.79102961  0.13188788  0.75730689  1
  O  O34  1  0.34085827  0.13188788  0.75730689  1
  O  O35  1  0.20875999  0.86889979  0.24073929  1
  O  O36  1  0.66013980  0.86889979  0.24073929  1
  O  O37  1  0.69799971  0.39599942  0.50185826  1
  O  O38  1  0.30293722  0.60587444  0.49889072  1
  O  O39  1  0.67694110  0.35388220  0.28414969  1
  O  O40  1  0.21473380  0.42946760  0.27992126  1
  O  O41  1  0.78738854  0.57477707  0.72004385  1
  O  O42  1  0.32499559  0.64999117  0.71701929  1
  O  O43  1  0.75887400  0.16104753  0.36234272  1
  O  O44  1  0.40217353  0.16104753  0.36234272  1
  O  O45  1  0.24401251  0.84217258  0.63747628  1
  O  O46  1  0.59816007  0.84217258  0.63747628  1
  O  O47  1  0.79851062  0.07068368  0.13971978  1
  O  O48  1  0.27217306  0.07068368  0.13971978  1
  O  O49  1  0.20148647  0.93099630  0.86024490  1
  O  O50  1  0.72950983  0.93099630  0.86024490  1
  O  O51  1  0.63636285  0.27272570  0.03905742  1
  O  O52  1  0.14289220  0.28578441  0.03933055  1
  O  O53  1  0.85823738  0.71647476  0.96239567  1
  O  O54  1  0.36757334  0.73514668  0.96034889  1
  O  O55  1  0.03124295  0.06248590  0.30046439  1
  O  O56  1  0.97009821  0.94019643  0.69913091  1
