# generated using pymatgen
data_Cu7PSe6
_symmetry_space_group_name_H-M   'P 1'
_cell_length_a   10.07280802
_cell_length_b   10.07280802
_cell_length_c   10.07280802
_cell_angle_alpha   90.00000000
_cell_angle_beta   90.00000000
_cell_angle_gamma   90.00000000
_symmetry_Int_Tables_number   1
_chemical_formula_structural   Cu7PSe6
_chemical_formula_sum   'Cu28 P4 Se24'
_cell_volume   1022.00182219
_cell_formula_units_Z   4
loop_
 _symmetry_equiv_pos_site_id
 _symmetry_equiv_pos_as_xyz
  1  'x, y, z'
loop_
 _atom_site_type_symbol
 _atom_site_label
 _atom_site_symmetry_multiplicity
 _atom_site_fract_x
 _atom_site_fract_y
 _atom_site_fract_z
 _atom_site_occupancy
  Cu  Cu0  1  0.22487952  0.92713466  0.89694229  1
  Cu  Cu1  1  0.10305771  0.72487952  0.57286534  1
  Cu  Cu2  1  0.42713466  0.60305771  0.77512048  1
  Cu  Cu3  1  0.72487952  0.57286534  0.10305771  1
  Cu  Cu4  1  0.60305771  0.77512048  0.42713466  1
  Cu  Cu5  1  0.92713466  0.89694229  0.22487952  1
  Cu  Cu6  1  0.77512048  0.42713466  0.60305771  1
  Cu  Cu7  1  0.89694229  0.22487952  0.92713466  1
  Cu  Cu8  1  0.57286534  0.10305771  0.72487952  1
  Cu  Cu9  1  0.27512048  0.07286534  0.39694229  1
  Cu  Cu10  1  0.39694229  0.27512048  0.07286534  1
  Cu  Cu11  1  0.07286534  0.39694229  0.27512048  1
  Cu  Cu12  1  0.01227503  0.77891484  0.98561470  1
  Cu  Cu13  1  0.01438530  0.51227503  0.72108516  1
  Cu  Cu14  1  0.27891484  0.51438530  0.98772497  1
  Cu  Cu15  1  0.51227503  0.72108516  0.01438530  1
  Cu  Cu16  1  0.51438530  0.98772497  0.27891484  1
  Cu  Cu17  1  0.77891484  0.98561470  0.01227503  1
  Cu  Cu18  1  0.98772497  0.27891484  0.51438530  1
  Cu  Cu19  1  0.98561470  0.01227503  0.77891484  1
  Cu  Cu20  1  0.72108516  0.01438530  0.51227503  1
  Cu  Cu21  1  0.48772497  0.22108516  0.48561470  1
  Cu  Cu22  1  0.48561470  0.48772497  0.22108516  1
  Cu  Cu23  1  0.22108516  0.48561470  0.48772497  1
  Cu  Cu24  1  0.34940175  0.84940175  0.65059825  1
  Cu  Cu25  1  0.84940175  0.65059825  0.34940175  1
  Cu  Cu26  1  0.65059825  0.34940175  0.84940175  1
  Cu  Cu27  1  0.15059825  0.15059825  0.15059825  1
  P  P28  1  0.75005303  0.25005303  0.24994697  1
  P  P29  1  0.25005303  0.24994697  0.75005303  1
  P  P30  1  0.24994697  0.75005303  0.25005303  1
  P  P31  1  0.74994697  0.74994697  0.74994697  1
  Se  Se32  1  0.87841858  0.37841858  0.12158142  1
  Se  Se33  1  0.37841858  0.12158142  0.87841858  1
  Se  Se34  1  0.12158142  0.87841858  0.37841858  1
  Se  Se35  1  0.62158142  0.62158142  0.62158142  1
  Se  Se36  1  0.36830360  0.87955294  0.11588397  1
  Se  Se37  1  0.88411603  0.86830360  0.62044706  1
  Se  Se38  1  0.37955294  0.38411603  0.63169640  1
  Se  Se39  1  0.86830360  0.62044706  0.88411603  1
  Se  Se40  1  0.38411603  0.63169640  0.37955294  1
  Se  Se41  1  0.87955294  0.11588397  0.36830360  1
  Se  Se42  1  0.63169640  0.37955294  0.38411603  1
  Se  Se43  1  0.11588397  0.36830360  0.87955294  1
  Se  Se44  1  0.62044706  0.88411603  0.86830360  1
  Se  Se45  1  0.13169640  0.12044706  0.61588397  1
  Se  Se46  1  0.61588397  0.13169640  0.12044706  1
  Se  Se47  1  0.12044706  0.61588397  0.13169640  1
  Se  Se48  1  0.21857676  0.71857676  0.78142324  1
  Se  Se49  1  0.71857676  0.78142324  0.21857676  1
  Se  Se50  1  0.78142324  0.21857676  0.71857676  1
  Se  Se51  1  0.28142324  0.28142324  0.28142324  1
  Se  Se52  1  0.48324118  0.98324118  0.51675882  1
  Se  Se53  1  0.98324118  0.51675882  0.48324118  1
  Se  Se54  1  0.51675882  0.48324118  0.98324118  1
  Se  Se55  1  0.01675882  0.01675882  0.01675882  1
