# generated using pymatgen
data_ZnP14Pb
_symmetry_space_group_name_H-M   'P 1'
_cell_length_a   9.71192520
_cell_length_b   11.98427045
_cell_length_c   14.90336877
_cell_angle_alpha   90.00000000
_cell_angle_beta   90.00000000
_cell_angle_gamma   90.00000000
_symmetry_Int_Tables_number   1
_chemical_formula_structural   ZnP14Pb
_chemical_formula_sum   'Zn4 P56 Pb4'
_cell_volume   1734.60813127
_cell_formula_units_Z   4
loop_
 _symmetry_equiv_pos_site_id
 _symmetry_equiv_pos_as_xyz
  1  'x, y, z'
loop_
 _atom_site_type_symbol
 _atom_site_label
 _atom_site_symmetry_multiplicity
 _atom_site_fract_x
 _atom_site_fract_y
 _atom_site_fract_z
 _atom_site_occupancy
  Zn  Zn0  1  0.25000000  0.83887966  0.88518474  1
  Zn  Zn1  1  0.25000000  0.66112034  0.38518474  1
  Zn  Zn2  1  0.75000000  0.16112034  0.11481526  1
  Zn  Zn3  1  0.75000000  0.33887966  0.61481526  1
  P  P4  1  0.25000000  0.68163568  0.54309787  1
  P  P5  1  0.25000000  0.81836432  0.04309787  1
  P  P6  1  0.75000000  0.31836432  0.45690213  1
  P  P7  1  0.75000000  0.18163568  0.95690213  1
  P  P8  1  0.25000000  0.26259956  0.96513955  1
  P  P9  1  0.25000000  0.23740044  0.46513955  1
  P  P10  1  0.75000000  0.73740044  0.03486045  1
  P  P11  1  0.75000000  0.76259956  0.53486045  1
  P  P12  1  0.25000000  0.12645811  0.58773048  1
  P  P13  1  0.25000000  0.37354189  0.08773048  1
  P  P14  1  0.75000000  0.87354189  0.41226952  1
  P  P15  1  0.75000000  0.62645811  0.91226952  1
  P  P16  1  0.25000000  0.64854609  0.84998775  1
  P  P17  1  0.25000000  0.85145391  0.34998775  1
  P  P18  1  0.75000000  0.35145391  0.15001225  1
  P  P19  1  0.75000000  0.14854609  0.65001225  1
  P  P20  1  0.06678046  0.15594550  0.98282968  1
  P  P21  1  0.43321954  0.34405450  0.48282968  1
  P  P22  1  0.56678046  0.84405450  0.01717032  1
  P  P23  1  0.93321954  0.65594550  0.51717032  1
  P  P24  1  0.93321954  0.84405450  0.01717032  1
  P  P25  1  0.56678046  0.65594550  0.51717032  1
  P  P26  1  0.43321954  0.15594550  0.98282968  1
  P  P27  1  0.06678046  0.34405450  0.48282968  1
  P  P28  1  0.07204505  0.79417541  0.56035404  1
  P  P29  1  0.42795495  0.70582459  0.06035404  1
  P  P30  1  0.57204505  0.20582459  0.43964596  1
  P  P31  1  0.92795495  0.29417541  0.93964596  1
  P  P32  1  0.92795495  0.20582459  0.43964596  1
  P  P33  1  0.57204505  0.29417541  0.93964596  1
  P  P34  1  0.42795495  0.79417541  0.56035404  1
  P  P35  1  0.07204505  0.70582459  0.06035404  1
  P  P36  1  0.07475372  0.59194401  0.93193113  1
  P  P37  1  0.42524628  0.90805599  0.43193113  1
  P  P38  1  0.57475372  0.40805599  0.06806887  1
  P  P39  1  0.92524628  0.09194401  0.56806887  1
  P  P40  1  0.92524628  0.40805599  0.06806887  1
  P  P41  1  0.57475372  0.09194401  0.56806887  1
  P  P42  1  0.42524628  0.59194401  0.93193113  1
  P  P43  1  0.07475372  0.90805599  0.43193113  1
  P  P44  1  0.06570815  0.18031522  0.66364511  1
  P  P45  1  0.43429185  0.31968478  0.16364511  1
  P  P46  1  0.56570815  0.81968478  0.33635489  1
  P  P47  1  0.93429185  0.68031522  0.83635489  1
  P  P48  1  0.93429185  0.81968478  0.33635489  1
  P  P49  1  0.56570815  0.68031522  0.83635489  1
  P  P50  1  0.43429185  0.18031522  0.66364511  1
  P  P51  1  0.06570815  0.31968478  0.16364511  1
  P  P52  1  0.01979668  0.35607143  0.62818182  1
  P  P53  1  0.48020332  0.14392857  0.12818182  1
  P  P54  1  0.51979668  0.64392857  0.37181818  1
  P  P55  1  0.98020332  0.85607143  0.87181818  1
  P  P56  1  0.98020332  0.64392857  0.37181818  1
  P  P57  1  0.51979668  0.85607143  0.87181818  1
  P  P58  1  0.48020332  0.35607143  0.62818182  1
  P  P59  1  0.01979668  0.14392857  0.12818182  1
  Pb  Pb60  1  0.25000000  0.50466326  0.68207459  1
  Pb  Pb61  1  0.25000000  0.99533674  0.18207459  1
  Pb  Pb62  1  0.75000000  0.49533674  0.31792541  1
  Pb  Pb63  1  0.75000000  0.00466326  0.81792541  1
