# generated using pymatgen
data_LaB5IO11
_symmetry_space_group_name_H-M   'P 1'
_cell_length_a   6.56171063
_cell_length_b   10.09475650
_cell_length_c   15.89062769
_cell_angle_alpha   90.00000000
_cell_angle_beta   90.00000000
_cell_angle_gamma   87.96876936
_symmetry_Int_Tables_number   1
_chemical_formula_structural   LaB5IO11
_chemical_formula_sum   'La4 B20 I4 O44'
_cell_volume   1051.91585675
_cell_formula_units_Z   4
loop_
 _symmetry_equiv_pos_site_id
 _symmetry_equiv_pos_as_xyz
  1  'x, y, z'
loop_
 _atom_site_type_symbol
 _atom_site_label
 _atom_site_symmetry_multiplicity
 _atom_site_fract_x
 _atom_site_fract_y
 _atom_site_fract_z
 _atom_site_occupancy
  La  La0  1  0.34882581  0.19958671  0.33489845  1
  La  La1  1  0.84882581  0.69958671  0.16510155  1
  La  La2  1  0.65117419  0.80041329  0.66510155  1
  La  La3  1  0.15117419  0.30041329  0.83489845  1
  B  B4  1  0.30297640  0.13297877  0.54688932  1
  B  B5  1  0.80297640  0.63297877  0.95311068  1
  B  B6  1  0.69702360  0.86702123  0.45311068  1
  B  B7  1  0.19702360  0.36702123  0.04688932  1
  B  B8  1  0.83103219  0.00263541  0.34286296  1
  B  B9  1  0.33103219  0.50263541  0.15713704  1
  B  B10  1  0.16896781  0.99736459  0.65713704  1
  B  B11  1  0.66896781  0.49736459  0.84286296  1
  B  B12  1  0.89090108  0.22661053  0.27910806  1
  B  B13  1  0.39090108  0.72661053  0.22089194  1
  B  B14  1  0.10909892  0.77338947  0.72089194  1
  B  B15  1  0.60909892  0.27338947  0.77910806  1
  B  B16  1  0.63688719  0.37314936  0.21373714  1
  B  B17  1  0.13688719  0.87314936  0.28626286  1
  B  B18  1  0.36311281  0.62685064  0.78626286  1
  B  B19  1  0.86311281  0.12685064  0.71373714  1
  B  B20  1  0.49476893  0.10012810  0.67904525  1
  B  B21  1  0.99476893  0.60012810  0.82095475  1
  B  B22  1  0.50523107  0.89987190  0.32095475  1
  B  B23  1  0.00523107  0.39987190  0.17904525  1
  I  I24  1  0.26277832  0.04742127  0.04345661  1
  I  I25  1  0.76277832  0.54742127  0.45654339  1
  I  I26  1  0.73722168  0.95257873  0.95654339  1
  I  I27  1  0.23722168  0.45257873  0.54345661  1
  O  O28  1  0.69130543  0.25214367  0.25271585  1
  O  O29  1  0.19130543  0.75214367  0.24728415  1
  O  O30  1  0.30869457  0.74785633  0.74728415  1
  O  O31  1  0.80869457  0.24785633  0.75271585  1
  O  O32  1  0.04484636  0.30526178  0.25217450  1
  O  O33  1  0.54484636  0.80526178  0.24782550  1
  O  O34  1  0.95515364  0.69473822  0.74782550  1
  O  O35  1  0.45515364  0.19473822  0.75217450  1
  O  O36  1  0.61854456  0.01993274  0.31355012  1
  O  O37  1  0.11854456  0.51993274  0.18644988  1
  O  O38  1  0.38145544  0.98006726  0.68644988  1
  O  O39  1  0.88145544  0.48006726  0.81355012  1
  O  O40  1  0.94501883  0.12597931  0.33181279  1
  O  O41  1  0.44501883  0.62597931  0.16818721  1
  O  O42  1  0.05498117  0.87402069  0.66818721  1
  O  O43  1  0.55498117  0.37402069  0.83181279  1
  O  O44  1  0.43351913  0.39884831  0.21430802  1
  O  O45  1  0.93351913  0.89884831  0.28569198  1
  O  O46  1  0.56648087  0.60115169  0.78569198  1
  O  O47  1  0.06648087  0.10115169  0.71430802  1
  O  O48  1  0.45592012  0.17180976  0.60163604  1
  O  O49  1  0.95592012  0.67180976  0.89836396  1
  O  O50  1  0.54407988  0.82819024  0.39836396  1
  O  O51  1  0.04407988  0.32819024  0.10163604  1
  O  O52  1  0.28651599  0.95206264  0.31542359  1
  O  O53  1  0.78651599  0.45206264  0.18457641  1
  O  O54  1  0.71348401  0.04793736  0.68457641  1
  O  O55  1  0.21348401  0.54793736  0.81542359  1
  O  O56  1  0.16176378  0.04390889  0.57138540  1
  O  O57  1  0.66176378  0.54390889  0.92861460  1
  O  O58  1  0.83823622  0.95609111  0.42861460  1
  O  O59  1  0.33823622  0.45609111  0.07138540  1
  O  O60  1  0.29301578  0.19549533  0.46952115  1
  O  O61  1  0.79301578  0.69549533  0.03047885  1
  O  O62  1  0.70698422  0.80450467  0.53047885  1
  O  O63  1  0.20698422  0.30450467  0.96952115  1
  O  O64  1  0.14986877  0.49965595  0.43675080  1
  O  O65  1  0.64986877  0.99965595  0.06324920  1
  O  O66  1  0.85013123  0.50034405  0.56324920  1
  O  O67  1  0.35013123  0.00034405  0.93675080  1
  O  O68  1  0.67011291  0.39580956  0.40832444  1
  O  O69  1  0.17011291  0.89580956  0.09167556  1
  O  O70  1  0.32988709  0.60419044  0.59167556  1
  O  O71  1  0.82988709  0.10419044  0.90832444  1
