# generated using pymatgen
data_AlSiH11C3O
_symmetry_space_group_name_H-M   'P 1'
_cell_length_a   8.34516745
_cell_length_b   10.31087722
_cell_length_c   10.97004320
_cell_angle_alpha   100.81669506
_cell_angle_beta   112.35608787
_cell_angle_gamma   90.00000000
_symmetry_Int_Tables_number   1
_chemical_formula_structural   AlSiH11C3O
_chemical_formula_sum   'Al4 Si4 H44 C12 O4'
_cell_volume   854.81862080
_cell_formula_units_Z   4
loop_
 _symmetry_equiv_pos_site_id
 _symmetry_equiv_pos_as_xyz
  1  'x, y, z'
loop_
 _atom_site_type_symbol
 _atom_site_label
 _atom_site_symmetry_multiplicity
 _atom_site_fract_x
 _atom_site_fract_y
 _atom_site_fract_z
 _atom_site_occupancy
  Al  Al0  1  0.39868427  0.61151124  0.00687499  1
  Al  Al1  1  0.39180928  0.88848876  0.99312501  1
  Al  Al2  1  0.60131573  0.38848876  0.99312501  1
  Al  Al3  1  0.60819072  0.11151124  0.00687499  1
  Si  Si4  1  0.21173218  0.36444849  0.75811086  1
  Si  Si5  1  0.45362132  0.13555151  0.24188914  1
  Si  Si6  1  0.78826782  0.63555151  0.24188914  1
  Si  Si7  1  0.54637868  0.86444849  0.75811086  1
  H  H8  1  0.98253166  0.50635053  0.79024958  1
  H  H9  1  0.19228208  0.99364947  0.20975042  1
  H  H10  1  0.01746834  0.49364947  0.20975042  1
  H  H11  1  0.80771792  0.00635053  0.79024958  1
  H  H12  1  0.08567953  0.57548128  0.69888737  1
  H  H13  1  0.38679215  0.92451872  0.30111263  1
  H  H14  1  0.91432047  0.42451872  0.30111263  1
  H  H15  1  0.61320785  0.07548128  0.69888737  1
  H  H16  1  0.93394441  0.43415624  0.61858637  1
  H  H17  1  0.31535804  0.06584376  0.38141363  1
  H  H18  1  0.06605559  0.56584376  0.38141363  1
  H  H19  1  0.68464196  0.93415624  0.61858637  1
  H  H20  1  0.20997193  0.13835216  0.80721420  1
  H  H21  1  0.40275773  0.36164784  0.19278580  1
  H  H22  1  0.79002807  0.86164784  0.19278580  1
  H  H23  1  0.59724227  0.63835216  0.80721420  1
  H  H24  1  0.06773463  0.23792080  0.86462218  1
  H  H25  1  0.20311245  0.26207920  0.13537782  1
  H  H26  1  0.93226537  0.76207920  0.13537782  1
  H  H27  1  0.79688755  0.73792080  0.86462218  1
  H  H28  1  0.00511374  0.17049712  0.69017841  1
  H  H29  1  0.31493533  0.32950288  0.30982159  1
  H  H30  1  0.99488626  0.82950288  0.30982159  1
  H  H31  1  0.68506467  0.67049712  0.69017841  1
  H  H32  1  0.39337691  0.25159927  0.64159551  1
  H  H33  1  0.75178140  0.24840073  0.35840449  1
  H  H34  1  0.60662309  0.74840073  0.35840449  1
  H  H35  1  0.24821860  0.75159927  0.64159551  1
  H  H36  1  0.18370553  0.27777369  0.52545946  1
  H  H37  1  0.65824608  0.22222631  0.47454054  1
  H  H38  1  0.81629447  0.72222631  0.47454054  1
  H  H39  1  0.34175392  0.77777369  0.52545946  1
  H  H40  1  0.34836745  0.41127765  0.60346269  1
  H  H41  1  0.74490475  0.08872235  0.39653731  1
  H  H42  1  0.65163255  0.58872235  0.39653731  1
  H  H43  1  0.25509525  0.91127765  0.60346269  1
  H  H44  1  0.25694045  0.60464791  0.07056392  1
  H  H45  1  0.18637653  0.89535209  0.92943608  1
  H  H46  1  0.74305955  0.39535209  0.92943608  1
  H  H47  1  0.81362347  0.10464791  0.07056392  1
  H  H48  1  0.36186552  0.69886156  0.88682784  1
  H  H49  1  0.47503768  0.80113844  0.11317216  1
  H  H50  1  0.63813448  0.30113844  0.11317216  1
  H  H51  1  0.52496232  0.19886156  0.88682784  1
  C  C52  1  0.03883119  0.48262127  0.71404835  1
  C  C53  1  0.32478285  0.01737873  0.28595165  1
  C  C54  1  0.96116881  0.51737873  0.28595165  1
  C  C55  1  0.67521715  0.98262127  0.71404835  1
  C  C56  1  0.11625865  0.21362326  0.78395490  1
  C  C57  1  0.33230376  0.28637674  0.21604510  1
  C  C58  1  0.88374135  0.78637674  0.21604510  1
  C  C59  1  0.66769624  0.71362326  0.78395490  1
  C  C60  1  0.29299109  0.32238276  0.61968763  1
  C  C61  1  0.67330346  0.17761724  0.38031237  1
  C  C62  1  0.70700891  0.67761724  0.38031237  1
  C  C63  1  0.32669654  0.82238276  0.61968763  1
  O  O64  1  0.38097206  0.43626237  0.90120911  1
  O  O65  1  0.47976295  0.06373763  0.09879089  1
  O  O66  1  0.61902794  0.56373763  0.09879089  1
  O  O67  1  0.52023705  0.93626237  0.90120911  1
