# generated using pymatgen
data_As(IF3)2
_symmetry_space_group_name_H-M   'P 1'
_cell_length_a   7.29329915
_cell_length_b   7.29329915
_cell_length_c   15.47622535
_cell_angle_alpha   96.70787421
_cell_angle_beta   96.70787421
_cell_angle_gamma   120.28678176
_symmetry_Int_Tables_number   1
_chemical_formula_structural   As(IF3)2
_chemical_formula_sum   'As2 I4 F12'
_cell_volume   691.01157987
_cell_formula_units_Z   2
loop_
 _symmetry_equiv_pos_site_id
 _symmetry_equiv_pos_as_xyz
  1  'x, y, z'
loop_
 _atom_site_type_symbol
 _atom_site_label
 _atom_site_symmetry_multiplicity
 _atom_site_fract_x
 _atom_site_fract_y
 _atom_site_fract_z
 _atom_site_occupancy
  As  As0  1  0.26110151  0.26110151  0.71871682  1
  As  As1  1  0.73889849  0.73889849  0.28128318  1
  I  I2  1  0.45070571  0.94496322  0.41345811  1
  I  I3  1  0.94496322  0.45070571  0.41345811  1
  I  I4  1  0.54929429  0.05503678  0.58654189  1
  I  I5  1  0.05503678  0.54929429  0.58654189  1
  F  F6  1  0.26071406  0.26071406  0.83073794  1
  F  F7  1  0.73928594  0.73928594  0.16926206  1
  F  F8  1  0.98236439  0.18241693  0.69590650  1
  F  F9  1  0.18241693  0.98236439  0.69590650  1
  F  F10  1  0.01763561  0.81758307  0.30409350  1
  F  F11  1  0.81758307  0.01763561  0.30409350  1
  F  F12  1  0.33702572  0.53874528  0.73401148  1
  F  F13  1  0.53874528  0.33702572  0.73401148  1
  F  F14  1  0.66297428  0.46125472  0.26598852  1
  F  F15  1  0.46125472  0.66297428  0.26598852  1
  F  F16  1  0.25873110  0.25873110  0.60205365  1
  F  F17  1  0.74126890  0.74126890  0.39794635  1
