# generated using pymatgen
data_Th3(Si3Ru)4
_symmetry_space_group_name_H-M   'P 1'
_cell_length_a   8.31029016
_cell_length_b   8.33798102
_cell_length_c   10.16917175
_cell_angle_alpha   90.00000000
_cell_angle_beta   114.11704926
_cell_angle_gamma   90.00000000
_symmetry_Int_Tables_number   1
_chemical_formula_structural   Th3(Si3Ru)4
_chemical_formula_sum   'Th6 Si24 Ru8'
_cell_volume   643.12698620
_cell_formula_units_Z   2
loop_
 _symmetry_equiv_pos_site_id
 _symmetry_equiv_pos_as_xyz
  1  'x, y, z'
loop_
 _atom_site_type_symbol
 _atom_site_label
 _atom_site_symmetry_multiplicity
 _atom_site_fract_x
 _atom_site_fract_y
 _atom_site_fract_z
 _atom_site_occupancy
  Th  Th0  1  0.00000000  -0.00000000  -0.00000000  1
  Th  Th1  1  0.50000000  0.50000000  -0.00000000  1
  Th  Th2  1  0.50476008  0.25000000  0.50000000  1
  Th  Th3  1  0.49523992  0.75000000  0.50000000  1
  Th  Th4  1  0.99523992  0.75000000  0.50000000  1
  Th  Th5  1  0.00476008  0.25000000  0.50000000  1
  Si  Si6  1  0.29353315  -0.00000000  0.58706630  1
  Si  Si7  1  0.70646685  -0.00000000  0.41293370  1
  Si  Si8  1  0.20646685  0.50000000  0.41293370  1
  Si  Si9  1  0.79353315  0.50000000  0.58706630  1
  Si  Si10  1  0.33535336  0.16583967  1.00000000  1
  Si  Si11  1  0.66464664  0.83416033  0.00000000  1
  Si  Si12  1  0.16464664  0.66583967  0.00000000  1
  Si  Si13  1  0.83535336  0.33416033  1.00000000  1
  Si  Si14  1  0.60645737  0.00227474  0.76342346  1
  Si  Si15  1  0.39354263  0.99772526  0.23657654  1
  Si  Si16  1  0.89354263  0.50227474  0.23657654  1
  Si  Si17  1  0.34303391  0.49772526  0.23657654  1
  Si  Si18  1  0.10645737  0.49772526  0.76342346  1
  Si  Si19  1  0.65696609  0.50227474  0.76342346  1
  Si  Si20  1  0.15696609  0.99772526  0.76342346  1
  Si  Si21  1  0.84303391  0.00227474  0.23657654  1
  Si  Si22  1  0.12292569  0.27410688  0.23571052  1
  Si  Si23  1  0.87707431  0.72589312  0.76428948  1
  Si  Si24  1  0.37707431  0.77410688  0.76428948  1
  Si  Si25  1  0.38721517  0.22589312  0.76428948  1
  Si  Si26  1  0.62292569  0.22589312  0.23571052  1
  Si  Si27  1  0.61278483  0.77410688  0.23571052  1
  Si  Si28  1  0.11278483  0.72589312  0.23571052  1
  Si  Si29  1  0.88721517  0.27410688  0.76428948  1
  Ru  Ru30  1  0.16499483  -0.00000000  0.32998965  1
  Ru  Ru31  1  0.83500517  -0.00000000  0.67001035  1
  Ru  Ru32  1  0.33500517  0.50000000  0.67001035  1
  Ru  Ru33  1  0.66499483  0.50000000  0.32998965  1
  Ru  Ru34  1  0.12799455  0.37418648  1.00000000  1
  Ru  Ru35  1  0.87200545  0.62581352  0.00000000  1
  Ru  Ru36  1  0.37200545  0.87418648  0.00000000  1
  Ru  Ru37  1  0.62799455  0.12581352  1.00000000  1
