# generated using pymatgen
data_Tb(GaCo2)4
_symmetry_space_group_name_H-M   'P 1'
_cell_length_a   4.94084309
_cell_length_b   6.41375480
_cell_length_c   6.41375480
_cell_angle_alpha   81.46809310
_cell_angle_beta   67.34536518
_cell_angle_gamma   67.34536518
_symmetry_Int_Tables_number   1
_chemical_formula_structural   Tb(GaCo2)4
_chemical_formula_sum   'Tb1 Ga4 Co8'
_cell_volume   173.09389139
_cell_formula_units_Z   1
loop_
 _symmetry_equiv_pos_site_id
 _symmetry_equiv_pos_as_xyz
  1  'x, y, z'
loop_
 _atom_site_type_symbol
 _atom_site_label
 _atom_site_symmetry_multiplicity
 _atom_site_fract_x
 _atom_site_fract_y
 _atom_site_fract_z
 _atom_site_occupancy
  Tb  Tb0  1  0.00000000  -0.00000000  -0.00000000  1
  Ga  Ga1  1  0.34377811  0.65622189  0.65622189  1
  Ga  Ga2  1  0.65622189  0.34377811  0.34377811  1
  Ga  Ga3  1  0.00000000  0.34377811  0.65622189  1
  Ga  Ga4  1  0.00000000  0.65622189  0.34377811  1
  Co  Co5  1  0.27494462  0.22505538  0.22505538  1
  Co  Co6  1  0.72505538  0.77494462  0.77494462  1
  Co  Co7  1  0.50000000  0.77494462  0.22505538  1
  Co  Co8  1  0.50000000  0.22505538  0.77494462  1
  Co  Co9  1  0.50000000  -0.00000000  0.50000000  1
  Co  Co10  1  0.00000000  -0.00000000  0.50000000  1
  Co  Co11  1  0.00000000  0.50000000  -0.00000000  1
  Co  Co12  1  0.50000000  0.50000000  -0.00000000  1
