# generated using pymatgen
data_ZnCu2(BO3)2
_symmetry_space_group_name_H-M   'P 1'
_cell_length_a   3.37434724
_cell_length_b   9.35990842
_cell_length_c   14.93299484
_cell_angle_alpha   90.00000000
_cell_angle_beta   90.00000000
_cell_angle_gamma   96.97270205
_symmetry_Int_Tables_number   1
_chemical_formula_structural   ZnCu2(BO3)2
_chemical_formula_sum   'Zn4 Cu8 B8 O24'
_cell_volume   468.14927147
_cell_formula_units_Z   4
loop_
 _symmetry_equiv_pos_site_id
 _symmetry_equiv_pos_as_xyz
  1  'x, y, z'
loop_
 _atom_site_type_symbol
 _atom_site_label
 _atom_site_symmetry_multiplicity
 _atom_site_fract_x
 _atom_site_fract_y
 _atom_site_fract_z
 _atom_site_occupancy
  Zn  Zn0  1  0.26687561  0.63629219  0.63814162  1
  Zn  Zn1  1  0.73312439  0.36370781  0.36185838  1
  Zn  Zn2  1  0.73312439  0.86370781  0.13814162  1
  Zn  Zn3  1  0.26687561  0.13629219  0.86185838  1
  Cu  Cu4  1  0.84657246  0.87661256  0.75934586  1
  Cu  Cu5  1  0.15342754  0.12338744  0.24065414  1
  Cu  Cu6  1  0.15342754  0.62338744  0.25934586  1
  Cu  Cu7  1  0.84657246  0.37661256  0.74065414  1
  Cu  Cu8  1  0.79944010  0.86536381  0.54320285  1
  Cu  Cu9  1  0.20055990  0.13463619  0.45679715  1
  Cu  Cu10  1  0.20055990  0.63463619  0.04320285  1
  Cu  Cu11  1  0.79944010  0.36536381  0.95679715  1
  B  B12  1  0.66671357  0.83276871  0.92066172  1
  B  B13  1  0.33328643  0.16723129  0.07933828  1
  B  B14  1  0.33328643  0.66723129  0.42066172  1
  B  B15  1  0.66671357  0.33276871  0.57933828  1
  B  B16  1  0.68249660  0.90396522  0.34797749  1
  B  B17  1  0.31750340  0.09603478  0.65202251  1
  B  B18  1  0.31750340  0.59603478  0.84797749  1
  B  B19  1  0.68249660  0.40396522  0.15202251  1
  O  O20  1  0.39120080  0.70626994  0.50685406  1
  O  O21  1  0.60879920  0.29373006  0.49314594  1
  O  O22  1  0.60879920  0.79373006  0.00685406  1
  O  O23  1  0.39120080  0.20626994  0.99314594  1
  O  O24  1  0.86224726  0.95517300  0.88413100  1
  O  O25  1  0.13775274  0.04482700  0.11586900  1
  O  O26  1  0.13775274  0.54482700  0.38413100  1
  O  O27  1  0.86224726  0.45517300  0.61586900  1
  O  O28  1  0.81845310  0.96405607  0.42648918  1
  O  O29  1  0.18154690  0.03594393  0.57351082  1
  O  O30  1  0.18154690  0.53594393  0.92648918  1
  O  O31  1  0.81845310  0.46405607  0.07351082  1
  O  O32  1  0.80675968  0.76225684  0.65493674  1
  O  O33  1  0.19324032  0.23774316  0.34506326  1
  O  O34  1  0.19324032  0.73774316  0.15493674  1
  O  O35  1  0.80675968  0.26225684  0.84506326  1
  O  O36  1  0.73047896  0.96845176  0.26597272  1
  O  O37  1  0.26952104  0.03154824  0.73402728  1
  O  O38  1  0.26952104  0.53154824  0.76597272  1
  O  O39  1  0.73047896  0.46845176  0.23402728  1
  O  O40  1  0.52527417  0.73673167  0.84874342  1
  O  O41  1  0.47472583  0.26326833  0.15125658  1
  O  O42  1  0.47472583  0.76326833  0.34874342  1
  O  O43  1  0.52527417  0.23673167  0.65125658  1
