# generated using pymatgen
data_YbTlS2O9
_symmetry_space_group_name_H-M   'P 1'
_cell_length_a   7.58316530
_cell_length_b   10.68043111
_cell_length_c   9.87462896
_cell_angle_alpha   120.65654398
_cell_angle_beta   90.00000000
_cell_angle_gamma   90.00000000
_symmetry_Int_Tables_number   1
_chemical_formula_structural   YbTlS2O9
_chemical_formula_sum   'Yb4 Tl4 S8 O36'
_cell_volume   687.98559306
_cell_formula_units_Z   4
loop_
 _symmetry_equiv_pos_site_id
 _symmetry_equiv_pos_as_xyz
  1  'x, y, z'
loop_
 _atom_site_type_symbol
 _atom_site_label
 _atom_site_symmetry_multiplicity
 _atom_site_fract_x
 _atom_site_fract_y
 _atom_site_fract_z
 _atom_site_occupancy
  Yb  Yb0  1  0.33872514  0.95114875  0.71007750  1
  Yb  Yb1  1  0.66127486  0.04885125  0.28992250  1
  Yb  Yb2  1  0.83872514  0.54885125  0.78992250  1
  Yb  Yb3  1  0.16127486  0.45114875  0.21007750  1
  Tl  Tl4  1  0.32432619  0.73376740  0.98073114  1
  Tl  Tl5  1  0.67567381  0.26623260  0.01926886  1
  Tl  Tl6  1  0.82432619  0.76623260  0.51926886  1
  Tl  Tl7  1  0.17567381  0.23376740  0.48073114  1
  S  S8  1  0.10898369  0.30136898  0.85243997  1
  S  S9  1  0.89101631  0.69863102  0.14756003  1
  S  S10  1  0.60898369  0.19863102  0.64756003  1
  S  S11  1  0.39101631  0.80136898  0.35243997  1
  S  S12  1  0.21990481  0.58892204  0.59742156  1
  S  S13  1  0.78009519  0.41107796  0.40257844  1
  S  S14  1  0.71990481  0.91107796  0.90257844  1
  S  S15  1  0.28009519  0.08892204  0.09742156  1
  O  O16  1  0.79754282  0.06310364  0.99935654  1
  O  O17  1  0.20245718  0.93689636  0.00064346  1
  O  O18  1  0.29754282  0.43689636  0.50064346  1
  O  O19  1  0.70245718  0.56310364  0.49935654  1
  O  O20  1  0.16563873  0.14926298  0.76244430  1
  O  O21  1  0.83436127  0.85073702  0.23755570  1
  O  O22  1  0.66563873  0.35073702  0.73755570  1
  O  O23  1  0.33436127  0.64926298  0.26244430  1
  O  O24  1  0.36013551  0.69999725  0.65405870  1
  O  O25  1  0.63986449  0.30000275  0.34594130  1
  O  O26  1  0.86013551  0.80000275  0.84594130  1
  O  O27  1  0.13986449  0.19999725  0.15405870  1
  O  O28  1  0.39797719  0.10722015  0.98816702  1
  O  O29  1  0.60202281  0.89277985  0.01183298  1
  O  O30  1  0.89797719  0.39277985  0.51183298  1
  O  O31  1  0.10202281  0.60722015  0.48816702  1
  O  O32  1  0.00421985  0.91508160  0.68588150  1
  O  O33  1  0.99578015  0.08491840  0.31411850  1
  O  O34  1  0.50421985  0.58491840  0.81411850  1
  O  O35  1  0.49578015  0.41508160  0.18588150  1
  O  O36  1  0.24916171  0.40007053  0.95491471  1
  O  O37  1  0.75083829  0.59992947  0.04508529  1
  O  O38  1  0.74916171  0.09992947  0.54508529  1
  O  O39  1  0.25083829  0.90007053  0.45491471  1
  O  O40  1  0.95912784  0.32495675  0.96473806  1
  O  O41  1  0.04087216  0.67504325  0.03526194  1
  O  O42  1  0.45912784  0.17504325  0.53526194  1
  O  O43  1  0.54087216  0.82495675  0.46473806  1
  O  O44  1  0.04782641  0.34638324  0.73746378  1
  O  O45  1  0.95217359  0.65361676  0.26253622  1
  O  O46  1  0.54782641  0.15361676  0.76253622  1
  O  O47  1  0.45217359  0.84638324  0.23746378  1
  O  O48  1  0.62394888  0.89664937  0.76412580  1
  O  O49  1  0.37605112  0.10335063  0.23587420  1
  O  O50  1  0.12394888  0.60335063  0.73587420  1
  O  O51  1  0.87605112  0.39664937  0.26412580  1
