# generated using pymatgen
data_YbNb5Ag2O15
_symmetry_space_group_name_H-M   'P 1'
_cell_length_a   3.94700528
_cell_length_b   12.67193720
_cell_length_c   12.67193720
_cell_angle_alpha   90.00000000
_cell_angle_beta   90.00000000
_cell_angle_gamma   90.00000000
_symmetry_Int_Tables_number   1
_chemical_formula_structural   YbNb5Ag2O15
_chemical_formula_sum   'Yb2 Nb10 Ag4 O30'
_cell_volume   633.80218386
_cell_formula_units_Z   2
loop_
 _symmetry_equiv_pos_site_id
 _symmetry_equiv_pos_as_xyz
  1  'x, y, z'
loop_
 _atom_site_type_symbol
 _atom_site_label
 _atom_site_symmetry_multiplicity
 _atom_site_fract_x
 _atom_site_fract_y
 _atom_site_fract_z
 _atom_site_occupancy
  Yb  Yb0  1  0.50000000  -0.00000000  0.00000000  1
  Yb  Yb1  1  0.50000000  0.50000000  0.50000000  1
  Nb  Nb2  1  -0.00000000  -0.00000000  0.50000000  1
  Nb  Nb3  1  -0.00000000  0.50000000  0.00000000  1
  Nb  Nb4  1  -0.00000000  0.07888424  0.21058260  1
  Nb  Nb5  1  0.00000000  0.92111576  0.78941740  1
  Nb  Nb6  1  0.00000000  0.78941740  0.07888424  1
  Nb  Nb7  1  0.00000000  0.42111576  0.71058260  1
  Nb  Nb8  1  -0.00000000  0.21058260  0.92111576  1
  Nb  Nb9  1  -0.00000000  0.57888424  0.28941740  1
  Nb  Nb10  1  -0.00000000  0.71058260  0.57888424  1
  Nb  Nb11  1  0.00000000  0.28941740  0.42111576  1
  Ag  Ag12  1  0.50000000  0.17586276  0.67586276  1
  Ag  Ag13  1  0.50000000  0.82413724  0.32413724  1
  Ag  Ag14  1  0.50000000  0.32413724  0.17586276  1
  Ag  Ag15  1  0.50000000  0.67586276  0.82413724  1
  O  O16  1  0.50000000  0.08364784  0.19210969  1
  O  O17  1  0.50000000  0.91635216  0.80789031  1
  O  O18  1  0.50000000  0.80789031  0.08364784  1
  O  O19  1  0.50000000  0.41635216  0.69210969  1
  O  O20  1  0.50000000  0.19210969  0.91635216  1
  O  O21  1  0.50000000  0.58364784  0.30789031  1
  O  O22  1  0.50000000  0.69210969  0.58364784  1
  O  O23  1  0.50000000  0.30789031  0.41635216  1
  O  O24  1  0.00000000  0.72758453  0.22758453  1
  O  O25  1  -0.00000000  0.27241547  0.77241547  1
  O  O26  1  -0.00000000  0.77241547  0.72758453  1
  O  O27  1  0.00000000  0.22758453  0.27241547  1
  O  O28  1  0.50000000  -0.00000000  0.50000000  1
  O  O29  1  0.50000000  0.50000000  0.00000000  1
  O  O30  1  -0.00000000  0.13100397  0.05558851  1
  O  O31  1  0.00000000  0.86899603  0.94441149  1
  O  O32  1  -0.00000000  0.94441149  0.13100397  1
  O  O33  1  0.00000000  0.36899603  0.55558851  1
  O  O34  1  0.00000000  0.05558851  0.86899603  1
  O  O35  1  -0.00000000  0.63100397  0.44441149  1
  O  O36  1  0.00000000  0.55558851  0.63100397  1
  O  O37  1  -0.00000000  0.44441149  0.36899603  1
  O  O38  1  -0.00000000  0.99910334  0.34091287  1
  O  O39  1  0.00000000  0.00089666  0.65908713  1
  O  O40  1  -0.00000000  0.65908713  0.99910334  1
  O  O41  1  0.00000000  0.50089666  0.84091287  1
  O  O42  1  0.00000000  0.34091287  0.00089666  1
  O  O43  1  -0.00000000  0.49910334  0.15908713  1
  O  O44  1  0.00000000  0.84091287  0.49910334  1
  O  O45  1  -0.00000000  0.15908713  0.50089666  1
