# generated using pymatgen
data_K3GaBr6
_symmetry_space_group_name_H-M   'P 1'
_cell_length_a   8.01549391
_cell_length_b   8.01549429
_cell_length_c   8.01549427
_cell_angle_alpha   59.99999875
_cell_angle_beta   59.99999819
_cell_angle_gamma   59.99999827
_symmetry_Int_Tables_number   1
_chemical_formula_structural   K3GaBr6
_chemical_formula_sum   'K3 Ga1 Br6'
_cell_volume   364.14629210
_cell_formula_units_Z   1
loop_
 _symmetry_equiv_pos_site_id
 _symmetry_equiv_pos_as_xyz
  1  'x, y, z'
loop_
 _atom_site_type_symbol
 _atom_site_label
 _atom_site_symmetry_multiplicity
 _atom_site_fract_x
 _atom_site_fract_y
 _atom_site_fract_z
 _atom_site_occupancy
  K  K0  1  0.25000000  0.25000000  0.25000000  1
  K  K1  1  0.75000000  0.75000000  0.75000000  1
  K  K2  1  0.50000000  0.50000000  0.50000000  1
  Ga  Ga3  1  -0.00000000  -0.00000000  -0.00000000  1
  Br  Br4  1  0.22608354  0.77391646  0.22608354  1
  Br  Br5  1  0.77391646  0.77391646  0.22608354  1
  Br  Br6  1  0.77391646  0.22608354  0.77391646  1
  Br  Br7  1  0.77391646  0.22608354  0.22608354  1
  Br  Br8  1  0.22608354  0.77391646  0.77391646  1
  Br  Br9  1  0.22608354  0.22608354  0.77391646  1
