# generated using pymatgen
data_Ho2Fe17H3
_symmetry_space_group_name_H-M   'P 1'
_cell_length_a   8.17196501
_cell_length_b   8.54816903
_cell_length_c   8.54816903
_cell_angle_alpha   119.99999636
_cell_angle_beta   90.00000000
_cell_angle_gamma   90.00000000
_symmetry_Int_Tables_number   1
_chemical_formula_structural   Ho2Fe17H3
_chemical_formula_sum   'Ho4 Fe34 H6'
_cell_volume   517.13430515
_cell_formula_units_Z   2
loop_
 _symmetry_equiv_pos_site_id
 _symmetry_equiv_pos_as_xyz
  1  'x, y, z'
loop_
 _atom_site_type_symbol
 _atom_site_label
 _atom_site_symmetry_multiplicity
 _atom_site_fract_x
 _atom_site_fract_y
 _atom_site_fract_z
 _atom_site_occupancy
  Ho  Ho0  1  0.75000000  0.66666700  0.33333300  1
  Ho  Ho1  1  0.25000000  0.33333300  0.66666700  1
  Ho  Ho2  1  0.75000000  -0.00000000  0.00000000  1
  Ho  Ho3  1  0.25000000  -0.00000000  0.00000000  1
  Fe  Fe4  1  0.75000000  0.62252144  0.67138311  1
  Fe  Fe5  1  0.25000000  0.37747856  0.32861689  1
  Fe  Fe6  1  0.75000000  0.04886167  0.37747856  1
  Fe  Fe7  1  0.25000000  0.95113833  0.32861689  1
  Fe  Fe8  1  0.25000000  0.95113833  0.62252144  1
  Fe  Fe9  1  0.75000000  0.04886167  0.67138311  1
  Fe  Fe10  1  0.75000000  0.32861689  0.95113833  1
  Fe  Fe11  1  0.25000000  0.67138311  0.62252144  1
  Fe  Fe12  1  0.25000000  0.67138311  0.04886167  1
  Fe  Fe13  1  0.75000000  0.32861689  0.37747856  1
  Fe  Fe14  1  0.25000000  0.37747856  0.04886167  1
  Fe  Fe15  1  0.75000000  0.62252144  0.95113833  1
  Fe  Fe16  1  0.39583418  0.66666700  0.33333300  1
  Fe  Fe17  1  0.60416582  0.33333300  0.66666700  1
  Fe  Fe18  1  0.89583418  0.33333300  0.66666700  1
  Fe  Fe19  1  0.10416582  0.66666700  0.33333300  1
  Fe  Fe20  1  0.98295873  0.83323627  0.16676373  1
  Fe  Fe21  1  0.01704127  0.16676373  0.83323627  1
  Fe  Fe22  1  0.98295873  0.33352747  0.16676373  1
  Fe  Fe23  1  0.48295873  0.16676373  0.83323627  1
  Fe  Fe24  1  0.01704127  0.66647253  0.83323627  1
  Fe  Fe25  1  0.51704127  0.83323627  0.16676373  1
  Fe  Fe26  1  0.98295873  0.83323627  0.66647253  1
  Fe  Fe27  1  0.48295873  0.66647253  0.83323627  1
  Fe  Fe28  1  0.01704127  0.16676373  0.33352747  1
  Fe  Fe29  1  0.51704127  0.33352747  0.16676373  1
  Fe  Fe30  1  0.48295873  0.16676373  0.33352747  1
  Fe  Fe31  1  0.51704127  0.83323627  0.66647253  1
  Fe  Fe32  1  -0.00000000  0.50000000  0.50000000  1
  Fe  Fe33  1  -0.00000000  -0.00000000  0.50000000  1
  Fe  Fe34  1  0.50000000  0.50000000  0.50000000  1
  Fe  Fe35  1  -0.00000000  0.50000000  0.00000000  1
  Fe  Fe36  1  0.50000000  -0.00000000  0.50000000  1
  Fe  Fe37  1  0.50000000  0.50000000  0.00000000  1
  H  H38  1  0.75000000  0.83524466  0.16475534  1
  H  H39  1  0.25000000  0.16475534  0.83524466  1
  H  H40  1  0.75000000  0.32951068  0.16475534  1
  H  H41  1  0.25000000  0.67048932  0.83524466  1
  H  H42  1  0.75000000  0.83524466  0.67048932  1
  H  H43  1  0.25000000  0.16475534  0.32951068  1
