# generated using pymatgen
data_KNd2Br5
_symmetry_space_group_name_H-M   'P 1'
_cell_length_a   7.58803021
_cell_length_b   9.18063622
_cell_length_c   14.23560430
_cell_angle_alpha   89.85763337
_cell_angle_beta   90.00000000
_cell_angle_gamma   90.00000000
_symmetry_Int_Tables_number   1
_chemical_formula_structural   KNd2Br5
_chemical_formula_sum   'K4 Nd8 Br20'
_cell_volume   991.69105744
_cell_formula_units_Z   4
loop_
 _symmetry_equiv_pos_site_id
 _symmetry_equiv_pos_as_xyz
  1  'x, y, z'
loop_
 _atom_site_type_symbol
 _atom_site_label
 _atom_site_symmetry_multiplicity
 _atom_site_fract_x
 _atom_site_fract_y
 _atom_site_fract_z
 _atom_site_occupancy
  K  K0  1  0.94543472  0.50403896  0.66753757  1
  K  K1  1  0.05456528  0.49596104  0.33246243  1
  K  K2  1  0.44543472  0.49596104  0.83246243  1
  K  K3  1  0.55456528  0.50403896  0.16753757  1
  Nd  Nd4  1  0.89575435  0.00891374  0.65629235  1
  Nd  Nd5  1  0.10424565  0.99108626  0.34370765  1
  Nd  Nd6  1  0.39575435  0.99108626  0.84370765  1
  Nd  Nd7  1  0.60424565  0.00891374  0.15629235  1
  Nd  Nd8  1  0.96727355  0.79641185  0.00109391  1
  Nd  Nd9  1  0.03272645  0.20358815  0.99890609  1
  Nd  Nd10  1  0.46727355  0.20358815  0.49890609  1
  Nd  Nd11  1  0.53272645  0.79641185  0.50109391  1
  Br  Br12  1  0.82693125  0.47380126  0.92101902  1
  Br  Br13  1  0.17306875  0.52619874  0.07898098  1
  Br  Br14  1  0.32693125  0.52619874  0.57898098  1
  Br  Br15  1  0.67306875  0.47380126  0.42101902  1
  Br  Br16  1  0.14858599  0.74734340  0.81602237  1
  Br  Br17  1  0.85141401  0.25265660  0.18397763  1
  Br  Br18  1  0.64858599  0.25265660  0.68397763  1
  Br  Br19  1  0.35141401  0.74734340  0.31602237  1
  Br  Br20  1  0.65989246  0.76047693  0.70586238  1
  Br  Br21  1  0.34010754  0.23952307  0.29413762  1
  Br  Br22  1  0.15989246  0.23952307  0.79413762  1
  Br  Br23  1  0.84010754  0.76047693  0.20586238  1
  Br  Br24  1  0.54730649  0.78853431  0.00104954  1
  Br  Br25  1  0.45269351  0.21146569  0.99895046  1
  Br  Br26  1  0.04730649  0.21146569  0.49895046  1
  Br  Br27  1  0.95269351  0.78853431  0.50104954  1
  Br  Br28  1  0.30711664  0.97577091  0.63363090  1
  Br  Br29  1  0.69288336  0.02422909  0.36636910  1
  Br  Br30  1  0.80711664  0.02422909  0.86636910  1
  Br  Br31  1  0.19288336  0.97577091  0.13363090  1
