# generated using pymatgen
data_LaTiTeO6
_symmetry_space_group_name_H-M   'P 1'
_cell_length_a   5.33480243
_cell_length_b   5.33480243
_cell_length_c   5.20551118
_cell_angle_alpha   90.00000000
_cell_angle_beta   90.00000000
_cell_angle_gamma   119.99999443
_symmetry_Int_Tables_number   1
_chemical_formula_structural   LaTiTeO6
_chemical_formula_sum   'La1 Ti1 Te1 O6'
_cell_volume   128.30120062
_cell_formula_units_Z   1
loop_
 _symmetry_equiv_pos_site_id
 _symmetry_equiv_pos_as_xyz
  1  'x, y, z'
loop_
 _atom_site_type_symbol
 _atom_site_label
 _atom_site_symmetry_multiplicity
 _atom_site_fract_x
 _atom_site_fract_y
 _atom_site_fract_z
 _atom_site_occupancy
  La  La0  1  0.33333300  0.66666700  0.50065982  1
  Ti  Ti1  1  0.66666700  0.33333300  0.99864641  1
  Te  Te2  1  -0.00000000  -0.00000000  0.99929519  1
  O  O3  1  0.69821469  0.03858851  0.21163965  1
  O  O4  1  0.34037382  0.30178531  0.21163965  1
  O  O5  1  0.96141149  0.65962618  0.21163965  1
  O  O6  1  0.95693143  0.29664612  0.78415988  1
  O  O7  1  0.33971469  0.04306857  0.78415988  1
  O  O8  1  0.70335388  0.66028531  0.78415988  1
