# generated using pymatgen
data_La3BeGaS7
_symmetry_space_group_name_H-M   'P 1'
_cell_length_a   5.87923234
_cell_length_b   10.25714803
_cell_length_c   10.25714803
_cell_angle_alpha   120.00000000
_cell_angle_beta   90.00000000
_cell_angle_gamma   90.00000000
_symmetry_Int_Tables_number   1
_chemical_formula_structural   La3BeGaS7
_chemical_formula_sum   'La6 Be2 Ga2 S14'
_cell_volume   535.67885235
_cell_formula_units_Z   2
loop_
 _symmetry_equiv_pos_site_id
 _symmetry_equiv_pos_as_xyz
  1  'x, y, z'
loop_
 _atom_site_type_symbol
 _atom_site_label
 _atom_site_symmetry_multiplicity
 _atom_site_fract_x
 _atom_site_fract_y
 _atom_site_fract_z
 _atom_site_occupancy
  La  La0  1  0.76590594  0.63116795  0.76084439  1
  La  La1  1  0.76590594  0.12967644  0.36883205  1
  La  La2  1  0.26590594  0.36883205  0.23915561  1
  La  La3  1  0.76590594  0.23915561  0.87032356  1
  La  La4  1  0.26590594  0.87032356  0.63116795  1
  La  La5  1  0.26590594  0.76084439  0.12967644  1
  Be  Be6  1  0.99894747  0.00000000  -0.00000000  1
  Be  Be7  1  0.49894747  0.00000000  -0.00000000  1
  Ga  Ga8  1  0.84767972  0.66666700  0.33333300  1
  Ga  Ga9  1  0.34767972  0.33333300  0.66666700  1
  S  S10  1  0.46919419  0.66666700  0.33333300  1
  S  S11  1  0.96919419  0.33333300  0.66666700  1
  S  S12  1  0.99907246  0.90018304  0.41324873  1
  S  S13  1  0.99907246  0.51306568  0.09981696  1
  S  S14  1  0.49907246  0.09981696  0.58675127  1
  S  S15  1  0.99907246  0.58675127  0.48693432  1
  S  S16  1  0.49907246  0.48693432  0.90018304  1
  S  S17  1  0.49907246  0.41324873  0.51306568  1
  S  S18  1  0.75274781  0.85957571  0.07523567  1
  S  S19  1  0.75274781  0.21565996  0.14042429  1
  S  S20  1  0.25274781  0.14042429  0.92476433  1
  S  S21  1  0.75274781  0.92476433  0.78434004  1
  S  S22  1  0.25274781  0.78434004  0.85957571  1
  S  S23  1  0.25274781  0.07523567  0.21565996  1
