# generated using pymatgen
data_Dy2Fe17H3
_symmetry_space_group_name_H-M   'P 1'
_cell_length_a   8.22502872
_cell_length_b   8.56213133
_cell_length_c   8.56213133
_cell_angle_alpha   120.00000521
_cell_angle_beta   90.00000000
_cell_angle_gamma   90.00000000
_symmetry_Int_Tables_number   1
_chemical_formula_structural   Dy2Fe17H3
_chemical_formula_sum   'Dy4 Fe34 H6'
_cell_volume   522.19390961
_cell_formula_units_Z   2
loop_
 _symmetry_equiv_pos_site_id
 _symmetry_equiv_pos_as_xyz
  1  'x, y, z'
loop_
 _atom_site_type_symbol
 _atom_site_label
 _atom_site_symmetry_multiplicity
 _atom_site_fract_x
 _atom_site_fract_y
 _atom_site_fract_z
 _atom_site_occupancy
  Dy  Dy0  1  0.75000000  0.66666700  0.33333300  1
  Dy  Dy1  1  0.25000000  0.33333300  0.66666700  1
  Dy  Dy2  1  0.75000000  -0.00000000  -0.00000000  1
  Dy  Dy3  1  0.25000000  -0.00000000  -0.00000000  1
  Fe  Fe4  1  0.75000000  0.62302256  0.67093499  1
  Fe  Fe5  1  0.25000000  0.37697744  0.32906501  1
  Fe  Fe6  1  0.75000000  0.04791243  0.37697744  1
  Fe  Fe7  1  0.25000000  0.95208757  0.32906501  1
  Fe  Fe8  1  0.25000000  0.95208757  0.62302256  1
  Fe  Fe9  1  0.75000000  0.04791243  0.67093499  1
  Fe  Fe10  1  0.75000000  0.32906501  0.95208757  1
  Fe  Fe11  1  0.25000000  0.67093499  0.62302256  1
  Fe  Fe12  1  0.25000000  0.67093499  0.04791243  1
  Fe  Fe13  1  0.75000000  0.32906501  0.37697744  1
  Fe  Fe14  1  0.25000000  0.37697744  0.04791243  1
  Fe  Fe15  1  0.75000000  0.62302256  0.95208757  1
  Fe  Fe16  1  0.39480594  0.66666700  0.33333300  1
  Fe  Fe17  1  0.60519406  0.33333300  0.66666700  1
  Fe  Fe18  1  0.89480594  0.33333300  0.66666700  1
  Fe  Fe19  1  0.10519406  0.66666700  0.33333300  1
  Fe  Fe20  1  0.98414312  0.83334531  0.16665469  1
  Fe  Fe21  1  0.01585688  0.16665469  0.83334531  1
  Fe  Fe22  1  0.98414312  0.33330938  0.16665469  1
  Fe  Fe23  1  0.48414312  0.16665469  0.83334531  1
  Fe  Fe24  1  0.01585688  0.66669062  0.83334531  1
  Fe  Fe25  1  0.51585688  0.83334531  0.16665469  1
  Fe  Fe26  1  0.98414312  0.83334531  0.66669062  1
  Fe  Fe27  1  0.48414312  0.66669062  0.83334531  1
  Fe  Fe28  1  0.01585688  0.16665469  0.33330938  1
  Fe  Fe29  1  0.51585688  0.33330938  0.16665469  1
  Fe  Fe30  1  0.48414312  0.16665469  0.33330938  1
  Fe  Fe31  1  0.51585688  0.83334531  0.66669062  1
  Fe  Fe32  1  -0.00000000  0.50000000  0.50000000  1
  Fe  Fe33  1  -0.00000000  -0.00000000  0.50000000  1
  Fe  Fe34  1  0.50000000  0.50000000  0.50000000  1
  Fe  Fe35  1  -0.00000000  0.50000000  0.00000000  1
  Fe  Fe36  1  0.50000000  -0.00000000  0.50000000  1
  Fe  Fe37  1  0.50000000  0.50000000  0.00000000  1
  H  H38  1  0.75000000  0.83518049  0.16481951  1
  H  H39  1  0.25000000  0.16481951  0.83518049  1
  H  H40  1  0.75000000  0.32963903  0.16481951  1
  H  H41  1  0.25000000  0.67036097  0.83518049  1
  H  H42  1  0.75000000  0.83518049  0.67036097  1
  H  H43  1  0.25000000  0.16481951  0.32963903  1
