# generated using pymatgen
data_Er2Fe17H3
_symmetry_space_group_name_H-M   'P 1'
_cell_length_a   8.19059291
_cell_length_b   8.52308180
_cell_length_c   8.52308180
_cell_angle_alpha   119.99999983
_cell_angle_beta   90.00000000
_cell_angle_gamma   90.00000000
_symmetry_Int_Tables_number   1
_chemical_formula_structural   Er2Fe17H3
_chemical_formula_sum   'Er4 Fe34 H6'
_cell_volume   515.27525461
_cell_formula_units_Z   2
loop_
 _symmetry_equiv_pos_site_id
 _symmetry_equiv_pos_as_xyz
  1  'x, y, z'
loop_
 _atom_site_type_symbol
 _atom_site_label
 _atom_site_symmetry_multiplicity
 _atom_site_fract_x
 _atom_site_fract_y
 _atom_site_fract_z
 _atom_site_occupancy
  Er  Er0  1  0.75000000  0.66666700  0.33333300  1
  Er  Er1  1  0.25000000  0.33333300  0.66666700  1
  Er  Er2  1  0.75000000  -0.00000000  -0.00000000  1
  Er  Er3  1  0.25000000  -0.00000000  -0.00000000  1
  Fe  Fe4  1  0.75000000  0.62251551  0.67146813  1
  Fe  Fe5  1  0.25000000  0.37748449  0.32853187  1
  Fe  Fe6  1  0.75000000  0.04895262  0.37748449  1
  Fe  Fe7  1  0.25000000  0.95104738  0.32853187  1
  Fe  Fe8  1  0.25000000  0.95104738  0.62251551  1
  Fe  Fe9  1  0.75000000  0.04895262  0.67146813  1
  Fe  Fe10  1  0.75000000  0.32853187  0.95104738  1
  Fe  Fe11  1  0.25000000  0.67146813  0.62251551  1
  Fe  Fe12  1  0.25000000  0.67146813  0.04895262  1
  Fe  Fe13  1  0.75000000  0.32853187  0.37748449  1
  Fe  Fe14  1  0.25000000  0.37748449  0.04895262  1
  Fe  Fe15  1  0.75000000  0.62251551  0.95104738  1
  Fe  Fe16  1  0.39587062  0.66666700  0.33333300  1
  Fe  Fe17  1  0.60412938  0.33333300  0.66666700  1
  Fe  Fe18  1  0.89587062  0.33333300  0.66666700  1
  Fe  Fe19  1  0.10412938  0.66666700  0.33333300  1
  Fe  Fe20  1  0.98197985  0.83322645  0.16677355  1
  Fe  Fe21  1  0.01802015  0.16677355  0.83322645  1
  Fe  Fe22  1  0.98197985  0.33354710  0.16677355  1
  Fe  Fe23  1  0.48197985  0.16677355  0.83322645  1
  Fe  Fe24  1  0.01802015  0.66645290  0.83322645  1
  Fe  Fe25  1  0.51802015  0.83322645  0.16677355  1
  Fe  Fe26  1  0.98197985  0.83322645  0.66645290  1
  Fe  Fe27  1  0.48197985  0.66645290  0.83322645  1
  Fe  Fe28  1  0.01802015  0.16677355  0.33354710  1
  Fe  Fe29  1  0.51802015  0.33354710  0.16677355  1
  Fe  Fe30  1  0.48197985  0.16677355  0.33354710  1
  Fe  Fe31  1  0.51802015  0.83322645  0.66645290  1
  Fe  Fe32  1  -0.00000000  0.50000000  0.50000000  1
  Fe  Fe33  1  -0.00000000  -0.00000000  0.50000000  1
  Fe  Fe34  1  0.50000000  0.50000000  0.50000000  1
  Fe  Fe35  1  -0.00000000  0.50000000  -0.00000000  1
  Fe  Fe36  1  0.50000000  -0.00000000  0.50000000  1
  Fe  Fe37  1  0.50000000  0.50000000  -0.00000000  1
  H  H38  1  0.75000000  0.83524588  0.16475412  1
  H  H39  1  0.25000000  0.16475412  0.83524588  1
  H  H40  1  0.75000000  0.32950824  0.16475412  1
  H  H41  1  0.25000000  0.67049176  0.83524588  1
  H  H42  1  0.75000000  0.83524588  0.67049176  1
  H  H43  1  0.25000000  0.16475412  0.32950824  1
