# generated using pymatgen
data_Rb2UO3F4
_symmetry_space_group_name_H-M   'P 1'
_cell_length_a   9.08459104
_cell_length_b   12.11772233
_cell_length_c   14.66920946
_cell_angle_alpha   90.00000000
_cell_angle_beta   90.00000000
_cell_angle_gamma   90.00000000
_symmetry_Int_Tables_number   1
_chemical_formula_structural   Rb2UO3F4
_chemical_formula_sum   'Rb16 U8 O24 F32'
_cell_volume   1614.85334726
_cell_formula_units_Z   8
loop_
 _symmetry_equiv_pos_site_id
 _symmetry_equiv_pos_as_xyz
  1  'x, y, z'
loop_
 _atom_site_type_symbol
 _atom_site_label
 _atom_site_symmetry_multiplicity
 _atom_site_fract_x
 _atom_site_fract_y
 _atom_site_fract_z
 _atom_site_occupancy
  Rb  Rb0  1  0.89349888  0.93117285  0.60662259  1
  Rb  Rb1  1  0.10650112  0.06882715  0.39337741  1
  Rb  Rb2  1  0.60650112  0.43117285  0.39337741  1
  Rb  Rb3  1  0.10650112  0.56882715  0.10662259  1
  Rb  Rb4  1  0.39349888  0.56882715  0.60662259  1
  Rb  Rb5  1  0.89349888  0.43117285  0.89337741  1
  Rb  Rb6  1  0.39349888  0.06882715  0.89337741  1
  Rb  Rb7  1  0.60650112  0.93117285  0.10662259  1
  Rb  Rb8  1  0.66222933  0.76381111  0.81330364  1
  Rb  Rb9  1  0.33777067  0.23618889  0.18669636  1
  Rb  Rb10  1  0.83777067  0.26381111  0.18669636  1
  Rb  Rb11  1  0.33777067  0.73618889  0.31330364  1
  Rb  Rb12  1  0.16222933  0.73618889  0.81330364  1
  Rb  Rb13  1  0.66222933  0.26381111  0.68669636  1
  Rb  Rb14  1  0.16222933  0.23618889  0.68669636  1
  Rb  Rb15  1  0.83777067  0.76381111  0.31330364  1
  U  U16  1  0.90830894  0.54508858  0.62107949  1
  U  U17  1  0.09169106  0.45491142  0.37892051  1
  U  U18  1  0.59169106  0.04508858  0.37892051  1
  U  U19  1  0.09169106  0.95491142  0.12107949  1
  U  U20  1  0.40830894  0.95491142  0.62107949  1
  U  U21  1  0.90830894  0.04508858  0.87892051  1
  U  U22  1  0.40830894  0.45491142  0.87892051  1
  U  U23  1  0.59169106  0.54508858  0.12107949  1
  O  O24  1  0.72360179  0.99302873  0.91229680  1
  O  O25  1  0.27639821  0.00697127  0.08770320  1
  O  O26  1  0.77639821  0.49302873  0.08770320  1
  O  O27  1  0.27639821  0.50697127  0.41229680  1
  O  O28  1  0.22360179  0.50697127  0.91229680  1
  O  O29  1  0.72360179  0.49302873  0.58770320  1
  O  O30  1  0.22360179  0.00697127  0.58770320  1
  O  O31  1  0.77639821  0.99302873  0.41229680  1
  O  O32  1  0.90326734  0.69425379  0.96293193  1
  O  O33  1  0.09673266  0.30574621  0.03706807  1
  O  O34  1  0.59673266  0.19425379  0.03706807  1
  O  O35  1  0.09673266  0.80574621  0.46293193  1
  O  O36  1  0.40326734  0.80574621  0.96293193  1
  O  O37  1  0.90326734  0.19425379  0.53706807  1
  O  O38  1  0.40326734  0.30574621  0.53706807  1
  O  O39  1  0.59673266  0.69425379  0.46293193  1
  O  O40  1  0.59251053  0.90640329  0.65316923  1
  O  O41  1  0.40748947  0.09359671  0.34683077  1
  O  O42  1  0.90748947  0.40640329  0.34683077  1
  O  O43  1  0.40748947  0.59359671  0.15316923  1
  O  O44  1  0.09251053  0.59359671  0.65316923  1
  O  O45  1  0.59251053  0.40640329  0.84683077  1
  O  O46  1  0.09251053  0.09359671  0.84683077  1
  O  O47  1  0.90748947  0.90640329  0.15316923  1
  F  F48  1  0.82318403  0.71222867  0.59583429  1
  F  F49  1  0.17681597  0.28777133  0.40416571  1
  F  F50  1  0.67681597  0.21222867  0.40416571  1
  F  F51  1  0.17681597  0.78777133  0.09583429  1
  F  F52  1  0.32318403  0.78777133  0.59583429  1
  F  F53  1  0.82318403  0.21222867  0.90416571  1
  F  F54  1  0.32318403  0.28777133  0.90416571  1
  F  F55  1  0.67681597  0.71222867  0.09583429  1
  F  F56  1  0.01324461  0.90180173  0.96997896  1
  F  F57  1  0.98675539  0.09819827  0.03002104  1
  F  F58  1  0.48675539  0.40180173  0.03002104  1
  F  F59  1  0.98675539  0.59819827  0.46997896  1
  F  F60  1  0.51324461  0.59819827  0.96997896  1
  F  F61  1  0.01324461  0.40180173  0.53002104  1
  F  F62  1  0.51324461  0.09819827  0.53002104  1
  F  F63  1  0.48675539  0.90180173  0.46997896  1
  F  F64  1  0.84399736  0.59870965  0.76137383  1
  F  F65  1  0.15600264  0.40129035  0.23862617  1
  F  F66  1  0.65600264  0.09870965  0.23862617  1
  F  F67  1  0.15600264  0.90129035  0.26137383  1
  F  F68  1  0.34399736  0.90129035  0.76137383  1
  F  F69  1  0.84399736  0.09870965  0.73862617  1
  F  F70  1  0.34399736  0.40129035  0.73862617  1
  F  F71  1  0.65600264  0.59870965  0.26137383  1
  F  F72  1  0.93500976  0.89358418  0.79183260  1
  F  F73  1  0.06499024  0.10641582  0.20816740  1
  F  F74  1  0.56499024  0.39358418  0.20816740  1
  F  F75  1  0.06499024  0.60641582  0.29183260  1
  F  F76  1  0.43500976  0.60641582  0.79183260  1
  F  F77  1  0.93500976  0.39358418  0.70816740  1
  F  F78  1  0.43500976  0.10641582  0.70816740  1
  F  F79  1  0.56499024  0.89358418  0.29183260  1
