# generated using pymatgen
data_Al8Cr4Si3
_symmetry_space_group_name_H-M   'P 1'
_cell_length_a   4.93496914
_cell_length_b   5.14605369
_cell_length_c   8.89948231
_cell_angle_alpha   72.72990419
_cell_angle_beta   82.90776293
_cell_angle_gamma   78.61880159
_symmetry_Int_Tables_number   1
_chemical_formula_structural   Al8Cr4Si3
_chemical_formula_sum   'Al8 Cr4 Si3'
_cell_volume   211.06582895
_cell_formula_units_Z   1
loop_
 _symmetry_equiv_pos_site_id
 _symmetry_equiv_pos_as_xyz
  1  'x, y, z'
loop_
 _atom_site_type_symbol
 _atom_site_label
 _atom_site_symmetry_multiplicity
 _atom_site_fract_x
 _atom_site_fract_y
 _atom_site_fract_z
 _atom_site_occupancy
  Al  Al0  1  0.05467323  0.14758286  0.18062561  1
  Al  Al1  1  0.94532677  0.85241714  0.81937439  1
  Al  Al2  1  0.58008816  0.04149040  0.12295016  1
  Al  Al3  1  0.41991184  0.95850960  0.87704984  1
  Al  Al4  1  0.17660567  0.64523165  0.13560024  1
  Al  Al5  1  0.82339433  0.35476835  0.86439976  1
  Al  Al6  1  0.49524219  0.22591503  0.37128808  1
  Al  Al7  1  0.50475781  0.77408497  0.62871192  1
  Cr  Cr8  1  0.32355435  0.73934001  0.37635586  1
  Cr  Cr9  1  0.67644565  0.26065999  0.62364414  1
  Cr  Cr10  1  0.70320964  0.54920285  0.10054483  1
  Cr  Cr11  1  0.29679036  0.45079715  0.89945517  1
  Si  Si12  1  0.00000000  -0.00000000  0.50000000  1
  Si  Si13  1  0.16141508  0.41394212  0.62583019  1
  Si  Si14  1  0.83858492  0.58605788  0.37416981  1
