# generated using pymatgen
data_ZrAlCr
_symmetry_space_group_name_H-M   'P 1'
_cell_length_a   5.14782934
_cell_length_b   5.14863858
_cell_length_c   8.60391620
_cell_angle_alpha   90.00000000
_cell_angle_beta   90.00000000
_cell_angle_gamma   60.34998792
_symmetry_Int_Tables_number   1
_chemical_formula_structural   ZrAlCr
_chemical_formula_sum   'Zr4 Al4 Cr4'
_cell_volume   198.18199868
_cell_formula_units_Z   4
loop_
 _symmetry_equiv_pos_site_id
 _symmetry_equiv_pos_as_xyz
  1  'x, y, z'
loop_
 _atom_site_type_symbol
 _atom_site_label
 _atom_site_symmetry_multiplicity
 _atom_site_fract_x
 _atom_site_fract_y
 _atom_site_fract_z
 _atom_site_occupancy
  Zr  Zr0  1  0.33487061  0.33472431  0.55951616  1
  Zr  Zr1  1  0.66980539  0.66981935  0.42864795  1
  Zr  Zr2  1  0.66980539  0.66981935  0.07135205  1
  Zr  Zr3  1  0.33487061  0.33472431  0.94048384  1
  Al  Al4  1  0.99459812  0.99489373  0.49000679  1
  Al  Al5  1  0.99459812  0.99489373  0.00999321  1
  Al  Al6  1  0.83362722  0.34160658  0.75000000  1
  Al  Al7  1  0.34159881  0.83362478  0.75000000  1
  Cr  Cr8  1  0.83320703  0.83332923  0.75000000  1
  Cr  Cr9  1  0.17753067  0.63977557  0.25000000  1
  Cr  Cr10  1  0.63985816  0.17736923  0.25000000  1
  Cr  Cr11  1  0.17562988  0.17541982  0.25000000  1
