# generated using pymatgen
data_Zn4CoSe5
_symmetry_space_group_name_H-M   'P 1'
_cell_length_a   4.04720848
_cell_length_b   9.02064018
_cell_length_c   6.98199861
_cell_angle_alpha   97.42029397
_cell_angle_beta   73.15212198
_cell_angle_gamma   77.03649085
_symmetry_Int_Tables_number   1
_chemical_formula_structural   Zn4CoSe5
_chemical_formula_sum   'Zn4 Co1 Se5'
_cell_volume   232.53415830
_cell_formula_units_Z   1
loop_
 _symmetry_equiv_pos_site_id
 _symmetry_equiv_pos_as_xyz
  1  'x, y, z'
loop_
 _atom_site_type_symbol
 _atom_site_label
 _atom_site_symmetry_multiplicity
 _atom_site_fract_x
 _atom_site_fract_y
 _atom_site_fract_z
 _atom_site_occupancy
  Zn  Zn0  1  0.20160989  0.39761650  0.19916373  1
  Zn  Zn1  1  0.40051680  0.80134560  0.39762081  1
  Zn  Zn2  1  0.60066179  0.19834856  0.60032786  1
  Zn  Zn3  1  0.79701232  0.60358252  0.80239284  1
  Co  Co4  1  0.99945476  0.00062191  0.00046858  1
  Se  Se5  1  0.35018796  0.45012773  0.84949634  1
  Se  Se6  1  0.54724638  0.85717145  0.04833579  1
  Se  Se7  1  0.75561513  0.24305260  0.24571714  1
  Se  Se8  1  0.95088235  0.64982458  0.44841072  1
  Se  Se9  1  0.14681263  0.04830854  0.65806619  1
