# generated using pymatgen
data_Ba3Co8Sn3O20
_symmetry_space_group_name_H-M   'P 1'
_cell_length_a   5.32636703
_cell_length_b   10.21136858
_cell_length_c   10.21136858
_cell_angle_alpha   72.56307999
_cell_angle_beta   75.74281998
_cell_angle_gamma   75.74281998
_symmetry_Int_Tables_number   1
_chemical_formula_structural   Ba3Co8Sn3O20
_chemical_formula_sum   'Ba3 Co8 Sn3 O20'
_cell_volume   504.53644811
_cell_formula_units_Z   1
loop_
 _symmetry_equiv_pos_site_id
 _symmetry_equiv_pos_as_xyz
  1  'x, y, z'
loop_
 _atom_site_type_symbol
 _atom_site_label
 _atom_site_symmetry_multiplicity
 _atom_site_fract_x
 _atom_site_fract_y
 _atom_site_fract_z
 _atom_site_occupancy
  Ba  Ba0  1  0.73021393  0.77380196  0.77380196  1
  Ba  Ba1  1  0.26978607  0.22619804  0.22619804  1
  Ba  Ba2  1  0.00000000  0.50000000  0.50000000  1
  Co  Co3  1  0.34028933  0.51283535  0.77729673  1
  Co  Co4  1  0.65971067  0.48716465  0.22270327  1
  Co  Co5  1  0.65971067  0.22270327  0.48716465  1
  Co  Co6  1  0.34028933  0.77729673  0.51283535  1
  Co  Co7  1  0.16279230  0.63381302  0.07730371  1
  Co  Co8  1  0.83720770  0.36618698  0.92269629  1
  Co  Co9  1  0.83720770  0.92269629  0.36618698  1
  Co  Co10  1  0.16279230  0.07730371  0.63381302  1
  Sn  Sn11  1  0.00000000  -0.00000000  -0.00000000  1
  Sn  Sn12  1  0.50000000  0.85590261  0.14409739  1
  Sn  Sn13  1  0.50000000  0.14409739  0.85590261  1
  O  O14  1  0.48345590  0.59365037  0.59365037  1
  O  O15  1  0.51654410  0.40634963  0.40634963  1
  O  O16  1  0.39825571  0.93407056  0.93407056  1
  O  O17  1  0.60174429  0.06592944  0.06592944  1
  O  O18  1  0.57525137  0.33761056  0.83307044  1
  O  O19  1  0.42474863  0.66238944  0.16692956  1
  O  O20  1  0.42474863  0.16692956  0.66238944  1
  O  O21  1  0.57525137  0.83307044  0.33761056  1
  O  O22  1  0.32167474  0.62030389  0.89730146  1
  O  O23  1  0.67832526  0.37969611  0.10269854  1
  O  O24  1  0.67832526  0.10269854  0.37969611  1
  O  O25  1  0.32167474  0.89730146  0.62030389  1
  O  O26  1  0.01202276  0.49395754  0.21712600  1
  O  O27  1  0.98797724  0.50604246  0.78287400  1
  O  O28  1  0.98797724  0.78287400  0.50604246  1
  O  O29  1  0.01202276  0.21712600  0.49395754  1
  O  O30  1  0.89096893  0.80476499  0.04651685  1
  O  O31  1  0.10903107  0.19523501  0.95348315  1
  O  O32  1  0.10903107  0.95348315  0.19523501  1
  O  O33  1  0.89096893  0.04651685  0.80476499  1
