# generated using pymatgen
data_YNiGe
_symmetry_space_group_name_H-M   'P 1'
_cell_length_a   4.13833142
_cell_length_b   5.54465812
_cell_length_c   5.53096043
_cell_angle_alpha   92.85780286
_cell_angle_beta   111.96907150
_cell_angle_gamma   68.08801615
_symmetry_Int_Tables_number   1
_chemical_formula_structural   YNiGe
_chemical_formula_sum   'Y2 Ni2 Ge2'
_cell_volume   108.59754601
_cell_formula_units_Z   2
loop_
 _symmetry_equiv_pos_site_id
 _symmetry_equiv_pos_as_xyz
  1  'x, y, z'
loop_
 _atom_site_type_symbol
 _atom_site_label
 _atom_site_symmetry_multiplicity
 _atom_site_fract_x
 _atom_site_fract_y
 _atom_site_fract_z
 _atom_site_occupancy
  Y  Y0  1  0.75867981  0.69162152  0.20898114  1
  Y  Y1  1  0.24132019  0.30837848  0.79101886  1
  Ni  Ni2  1  0.55566451  0.27368895  0.38501796  1
  Ni  Ni3  1  0.44433549  0.72631105  0.61498204  1
  Ge  Ge4  1  0.06450345  0.10751549  0.23652238  1
  Ge  Ge5  1  0.93549655  0.89248451  0.76347762  1
