# generated using pymatgen
data_ZnFeAs4(Pb2O9)2
_symmetry_space_group_name_H-M   'P 1'
_cell_length_a   6.04005727
_cell_length_b   8.06721909
_cell_length_c   9.03678498
_cell_angle_alpha   113.05190425
_cell_angle_beta   89.71159733
_cell_angle_gamma   89.41167234
_symmetry_Int_Tables_number   1
_chemical_formula_structural   ZnFeAs4(Pb2O9)2
_chemical_formula_sum   'Zn1 Fe1 As4 Pb4 O18'
_cell_volume   405.12944157
_cell_formula_units_Z   1
loop_
 _symmetry_equiv_pos_site_id
 _symmetry_equiv_pos_as_xyz
  1  'x, y, z'
loop_
 _atom_site_type_symbol
 _atom_site_label
 _atom_site_symmetry_multiplicity
 _atom_site_fract_x
 _atom_site_fract_y
 _atom_site_fract_z
 _atom_site_occupancy
  Zn  Zn0  1  0.50000000  0.00000000  0.00000000  1
  Fe  Fe1  1  0.00000000  0.00000000  0.00000000  1
  As  As2  1  0.25354029  0.98022804  0.65965619  1
  As  As3  1  0.74645971  0.01977196  0.34034381  1
  As  As4  1  0.24375977  0.56855434  0.83147754  1
  As  As5  1  0.75624023  0.43144566  0.16852246  1
  Pb  Pb6  1  0.25273141  0.69531934  0.24925134  1
  Pb  Pb7  1  0.74726859  0.30468066  0.75074866  1
  Pb  Pb8  1  0.24747078  0.27949482  0.37522236  1
  Pb  Pb9  1  0.75252922  0.72050518  0.62477764  1
  O  O10  1  0.24423523  0.11766112  0.55924201  1
  O  O11  1  0.75576477  0.88233888  0.44075799  1
  O  O12  1  0.49663482  0.01545978  0.77113922  1
  O  O13  1  0.98652662  0.98033389  0.21999329  1
  O  O14  1  0.50336518  0.98454022  0.22886078  1
  O  O15  1  0.01347338  0.01966611  0.78000671  1
  O  O16  1  0.24853839  0.48064029  0.97614016  1
  O  O17  1  0.75146161  0.51935971  0.02385984  1
  O  O18  1  0.24020785  0.80311413  0.92522387  1
  O  O19  1  0.75979215  0.19688587  0.07477613  1
  O  O20  1  0.48142006  0.50681015  0.71324237  1
  O  O21  1  0.98315063  0.50307937  0.29276259  1
  O  O22  1  0.51857994  0.49318985  0.28675763  1
  O  O23  1  0.01684937  0.49692063  0.70723741  1
  O  O24  1  0.25100220  0.75374502  0.53496023  1
  O  O25  1  0.74899780  0.24625498  0.46503977  1
  O  O26  1  0.22938988  0.15280943  0.07947864  1
  O  O27  1  0.77061012  0.84719057  0.92052136  1
