# generated using pymatgen
data_Y2Fe17CN
_symmetry_space_group_name_H-M   'P 1'
_cell_length_a   6.50433994
_cell_length_b   6.43821852
_cell_length_c   6.46713658
_cell_angle_alpha   82.84767373
_cell_angle_beta   83.55705258
_cell_angle_gamma   83.48842720
_symmetry_Int_Tables_number   1
_chemical_formula_structural   Y2Fe17CN
_chemical_formula_sum   'Y2 Fe17 C1 N1'
_cell_volume   265.65431792
_cell_formula_units_Z   1
loop_
 _symmetry_equiv_pos_site_id
 _symmetry_equiv_pos_as_xyz
  1  'x, y, z'
loop_
 _atom_site_type_symbol
 _atom_site_label
 _atom_site_symmetry_multiplicity
 _atom_site_fract_x
 _atom_site_fract_y
 _atom_site_fract_z
 _atom_site_occupancy
  Y  Y0  1  0.65997376  0.66146725  0.65222834  1
  Y  Y1  1  0.34002624  0.33853275  0.34777166  1
  Fe  Fe2  1  0.34088106  0.34582868  0.85345051  1
  Fe  Fe3  1  0.34138229  0.85111972  0.34420864  1
  Fe  Fe4  1  0.85287784  0.34470912  0.34296603  1
  Fe  Fe5  1  0.65911894  0.65417132  0.14654949  1
  Fe  Fe6  1  0.65861771  0.14888028  0.65579136  1
  Fe  Fe7  1  0.14712216  0.65529088  0.65703397  1
  Fe  Fe8  1  0.90449848  0.90397160  0.90472141  1
  Fe  Fe9  1  0.09550152  0.09602840  0.09527859  1
  Fe  Fe10  1  0.00000000  0.00000000  0.50000000  1
  Fe  Fe11  1  0.00000000  0.50000000  0.00000000  1
  Fe  Fe12  1  0.50000000  0.00000000  0.00000000  1
  Fe  Fe13  1  0.28519016  0.71298767  0.00225815  1
  Fe  Fe14  1  0.71677588  0.00076103  0.28271022  1
  Fe  Fe15  1  0.99805601  0.29164053  0.71057664  1
  Fe  Fe16  1  0.28322412  0.99923897  0.71728978  1
  Fe  Fe17  1  0.00194399  0.70835947  0.28942336  1
  Fe  Fe18  1  0.71480984  0.28701233  0.99774185  1
  C  C19  1  0.50000000  0.50000000  0.00000000  1
  N  N20  1  0.50000000  0.00000000  0.50000000  1
