# generated using pymatgen
data_Sr8Pr4Cu9(HgO8)3
_symmetry_space_group_name_H-M   'P 1'
_cell_length_a   7.82501523
_cell_length_b   12.93455618
_cell_length_c   8.74632526
_cell_angle_alpha   105.67648620
_cell_angle_beta   63.42739349
_cell_angle_gamma   90.00000000
_symmetry_Int_Tables_number   1
_chemical_formula_structural   Sr8Pr4Cu9(HgO8)3
_chemical_formula_sum   'Sr8 Pr4 Cu9 Hg3 O24'
_cell_volume   754.73549161
_cell_formula_units_Z   1
loop_
 _symmetry_equiv_pos_site_id
 _symmetry_equiv_pos_as_xyz
  1  'x, y, z'
loop_
 _atom_site_type_symbol
 _atom_site_label
 _atom_site_symmetry_multiplicity
 _atom_site_fract_x
 _atom_site_fract_y
 _atom_site_fract_z
 _atom_site_occupancy
  Sr  Sr0  1  0.42090381  0.77812375  0.64560215  1
  Sr  Sr1  1  0.93349404  0.77812375  0.64560215  1
  Sr  Sr2  1  0.17744734  0.77810851  0.13248021  1
  Sr  Sr3  1  0.69007245  0.77810851  0.13248021  1
  Sr  Sr4  1  0.57909619  0.22187625  0.35439785  1
  Sr  Sr5  1  0.06650596  0.22187625  0.35439785  1
  Sr  Sr6  1  0.30992755  0.22189149  0.86751979  1
  Sr  Sr7  1  0.82255266  0.22189149  0.86751979  1
  Pr  Pr8  1  0.50000000  0.50000000  0.50000000  1
  Pr  Pr9  1  0.00000000  0.50000000  0.50000000  1
  Pr  Pr10  1  0.25098557  0.50000000  1.00000000  1
  Pr  Pr11  1  0.74901443  0.50000000  0.00000000  1
  Cu  Cu12  1  0.59119995  0.63492196  0.81760009  1
  Cu  Cu13  1  0.09184673  0.63265192  0.81630654  1
  Cu  Cu14  1  0.34156362  0.63627674  0.31687275  1
  Cu  Cu15  1  0.84024953  0.63643785  0.31950093  1
  Cu  Cu16  1  0.65843638  0.36372326  0.68312725  1
  Cu  Cu17  1  0.15975047  0.36356215  0.68049907  1
  Cu  Cu18  1  0.40880005  0.36507804  0.18239991  1
  Cu  Cu19  1  0.90815327  0.36734808  0.18369346  1
  Cu  Cu20  1  0.00000000  -0.00000000  -0.00000000  1
  Hg  Hg21  1  0.75106817  0.00012854  0.49786366  1
  Hg  Hg22  1  0.50000000  -0.00000000  -0.00000000  1
  Hg  Hg23  1  0.24893183  -0.00012854  0.50213634  1
  O  O24  1  0.71730659  0.62907109  0.56538682  1
  O  O25  1  0.21724380  0.63079327  0.56551240  1
  O  O26  1  0.46825002  0.62910983  0.06349997  1
  O  O27  1  0.96729430  0.63080783  0.06541140  1
  O  O28  1  0.34143688  0.63049596  0.81525710  1
  O  O29  1  0.84330602  0.63049596  0.81525710  1
  O  O30  1  0.09313246  0.62943073  0.31468782  1
  O  O31  1  0.59217973  0.62943073  0.31468782  1
  O  O32  1  0.78275620  0.36920673  0.43448760  1
  O  O33  1  0.28269341  0.37092891  0.43461318  1
  O  O34  1  0.53174998  0.37089017  0.93650003  1
  O  O35  1  0.03270570  0.36919217  0.93458860  1
  O  O36  1  0.40782027  0.37056927  0.68531218  1
  O  O37  1  0.90686754  0.37056927  0.68531218  1
  O  O38  1  0.15669398  0.36950404  0.18474290  1
  O  O39  1  0.65856312  0.36950404  0.18474290  1
  O  O40  1  0.54120501  0.83524022  0.91758998  1
  O  O41  1  0.03743440  0.85051287  0.92513120  1
  O  O42  1  0.29151992  0.83553247  0.41696016  1
  O  O43  1  0.79076239  0.83562278  0.41847523  1
  O  O44  1  0.70848008  0.16446753  0.58303984  1
  O  O45  1  0.20923761  0.16437722  0.58152477  1
  O  O46  1  0.45879499  0.16475978  0.08241002  1
  O  O47  1  0.96256560  0.14948713  0.07486880  1
