# generated using pymatgen
data_Ti2CrTe4
_symmetry_space_group_name_H-M   'P 1'
_cell_length_a   3.94641947
_cell_length_b   7.08755113
_cell_length_c   7.35241447
_cell_angle_alpha   118.00085060
_cell_angle_beta   74.43236272
_cell_angle_gamma   90.00000000
_symmetry_Int_Tables_number   1
_chemical_formula_structural   Ti2CrTe4
_chemical_formula_sum   'Ti2 Cr1 Te4'
_cell_volume   172.98587340
_cell_formula_units_Z   1
loop_
 _symmetry_equiv_pos_site_id
 _symmetry_equiv_pos_as_xyz
  1  'x, y, z'
loop_
 _atom_site_type_symbol
 _atom_site_label
 _atom_site_symmetry_multiplicity
 _atom_site_fract_x
 _atom_site_fract_y
 _atom_site_fract_z
 _atom_site_occupancy
  Ti  Ti0  1  0.99600504  0.00330062  0.00798993  1
  Ti  Ti1  1  0.75398494  0.27675189  0.49203011  1
  Cr  Cr2  1  0.25276920  0.71663123  0.49446160  1
  Te  Te3  1  0.11527920  0.55086985  0.76944161  1
  Te  Te4  1  0.88675892  0.45438469  0.22648216  1
  Te  Te5  1  0.36501463  0.96125881  0.26997074  1
  Te  Te6  1  0.63018808  0.03680291  0.73962385  1
