# generated using pymatgen
data_TlSbPbS3
_symmetry_space_group_name_H-M   'P 1'
_cell_length_a   4.17568272
_cell_length_b   4.09691256
_cell_length_c   12.13595676
_cell_angle_alpha   88.59290649
_cell_angle_beta   106.98458244
_cell_angle_gamma   89.80744469
_symmetry_Int_Tables_number   1
_chemical_formula_structural   TlSbPbS3
_chemical_formula_sum   'Tl1 Sb1 Pb1 S3'
_cell_volume   198.48737879
_cell_formula_units_Z   1
loop_
 _symmetry_equiv_pos_site_id
 _symmetry_equiv_pos_as_xyz
  1  'x, y, z'
loop_
 _atom_site_type_symbol
 _atom_site_label
 _atom_site_symmetry_multiplicity
 _atom_site_fract_x
 _atom_site_fract_y
 _atom_site_fract_z
 _atom_site_occupancy
  Tl  Tl0  1  0.43460186  0.74009702  0.67670816  1
  Sb  Sb1  1  0.68254542  0.25563454  0.38509440  1
  Pb  Pb2  1  0.94009020  0.77845742  0.11766008  1
  S  S3  1  0.86480300  0.24349392  0.59648528  1
  S  S4  1  0.08725064  0.75089634  0.36724345  1
  S  S5  1  0.41000888  0.27242076  0.12690862  1
