# generated using pymatgen
data_V3NiO6
_symmetry_space_group_name_H-M   'P 1'
_cell_length_a   5.07063189
_cell_length_b   5.07063162
_cell_length_c   5.50396619
_cell_angle_alpha   62.57195238
_cell_angle_beta   117.42804811
_cell_angle_gamma   119.99999825
_symmetry_Int_Tables_number   1
_chemical_formula_structural   V3NiO6
_chemical_formula_sum   'V3 Ni1 O6'
_cell_volume   103.78074119
_cell_formula_units_Z   1
loop_
 _symmetry_equiv_pos_site_id
 _symmetry_equiv_pos_as_xyz
  1  'x, y, z'
loop_
 _atom_site_type_symbol
 _atom_site_label
 _atom_site_symmetry_multiplicity
 _atom_site_fract_x
 _atom_site_fract_y
 _atom_site_fract_z
 _atom_site_occupancy
  V  V0  1  0.64943360  0.35056640  0.94830081  1
  V  V1  1  0.85021165  0.14978835  0.55063496  1
  V  V2  1  0.34899077  0.65100923  0.04697232  1
  Ni  Ni3  1  0.14807763  0.85192237  0.44423290  1
  O  O4  1  0.25157086  0.06103909  0.75644238  1
  O  O5  1  0.56591061  0.74842914  0.75644238  1
  O  O6  1  0.93896091  0.43408939  0.75644238  1
  O  O7  1  0.45451057  0.26060396  0.24684396  1
  O  O8  1  0.05293735  0.54548943  0.24684396  1
  O  O9  1  0.73939604  0.94706265  0.24684396  1
