# generated using pymatgen
data_Tm4CdSe7
_symmetry_space_group_name_H-M   'P 1'
_cell_length_a   3.95123857
_cell_length_b   6.88814370
_cell_length_c   12.06462876
_cell_angle_alpha   104.15176114
_cell_angle_beta   90.00000000
_cell_angle_gamma   73.33266121
_symmetry_Int_Tables_number   1
_chemical_formula_structural   Tm4CdSe7
_chemical_formula_sum   'Tm4 Cd1 Se7'
_cell_volume   304.14685509
_cell_formula_units_Z   1
loop_
 _symmetry_equiv_pos_site_id
 _symmetry_equiv_pos_as_xyz
  1  'x, y, z'
loop_
 _atom_site_type_symbol
 _atom_site_label
 _atom_site_symmetry_multiplicity
 _atom_site_fract_x
 _atom_site_fract_y
 _atom_site_fract_z
 _atom_site_occupancy
  Tm  Tm0  1  0.69460659  0.61078682  0.19775151  1
  Tm  Tm1  1  0.30610781  0.38778439  0.80508475  1
  Tm  Tm2  1  0.00011186  0.99977628  0.00192769  1
  Tm  Tm3  1  0.11532969  0.76934062  0.57215001  1
  Cd  Cd4  1  0.88414806  0.23170388  0.42122168  1
  Se  Se5  1  0.74174913  0.51650174  0.64784283  1
  Se  Se6  1  0.25632422  0.48735156  0.35118562  1
  Se  Se7  1  0.34016636  0.31966728  0.04861970  1
  Se  Se8  1  0.66017140  0.67965720  0.94923193  1
  Se  Se9  1  0.03891967  0.92216066  0.21654603  1
  Se  Se10  1  0.96142923  0.07714154  0.78543049  1
  Se  Se11  1  0.50093598  0.99812803  0.50300776  1
