# generated using pymatgen
data_Sr5Fe4CoO10
_symmetry_space_group_name_H-M   'P 1'
_cell_length_a   4.04455687
_cell_length_b   4.04455687
_cell_length_c   17.49382805
_cell_angle_alpha   90.00000000
_cell_angle_beta   90.00000000
_cell_angle_gamma   90.00000000
_symmetry_Int_Tables_number   1
_chemical_formula_structural   Sr5Fe4CoO10
_chemical_formula_sum   'Sr5 Fe4 Co1 O10'
_cell_volume   286.17174133
_cell_formula_units_Z   1
loop_
 _symmetry_equiv_pos_site_id
 _symmetry_equiv_pos_as_xyz
  1  'x, y, z'
loop_
 _atom_site_type_symbol
 _atom_site_label
 _atom_site_symmetry_multiplicity
 _atom_site_fract_x
 _atom_site_fract_y
 _atom_site_fract_z
 _atom_site_occupancy
  Sr  Sr0  1  0.50000000  0.50000000  0.09829683  1
  Sr  Sr1  1  0.50000000  0.50000000  0.29918132  1
  Sr  Sr2  1  0.50000000  0.50000000  0.50000000  1
  Sr  Sr3  1  0.50000000  0.50000000  0.70081868  1
  Sr  Sr4  1  0.50000000  0.50000000  0.90170317  1
  Fe  Fe5  1  -0.00000000  -0.00000000  0.19929746  1
  Fe  Fe6  1  0.00000000  0.00000000  0.39993446  1
  Fe  Fe7  1  -0.00000000  0.00000000  0.60006554  1
  Fe  Fe8  1  0.00000000  -0.00000000  0.80070254  1
  Co  Co9  1  -0.00000000  -0.00000000  -0.00000000  1
  O  O10  1  -0.00000000  0.50000000  -0.00000000  1
  O  O11  1  -0.00000000  0.50000000  0.20068912  1
  O  O12  1  0.00000000  0.50000000  0.40025235  1
  O  O13  1  -0.00000000  0.50000000  0.59974765  1
  O  O14  1  0.00000000  0.50000000  0.79931088  1
  O  O15  1  0.50000000  -0.00000000  -0.00000000  1
  O  O16  1  0.50000000  -0.00000000  0.20068912  1
  O  O17  1  0.50000000  -0.00000000  0.40025235  1
  O  O18  1  0.50000000  -0.00000000  0.59974765  1
  O  O19  1  0.50000000  -0.00000000  0.79931088  1
