# generated using pymatgen
data_Ni2P2(SeS)3
_symmetry_space_group_name_H-M   'P 1'
_cell_length_a   5.97154900
_cell_length_b   6.03877776
_cell_length_c   6.99547711
_cell_angle_alpha   98.34120767
_cell_angle_beta   73.38574175
_cell_angle_gamma   119.95082035
_symmetry_Int_Tables_number   1
_chemical_formula_structural   Ni2P2(SeS)3
_chemical_formula_sum   'Ni2 P2 Se3 S3'
_cell_volume   209.44829140
_cell_formula_units_Z   1
loop_
 _symmetry_equiv_pos_site_id
 _symmetry_equiv_pos_as_xyz
  1  'x, y, z'
loop_
 _atom_site_type_symbol
 _atom_site_label
 _atom_site_symmetry_multiplicity
 _atom_site_fract_x
 _atom_site_fract_y
 _atom_site_fract_z
 _atom_site_occupancy
  Ni  Ni0  1  0.66045408  0.32867964  0.00444735  1
  Ni  Ni1  1  0.34238365  0.67709031  0.00520373  1
  P  P2  1  0.94514811  0.98942911  0.16238420  1
  P  P3  1  0.04349319  0.99955658  0.83561470  1
  Se  Se4  1  0.92111439  0.35051562  0.24207585  1
  Se  Se5  1  0.43349963  0.35749667  0.76158781  1
  Se  Se6  1  0.07873541  0.64358985  0.76054452  1
  S  S7  1  0.26735887  0.99714863  0.22237832  1
  S  S8  1  0.72239651  0.00027935  0.78163256  1
  S  S9  1  0.58541617  0.65621423  0.22413096  1
