# generated using pymatgen
data_Re3HgO9
_symmetry_space_group_name_H-M   'P 1'
_cell_length_a   3.78936342
_cell_length_b   7.43974492
_cell_length_c   7.43974492
_cell_angle_alpha   59.99999626
_cell_angle_beta   90.00000000
_cell_angle_gamma   90.00000000
_symmetry_Int_Tables_number   1
_chemical_formula_structural   Re3HgO9
_chemical_formula_sum   'Re3 Hg1 O9'
_cell_volume   181.64061549
_cell_formula_units_Z   1
loop_
 _symmetry_equiv_pos_site_id
 _symmetry_equiv_pos_as_xyz
  1  'x, y, z'
loop_
 _atom_site_type_symbol
 _atom_site_label
 _atom_site_symmetry_multiplicity
 _atom_site_fract_x
 _atom_site_fract_y
 _atom_site_fract_z
 _atom_site_occupancy
  Re  Re0  1  0.49625010  0.50000000  -0.00000000  1
  Re  Re1  1  0.49625010  0.50000000  0.50000000  1
  Re  Re2  1  0.49625010  0.00000000  0.50000000  1
  Hg  Hg3  1  0.74403647  0.00000000  -0.00000000  1
  O  O4  1  0.50166713  0.57480962  0.21259519  1
  O  O5  1  0.50166713  0.21259519  0.57480962  1
  O  O6  1  0.50166713  0.21259519  0.21259519  1
  O  O7  1  0.50166713  0.78740481  0.78740481  1
  O  O8  1  0.50166713  0.78740481  0.42519038  1
  O  O9  1  0.50166713  0.42519038  0.78740481  1
  O  O10  1  0.99840348  0.50000000  -0.00000000  1
  O  O11  1  0.99840348  0.50000000  0.50000000  1
  O  O12  1  0.99840348  0.00000000  0.50000000  1
