# generated using pymatgen
data_Si5GeW10
_symmetry_space_group_name_H-M   'P 1'
_cell_length_a   5.01332274
_cell_length_b   7.31110782
_cell_length_c   7.31110782
_cell_angle_alpha   96.75076344
_cell_angle_beta   110.05100781
_cell_angle_gamma   69.94899219
_symmetry_Int_Tables_number   1
_chemical_formula_structural   Si5GeW10
_chemical_formula_sum   'Si5 Ge1 W10'
_cell_volume   236.47315092
_cell_formula_units_Z   1
loop_
 _symmetry_equiv_pos_site_id
 _symmetry_equiv_pos_as_xyz
  1  'x, y, z'
loop_
 _atom_site_type_symbol
 _atom_site_label
 _atom_site_symmetry_multiplicity
 _atom_site_fract_x
 _atom_site_fract_y
 _atom_site_fract_z
 _atom_site_occupancy
  Si  Si0  1  0.33134130  0.50000000  0.16268260  1
  Si  Si1  1  0.66865870  0.50000000  0.83731740  1
  Si  Si2  1  0.83134130  0.83731740  0.50000000  1
  Si  Si3  1  0.16865870  0.16268260  0.50000000  1
  Si  Si4  1  0.25000000  0.00000000  -0.00000000  1
  Ge  Ge5  1  0.75000000  -0.00000000  -0.00000000  1
  W  W6  1  0.42198945  0.84781784  0.69742235  1
  W  W7  1  0.57238495  0.15218216  0.30257765  1
  W  W8  1  0.92761505  0.30257765  0.15218216  1
  W  W9  1  0.07801055  0.69742235  0.84781784  1
  W  W10  1  0.72456711  0.69742235  0.15218216  1
  W  W11  1  0.26980729  0.30257765  0.84781784  1
  W  W12  1  0.77543289  0.15218216  0.69742235  1
  W  W13  1  0.23019271  0.84781784  0.30257765  1
  W  W14  1  0.25000000  0.50000000  0.50000000  1
  W  W15  1  0.75000000  0.50000000  0.50000000  1
