# generated using pymatgen
data_Nd2Ge3
_symmetry_space_group_name_H-M   'P 1'
_cell_length_a   4.13985275
_cell_length_b   4.19720054
_cell_length_c   7.79855796
_cell_angle_alpha   74.38921788
_cell_angle_beta   74.60783682
_cell_angle_gamma   90.00000000
_symmetry_Int_Tables_number   1
_chemical_formula_structural   Nd2Ge3
_chemical_formula_sum   'Nd2 Ge3'
_cell_volume   125.45368656
_cell_formula_units_Z   1
loop_
 _symmetry_equiv_pos_site_id
 _symmetry_equiv_pos_as_xyz
  1  'x, y, z'
loop_
 _atom_site_type_symbol
 _atom_site_label
 _atom_site_symmetry_multiplicity
 _atom_site_fract_x
 _atom_site_fract_y
 _atom_site_fract_z
 _atom_site_occupancy
  Nd  Nd0  1  0.74881648  0.24881648  0.50236703  1
  Nd  Nd1  1  0.00212158  0.00212158  0.99575684  1
  Ge  Ge2  1  0.40404622  0.40404622  0.19190756  1
  Ge  Ge3  1  0.18334748  0.68334748  0.63330504  1
  Ge  Ge4  1  0.57666823  0.57666823  0.84666353  1
