# generated using pymatgen
data_Sc3Ga5Ni
_symmetry_space_group_name_H-M   'P 1'
_cell_length_a   6.81575431
_cell_length_b   7.87003167
_cell_length_c   7.87181218
_cell_angle_alpha   83.38956739
_cell_angle_beta   115.65311258
_cell_angle_gamma   64.34066186
_symmetry_Int_Tables_number   1
_chemical_formula_structural   Sc3Ga5Ni
_chemical_formula_sum   'Sc6 Ga10 Ni2'
_cell_volume   318.41350908
_cell_formula_units_Z   2
loop_
 _symmetry_equiv_pos_site_id
 _symmetry_equiv_pos_as_xyz
  1  'x, y, z'
loop_
 _atom_site_type_symbol
 _atom_site_label
 _atom_site_symmetry_multiplicity
 _atom_site_fract_x
 _atom_site_fract_y
 _atom_site_fract_z
 _atom_site_occupancy
  Sc  Sc0  1  0.43080100  0.46764996  0.95536573  1
  Sc  Sc1  1  0.94308524  0.53235004  0.04463427  1
  Sc  Sc2  1  0.78131179  0.27054821  0.73157069  1
  Sc  Sc3  1  0.32028931  0.72945179  0.26842931  1
  Sc  Sc4  1  0.41999063  0.05076182  0.54428279  1
  Sc  Sc5  1  0.92646967  0.94923818  0.45571721  1
  Ga  Ga6  1  0.21016240  0.26318674  0.75112920  1
  Ga  Ga7  1  0.72221994  0.73681326  0.24887080  1
  Ga  Ga8  1  0.36425690  0.12752211  0.14378042  1
  Ga  Ga9  1  0.34799859  0.87247789  0.85621958  1
  Ga  Ga10  1  0.81406293  0.63851894  0.62604500  1
  Ga  Ga11  1  0.82653688  0.36148106  0.37395500  1
  Ga  Ga12  1  0.97282373  0.83916864  0.83549322  1
  Ga  Ga13  1  0.97649915  0.16083136  0.16450678  1
  Ga  Ga14  1  0.23706862  0.50000000  0.50000000  1
  Ga  Ga15  1  0.72621161  0.00000000  -0.00000000  1
  Ni  Ni16  1  0.46880688  0.33018480  0.33558693  1
  Ni  Ni17  1  0.46340474  0.66981520  0.66441307  1
