# generated using pymatgen
data_Sr4CaYFeCu4PbO14
_symmetry_space_group_name_H-M   'P 1'
_cell_length_a   5.39058353
_cell_length_b   5.39058353
_cell_length_c   12.66085042
_cell_angle_alpha   77.70858754
_cell_angle_beta   77.70858754
_cell_angle_gamma   90.00000000
_symmetry_Int_Tables_number   1
_chemical_formula_structural   Sr4CaYFeCu4PbO14
_chemical_formula_sum   'Sr4 Ca1 Y1 Fe1 Cu4 Pb1 O14'
_cell_volume   350.83471940
_cell_formula_units_Z   1
loop_
 _symmetry_equiv_pos_site_id
 _symmetry_equiv_pos_as_xyz
  1  'x, y, z'
loop_
 _atom_site_type_symbol
 _atom_site_label
 _atom_site_symmetry_multiplicity
 _atom_site_fract_x
 _atom_site_fract_y
 _atom_site_fract_z
 _atom_site_occupancy
  Sr  Sr0  1  0.10470538  0.60470538  0.79059025  1
  Sr  Sr1  1  0.60600432  0.10600432  0.78799236  1
  Sr  Sr2  1  0.39529562  0.89529562  0.20940975  1
  Sr  Sr3  1  0.89399668  0.39399568  0.21200764  1
  Ca  Ca4  1  0.75000000  0.25000000  0.50000000  1
  Y  Y5  1  0.25000000  0.75000000  0.50000000  1
  Fe  Fe6  1  -0.00000000  -0.00000000  0.00000000  1
  Cu  Cu7  1  0.18169301  0.18169401  0.63661299  1
  Cu  Cu8  1  0.67879584  0.67879584  0.64240932  1
  Cu  Cu9  1  0.32120416  0.32120516  0.35759068  1
  Cu  Cu10  1  0.81830599  0.81830599  0.36338701  1
  Pb  Pb11  1  0.50000000  0.50000000  0.00000000  1
  O  O12  1  0.43108615  0.93341601  0.62663927  1
  O  O13  1  0.94227358  0.43994472  0.62663927  1
  O  O14  1  0.94227358  0.93341601  0.62663927  1
  O  O15  1  0.43108615  0.43994472  0.62663927  1
  O  O16  1  0.56005428  0.05772642  0.37336073  1
  O  O17  1  0.06658499  0.56891385  0.37336073  1
  O  O18  1  0.06658399  0.05772642  0.37336073  1
  O  O19  1  0.56005528  0.56891285  0.37336073  1
  O  O20  1  0.07628080  0.07628080  0.84743840  1
  O  O21  1  0.58924333  0.58924333  0.82151335  1
  O  O22  1  0.41075667  0.41075667  0.17848665  1
  O  O23  1  0.92371920  0.92371920  0.15256160  1
  O  O24  1  0.50057066  0.00057066  0.99885868  1
  O  O25  1  0.99942934  0.49942934  0.00114132  1
