# generated using pymatgen
data_Ni3(BiS)2
_symmetry_space_group_name_H-M   'P 1'
_cell_length_a   4.12837256
_cell_length_b   5.40103974
_cell_length_c   5.88273808
_cell_angle_alpha   90.00000000
_cell_angle_beta   90.00000000
_cell_angle_gamma   90.00000000
_symmetry_Int_Tables_number   1
_chemical_formula_structural   Ni3(BiS)2
_chemical_formula_sum   'Ni3 Bi2 S2'
_cell_volume   131.17037739
_cell_formula_units_Z   1
loop_
 _symmetry_equiv_pos_site_id
 _symmetry_equiv_pos_as_xyz
  1  'x, y, z'
loop_
 _atom_site_type_symbol
 _atom_site_label
 _atom_site_symmetry_multiplicity
 _atom_site_fract_x
 _atom_site_fract_y
 _atom_site_fract_z
 _atom_site_occupancy
  Ni  Ni0  1  0.50000000  0.50238210  0.00326137  1
  Ni  Ni1  1  0.50000000  0.99761790  0.00326137  1
  Ni  Ni2  1  -0.00000000  0.25000000  0.18391695  1
  Bi  Bi3  1  -0.00000000  0.25000000  0.74723915  1
  Bi  Bi4  1  -0.00000000  0.75000000  0.25638979  1
  S  S5  1  0.50000000  0.25000000  0.29818900  1
  S  S6  1  0.50000000  0.75000000  0.71174238  1
