# generated using pymatgen
data_NbAlFe4
_symmetry_space_group_name_H-M   'P 1'
_cell_length_a   4.79814037
_cell_length_b   4.79814037
_cell_length_c   7.72893841
_cell_angle_alpha   89.99437959
_cell_angle_beta   90.00562041
_cell_angle_gamma   119.97282848
_symmetry_Int_Tables_number   1
_chemical_formula_structural   NbAlFe4
_chemical_formula_sum   'Nb2 Al2 Fe8'
_cell_volume   154.13995150
_cell_formula_units_Z   2
loop_
 _symmetry_equiv_pos_site_id
 _symmetry_equiv_pos_as_xyz
  1  'x, y, z'
loop_
 _atom_site_type_symbol
 _atom_site_label
 _atom_site_symmetry_multiplicity
 _atom_site_fract_x
 _atom_site_fract_y
 _atom_site_fract_z
 _atom_site_occupancy
  Nb  Nb0  1  0.33334455  0.66665545  0.07798440  1
  Nb  Nb1  1  0.66665545  0.33334455  0.92201560  1
  Al  Al2  1  0.66669685  0.33330315  0.55566653  1
  Al  Al3  1  0.33330315  0.66669685  0.44433347  1
  Fe  Fe4  1  0.00000000  0.00000000  0.50000000  1
  Fe  Fe5  1  0.00000000  0.00000000  -0.00000000  1
  Fe  Fe6  1  0.16913624  0.33831841  0.74762977  1
  Fe  Fe7  1  0.16920306  0.83079694  0.74748931  1
  Fe  Fe8  1  0.66168159  0.83086376  0.74762977  1
  Fe  Fe9  1  0.83086376  0.66168159  0.25237023  1
  Fe  Fe10  1  0.83079694  0.16920306  0.25251069  1
  Fe  Fe11  1  0.33831841  0.16913624  0.25237023  1
