# generated using pymatgen
data_Nb3IrS8
_symmetry_space_group_name_H-M   'P 1'
_cell_length_a   6.70372258
_cell_length_b   6.70341620
_cell_length_c   7.10758854
_cell_angle_alpha   76.30233101
_cell_angle_beta   76.40507481
_cell_angle_gamma   119.98478966
_symmetry_Int_Tables_number   1
_chemical_formula_structural   Nb3IrS8
_chemical_formula_sum   'Nb3 Ir1 S8'
_cell_volume   243.93221968
_cell_formula_units_Z   1
loop_
 _symmetry_equiv_pos_site_id
 _symmetry_equiv_pos_as_xyz
  1  'x, y, z'
loop_
 _atom_site_type_symbol
 _atom_site_label
 _atom_site_symmetry_multiplicity
 _atom_site_fract_x
 _atom_site_fract_y
 _atom_site_fract_z
 _atom_site_occupancy
  Nb  Nb0  1  0.50000000  0.50000000  0.00000000  1
  Nb  Nb1  1  0.50000000  -0.00000000  0.00000000  1
  Nb  Nb2  1  -0.00000000  0.50000000  0.00000000  1
  Ir  Ir3  1  -0.00000000  -0.00000000  0.00000000  1
  S  S4  1  0.03887015  0.71433315  0.24677786  1
  S  S5  1  0.54304782  0.20913697  0.24782432  1
  S  S6  1  0.55273863  0.71460823  0.24613958  1
  S  S7  1  0.03923538  0.20111289  0.24611159  1
  S  S8  1  0.44726137  0.28539177  0.75386042  1
  S  S9  1  0.96076462  0.79888711  0.75388841  1
  S  S10  1  0.96112985  0.28566685  0.75322214  1
  S  S11  1  0.45695218  0.79086303  0.75217568  1
