# generated using pymatgen
data_Na2TbO3
_symmetry_space_group_name_H-M   'P 1'
_cell_length_a   3.44573680
_cell_length_b   4.68401591
_cell_length_c   6.00980372
_cell_angle_alpha   67.06429609
_cell_angle_beta   73.34092374
_cell_angle_gamma   90.00000000
_symmetry_Int_Tables_number   1
_chemical_formula_structural   Na2TbO3
_chemical_formula_sum   'Na2 Tb1 O3'
_cell_volume   84.89098887
_cell_formula_units_Z   1
loop_
 _symmetry_equiv_pos_site_id
 _symmetry_equiv_pos_as_xyz
  1  'x, y, z'
loop_
 _atom_site_type_symbol
 _atom_site_label
 _atom_site_symmetry_multiplicity
 _atom_site_fract_x
 _atom_site_fract_y
 _atom_site_fract_z
 _atom_site_occupancy
  Na  Na0  1  0.32475001  0.32475001  0.35049897  1
  Na  Na1  1  0.67524999  0.67524999  0.64950103  1
  Tb  Tb2  1  0.00000000  0.00000000  0.00000000  1
  O  O3  1  0.00000000  0.50000000  -0.00000000  1
  O  O4  1  0.35558717  0.85558717  0.28882466  1
  O  O5  1  0.64441283  0.14441283  0.71117534  1
