# generated using pymatgen
data_Nb6AgSe8
_symmetry_space_group_name_H-M   'P 1'
_cell_length_a   3.48452415
_cell_length_b   10.11370921
_cell_length_c   10.11478597
_cell_angle_alpha   60.01124936
_cell_angle_beta   90.00031706
_cell_angle_gamma   90.00081285
_symmetry_Int_Tables_number   1
_chemical_formula_structural   Nb6AgSe8
_chemical_formula_sum   'Nb6 Ag1 Se8'
_cell_volume   308.73828646
_cell_formula_units_Z   1
loop_
 _symmetry_equiv_pos_site_id
 _symmetry_equiv_pos_as_xyz
  1  'x, y, z'
loop_
 _atom_site_type_symbol
 _atom_site_label
 _atom_site_symmetry_multiplicity
 _atom_site_fract_x
 _atom_site_fract_y
 _atom_site_fract_z
 _atom_site_occupancy
  Nb  Nb0  1  0.75003946  0.37900237  0.51268809  1
  Nb  Nb1  1  0.75001749  0.10834750  0.37900641  1
  Nb  Nb2  1  0.75003567  0.51270509  0.10831796  1
  Nb  Nb3  1  0.24996054  0.62099763  0.48731191  1
  Nb  Nb4  1  0.24998251  0.89165250  0.62099359  1
  Nb  Nb5  1  0.24996433  0.48729491  0.89168204  1
  Ag  Ag6  1  0.50000000  -0.00000000  -0.00000000  1
  Se  Se7  1  0.74972168  0.05944822  0.66264167  1
  Se  Se8  1  0.74970718  0.27789379  0.05947602  1
  Se  Se9  1  0.74971386  0.66262709  0.27790525  1
  Se  Se10  1  0.25027832  0.94055178  0.33735833  1
  Se  Se11  1  0.25029282  0.72210621  0.94052398  1
  Se  Se12  1  0.25028614  0.33737291  0.72209475  1
  Se  Se13  1  0.75027399  0.66664816  0.66667586  1
  Se  Se14  1  0.24972601  0.33335184  0.33332414  1
