# generated using pymatgen
data_Na5NiCO5
_symmetry_space_group_name_H-M   'P 1'
_cell_length_a   4.48763503
_cell_length_b   4.91040537
_cell_length_c   8.42588036
_cell_angle_alpha   90.00000000
_cell_angle_beta   90.00000000
_cell_angle_gamma   90.00000000
_symmetry_Int_Tables_number   1
_chemical_formula_structural   Na5NiCO5
_chemical_formula_sum   'Na5 Ni1 C1 O5'
_cell_volume   185.67360245
_cell_formula_units_Z   1
loop_
 _symmetry_equiv_pos_site_id
 _symmetry_equiv_pos_as_xyz
  1  'x, y, z'
loop_
 _atom_site_type_symbol
 _atom_site_label
 _atom_site_symmetry_multiplicity
 _atom_site_fract_x
 _atom_site_fract_y
 _atom_site_fract_z
 _atom_site_occupancy
  Na  Na0  1  0.00000000  0.98221167  0.50000000  1
  Na  Na1  1  0.50000000  0.99215282  0.75666984  1
  Na  Na2  1  0.00000000  0.50509357  0.77440557  1
  Na  Na3  1  0.50000000  0.99215282  0.24333016  1
  Na  Na4  1  0.00000000  0.50509357  0.22559443  1
  Ni  Ni5  1  -0.00000000  0.00508073  -0.00000000  1
  C  C6  1  0.50000000  0.42654240  0.50000000  1
  O  O7  1  0.00000000  0.00641386  0.78723859  1
  O  O8  1  0.00000000  0.00641386  0.21276141  1
  O  O9  1  0.50000000  0.16040677  0.50000000  1
  O  O10  1  0.50000000  0.55506896  0.63521507  1
  O  O11  1  0.50000000  0.55506896  0.36478493  1
