# generated using pymatgen
data_Mn2CuSb2Pd
_symmetry_space_group_name_H-M   'P 1'
_cell_length_a   4.37053933
_cell_length_b   4.37053933
_cell_length_c   7.57416664
_cell_angle_alpha   106.76913771
_cell_angle_beta   73.23086229
_cell_angle_gamma   120.00000011
_symmetry_Int_Tables_number   1
_chemical_formula_structural   Mn2CuSb2Pd
_chemical_formula_sum   'Mn2 Cu1 Sb2 Pd1'
_cell_volume   118.13788411
_cell_formula_units_Z   1
loop_
 _symmetry_equiv_pos_site_id
 _symmetry_equiv_pos_as_xyz
  1  'x, y, z'
loop_
 _atom_site_type_symbol
 _atom_site_label
 _atom_site_symmetry_multiplicity
 _atom_site_fract_x
 _atom_site_fract_y
 _atom_site_fract_z
 _atom_site_occupancy
  Mn  Mn0  1  0.24970389  0.75029611  0.25088832  1
  Mn  Mn1  1  0.75045892  0.24954108  0.74862323  1
  Cu  Cu2  1  0.87528603  0.12471397  0.37414190  1
  Sb  Sb3  1  0.99800943  0.00199057  0.00597170  1
  Sb  Sb4  1  0.50155964  0.49844036  0.49532109  1
  Pd  Pd5  1  0.37498208  0.62501792  0.87505376  1
