# generated using pymatgen
data_Mg3SiO5F
_symmetry_space_group_name_H-M   'P 1'
_cell_length_a   4.77131594
_cell_length_b   8.91258947
_cell_length_c   10.45041525
_cell_angle_alpha   90.00000000
_cell_angle_beta   90.00000000
_cell_angle_gamma   90.00000000
_symmetry_Int_Tables_number   1
_chemical_formula_structural   Mg3SiO5F
_chemical_formula_sum   'Mg12 Si4 O20 F4'
_cell_volume   444.40161156
_cell_formula_units_Z   4
loop_
 _symmetry_equiv_pos_site_id
 _symmetry_equiv_pos_as_xyz
  1  'x, y, z'
loop_
 _atom_site_type_symbol
 _atom_site_label
 _atom_site_symmetry_multiplicity
 _atom_site_fract_x
 _atom_site_fract_y
 _atom_site_fract_z
 _atom_site_occupancy
  Mg  Mg0  1  0.47794424  0.93316595  0.86563191  1
  Mg  Mg1  1  0.02410311  0.57061964  0.36768543  1
  Mg  Mg2  1  0.52205576  0.43316595  0.13436809  1
  Mg  Mg3  1  0.97589689  0.07061964  0.63231457  1
  Mg  Mg4  1  0.52410311  0.07061964  0.13231457  1
  Mg  Mg5  1  0.97794424  0.43316595  0.63436809  1
  Mg  Mg6  1  0.47589689  0.57061964  0.86768543  1
  Mg  Mg7  1  0.02205576  0.93316595  0.36563191  1
  Mg  Mg8  1  0.49752883  0.74903795  0.59549086  1
  Mg  Mg9  1  0.00247117  0.74903795  0.09549086  1
  Mg  Mg10  1  0.50247117  0.24903795  0.40450914  1
  Mg  Mg11  1  0.99752883  0.24903795  0.90450914  1
  Si  Si12  1  0.91435699  0.74969457  0.78505164  1
  Si  Si13  1  0.58564301  0.74969457  0.28505164  1
  Si  Si14  1  0.08564301  0.24969457  0.21494836  1
  Si  Si15  1  0.41435699  0.24969457  0.71494836  1
  O  O16  1  0.24492430  0.74842673  0.28425682  1
  O  O17  1  0.25507570  0.74842673  0.78425682  1
  O  O18  1  0.75507570  0.24842673  0.71574318  1
  O  O19  1  0.74492430  0.24842673  0.21574318  1
  O  O20  1  0.73393153  0.89586848  0.21291040  1
  O  O21  1  0.76261435  0.60624957  0.71106337  1
  O  O22  1  0.26606847  0.39586848  0.78708960  1
  O  O23  1  0.23738565  0.10624957  0.28893663  1
  O  O24  1  0.26261435  0.10624957  0.78893663  1
  O  O25  1  0.23393153  0.39586848  0.28708960  1
  O  O26  1  0.73738565  0.60624957  0.21106337  1
  O  O27  1  0.76606847  0.89586848  0.71291040  1
  O  O28  1  0.73097334  0.74870133  0.42918828  1
  O  O29  1  0.76902666  0.74870133  0.92918828  1
  O  O30  1  0.26902666  0.24870133  0.57081172  1
  O  O31  1  0.23097334  0.24870133  0.07081172  1
  O  O32  1  0.22327049  0.91582590  0.53895957  1
  O  O33  1  0.77672951  0.41582590  0.46104043  1
  O  O34  1  0.72327049  0.41582590  0.96104043  1
  O  O35  1  0.27672951  0.91582590  0.03895957  1
  F  F36  1  0.26225831  0.58240987  0.03648364  1
  F  F37  1  0.73774169  0.08240987  0.96351636  1
  F  F38  1  0.76225831  0.08240987  0.46351636  1
  F  F39  1  0.23774169  0.58240987  0.53648364  1
