# generated using pymatgen
data_La2TiCuO6
_symmetry_space_group_name_H-M   'P 1'
_cell_length_a   5.74626390
_cell_length_b   5.61676583
_cell_length_c   7.80758894
_cell_angle_alpha   90.31318228
_cell_angle_beta   90.00000000
_cell_angle_gamma   90.00000000
_symmetry_Int_Tables_number   1
_chemical_formula_structural   La2TiCuO6
_chemical_formula_sum   'La4 Ti2 Cu2 O12'
_cell_volume   251.98943797
_cell_formula_units_Z   2
loop_
 _symmetry_equiv_pos_site_id
 _symmetry_equiv_pos_as_xyz
  1  'x, y, z'
loop_
 _atom_site_type_symbol
 _atom_site_label
 _atom_site_symmetry_multiplicity
 _atom_site_fract_x
 _atom_site_fract_y
 _atom_site_fract_z
 _atom_site_occupancy
  La  La0  1  0.45294031  0.48839125  0.74899993  1
  La  La1  1  0.95294031  0.01160875  0.75100007  1
  La  La2  1  0.54705969  0.51160875  0.25100007  1
  La  La3  1  0.04705969  0.98839125  0.24899993  1
  Ti  Ti4  1  0.50000000  0.00000000  0.50000000  1
  Ti  Ti5  1  -0.00000000  0.50000000  0.00000000  1
  Cu  Cu6  1  0.50000000  0.00000000  0.00000000  1
  Cu  Cu7  1  -0.00000000  0.50000000  0.50000000  1
  O  O8  1  0.02493314  0.58798000  0.75416057  1
  O  O9  1  0.52493314  0.91202000  0.74583943  1
  O  O10  1  0.97506686  0.41202000  0.24583943  1
  O  O11  1  0.47506686  0.08798000  0.25416057  1
  O  O12  1  0.20052312  0.22325078  0.95339725  1
  O  O13  1  0.70052312  0.27674922  0.54660275  1
  O  O14  1  0.77769239  0.79971947  0.45092853  1
  O  O15  1  0.27769239  0.70028053  0.04907147  1
  O  O16  1  0.79947688  0.77674922  0.04660275  1
  O  O17  1  0.29947688  0.72325078  0.45339725  1
  O  O18  1  0.22230761  0.20028053  0.54907147  1
  O  O19  1  0.72230761  0.29971947  0.95092853  1
