# generated using pymatgen
data_Li(NiO2)5
_symmetry_space_group_name_H-M   'P 1'
_cell_length_a   4.91746340
_cell_length_b   6.43158999
_cell_length_c   5.81873715
_cell_angle_alpha   74.36112897
_cell_angle_beta   73.56663701
_cell_angle_gamma   96.82904953
_symmetry_Int_Tables_number   1
_chemical_formula_structural   Li(NiO2)5
_chemical_formula_sum   'Li1 Ni5 O10'
_cell_volume   166.13955989
_cell_formula_units_Z   1
loop_
 _symmetry_equiv_pos_site_id
 _symmetry_equiv_pos_as_xyz
  1  'x, y, z'
loop_
 _atom_site_type_symbol
 _atom_site_label
 _atom_site_symmetry_multiplicity
 _atom_site_fract_x
 _atom_site_fract_y
 _atom_site_fract_z
 _atom_site_occupancy
  Li  Li0  1  -0.00000000  0.00000000  -0.00000000  1
  Ni  Ni1  1  0.19939329  0.40290238  0.10415392  1
  Ni  Ni2  1  -0.00000000  0.00000000  0.50000000  1
  Ni  Ni3  1  0.80060671  0.59709762  0.89584608  1
  Ni  Ni4  1  0.59947716  0.20385750  0.30407579  1
  Ni  Ni5  1  0.40052284  0.79614250  0.69592421  1
  O  O6  1  0.49318351  0.51704272  0.78385117  1
  O  O7  1  0.27755857  0.12031276  0.17854733  1
  O  O8  1  0.08193038  0.71594118  0.57505826  1
  O  O9  1  0.90121093  0.31867647  0.98257632  1
  O  O10  1  0.70763590  0.92988119  0.37049535  1
  O  O11  1  0.91806962  0.28405882  0.42494174  1
  O  O12  1  0.72244143  0.87968724  0.82145267  1
  O  O13  1  0.50681649  0.48295728  0.21614883  1
  O  O14  1  0.29236410  0.07011881  0.62950465  1
  O  O15  1  0.09878907  0.68132353  0.01742368  1
