# generated using pymatgen
data_Li2AlCoO4
_symmetry_space_group_name_H-M   'P 1'
_cell_length_a   2.87419162
_cell_length_b   5.01467785
_cell_length_c   5.09026233
_cell_angle_alpha   80.76282122
_cell_angle_beta   73.60112957
_cell_angle_gamma   90.00000000
_symmetry_Int_Tables_number   1
_chemical_formula_structural   Li2AlCoO4
_chemical_formula_sum   'Li2 Al1 Co1 O4'
_cell_volume   69.38979295
_cell_formula_units_Z   1
loop_
 _symmetry_equiv_pos_site_id
 _symmetry_equiv_pos_as_xyz
  1  'x, y, z'
loop_
 _atom_site_type_symbol
 _atom_site_label
 _atom_site_symmetry_multiplicity
 _atom_site_fract_x
 _atom_site_fract_y
 _atom_site_fract_z
 _atom_site_occupancy
  Li  Li0  1  0.49726701  0.49986005  0.00546598  1
  Li  Li1  1  0.00273299  0.00013995  0.99453402  1
  Al  Al2  1  0.25000000  0.75000000  0.50000000  1
  Co  Co3  1  0.75000000  0.25000000  0.50000000  1
  O  O4  1  0.36190798  0.11084840  0.27618404  1
  O  O5  1  0.85962029  0.63261271  0.28075942  1
  O  O6  1  0.13809202  0.38915160  0.72381596  1
  O  O7  1  0.64037971  0.86738729  0.71924058  1
