# generated using pymatgen
data_Li2VFeS4
_symmetry_space_group_name_H-M   'P 1'
_cell_length_a   3.38705621
_cell_length_b   3.38394180
_cell_length_c   11.98465727
_cell_angle_alpha   90.00000000
_cell_angle_beta   89.91984462
_cell_angle_gamma   119.96957947
_symmetry_Int_Tables_number   1
_chemical_formula_structural   Li2VFeS4
_chemical_formula_sum   'Li2 V1 Fe1 S4'
_cell_volume   118.99645384
_cell_formula_units_Z   1
loop_
 _symmetry_equiv_pos_site_id
 _symmetry_equiv_pos_as_xyz
  1  'x, y, z'
loop_
 _atom_site_type_symbol
 _atom_site_label
 _atom_site_symmetry_multiplicity
 _atom_site_fract_x
 _atom_site_fract_y
 _atom_site_fract_z
 _atom_site_occupancy
  Li  Li0  1  0.00011265  0.00005633  0.24167420  1
  Li  Li1  1  -0.00011265  -0.00005633  0.75832580  1
  V  V2  1  -0.00000000  -0.00000000  0.50000000  1
  Fe  Fe3  1  -0.00000000  -0.00000000  0.00000000  1
  S  S4  1  0.33303809  0.66651905  0.09946881  1
  S  S5  1  0.33231227  0.66615614  0.61690052  1
  S  S6  1  0.66768773  0.33384386  0.38309948  1
  S  S7  1  0.66696191  0.33348095  0.90053119  1
