# generated using pymatgen
data_Mg2Cu3Ge
_symmetry_space_group_name_H-M   'P 1'
_cell_length_a   5.14682592
_cell_length_b   5.07150702
_cell_length_c   8.11089116
_cell_angle_alpha   90.00000000
_cell_angle_beta   90.00000000
_cell_angle_gamma   120.49969541
_symmetry_Int_Tables_number   1
_chemical_formula_structural   Mg2Cu3Ge
_chemical_formula_sum   'Mg4 Cu6 Ge2'
_cell_volume   182.41763991
_cell_formula_units_Z   2
loop_
 _symmetry_equiv_pos_site_id
 _symmetry_equiv_pos_as_xyz
  1  'x, y, z'
loop_
 _atom_site_type_symbol
 _atom_site_label
 _atom_site_symmetry_multiplicity
 _atom_site_fract_x
 _atom_site_fract_y
 _atom_site_fract_z
 _atom_site_occupancy
  Mg  Mg0  1  0.66696903  0.33393114  0.54412566  1
  Mg  Mg1  1  0.32942710  0.65886663  0.42587771  1
  Mg  Mg2  1  0.32942710  0.65886663  0.07412229  1
  Mg  Mg3  1  0.66696903  0.33393114  0.95587434  1
  Cu  Cu4  1  0.17430867  0.34857761  0.75000000  1
  Cu  Cu5  1  0.82889889  0.16450298  0.25000000  1
  Cu  Cu6  1  0.33562864  0.16460028  0.25000000  1
  Cu  Cu7  1  0.82978469  0.65961792  0.25000000  1
  Cu  Cu8  1  0.00069936  0.00140143  0.49811470  1
  Cu  Cu9  1  0.00069936  0.00140143  0.00188530  1
  Ge  Ge10  1  0.17062918  0.83717665  0.75000000  1
  Ge  Ge11  1  0.66655894  0.83712614  0.75000000  1
