# generated using pymatgen
data_RbLuS2O9
_symmetry_space_group_name_H-M   'P 1'
_cell_length_a   8.49171752
_cell_length_b   10.55436912
_cell_length_c   10.07693115
_cell_angle_alpha   120.22738500
_cell_angle_beta   90.00000000
_cell_angle_gamma   90.00000000
_symmetry_Int_Tables_number   1
_chemical_formula_structural   RbLuS2O9
_chemical_formula_sum   'Rb4 Lu4 S8 O36'
_cell_volume   780.34577352
_cell_formula_units_Z   4
loop_
 _symmetry_equiv_pos_site_id
 _symmetry_equiv_pos_as_xyz
  1  'x, y, z'
loop_
 _atom_site_type_symbol
 _atom_site_label
 _atom_site_symmetry_multiplicity
 _atom_site_fract_x
 _atom_site_fract_y
 _atom_site_fract_z
 _atom_site_occupancy
  Rb  Rb0  1  0.33378019  0.68183822  0.96255266  1
  Rb  Rb1  1  0.66621981  0.31816178  0.03744734  1
  Rb  Rb2  1  0.83378019  0.81816178  0.53744734  1
  Rb  Rb3  1  0.16621981  0.18183822  0.46255266  1
  Lu  Lu4  1  0.37115609  0.96952921  0.71795133  1
  Lu  Lu5  1  0.62884391  0.03047079  0.28204867  1
  Lu  Lu6  1  0.87115609  0.53047079  0.78204867  1
  Lu  Lu7  1  0.12884391  0.46952921  0.21795133  1
  S  S8  1  0.13146081  0.31604394  0.87709066  1
  S  S9  1  0.86853919  0.68395606  0.12290934  1
  S  S10  1  0.63146081  0.18395606  0.62290934  1
  S  S11  1  0.36853919  0.81604394  0.37709066  1
  S  S12  1  0.19582980  0.60997784  0.59792928  1
  S  S13  1  0.80417020  0.39002216  0.40207072  1
  S  S14  1  0.69582980  0.89002216  0.90207072  1
  S  S15  1  0.30417020  0.10997784  0.09792928  1
  O  O16  1  0.79385293  0.02374654  0.96989185  1
  O  O17  1  0.20614707  0.97625346  0.03010815  1
  O  O18  1  0.29385293  0.47625346  0.53010815  1
  O  O19  1  0.70614707  0.52374654  0.46989185  1
  O  O20  1  0.20691331  0.17683867  0.76424792  1
  O  O21  1  0.79308669  0.82316133  0.23575208  1
  O  O22  1  0.70691331  0.32316133  0.73575208  1
  O  O23  1  0.29308669  0.67683867  0.26424792  1
  O  O24  1  0.29868174  0.74395262  0.68058154  1
  O  O25  1  0.70131826  0.25604738  0.31941846  1
  O  O26  1  0.79868174  0.75604738  0.81941846  1
  O  O27  1  0.20131826  0.24395262  0.18058154  1
  O  O28  1  0.39407457  0.11939085  0.97616279  1
  O  O29  1  0.60592543  0.88060915  0.02383721  1
  O  O30  1  0.89407457  0.38060915  0.52383721  1
  O  O31  1  0.10592543  0.61939085  0.47616279  1
  O  O32  1  0.12356428  0.93767487  0.78000012  1
  O  O33  1  0.87643572  0.06232513  0.21999988  1
  O  O34  1  0.62356428  0.56232513  0.71999988  1
  O  O35  1  0.37643572  0.43767487  0.28000012  1
  O  O36  1  0.25063155  0.42156128  0.98979624  1
  O  O37  1  0.74936845  0.57843872  0.01020376  1
  O  O38  1  0.75063155  0.07843872  0.51020376  1
  O  O39  1  0.24936845  0.92156128  0.48979624  1
  O  O40  1  0.01152916  0.29954087  0.97512433  1
  O  O41  1  0.98847084  0.70045913  0.02487567  1
  O  O42  1  0.51152916  0.20045913  0.52487567  1
  O  O43  1  0.48847084  0.79954087  0.47512433  1
  O  O44  1  0.05860841  0.38125551  0.78997904  1
  O  O45  1  0.94139159  0.61874449  0.21002096  1
  O  O46  1  0.55860841  0.11874449  0.71002096  1
  O  O47  1  0.44139159  0.88125551  0.28997904  1
  O  O48  1  0.58843836  0.88796721  0.78499929  1
  O  O49  1  0.41156164  0.11203279  0.21500071  1
  O  O50  1  0.08843836  0.61203279  0.71500071  1
  O  O51  1  0.91156164  0.38796721  0.28499929  1
