# generated using pymatgen
data_InCuNiSe3
_symmetry_space_group_name_H-M   'P 1'
_cell_length_a   8.02445673
_cell_length_b   12.71690883
_cell_length_c   11.39127476
_cell_angle_alpha   90.02224030
_cell_angle_beta   89.92950859
_cell_angle_gamma   108.39120808
_symmetry_Int_Tables_number   1
_chemical_formula_structural   InCuNiSe3
_chemical_formula_sum   'In8 Cu8 Ni8 Se24'
_cell_volume   1103.06429276
_cell_formula_units_Z   8
loop_
 _symmetry_equiv_pos_site_id
 _symmetry_equiv_pos_as_xyz
  1  'x, y, z'
loop_
 _atom_site_type_symbol
 _atom_site_label
 _atom_site_symmetry_multiplicity
 _atom_site_fract_x
 _atom_site_fract_y
 _atom_site_fract_z
 _atom_site_occupancy
  In  In0  1  0.66363563  0.82662813  0.75462619  1
  In  In1  1  0.34384365  0.17206710  0.74933937  1
  In  In2  1  0.99229507  0.50080380  0.74563934  1
  In  In3  1  0.50367350  0.50670487  0.25462619  1
  In  In4  1  0.15815827  0.83252920  0.24563934  1
  In  In5  1  0.83844355  0.16126690  0.24933937  1
  In  In6  1  0.16724192  0.33419023  0.99929220  1
  In  In7  1  0.49971769  -0.00085723  0.49929220  1
  Cu  Cu8  1  0.50772718  0.50039024  0.74713719  1
  Cu  Cu9  1  0.16431277  0.82772779  0.75305367  1
  Cu  Cu10  1  0.82909108  0.17216116  0.74937013  1
  Cu  Cu11  1  0.67400393  0.83294276  0.24713719  1
  Cu  Cu12  1  0.32359692  0.16117284  0.24937013  1
  Cu  Cu13  1  0.00325098  0.50560521  0.25305367  1
  Cu  Cu14  1  0.49959096  0.99967969  0.00000387  1
  Cu  Cu15  1  0.16657827  0.33365331  0.50000387  1
  Ni  Ni16  1  0.33079666  0.66231281  0.50589031  1
  Ni  Ni17  1  0.99869880  0.99816507  0.49178404  1
  Ni  Ni18  1  0.67058336  0.33974600  0.50174467  1
  Ni  Ni19  1  0.33515085  0.67102119  0.00589031  1
  Ni  Ni20  1  0.99750336  0.99358700  0.00174467  1
  Ni  Ni21  1  0.66720072  0.33516793  0.99178404  1
  Ni  Ni22  1  0.83316569  0.66586817  0.99980674  1
  Ni  Ni23  1  0.83396452  0.66746583  0.49980674  1
  Se  Se24  1  0.21834954  0.98646022  0.62463748  1
  Se  Se25  1  0.90573268  0.32210078  0.61325647  1
  Se  Se26  1  0.57926401  0.65440345  0.60796021  1
  Se  Se27  1  0.77919821  0.01047322  0.62434290  1
  Se  Se28  1  0.42930348  0.34752092  0.61311436  1
  Se  Se29  1  0.08791161  0.67924239  0.60841372  1
  Se  Se30  1  0.60277974  0.16933201  0.88721452  1
  Se  Se31  1  0.27745768  0.51904284  0.87580391  1
  Se  Se32  1  0.93348168  0.83016182  0.89239251  1
  Se  Se33  1  0.39651349  0.83051135  0.88712265  1
  Se  Se34  1  0.05672977  0.14859535  0.87761915  1
  Se  Se35  1  0.73219384  0.50221245  0.89043439  1
  Se  Se36  1  0.57480042  0.18473765  0.37761915  1
  Se  Se37  1  0.23266914  0.50282165  0.38712265  1
  Se  Se38  1  0.89664840  0.83112155  0.39043439  1
  Se  Se39  1  0.42508084  0.81429016  0.37580391  1
  Se  Se40  1  0.10011473  0.16400099  0.38721452  1
  Se  Se41  1  0.76998687  0.50317218  0.39239251  1
  Se  Se42  1  0.74844957  0.98581208  0.11311436  1
  Se  Se43  1  0.43539199  0.32286078  0.12434290  1
  Se  Se44  1  0.07533522  0.65409061  0.10841372  1
  Se  Se45  1  0.25029890  0.01123322  0.11325647  1
  Se  Se46  1  0.89855532  0.34687278  0.12463748  1
  Se  Se47  1  0.59152756  0.67892955  0.10796021  1
