# generated using pymatgen
data_CePrFe4
_symmetry_space_group_name_H-M   'P 1'
_cell_length_a   5.23048566
_cell_length_b   5.23048566
_cell_length_c   5.23048566
_cell_angle_alpha   90.00000000
_cell_angle_beta   60.00000000
_cell_angle_gamma   120.00000000
_symmetry_Int_Tables_number   1
_chemical_formula_structural   CePrFe4
_chemical_formula_sum   'Ce1 Pr1 Fe4'
_cell_volume   101.18381498
_cell_formula_units_Z   1
loop_
 _symmetry_equiv_pos_site_id
 _symmetry_equiv_pos_as_xyz
  1  'x, y, z'
loop_
 _atom_site_type_symbol
 _atom_site_label
 _atom_site_symmetry_multiplicity
 _atom_site_fract_x
 _atom_site_fract_y
 _atom_site_fract_z
 _atom_site_occupancy
  Ce  Ce0  1  0.50000000  0.75000000  0.75000000  1
  Pr  Pr1  1  0.00000000  0.00000000  0.00000000  1
  Fe  Fe2  1  0.75096834  0.37548417  0.87354748  1
  Fe  Fe3  1  0.24903166  0.37548417  0.37548417  1
  Fe  Fe4  1  0.24903166  0.87354748  0.37548417  1
  Fe  Fe5  1  0.75096834  0.37548417  0.37548417  1
