# generated using pymatgen
data_Ga4Bi3As
_symmetry_space_group_name_H-M   'P 1'
_cell_length_a   4.50004625
_cell_length_b   4.50004625
_cell_length_c   14.57386931
_cell_angle_alpha   90.00000000
_cell_angle_beta   81.11872549
_cell_angle_gamma   120.00000000
_symmetry_Int_Tables_number   1
_chemical_formula_structural   Ga4Bi3As
_chemical_formula_sum   'Ga4 Bi3 As1'
_cell_volume   251.49325007
_cell_formula_units_Z   1
loop_
 _symmetry_equiv_pos_site_id
 _symmetry_equiv_pos_as_xyz
  1  'x, y, z'
loop_
 _atom_site_type_symbol
 _atom_site_label
 _atom_site_symmetry_multiplicity
 _atom_site_fract_x
 _atom_site_fract_y
 _atom_site_fract_z
 _atom_site_occupancy
  Ga  Ga0  1  0.88417668  0.94208834  0.17373497  1
  Ga  Ga1  1  0.37584000  0.18792000  0.43623999  1
  Ga  Ga2  1  0.87207399  0.43603699  0.69188902  1
  Ga  Ga3  1  0.36522115  0.68261057  0.95216828  1
  Bi  Bi4  1  0.50489799  0.25244900  0.24265301  1
  Bi  Bi5  1  0.00076580  0.50038290  0.49885130  1
  Bi  Bi6  1  0.49605257  0.74802628  0.75592115  1
  As  As7  1  0.00097181  0.00048591  0.99854228  1
