# generated using pymatgen
data_Dy2Fe17CN
_symmetry_space_group_name_H-M   'P 1'
_cell_length_a   6.43700571
_cell_length_b   6.45877334
_cell_length_c   6.51130696
_cell_angle_alpha   83.63299915
_cell_angle_beta   83.51402976
_cell_angle_gamma   82.80840198
_symmetry_Int_Tables_number   1
_chemical_formula_structural   Dy2Fe17CN
_chemical_formula_sum   'Dy2 Fe17 C1 N1'
_cell_volume   265.57144252
_cell_formula_units_Z   1
loop_
 _symmetry_equiv_pos_site_id
 _symmetry_equiv_pos_as_xyz
  1  'x, y, z'
loop_
 _atom_site_type_symbol
 _atom_site_label
 _atom_site_symmetry_multiplicity
 _atom_site_fract_x
 _atom_site_fract_y
 _atom_site_fract_z
 _atom_site_occupancy
  Dy  Dy0  1  0.66188308  0.65198608  0.66011873  1
  Dy  Dy1  1  0.33811692  0.34801392  0.33988127  1
  Fe  Fe2  1  0.90340685  0.90438880  0.90440406  1
  Fe  Fe3  1  0.09659315  0.09561120  0.09559594  1
  Fe  Fe4  1  0.34605462  0.85273258  0.34064579  1
  Fe  Fe5  1  0.85076888  0.34456701  0.34097055  1
  Fe  Fe6  1  0.34413618  0.34279448  0.85255477  1
  Fe  Fe7  1  0.65394538  0.14726742  0.65935421  1
  Fe  Fe8  1  0.14923112  0.65543299  0.65902945  1
  Fe  Fe9  1  0.65586382  0.65720552  0.14744523  1
  Fe  Fe10  1  0.00000000  0.50000000  0.00000000  1
  Fe  Fe11  1  0.50000000  0.00000000  0.00000000  1
  Fe  Fe12  1  0.00000000  0.00000000  0.50000000  1
  Fe  Fe13  1  0.71340711  0.00346896  0.28463807  1
  Fe  Fe14  1  0.99992290  0.28199384  0.71806620  1
  Fe  Fe15  1  0.29405091  0.70754221  0.99790897  1
  Fe  Fe16  1  0.00007710  0.71800616  0.28193380  1
  Fe  Fe17  1  0.70594909  0.29245779  0.00209103  1
  Fe  Fe18  1  0.28659289  0.99653104  0.71536193  1
  C  C19  1  0.50000000  0.00000000  0.50000000  1
  N  N20  1  0.00000000  0.50000000  0.50000000  1
