# generated using pymatgen
data_LaH6S3(NO3)3
_symmetry_space_group_name_H-M   'P 1'
_cell_length_a   5.83362466
_cell_length_b   10.28634472
_cell_length_c   10.28796410
_cell_angle_alpha   119.97282760
_cell_angle_beta   90.00000000
_cell_angle_gamma   90.00000000
_symmetry_Int_Tables_number   1
_chemical_formula_structural   LaH6S3(NO3)3
_chemical_formula_sum   'La2 H12 S6 N6 O18'
_cell_volume   534.78408841
_cell_formula_units_Z   2
loop_
 _symmetry_equiv_pos_site_id
 _symmetry_equiv_pos_as_xyz
  1  'x, y, z'
loop_
 _atom_site_type_symbol
 _atom_site_label
 _atom_site_symmetry_multiplicity
 _atom_site_fract_x
 _atom_site_fract_y
 _atom_site_fract_z
 _atom_site_occupancy
  La  La0  1  0.75284501  0.66676419  0.33339549  1
  La  La1  1  0.25284501  0.33323581  0.66660451  1
  H  H2  1  0.75913983  0.66528263  0.92503970  1
  H  H3  1  0.75904070  0.07495878  0.74028666  1
  H  H4  1  0.75916282  0.25972320  0.33462405  1
  H  H5  1  0.25913983  0.33471737  0.07496030  1
  H  H6  1  0.25904070  0.92504122  0.25971334  1
  H  H7  1  0.25916282  0.74027680  0.66537595  1
  H  H8  1  0.62786486  0.79001142  0.89348669  1
  H  H9  1  0.62787164  0.10639537  0.89649610  1
  H  H10  1  0.62789524  0.10351900  0.20995435  1
  H  H11  1  0.12786486  0.20998858  0.10651331  1
  H  H12  1  0.12787164  0.89360463  0.10350390  1
  H  H13  1  0.12789524  0.89648100  0.79004565  1
  S  S14  1  0.75208710  0.59337800  0.68386627  1
  S  S15  1  0.75209317  0.31611617  0.90949875  1
  S  S16  1  0.75209561  0.09046090  0.40663903  1
  S  S17  1  0.25208710  0.40662200  0.31613373  1
  S  S18  1  0.25209317  0.68388383  0.09050125  1
  S  S19  1  0.25209561  0.90953910  0.59336097  1
  N  N20  1  0.76783941  0.72079033  0.86556411  1
  N  N21  1  0.76785852  0.13433974  0.85520253  1
  N  N22  1  0.76786799  0.14477348  0.27916714  1
  N  N23  1  0.26783941  0.27920967  0.13443589  1
  N  N24  1  0.26785852  0.86566026  0.14479747  1
  N  N25  1  0.26786799  0.85522652  0.72083286  1
  O  O26  1  0.75099568  0.67920077  0.60665703  1
  O  O27  1  0.75102956  0.39324835  0.07242184  1
  O  O28  1  0.75096958  0.92747452  0.32090999  1
  O  O29  1  0.25099568  0.32079923  0.39334297  1
  O  O30  1  0.25102956  0.60675165  0.92757816  1
  O  O31  1  0.25096958  0.07252548  0.67909001  1
  O  O32  1  0.45807951  0.65606461  0.15514676  1
  O  O33  1  0.45810521  0.84496469  0.50099291  1
  O  O34  1  0.45810028  0.49902418  0.34390294  1
  O  O35  1  0.95807951  0.34393539  0.84485324  1
  O  O36  1  0.95810521  0.15503531  0.49900709  1
  O  O37  1  0.95810028  0.50097582  0.65609706  1
  O  O38  1  0.54099712  0.34446319  0.84796243  1
  O  O39  1  0.54104542  0.15197593  0.49649192  1
  O  O40  1  0.54101574  0.50350704  0.65553954  1
  O  O41  1  0.04099712  0.65553681  0.15203757  1
  O  O42  1  0.04104542  0.84802407  0.50350808  1
  O  O43  1  0.04101574  0.49649296  0.34446046  1
