# generated using pymatgen
data_CeSiBIr3
_symmetry_space_group_name_H-M   'P 1'
_cell_length_a   3.48476678
_cell_length_b   5.54220505
_cell_length_c   5.54303690
_cell_angle_alpha   119.99837577
_cell_angle_beta   90.00000000
_cell_angle_gamma   90.00000000
_symmetry_Int_Tables_number   1
_chemical_formula_structural   CeSiBIr3
_chemical_formula_sum   'Ce1 Si1 B1 Ir3'
_cell_volume   92.71325238
_cell_formula_units_Z   1
loop_
 _symmetry_equiv_pos_site_id
 _symmetry_equiv_pos_as_xyz
  1  'x, y, z'
loop_
 _atom_site_type_symbol
 _atom_site_label
 _atom_site_symmetry_multiplicity
 _atom_site_fract_x
 _atom_site_fract_y
 _atom_site_fract_z
 _atom_site_occupancy
  Ce  Ce0  1  -0.00000000  0.99998554  -0.00000253  1
  Si  Si1  1  -0.00000000  0.66667483  0.33337550  1
  B  B2  1  -0.00000000  0.33325106  0.66662127  1
  Ir  Ir3  1  0.50000000  0.49361661  0.98723343  1
  Ir  Ir4  1  0.50000000  0.49360033  0.50639115  1
  Ir  Ir5  1  0.50000000  0.01277162  0.50638119  1
