# generated using pymatgen
data_HfNb2VC4
_symmetry_space_group_name_H-M   'P 1'
_cell_length_a   3.15854114
_cell_length_b   3.15854114
_cell_length_c   10.43246512
_cell_angle_alpha   90.00000000
_cell_angle_beta   81.29306969
_cell_angle_gamma   120.00000000
_symmetry_Int_Tables_number   1
_chemical_formula_structural   HfNb2VC4
_chemical_formula_sum   'Hf1 Nb2 V1 C4'
_cell_volume   88.74671893
_cell_formula_units_Z   1
loop_
 _symmetry_equiv_pos_site_id
 _symmetry_equiv_pos_as_xyz
  1  'x, y, z'
loop_
 _atom_site_type_symbol
 _atom_site_label
 _atom_site_symmetry_multiplicity
 _atom_site_fract_x
 _atom_site_fract_y
 _atom_site_fract_z
 _atom_site_occupancy
  Hf  Hf0  1  0.99398553  0.99699276  0.00902171  1
  Nb  Nb1  1  0.00593844  0.50296922  0.49109234  1
  Nb  Nb2  1  0.50264059  0.75132029  0.74603912  1
  V  V3  1  0.49665807  0.24832903  0.25501290  1
  C  C4  1  0.25365258  0.12682629  0.61952113  1
  C  C5  1  0.75049953  0.37524977  0.87425070  1
  C  C6  1  0.23943122  0.61971561  0.14085317  1
  C  C7  1  0.75719405  0.87859702  0.36420893  1
