# generated using pymatgen
data_Ca2MnAl2Si3O13
_symmetry_space_group_name_H-M   'P 1'
_cell_length_a   5.75791358
_cell_length_b   8.91672640
_cell_length_c   10.60670985
_cell_angle_alpha   116.59966170
_cell_angle_beta   90.00000000
_cell_angle_gamma   90.00000000
_symmetry_Int_Tables_number   1
_chemical_formula_structural   Ca2MnAl2Si3O13
_chemical_formula_sum   'Ca4 Mn2 Al4 Si6 O26'
_cell_volume   486.92827615
_cell_formula_units_Z   2
loop_
 _symmetry_equiv_pos_site_id
 _symmetry_equiv_pos_as_xyz
  1  'x, y, z'
loop_
 _atom_site_type_symbol
 _atom_site_label
 _atom_site_symmetry_multiplicity
 _atom_site_fract_x
 _atom_site_fract_y
 _atom_site_fract_z
 _atom_site_occupancy
  Ca  Ca0  1  0.25000000  0.23636027  0.84346849  1
  Ca  Ca1  1  0.75000000  0.76363973  0.15653151  1
  Ca  Ca2  1  0.25000000  0.37628002  0.58228793  1
  Ca  Ca3  1  0.75000000  0.62371998  0.41771207  1
  Mn  Mn4  1  0.50000000  -0.00000000  -0.00000000  1
  Mn  Mn5  1  0.00000000  -0.00000000  -0.00000000  1
  Al  Al6  1  0.50000000  -0.00000000  0.50000000  1
  Al  Al7  1  0.00000000  -0.00000000  0.50000000  1
  Al  Al8  1  0.75000000  0.70075776  0.74949651  1
  Al  Al9  1  0.25000000  0.29924224  0.25050349  1
  Si  Si10  1  0.25000000  0.80858191  0.67761465  1
  Si  Si11  1  0.75000000  0.19141809  0.32238535  1
  Si  Si12  1  0.75000000  0.32113231  0.73315150  1
  Si  Si13  1  0.25000000  0.67886769  0.26684850  1
  Si  Si14  1  0.25000000  0.65811767  0.95673018  1
  Si  Si15  1  0.75000000  0.34188233  0.04326982  1
  O  O16  1  0.49005045  0.76630984  0.96659894  1
  O  O17  1  0.99005045  0.23369016  0.03340106  1
  O  O18  1  0.50994955  0.23369016  0.03340106  1
  O  O19  1  0.00994955  0.76630984  0.96659894  1
  O  O20  1  0.25000000  0.48205036  0.82038729  1
  O  O21  1  0.75000000  0.51794964  0.17961271  1
  O  O22  1  0.75000000  0.92893589  0.86734582  1
  O  O23  1  0.25000000  0.07106411  0.13265418  1
  O  O24  1  0.48488825  0.69128976  0.64749745  1
  O  O25  1  0.98488825  0.30871024  0.35250255  1
  O  O26  1  0.51511175  0.30871024  0.35250255  1
  O  O27  1  0.01511175  0.69128976  0.64749745  1
  O  O28  1  0.51774329  0.20686590  0.66735625  1
  O  O29  1  0.01774329  0.79313410  0.33264375  1
  O  O30  1  0.48225671  0.79313410  0.33264375  1
  O  O31  1  0.98225671  0.20686590  0.66735625  1
  O  O32  1  0.75000000  0.48502190  0.70509465  1
  O  O33  1  0.25000000  0.51497810  0.29490535  1
  O  O34  1  0.25000000  0.92218999  0.59198682  1
  O  O35  1  0.75000000  0.07781001  0.40801318  1
  O  O36  1  0.75000000  0.38235452  0.90556793  1
  O  O37  1  0.25000000  0.61764548  0.09443207  1
  O  O38  1  0.25000000  0.95446718  0.85022060  1
  O  O39  1  0.75000000  0.04553282  0.14977940  1
  O  O40  1  0.75000000  0.91023720  0.55023253  1
  O  O41  1  0.25000000  0.08976280  0.44976747  1
