# generated using pymatgen
data_CaYNb2O7
_symmetry_space_group_name_H-M   'P 1'
_cell_length_a   7.42782651
_cell_length_b   7.31474809
_cell_length_c   7.49045641
_cell_angle_alpha   90.00000000
_cell_angle_beta   59.72068435
_cell_angle_gamma   119.49767156
_symmetry_Int_Tables_number   1
_chemical_formula_structural   CaYNb2O7
_chemical_formula_sum   'Ca2 Y2 Nb4 O14'
_cell_volume   288.72978496
_cell_formula_units_Z   2
loop_
 _symmetry_equiv_pos_site_id
 _symmetry_equiv_pos_as_xyz
  1  'x, y, z'
loop_
 _atom_site_type_symbol
 _atom_site_label
 _atom_site_symmetry_multiplicity
 _atom_site_fract_x
 _atom_site_fract_y
 _atom_site_fract_z
 _atom_site_occupancy
  Ca  Ca0  1  0.50000000  -0.00000000  0.50000000  1
  Ca  Ca1  1  0.50000000  0.50000000  0.50000000  1
  Y  Y2  1  -0.00000000  0.50000000  0.00000000  1
  Y  Y3  1  -0.00000000  0.50000000  0.50000000  1
  Nb  Nb4  1  0.50000000  0.50000000  0.00000000  1
  Nb  Nb5  1  0.50000000  -0.00000000  0.00000000  1
  Nb  Nb6  1  -0.00000000  -0.00000000  0.50000000  1
  Nb  Nb7  1  -0.00000000  -0.00000000  0.00000000  1
  O  O8  1  0.76559329  0.38279664  0.36720336  1
  O  O9  1  0.23440671  0.61720336  0.63279664  1
  O  O10  1  0.86132223  0.93066111  0.31933889  1
  O  O11  1  0.67756095  0.33878047  0.91121953  1
  O  O12  1  0.24669699  0.91659688  0.92335457  1
  O  O13  1  0.24669699  0.33010011  0.32994845  1
  O  O14  1  0.24669699  0.33010011  0.92335457  1
  O  O15  1  0.24669699  0.91659688  0.32994845  1
  O  O16  1  0.13867777  0.06933889  0.68066111  1
  O  O17  1  0.32243905  0.66121953  0.08878047  1
  O  O18  1  0.75330301  0.08340312  0.07664543  1
  O  O19  1  0.75330301  0.66989989  0.67005155  1
  O  O20  1  0.75330301  0.66989989  0.07664543  1
  O  O21  1  0.75330301  0.08340312  0.67005155  1
