# generated using pymatgen
data_CeGePd
_symmetry_space_group_name_H-M   'P 1'
_cell_length_a   4.46161047
_cell_length_b   5.82391158
_cell_length_c   5.66048018
_cell_angle_alpha   95.86802059
_cell_angle_beta   113.20995994
_cell_angle_gamma   67.47774012
_symmetry_Int_Tables_number   1
_chemical_formula_structural   CeGePd
_chemical_formula_sum   'Ce2 Ge2 Pd2'
_cell_volume   124.66251901
_cell_formula_units_Z   2
loop_
 _symmetry_equiv_pos_site_id
 _symmetry_equiv_pos_as_xyz
  1  'x, y, z'
loop_
 _atom_site_type_symbol
 _atom_site_label
 _atom_site_symmetry_multiplicity
 _atom_site_fract_x
 _atom_site_fract_y
 _atom_site_fract_z
 _atom_site_occupancy
  Ce  Ce0  1  0.76200330  0.69943445  0.22344106  1
  Ce  Ce1  1  0.23799670  0.30056555  0.77655894  1
  Ge  Ge2  1  0.05818723  0.10051851  0.21689298  1
  Ge  Ge3  1  0.94181277  0.89948149  0.78310702  1
  Pd  Pd4  1  0.53679726  0.28520603  0.35880056  1
  Pd  Pd5  1  0.46320274  0.71479397  0.64119944  1
