# generated using pymatgen
data_Ca2La4Ti5O18
_symmetry_space_group_name_H-M   'P 1'
_cell_length_a   5.53541077
_cell_length_b   5.53541077
_cell_length_c   13.71159967
_cell_angle_alpha   78.35475550
_cell_angle_beta   78.35475550
_cell_angle_gamma   59.99999914
_symmetry_Int_Tables_number   1
_chemical_formula_structural   Ca2La4Ti5O18
_chemical_formula_sum   'Ca2 La4 Ti5 O18'
_cell_volume   353.82567521
_cell_formula_units_Z   1
loop_
 _symmetry_equiv_pos_site_id
 _symmetry_equiv_pos_as_xyz
  1  'x, y, z'
loop_
 _atom_site_type_symbol
 _atom_site_label
 _atom_site_symmetry_multiplicity
 _atom_site_fract_x
 _atom_site_fract_y
 _atom_site_fract_z
 _atom_site_occupancy
  Ca  Ca0  1  0.36087298  0.36087298  0.91738106  1
  Ca  Ca1  1  0.63912702  0.63912702  0.08261894  1
  La  La2  1  0.08700324  0.08700324  0.73899028  1
  La  La3  1  0.91299676  0.91299676  0.26100972  1
  La  La4  1  0.18722340  0.18722340  0.43832980  1
  La  La5  1  0.81277660  0.81277660  0.56167020  1
  Ti  Ti6  1  -0.00000000  0.00000000  -0.00000000  1
  Ti  Ti7  1  0.44960499  0.44960499  0.65118503  1
  Ti  Ti8  1  0.55039501  0.55039501  0.34881497  1
  Ti  Ti9  1  0.27685172  0.27685172  0.16944485  1
  Ti  Ti10  1  0.72314828  0.72314828  0.83055515  1
  O  O11  1  0.91589321  0.41689249  0.25032182  1
  O  O12  1  0.41689249  0.41689249  0.25032182  1
  O  O13  1  0.41689249  0.91589321  0.25032182  1
  O  O14  1  0.08410679  0.58310751  0.74967818  1
  O  O15  1  0.58310751  0.58310751  0.74967818  1
  O  O16  1  0.58310751  0.08410679  0.74967818  1
  O  O17  1  0.36015977  0.86181803  0.91620418  1
  O  O18  1  0.86181803  0.86181803  0.91620418  1
  O  O19  1  0.86181803  0.36015977  0.91620418  1
  O  O20  1  0.63984023  0.13818197  0.08379582  1
  O  O21  1  0.13818197  0.13818197  0.08379582  1
  O  O22  1  0.13818197  0.63984023  0.08379582  1
  O  O23  1  0.81751147  0.29780002  0.58688848  1
  O  O24  1  0.29780002  0.29780002  0.58688848  1
  O  O25  1  0.29780002  0.81751147  0.58688848  1
  O  O26  1  0.18248853  0.70219998  0.41311152  1
  O  O27  1  0.70219998  0.70219998  0.41311152  1
  O  O28  1  0.70219998  0.18248853  0.41311152  1
