# generated using pymatgen
data_Ag6P6O19
_symmetry_space_group_name_H-M   'P 1'
_cell_length_a   6.66425641
_cell_length_b   8.96461516
_cell_length_c   8.96461484
_cell_angle_alpha   65.92740696
_cell_angle_beta   75.65271854
_cell_angle_gamma   104.34728094
_symmetry_Int_Tables_number   1
_chemical_formula_structural   Ag6P6O19
_chemical_formula_sum   'Ag6 P6 O19'
_cell_volume   435.33568062
_cell_formula_units_Z   1
loop_
 _symmetry_equiv_pos_site_id
 _symmetry_equiv_pos_as_xyz
  1  'x, y, z'
loop_
 _atom_site_type_symbol
 _atom_site_label
 _atom_site_symmetry_multiplicity
 _atom_site_fract_x
 _atom_site_fract_y
 _atom_site_fract_z
 _atom_site_occupancy
  Ag  Ag0  1  0.51824396  0.67627586  0.85987039  1
  Ag  Ag1  1  0.84196810  0.46385374  0.67627586  1
  Ag  Ag2  1  0.37811435  0.85987039  0.46385374  1
  Ag  Ag3  1  0.48166088  0.32356530  0.14004945  1
  Ag  Ag4  1  0.15809558  0.53638525  0.32356530  1
  Ag  Ag5  1  0.62171033  0.14004945  0.53638525  1
  P  P6  1  0.89757263  0.87410691  0.36987476  1
  P  P7  1  0.02346572  0.75601832  0.87410691  1
  P  P8  1  0.26744739  0.36987476  0.75601832  1
  P  P9  1  0.10238734  0.12591400  0.63010632  1
  P  P10  1  0.97647334  0.24397968  0.12591400  1
  P  P11  1  0.73249366  0.63010632  0.24397968  1
  O  O12  1  0.27420156  0.81426154  0.78504469  1
  O  O13  1  0.45994002  0.40069377  0.81426154  1
  O  O14  1  0.05924625  0.78504469  0.40069377  1
  O  O15  1  0.72571464  0.18562054  0.21483342  1
  O  O16  1  0.54009410  0.59954604  0.18562054  1
  O  O17  1  0.94054806  0.21483342  0.59954604  1
  O  O18  1  0.04581560  0.07478210  0.20678195  1
  O  O19  1  0.97103350  0.71843596  0.07478210  1
  O  O20  1  0.25259754  0.20678195  0.71843596  1
  O  O21  1  0.95406638  0.92522418  0.79329636  1
  O  O22  1  0.02884220  0.28147946  0.92522418  1
  O  O23  1  0.74736274  0.79329636  0.28147946  1
  O  O24  1  0.73569143  0.87370430  0.52099644  1
  O  O25  1  0.86198713  0.60529926  0.87370430  1
  O  O26  1  0.25668788  0.52099644  0.60529926  1
  O  O27  1  0.26425124  0.12629087  0.47900309  1
  O  O28  1  0.13796038  0.39470604  0.12629087  1
  O  O29  1  0.74325434  0.47900309  0.39470604  1
  O  O30  1  0.47907173  0.00000000  0.00000000  1
