# generated using pymatgen
data_Ba2La4Ti5O18
_symmetry_space_group_name_H-M   'P 1'
_cell_length_a   5.62060306
_cell_length_b   5.62042977
_cell_length_c   13.94510383
_cell_angle_alpha   78.37901405
_cell_angle_beta   101.62108139
_cell_angle_gamma   119.99734159
_symmetry_Int_Tables_number   1
_chemical_formula_structural   Ba2La4Ti5O18
_chemical_formula_sum   'Ba2 La4 Ti5 O18'
_cell_volume   371.05484190
_cell_formula_units_Z   1
loop_
 _symmetry_equiv_pos_site_id
 _symmetry_equiv_pos_as_xyz
  1  'x, y, z'
loop_
 _atom_site_type_symbol
 _atom_site_label
 _atom_site_symmetry_multiplicity
 _atom_site_fract_x
 _atom_site_fract_y
 _atom_site_fract_z
 _atom_site_occupancy
  Ba  Ba0  1  0.91365127  0.08635655  0.74089621  1
  Ba  Ba1  1  0.36209924  0.63789696  0.08634334  1
  La  La2  1  0.08913925  0.91088474  0.26737241  1
  La  La3  1  0.18489267  0.81504791  0.55497672  1
  La  La4  1  0.81348328  0.18658094  0.44017980  1
  La  La5  1  0.63605435  0.36398971  0.90812156  1
  Ti  Ti6  1  0.54842403  0.45157634  0.64521858  1
  Ti  Ti7  1  0.44970268  0.55029583  0.34910899  1
  Ti  Ti8  1  0.00016794  0.99982709  0.00061468  1
  Ti  Ti9  1  0.27491375  0.72508684  0.82479244  1
  Ti  Ti10  1  0.72411156  0.27587651  0.17235472  1
  O  O11  1  0.41966206  0.08610785  0.75384482  1
  O  O12  1  0.42038015  0.58023057  0.75391357  1
  O  O13  1  0.91390010  0.57972348  0.75384303  1
  O  O14  1  0.58851322  0.92082060  0.25507780  1
  O  O15  1  0.58725135  0.41144330  0.25505671  1
  O  O16  1  0.07916469  0.41276769  0.25506740  1
  O  O17  1  0.13929371  0.35941927  0.91843783  1
  O  O18  1  0.13826990  0.86065086  0.91837555  1
  O  O19  1  0.64058984  0.86178643  0.91843474  1
  O  O20  1  0.86032958  0.63629768  0.08458191  1
  O  O21  1  0.86085905  0.13950669  0.08472074  1
  O  O22  1  0.36370731  0.13929286  0.08458579  1
  O  O23  1  0.69196281  0.30461215  0.57994142  1
  O  O24  1  0.19269472  0.30797322  0.57995483  1
  O  O25  1  0.69543151  0.80729845  0.57995475  1
  O  O26  1  0.29824784  0.70410499  0.41142603  1
  O  O27  1  0.81726497  0.70179408  0.41140469  1
  O  O28  1  0.29583720  0.18275043  0.41139895  1
