# generated using pymatgen
data_Ca3MgCu11O15
_symmetry_space_group_name_H-M   'P 1'
_cell_length_a   3.46189359
_cell_length_b   4.04356720
_cell_length_c   49.34174313
_cell_angle_alpha   90.00000000
_cell_angle_beta   89.97294849
_cell_angle_gamma   90.00000000
_symmetry_Int_Tables_number   1
_chemical_formula_structural   Ca3MgCu11O15
_chemical_formula_sum   'Ca6 Mg2 Cu22 O30'
_cell_volume   690.70534965
_cell_formula_units_Z   2
loop_
 _symmetry_equiv_pos_site_id
 _symmetry_equiv_pos_as_xyz
  1  'x, y, z'
loop_
 _atom_site_type_symbol
 _atom_site_label
 _atom_site_symmetry_multiplicity
 _atom_site_fract_x
 _atom_site_fract_y
 _atom_site_fract_z
 _atom_site_occupancy
  Ca  Ca0  1  0.67717782  0.75000000  0.94997382  1
  Ca  Ca1  1  0.32659674  0.25000000  0.05127136  1
  Ca  Ca2  1  0.33088662  0.25000000  0.25004224  1
  Ca  Ca3  1  0.32664103  0.25000000  0.44999997  1
  Ca  Ca4  1  0.32208903  0.25000000  0.65000180  1
  Ca  Ca5  1  0.32292231  0.25000000  0.84865218  1
  Mg  Mg6  1  0.62273664  0.75000000  0.15011376  1
  Mg  Mg7  1  0.62257617  0.75000000  0.35001977  1
  Cu  Cu8  1  0.15970414  0.25000000  0.11967042  1
  Cu  Cu9  1  0.15827008  0.25000000  0.31939028  1
  Cu  Cu10  1  0.16776262  0.25000000  0.51927893  1
  Cu  Cu11  1  0.16799115  0.25000000  0.71925356  1
  Cu  Cu12  1  0.16717056  0.25000000  0.91622540  1
  Cu  Cu13  1  0.15875762  0.25000000  0.18065417  1
  Cu  Cu14  1  0.15859549  0.25000000  0.38059685  1
  Cu  Cu15  1  0.16782501  0.25000000  0.58071229  1
  Cu  Cu16  1  0.16917318  0.25000000  0.78041935  1
  Cu  Cu17  1  0.16651315  0.25000000  0.98371812  1
  Cu  Cu18  1  0.83865834  0.75000000  0.08610328  1
  Cu  Cu19  1  0.84188762  0.75000000  0.28538852  1
  Cu  Cu20  1  0.83054344  0.75000000  0.48545585  1
  Cu  Cu21  1  0.82851988  0.75000000  0.68553976  1
  Cu  Cu22  1  0.83454111  0.75000000  0.88281322  1
  Cu  Cu23  1  0.83565585  0.75000000  0.01728405  1
  Cu  Cu24  1  0.84178850  0.75000000  0.21465024  1
  Cu  Cu25  1  0.84035568  0.75000000  0.41453776  1
  Cu  Cu26  1  0.82916858  0.75000000  0.61451540  1
  Cu  Cu27  1  0.82727206  0.75000000  0.81377900  1
  Cu  Cu28  1  0.63542969  0.75000000  0.54996313  1
  Cu  Cu29  1  0.63626133  0.75000000  0.74991051  1
  O  O30  1  0.59751568  0.75000000  0.05169662  1
  O  O31  1  0.62060800  0.75000000  0.25000653  1
  O  O32  1  0.61490966  0.75000000  0.44975611  1
  O  O33  1  0.60968892  0.75000000  0.65006959  1
  O  O34  1  0.59289989  0.75000000  0.84855793  1
  O  O35  1  0.49906578  0.25000000  0.15012294  1
  O  O36  1  0.49902321  0.25000000  0.34997018  1
  O  O37  1  0.49622653  0.25000000  0.55000621  1
  O  O38  1  0.49811106  0.25000000  0.74983769  1
  O  O39  1  0.42127963  0.25000000  0.94998253  1
  O  O40  1  0.09477300  0.75000000  0.12109054  1
  O  O41  1  0.09177658  0.75000000  0.32081933  1
  O  O42  1  0.09780031  0.75000000  0.51996437  1
  O  O43  1  0.09478947  0.75000000  0.71992088  1
  O  O44  1  0.13701762  0.75000000  0.91535104  1
  O  O45  1  0.09179053  0.75000000  0.17923442  1
  O  O46  1  0.09261096  0.75000000  0.37911599  1
  O  O47  1  0.09633824  0.75000000  0.58003426  1
  O  O48  1  0.10172820  0.75000000  0.77982902  1
  O  O49  1  0.13612727  0.75000000  0.98467931  1
  O  O50  1  0.86793234  0.25000000  0.08669669  1
  O  O51  1  0.87123019  0.25000000  0.28600154  1
  O  O52  1  0.87441026  0.25000000  0.48637335  1
  O  O53  1  0.87369561  0.25000000  0.68641160  1
  O  O54  1  0.86364810  0.25000000  0.88375818  1
  O  O55  1  0.86428268  0.25000000  0.01626723  1
  O  O56  1  0.87158567  0.25000000  0.21395180  1
  O  O57  1  0.87078254  0.25000000  0.41396663  1
  O  O58  1  0.87391831  0.25000000  0.61359859  1
  O  O59  1  0.87096230  0.25000000  0.81299391  1
