# generated using pymatgen
data_As2Se3S3(NF3)4
_symmetry_space_group_name_H-M   'P 1'
_cell_length_a   10.25195091
_cell_length_b   10.48679170
_cell_length_c   16.52403596
_cell_angle_alpha   90.00000000
_cell_angle_beta   90.00000000
_cell_angle_gamma   97.75813122
_symmetry_Int_Tables_number   1
_chemical_formula_structural   As2Se3S3(NF3)4
_chemical_formula_sum   'As8 Se12 S12 N16 F48'
_cell_volume   1760.23957297
_cell_formula_units_Z   4
loop_
 _symmetry_equiv_pos_site_id
 _symmetry_equiv_pos_as_xyz
  1  'x, y, z'
loop_
 _atom_site_type_symbol
 _atom_site_label
 _atom_site_symmetry_multiplicity
 _atom_site_fract_x
 _atom_site_fract_y
 _atom_site_fract_z
 _atom_site_occupancy
  As  As0  1  0.75537854  0.36307070  0.84510717  1
  As  As1  1  0.25537854  0.86307070  0.65489283  1
  As  As2  1  0.24462146  0.63692930  0.15489283  1
  As  As3  1  0.74462146  0.13692930  0.34510717  1
  As  As4  1  0.23547082  0.30591670  0.44170824  1
  As  As5  1  0.73547082  0.80591670  0.05829176  1
  As  As6  1  0.76452918  0.69408330  0.55829176  1
  As  As7  1  0.26452918  0.19408330  0.94170824  1
  Se  Se8  1  0.87409573  0.09511932  0.61624458  1
  Se  Se9  1  0.37409573  0.59511932  0.88375542  1
  Se  Se10  1  0.12590427  0.90488068  0.38375542  1
  Se  Se11  1  0.62590427  0.40488068  0.11624458  1
  Se  Se12  1  0.63846166  0.96666832  0.79289887  1
  Se  Se13  1  0.13846166  0.46666832  0.70710113  1
  Se  Se14  1  0.36153834  0.03333168  0.20710113  1
  Se  Se15  1  0.86153834  0.53333168  0.29289887  1
  Se  Se16  1  0.87459886  0.03625236  0.80069054  1
  Se  Se17  1  0.37459886  0.53625236  0.69930946  1
  Se  Se18  1  0.12540114  0.96374764  0.19930946  1
  Se  Se19  1  0.62540114  0.46374764  0.30069054  1
  S  S20  1  0.79923842  0.75807081  0.80936449  1
  S  S21  1  0.29923842  0.25807081  0.69063551  1
  S  S22  1  0.20076158  0.24192919  0.19063551  1
  S  S23  1  0.70076158  0.74192919  0.30936449  1
  S  S24  1  0.71498607  0.30338357  0.60148844  1
  S  S25  1  0.21498607  0.80338357  0.89851156  1
  S  S26  1  0.28501393  0.69661643  0.39851156  1
  S  S27  1  0.78501393  0.19661643  0.10148844  1
  S  S28  1  0.64596791  0.03738604  0.61263071  1
  S  S29  1  0.14596791  0.53738604  0.88736929  1
  S  S30  1  0.35403209  0.96261396  0.38736929  1
  S  S31  1  0.85403209  0.46261396  0.11263071  1
  N  N32  1  0.85624823  0.26159031  0.60726683  1
  N  N33  1  0.35624823  0.76159031  0.89273317  1
  N  N34  1  0.14375177  0.73840969  0.39273317  1
  N  N35  1  0.64375177  0.23840969  0.10726683  1
  N  N36  1  0.91147656  0.87533880  0.81094454  1
  N  N37  1  0.41147656  0.37533880  0.68905546  1
  N  N38  1  0.08852344  0.12466120  0.18905546  1
  N  N39  1  0.58852344  0.62466120  0.31094454  1
  N  N40  1  0.60820440  0.17990721  0.60242603  1
  N  N41  1  0.10820440  0.67990721  0.89757397  1
  N  N42  1  0.39179560  0.82009279  0.39757397  1
  N  N43  1  0.89179560  0.32009279  0.10242603  1
  N  N44  1  0.65907018  0.80000778  0.80192453  1
  N  N45  1  0.15907018  0.30000778  0.69807547  1
  N  N46  1  0.34092982  0.19999222  0.19807547  1
  N  N47  1  0.84092982  0.69999222  0.30192453  1
  F  F48  1  0.77889389  0.46336951  0.75869882  1
  F  F49  1  0.27889389  0.96336951  0.74130118  1
  F  F50  1  0.22110611  0.53663049  0.24130118  1
  F  F51  1  0.72110611  0.03663049  0.25869882  1
  F  F52  1  0.73262347  0.25738372  0.92867019  1
  F  F53  1  0.23262347  0.75738372  0.57132981  1
  F  F54  1  0.26737653  0.74261628  0.07132981  1
  F  F55  1  0.76737653  0.24261628  0.42867019  1
  F  F56  1  0.12180010  0.21596175  0.50763442  1
  F  F57  1  0.62180010  0.71596175  0.99236558  1
  F  F58  1  0.87819990  0.78403825  0.49236558  1
  F  F59  1  0.37819990  0.28403825  0.00763442  1
  F  F60  1  0.10592022  0.37035297  0.39311838  1
  F  F61  1  0.60592022  0.87035297  0.10688162  1
  F  F62  1  0.89407978  0.62964703  0.60688162  1
  F  F63  1  0.39407978  0.12964703  0.89311838  1
  F  F64  1  0.36640739  0.23887012  0.48735736  1
  F  F65  1  0.86640739  0.73887012  0.01264264  1
  F  F66  1  0.63359261  0.76112988  0.51264264  1
  F  F67  1  0.13359261  0.26112988  0.98735736  1
  F  F68  1  0.34926099  0.39112643  0.37333434  1
  F  F69  1  0.84926099  0.89112643  0.12666566  1
  F  F70  1  0.65073901  0.60887357  0.62666566  1
  F  F71  1  0.15073901  0.10887357  0.87333434  1
  F  F72  1  0.60032148  0.41266522  0.86122202  1
  F  F73  1  0.10032148  0.91266522  0.63877798  1
  F  F74  1  0.39967852  0.58733478  0.13877798  1
  F  F75  1  0.89967852  0.08733478  0.36122202  1
  F  F76  1  0.21486994  0.17005701  0.37161806  1
  F  F77  1  0.71486994  0.67005701  0.12838194  1
  F  F78  1  0.78513006  0.82994299  0.62838194  1
  F  F79  1  0.28513006  0.32994299  0.87161806  1
  F  F80  1  0.83405351  0.48706142  0.90735241  1
  F  F81  1  0.33405351  0.98706142  0.59264759  1
  F  F82  1  0.16594649  0.51293858  0.09264759  1
  F  F83  1  0.66594649  0.01293858  0.40735241  1
  F  F84  1  0.68133514  0.23260299  0.78094962  1
  F  F85  1  0.18133514  0.73260299  0.71905038  1
  F  F86  1  0.31866486  0.76739701  0.21905038  1
  F  F87  1  0.81866486  0.26739701  0.28094962  1
  F  F88  1  0.25686492  0.43728600  0.51053956  1
  F  F89  1  0.75686492  0.93728600  0.98946044  1
  F  F90  1  0.74313508  0.56271400  0.48946044  1
  F  F91  1  0.24313508  0.06271400  0.01053956  1
  F  F92  1  0.91070359  0.30973729  0.82507493  1
  F  F93  1  0.41070359  0.80973729  0.67492507  1
  F  F94  1  0.08929641  0.69026271  0.17492507  1
  F  F95  1  0.58929641  0.19026271  0.32507493  1
