# generated using pymatgen
data_ErTlCu
_symmetry_space_group_name_H-M   'P 1'
_cell_length_a   4.21000808
_cell_length_b   4.21000808
_cell_length_c   9.23703035
_cell_angle_alpha   89.23649031
_cell_angle_beta   90.76350969
_cell_angle_gamma   118.58813745
_symmetry_Int_Tables_number   1
_chemical_formula_structural   ErTlCu
_chemical_formula_sum   'Er2 Tl2 Cu2'
_cell_volume   143.74116895
_cell_formula_units_Z   2
loop_
 _symmetry_equiv_pos_site_id
 _symmetry_equiv_pos_as_xyz
  1  'x, y, z'
loop_
 _atom_site_type_symbol
 _atom_site_label
 _atom_site_symmetry_multiplicity
 _atom_site_fract_x
 _atom_site_fract_y
 _atom_site_fract_z
 _atom_site_occupancy
  Er  Er0  1  0.00566166  0.99433834  0.67645743  1
  Er  Er1  1  0.99433834  0.00566166  0.32354257  1
  Tl  Tl2  1  0.33110812  0.66889188  0.09802415  1
  Tl  Tl3  1  0.66889188  0.33110812  0.90197585  1
  Cu  Cu4  1  0.66885048  0.33114952  0.50506542  1
  Cu  Cu5  1  0.33114952  0.66885048  0.49493458  1
