# generated using pymatgen
data_BaFe2P4H4O17
_symmetry_space_group_name_H-M   'P 1'
_cell_length_a   8.10592322
_cell_length_b   9.41671729
_cell_length_c   9.53845847
_cell_angle_alpha   116.83442483
_cell_angle_beta   90.00000000
_cell_angle_gamma   90.00000000
_symmetry_Int_Tables_number   1
_chemical_formula_structural   BaFe2P4H4O17
_chemical_formula_sum   'Ba2 Fe4 P8 H8 O34'
_cell_volume   649.67818970
_cell_formula_units_Z   2
loop_
 _symmetry_equiv_pos_site_id
 _symmetry_equiv_pos_as_xyz
  1  'x, y, z'
loop_
 _atom_site_type_symbol
 _atom_site_label
 _atom_site_symmetry_multiplicity
 _atom_site_fract_x
 _atom_site_fract_y
 _atom_site_fract_z
 _atom_site_occupancy
  Ba  Ba0  1  0.84764799  0.67159093  0.84601784  1
  Ba  Ba1  1  0.34764799  0.32840907  0.15398216  1
  Fe  Fe2  1  0.33966862  0.76405179  0.74288361  1
  Fe  Fe3  1  0.83966862  0.23594821  0.25711639  1
  Fe  Fe4  1  0.60589137  0.25895800  0.74649884  1
  Fe  Fe5  1  0.10589137  0.74104200  0.25350116  1
  P  P6  1  0.41238361  0.92631645  0.50727958  1
  P  P7  1  0.91238361  0.07368355  0.49272042  1
  P  P8  1  0.28772017  0.51757528  0.91072818  1
  P  P9  1  0.78772017  0.48242472  0.08927182  1
  P  P10  1  0.54043090  0.42688215  0.51645505  1
  P  P11  1  0.04043090  0.57311785  0.48354495  1
  P  P12  1  0.65861209  0.01945137  0.91194923  1
  P  P13  1  0.15861209  0.98054863  0.08805077  1
  H  H14  1  0.06810774  0.26828488  0.50884221  1
  H  H15  1  0.56810774  0.73171512  0.49115779  1
  H  H16  1  0.84605204  0.03008592  0.75111197  1
  H  H17  1  0.34605204  0.96991408  0.24888803  1
  H  H18  1  0.08138912  0.35295144  0.79063234  1
  H  H19  1  0.58138912  0.64704856  0.20936766  1
  H  H20  1  0.88372082  0.76877942  0.50182720  1
  H  H21  1  0.38372082  0.23122058  0.49817280  1
  O  O22  1  0.32030016  0.89525599  0.63041603  1
  O  O23  1  0.82030016  0.10474401  0.36958397  1
  O  O24  1  0.87037819  0.66886620  0.51367047  1
  O  O25  1  0.37037819  0.33113380  0.48632953  1
  O  O26  1  0.48877183  0.60012265  0.56400421  1
  O  O27  1  0.98877183  0.39987735  0.43599579  1
  O  O28  1  0.19553197  0.93179643  0.91294206  1
  O  O29  1  0.69553197  0.06820357  0.08705794  1
  O  O30  1  0.35477149  0.64509054  0.87048183  1
  O  O31  1  0.85477149  0.35490946  0.12951817  1
  O  O32  1  0.56012683  0.86359983  0.84409686  1
  O  O33  1  0.06012683  0.13640017  0.15590314  1
  O  O34  1  0.31069273  0.87603048  0.35417005  1
  O  O35  1  0.81069273  0.12396952  0.64582995  1
  O  O36  1  0.75675362  0.42171303  0.91162563  1
  O  O37  1  0.25675362  0.57828697  0.08837437  1
  O  O38  1  0.57334481  0.15463493  0.89173990  1
  O  O39  1  0.07334481  0.84536507  0.10826010  1
  O  O40  1  0.63882453  0.40826395  0.64574905  1
  O  O41  1  0.13882453  0.59173605  0.35425095  1
  O  O42  1  0.07684834  0.17933254  0.53830992  1
  O  O43  1  0.57684834  0.82066746  0.46169008  1
  O  O44  1  0.63131072  0.35866463  0.35819644  1
  O  O45  1  0.13131072  0.64133537  0.64180356  1
  O  O46  1  0.11033977  0.46520328  0.82545694  1
  O  O47  1  0.61033977  0.53479672  0.17454306  1
  O  O48  1  0.46656958  0.10096962  0.56520198  1
  O  O49  1  0.96656958  0.89903038  0.43479802  1
  O  O50  1  0.83147124  0.97869368  0.82368902  1
  O  O51  1  0.33147124  0.02130632  0.17631098  1
  O  O52  1  0.39584396  0.36907121  0.85607485  1
  O  O53  1  0.89584396  0.63092879  0.14392515  1
  O  O54  1  0.14692576  0.16130500  0.88513894  1
  O  O55  1  0.64692576  0.83869500  0.11486106  1
