# generated using pymatgen
data_Ba2Nd2Fe(CoO4)3
_symmetry_space_group_name_H-M   'P 1'
_cell_length_a   3.94028766
_cell_length_b   8.74784554
_cell_length_c   7.89234768
_cell_angle_alpha   63.18556723
_cell_angle_beta   90.00000000
_cell_angle_gamma   90.00000000
_symmetry_Int_Tables_number   1
_chemical_formula_structural   Ba2Nd2Fe(CoO4)3
_chemical_formula_sum   'Ba2 Nd2 Fe1 Co3 O12'
_cell_volume   242.78952618
_cell_formula_units_Z   1
loop_
 _symmetry_equiv_pos_site_id
 _symmetry_equiv_pos_as_xyz
  1  'x, y, z'
loop_
 _atom_site_type_symbol
 _atom_site_label
 _atom_site_symmetry_multiplicity
 _atom_site_fract_x
 _atom_site_fract_y
 _atom_site_fract_z
 _atom_site_occupancy
  Ba  Ba0  1  0.00000000  0.99815348  0.99764570  1
  Ba  Ba1  1  0.00000000  0.99815348  0.50420082  1
  Nd  Nd2  1  0.00000000  0.50295189  0.24729924  1
  Nd  Nd3  1  0.00000000  0.50295189  0.74974887  1
  Fe  Fe4  1  0.50000000  0.25627979  0.12186011  1
  Co  Co5  1  0.50000000  0.74696614  0.37651693  1
  Co  Co6  1  0.50000000  0.74772548  0.87613726  1
  Co  Co7  1  0.50000000  0.25528848  0.62235576  1
  O  O8  1  0.50000000  0.50340110  0.99829945  1
  O  O9  1  0.50000000  0.50918271  0.49540864  1
  O  O10  1  0.00000000  0.72133433  0.88933283  1
  O  O11  1  0.00000000  0.72028031  0.38985985  1
  O  O12  1  0.50000000  0.72802152  0.12547795  1
  O  O13  1  0.50000000  0.72802152  0.64650052  1
  O  O14  1  0.00000000  0.26781528  0.11609236  1
  O  O15  1  -0.00000000  0.27641762  0.61179119  1
  O  O16  1  0.50000000  0.27588661  0.36287234  1
  O  O17  1  0.50000000  0.27588661  0.86124105  1
  O  O18  1  0.50000000  0.98505722  0.25747139  1
  O  O19  1  0.50000000  0.00022454  0.74988773  1
