# generated using pymatgen
data_AgW2(Br3O)2
_symmetry_space_group_name_H-M   'P 1'
_cell_length_a   3.86930502
_cell_length_b   7.50077852
_cell_length_c   11.36553242
_cell_angle_alpha   77.32827776
_cell_angle_beta   80.19933323
_cell_angle_gamma   104.94708250
_symmetry_Int_Tables_number   1
_chemical_formula_structural   AgW2(Br3O)2
_chemical_formula_sum   'Ag1 W2 Br6 O2'
_cell_volume   301.80176877
_cell_formula_units_Z   1
loop_
 _symmetry_equiv_pos_site_id
 _symmetry_equiv_pos_as_xyz
  1  'x, y, z'
loop_
 _atom_site_type_symbol
 _atom_site_label
 _atom_site_symmetry_multiplicity
 _atom_site_fract_x
 _atom_site_fract_y
 _atom_site_fract_z
 _atom_site_occupancy
  Ag  Ag0  1  0.27006869  0.01269810  0.47256073  1
  W  W1  1  0.08859687  0.00062434  0.82343060  1
  W  W2  1  0.91112099  0.99531235  0.17307037  1
  Br  Br3  1  0.01363893  0.73804108  0.71076321  1
  Br  Br4  1  0.97705706  0.25063030  0.29651617  1
  Br  Br5  1  0.84620352  0.73547183  0.04306480  1
  Br  Br6  1  0.15350411  0.26153906  0.95453084  1
  Br  Br7  1  0.32492380  0.27199496  0.62214736  1
  Br  Br8  1  0.67807588  0.73312127  0.37696951  1
  O  O9  1  0.58681799  0.00128354  0.82764757  1
  O  O10  1  0.41689217  0.00078318  0.16699884  1
