# generated using pymatgen
data_NdMnSbO
_symmetry_space_group_name_H-M   'P 1'
_cell_length_a   4.25583632
_cell_length_b   4.25583632
_cell_length_c   9.75167983
_cell_angle_alpha   90.00000000
_cell_angle_beta   90.00000000
_cell_angle_gamma   90.00000000
_symmetry_Int_Tables_number   1
_chemical_formula_structural   NdMnSbO
_chemical_formula_sum   'Nd2 Mn2 Sb2 O2'
_cell_volume   176.62381745
_cell_formula_units_Z   2
loop_
 _symmetry_equiv_pos_site_id
 _symmetry_equiv_pos_as_xyz
  1  'x, y, z'
loop_
 _atom_site_type_symbol
 _atom_site_label
 _atom_site_symmetry_multiplicity
 _atom_site_fract_x
 _atom_site_fract_y
 _atom_site_fract_z
 _atom_site_occupancy
  O  O0  1  0.25000097  0.75000050  0.00000000  1
  O  O1  1  0.75000050  0.25000097  0.00000000  1
  Mn  Mn2  1  0.25000097  0.75000050  0.50000033  1
  Mn  Mn3  1  0.75000050  0.25000097  0.50000033  1
  Sb  Sb4  1  0.75000050  0.75000050  0.30875377  1
  Sb  Sb5  1  0.25000097  0.25000097  0.69124584  1
  Nd  Nd6  1  0.75000050  0.75000050  0.88856436  1
  Nd  Nd7  1  0.25000097  0.25000097  0.11143525  1
