# generated using pymatgen
data_Pr2MgSe4
_symmetry_space_group_name_H-M   'P 1'
_cell_length_a   17.06614089
_cell_length_b   17.06612908
_cell_length_c   17.06611004
_cell_angle_alpha   59.99961487
_cell_angle_beta   59.99932065
_cell_angle_gamma   59.99937666
_symmetry_Int_Tables_number   1
_chemical_formula_structural   Pr2MgSe4
_chemical_formula_sum   'Pr32 Mg16 Se64'
_cell_volume   3514.66839995
_cell_formula_units_Z   16
loop_
 _symmetry_equiv_pos_site_id
 _symmetry_equiv_pos_as_xyz
  1  'x, y, z'
loop_
 _atom_site_type_symbol
 _atom_site_label
 _atom_site_symmetry_multiplicity
 _atom_site_fract_x
 _atom_site_fract_y
 _atom_site_fract_z
 _atom_site_occupancy
  Pr  Pr0  1  0.31250107  0.06249452  0.31250221  1
  Pr  Pr1  1  0.31250181  0.06249551  0.81250224  1
  Pr  Pr2  1  0.31250207  0.56249575  0.31250145  1
  Pr  Pr3  1  0.31250092  0.56249482  0.81250136  1
  Pr  Pr4  1  0.81250193  0.06249501  0.31250191  1
  Pr  Pr5  1  0.81250210  0.06249567  0.81250069  1
  Pr  Pr6  1  0.81250241  0.56249526  0.31250191  1
  Pr  Pr7  1  0.81250226  0.56249496  0.81250128  1
  Pr  Pr8  1  0.31250196  0.31250007  0.06249585  1
  Pr  Pr9  1  0.31250109  0.31250161  0.56249689  1
  Pr  Pr10  1  0.31250090  0.81250239  0.06249475  1
  Pr  Pr11  1  0.31250202  0.81250147  0.56249401  1
  Pr  Pr12  1  0.81250149  0.31250130  0.06249496  1
  Pr  Pr13  1  0.81250112  0.31250041  0.56249517  1
  Pr  Pr14  1  0.81250165  0.81250125  0.06249559  1
  Pr  Pr15  1  0.81250089  0.81250187  0.56249505  1
  Pr  Pr16  1  0.06249435  0.31250127  0.31250235  1
  Pr  Pr17  1  0.06249495  0.31250140  0.81250218  1
  Pr  Pr18  1  0.06249580  0.81250103  0.31250215  1
  Pr  Pr19  1  0.06249570  0.81250067  0.81250207  1
  Pr  Pr20  1  0.56249505  0.31250199  0.31250059  1
  Pr  Pr21  1  0.56249493  0.31250036  0.81250203  1
  Pr  Pr22  1  0.56249494  0.81250128  0.31250156  1
  Pr  Pr23  1  0.56249506  0.81250202  0.81250092  1
  Pr  Pr24  1  0.31250214  0.31250143  0.31250119  1
  Pr  Pr25  1  0.31250146  0.31250136  0.81250160  1
  Pr  Pr26  1  0.31250077  0.81250214  0.31250265  1
  Pr  Pr27  1  0.31250096  0.81250163  0.81250210  1
  Pr  Pr28  1  0.81250188  0.31250114  0.31250234  1
  Pr  Pr29  1  0.81250167  0.31250146  0.81250172  1
  Pr  Pr30  1  0.81250217  0.81250147  0.31250135  1
  Pr  Pr31  1  0.81250102  0.81250288  0.81250195  1
  Mg  Mg32  1  0.00000091  0.99999972  0.99999990  1
  Mg  Mg33  1  0.99999874  0.00000353  0.49999757  1
  Mg  Mg34  1  0.00000046  0.49999932  0.99999780  1
  Mg  Mg35  1  -0.00000167  0.50000133  0.50000179  1
  Mg  Mg36  1  0.50000059  0.00000011  0.00000013  1
  Mg  Mg37  1  0.49999835  -0.00000093  0.50000000  1
  Mg  Mg38  1  0.49999754  0.50000005  0.00000221  1
  Mg  Mg39  1  0.50000168  0.49999809  0.50000131  1
  Mg  Mg40  1  0.12500256  0.12499884  0.12499945  1
  Mg  Mg41  1  0.12500025  0.12500052  0.62500091  1
  Mg  Mg42  1  0.12500018  0.62500041  0.12500072  1
  Mg  Mg43  1  0.12500131  0.62499941  0.62499814  1
  Mg  Mg44  1  0.62500199  0.12499848  0.12499998  1
  Mg  Mg45  1  0.62499610  0.12499717  0.62500303  1
  Mg  Mg46  1  0.62500366  0.62499917  0.12499929  1
  Mg  Mg47  1  0.62500072  0.62500157  0.62499925  1
  Se  Se48  1  0.18862387  0.18862681  0.18862572  1
  Se  Se49  1  0.18862461  0.18862647  0.68862470  1
  Se  Se50  1  0.18862468  0.68862602  0.18862518  1
  Se  Se51  1  0.18862422  0.68862607  0.68862567  1
  Se  Se52  1  0.68862465  0.18862580  0.18862613  1
  Se  Se53  1  0.68862535  0.18862641  0.68862520  1
  Se  Se54  1  0.68862512  0.68862512  0.18862617  1
  Se  Se55  1  0.68862388  0.68862617  0.68862549  1
  Se  Se56  1  0.43412430  0.18862437  0.18862607  1
  Se  Se57  1  0.43412420  0.18862625  0.68862589  1
  Se  Se58  1  0.43412369  0.68862657  0.18862581  1
  Se  Se59  1  0.43412324  0.68862538  0.68862647  1
  Se  Se60  1  0.93412304  0.18862492  0.18862651  1
  Se  Se61  1  0.93412322  0.18862543  0.68862633  1
  Se  Se62  1  0.93412300  0.68862609  0.18862642  1
  Se  Se63  1  0.93412259  0.68862511  0.68862715  1
  Se  Se64  1  0.18862560  0.43412475  0.18862339  1
  Se  Se65  1  0.18862480  0.43412633  0.68862299  1
  Se  Se66  1  0.18862505  0.93412486  0.18862501  1
  Se  Se67  1  0.18862403  0.93412374  0.68862479  1
  Se  Se68  1  0.68862587  0.43412365  0.18862514  1
  Se  Se69  1  0.68862475  0.43412481  0.68862489  1
  Se  Se70  1  0.68862469  0.93412463  0.18862522  1
  Se  Se71  1  0.68862667  0.93412370  0.68862472  1
  Se  Se72  1  0.18862770  0.18862504  0.43412194  1
  Se  Se73  1  0.18862634  0.18862401  0.93412408  1
  Se  Se74  1  0.18862602  0.68862525  0.43412387  1
  Se  Se75  1  0.18862553  0.68862534  0.93412466  1
  Se  Se76  1  0.68862574  0.18862502  0.43412288  1
  Se  Se77  1  0.68862619  0.18862403  0.93412372  1
  Se  Se78  1  0.68862687  0.68862453  0.43412395  1
  Se  Se79  1  0.68862627  0.68862512  0.93412247  1
  Se  Se80  1  0.43637382  0.43637409  0.19087960  1
  Se  Se81  1  0.43637246  0.43637440  0.69087966  1
  Se  Se82  1  0.43637236  0.93637262  0.19088136  1
  Se  Se83  1  0.43637182  0.93637532  0.69088053  1
  Se  Se84  1  0.93637248  0.43637267  0.19088154  1
  Se  Se85  1  0.93637315  0.43637439  0.69088074  1
  Se  Se86  1  0.93637307  0.93637321  0.19088088  1
  Se  Se87  1  0.93637197  0.93637388  0.69088174  1
  Se  Se88  1  0.43637330  0.19087898  0.43637354  1
  Se  Se89  1  0.43637523  0.19087966  0.93637207  1
  Se  Se90  1  0.43637258  0.69088078  0.43637412  1
  Se  Se91  1  0.43637270  0.69088054  0.93637361  1
  Se  Se92  1  0.93637303  0.19087861  0.43637470  1
  Se  Se93  1  0.93637297  0.19087985  0.93637446  1
  Se  Se94  1  0.93637344  0.69087983  0.43637391  1
  Se  Se95  1  0.93637345  0.69087871  0.93637643  1
  Se  Se96  1  0.19087944  0.43637216  0.43637377  1
  Se  Se97  1  0.19088131  0.43637261  0.93637296  1
  Se  Se98  1  0.19088056  0.93637412  0.43637177  1
  Se  Se99  1  0.19088094  0.93637240  0.93637351  1
  Se  Se100  1  0.69087957  0.43637372  0.43637203  1
  Se  Se101  1  0.69087971  0.43637432  0.93637199  1
  Se  Se102  1  0.69088128  0.93637301  0.43637184  1
  Se  Se103  1  0.69087994  0.93637321  0.93637270  1
  Se  Se104  1  0.43637371  0.43637332  0.43637206  1
  Se  Se105  1  0.43637333  0.43637348  0.93637242  1
  Se  Se106  1  0.43637393  0.93637392  0.43637214  1
  Se  Se107  1  0.43637406  0.93637334  0.93637194  1
  Se  Se108  1  0.93637531  0.43637330  0.43637011  1
  Se  Se109  1  0.93637425  0.43637308  0.93637176  1
  Se  Se110  1  0.93637283  0.93637341  0.43637357  1
  Se  Se111  1  0.93637433  0.93637306  0.93637233  1
