# generated using pymatgen
data_Li9Mn2Co5O16
_symmetry_space_group_name_H-M   'P 1'
_cell_length_a   2.90389719
_cell_length_b   10.13952871
_cell_length_c   9.82014047
_cell_angle_alpha   79.74260186
_cell_angle_beta   91.07472421
_cell_angle_gamma   90.76703821
_symmetry_Int_Tables_number   1
_chemical_formula_structural   Li9Mn2Co5O16
_chemical_formula_sum   'Li9 Mn2 Co5 O16'
_cell_volume   284.45958330
_cell_formula_units_Z   1
loop_
 _symmetry_equiv_pos_site_id
 _symmetry_equiv_pos_as_xyz
  1  'x, y, z'
loop_
 _atom_site_type_symbol
 _atom_site_label
 _atom_site_symmetry_multiplicity
 _atom_site_fract_x
 _atom_site_fract_y
 _atom_site_fract_z
 _atom_site_occupancy
  Li  Li0  1  0.99860940  0.12706779  0.25192541  1
  Li  Li1  1  0.49686991  0.12622393  0.75042686  1
  Li  Li2  1  0.50313009  0.37377607  0.24957314  1
  Li  Li3  1  0.00139060  0.37293221  0.74807459  1
  Li  Li4  1  0.99673649  0.63642156  0.24157679  1
  Li  Li5  1  0.49415372  0.63017421  0.75531355  1
  Li  Li6  1  0.50584628  0.86982579  0.24468645  1
  Li  Li7  1  0.00326351  0.86357844  0.75842321  1
  Li  Li8  1  0.50000000  0.75000000  0.00000000  1
  Mn  Mn9  1  -0.00061995  0.99499876  0.00226200  1
  Mn  Mn10  1  0.00061995  0.50500124  0.99773800  1
  Co  Co11  1  0.49855449  0.00006166  0.50087061  1
  Co  Co12  1  0.50000000  0.25000000  0.00000000  1
  Co  Co13  1  -0.00000000  0.25000000  0.50000000  1
  Co  Co14  1  0.50144551  0.49993834  0.49912939  1
  Co  Co15  1  -0.00000000  0.75000000  0.50000000  1
  O  O16  1  0.50390110  0.06879601  0.10611577  1
  O  O17  1  0.98081859  0.06388451  0.61593401  1
  O  O18  1  0.00734920  0.31205271  0.10573111  1
  O  O19  1  0.49273101  0.31157546  0.61756686  1
  O  O20  1  0.50514540  0.55135047  0.11162513  1
  O  O21  1  0.98291018  0.56071115  0.61345252  1
  O  O22  1  0.00086029  0.83265106  0.11650498  1
  O  O23  1  0.48609652  0.81150348  0.61683442  1
  O  O24  1  0.50726899  0.18842454  0.38243314  1
  O  O25  1  -0.00734920  0.18794729  0.89426889  1
  O  O26  1  0.01918141  0.43611549  0.38406599  1
  O  O27  1  0.49609890  0.43120399  0.89388423  1
  O  O28  1  0.51390348  0.68849652  0.38316558  1
  O  O29  1  -0.00086029  0.66734894  0.88349502  1
  O  O30  1  0.01708982  0.93928885  0.38654748  1
  O  O31  1  0.49485460  0.94864953  0.88837487  1
