# generated using pymatgen
data_EuC2(SN)2
_symmetry_space_group_name_H-M   'P 1'
_cell_length_a   6.04420015
_cell_length_b   6.04420015
_cell_length_c   8.12078852
_cell_angle_alpha   91.00007907
_cell_angle_beta   91.00007910
_cell_angle_gamma   64.45454748
_symmetry_Int_Tables_number   1
_chemical_formula_structural   EuC2(SN)2
_chemical_formula_sum   'Eu2 C4 S4 N4'
_cell_volume   267.61297623
_cell_formula_units_Z   2
loop_
 _symmetry_equiv_pos_site_id
 _symmetry_equiv_pos_as_xyz
  1  'x, y, z'
loop_
 _atom_site_type_symbol
 _atom_site_label
 _atom_site_symmetry_multiplicity
 _atom_site_fract_x
 _atom_site_fract_y
 _atom_site_fract_z
 _atom_site_occupancy
  C  C0  1  0.75204421  0.48670453  0.10154024  1
  C  C1  1  0.48670453  0.75204421  0.60154024  1
  C  C2  1  0.24795579  0.51329547  0.89845976  1
  C  C3  1  0.51329547  0.24795579  0.39845976  1
  N  N4  1  0.83830595  0.28075931  0.05001603  1
  N  N5  1  0.28075931  0.83830595  0.55001603  1
  N  N6  1  0.71924069  0.16169405  0.44998397  1
  N  N7  1  0.16169405  0.71924069  0.94998397  1
  S  S8  1  0.35990027  0.23494612  0.82664572  1
  S  S9  1  0.76505388  0.64009973  0.67335428  1
  S  S10  1  0.64009973  0.76505388  0.17335428  1
  S  S11  1  0.23494612  0.35990027  0.32664572  1
  Eu  Eu12  1  0.91217542  0.08782458  0.75000000  1
  Eu  Eu13  1  0.08782458  0.91217542  0.25000000  1
