# generated using pymatgen
data_In5S4
_symmetry_space_group_name_H-M   'P 1'
_cell_length_a   12.70920293
_cell_length_b   12.70920293
_cell_length_c   12.70920293
_cell_angle_alpha   90.00000000
_cell_angle_beta   90.00000000
_cell_angle_gamma   90.00000000
_symmetry_Int_Tables_number   1
_chemical_formula_structural   In5S4
_chemical_formula_sum   'In40 S32'
_cell_volume   2052.83924936
_cell_formula_units_Z   8
loop_
 _symmetry_equiv_pos_site_id
 _symmetry_equiv_pos_as_xyz
  1  'x, y, z'
loop_
 _atom_site_type_symbol
 _atom_site_label
 _atom_site_symmetry_multiplicity
 _atom_site_fract_x
 _atom_site_fract_y
 _atom_site_fract_z
 _atom_site_occupancy
  S  S0  1  0.32470780  0.07388888  0.25680932  1
  S  S1  1  0.25680932  0.32470780  0.07388888  1
  S  S2  1  0.07388888  0.25680932  0.32470780  1
  S  S3  1  0.42611112  0.74319068  0.82470780  1
  S  S4  1  0.75680932  0.17529220  0.92611112  1
  S  S5  1  0.92611112  0.75680932  0.17529220  1
  S  S6  1  0.24319068  0.67529220  0.57388888  1
  S  S7  1  0.74319068  0.82470780  0.42611112  1
  S  S8  1  0.57388888  0.24319068  0.67529220  1
  S  S9  1  0.82470780  0.42611112  0.74319068  1
  S  S10  1  0.67529220  0.57388888  0.24319068  1
  S  S11  1  0.17529220  0.92611112  0.75680932  1
  S  S12  1  0.67529220  0.92611112  0.74319068  1
  S  S13  1  0.74319068  0.67529220  0.92611112  1
  S  S14  1  0.92611112  0.74319068  0.67529220  1
  S  S15  1  0.57388888  0.25680932  0.17529220  1
  S  S16  1  0.24319068  0.82470780  0.07388888  1
  S  S17  1  0.07388888  0.24319068  0.82470780  1
  S  S18  1  0.75680932  0.32470780  0.42611112  1
  S  S19  1  0.25680932  0.17529220  0.57388888  1
  S  S20  1  0.42611112  0.75680932  0.32470780  1
  S  S21  1  0.17529220  0.57388888  0.25680932  1
  S  S22  1  0.32470780  0.42611112  0.75680932  1
  S  S23  1  0.82470780  0.07388888  0.24319068  1
  S  S24  1  0.07529431  0.07529431  0.07529431  1
  S  S25  1  0.42470569  0.92470569  0.57529431  1
  S  S26  1  0.57529431  0.42470569  0.92470569  1
  S  S27  1  0.92470569  0.57529431  0.42470569  1
  S  S28  1  0.92470569  0.92470569  0.92470569  1
  S  S29  1  0.57529431  0.07529431  0.42470569  1
  S  S30  1  0.42470569  0.57529431  0.07529431  1
  S  S31  1  0.07529431  0.42470569  0.57529431  1
  In  In32  1  0.26908162  0.26908162  0.26908162  1
  In  In33  1  0.23091838  0.73091838  0.76908162  1
  In  In34  1  0.76908162  0.23091838  0.73091838  1
  In  In35  1  0.73091838  0.76908162  0.23091838  1
  In  In36  1  0.73091838  0.73091838  0.73091838  1
  In  In37  1  0.76908162  0.26908162  0.23091838  1
  In  In38  1  0.23091838  0.76908162  0.26908162  1
  In  In39  1  0.26908162  0.23091838  0.76908162  1
  In  In40  1  0.40122995  0.40122995  0.40122995  1
  In  In41  1  0.09877005  0.59877005  0.90122995  1
  In  In42  1  0.90122995  0.09877005  0.59877005  1
  In  In43  1  0.59877005  0.90122995  0.09877005  1
  In  In44  1  0.59877005  0.59877005  0.59877005  1
  In  In45  1  0.90122995  0.40122995  0.09877005  1
  In  In46  1  0.09877005  0.90122995  0.40122995  1
  In  In47  1  0.40122995  0.09877005  0.90122995  1
  In  In48  1  0.26829700  0.02679914  0.06761978  1
  In  In49  1  0.06761978  0.26829700  0.02679914  1
  In  In50  1  0.02679914  0.06761978  0.26829700  1
  In  In51  1  0.47320086  0.93238022  0.76829700  1
  In  In52  1  0.56761978  0.23170300  0.97320086  1
  In  In53  1  0.97320086  0.56761978  0.23170300  1
  In  In54  1  0.43238022  0.73170300  0.52679914  1
  In  In55  1  0.93238022  0.76829700  0.47320086  1
  In  In56  1  0.52679914  0.43238022  0.73170300  1
  In  In57  1  0.76829700  0.47320086  0.93238022  1
  In  In58  1  0.73170300  0.52679914  0.43238022  1
  In  In59  1  0.23170300  0.97320086  0.56761978  1
  In  In60  1  0.73170300  0.97320086  0.93238022  1
  In  In61  1  0.93238022  0.73170300  0.97320086  1
  In  In62  1  0.97320086  0.93238022  0.73170300  1
  In  In63  1  0.52679914  0.06761978  0.23170300  1
  In  In64  1  0.43238022  0.76829700  0.02679914  1
  In  In65  1  0.02679914  0.43238022  0.76829700  1
  In  In66  1  0.56761978  0.26829700  0.47320086  1
  In  In67  1  0.06761978  0.23170300  0.52679914  1
  In  In68  1  0.47320086  0.56761978  0.26829700  1
  In  In69  1  0.23170300  0.52679914  0.06761978  1
  In  In70  1  0.26829700  0.47320086  0.56761978  1
  In  In71  1  0.76829700  0.02679914  0.43238022  1
