# generated using pymatgen
data_HoMnGe
_symmetry_space_group_name_H-M   'P 1'
_cell_length_a   4.09481194
_cell_length_b   7.04269239
_cell_length_c   7.89817526
_cell_angle_alpha   90.00000000
_cell_angle_beta   90.00000000
_cell_angle_gamma   90.00000000
_symmetry_Int_Tables_number   1
_chemical_formula_structural   HoMnGe
_chemical_formula_sum   'Ho4 Mn4 Ge4'
_cell_volume   227.77153425
_cell_formula_units_Z   4
loop_
 _symmetry_equiv_pos_site_id
 _symmetry_equiv_pos_as_xyz
  1  'x, y, z'
loop_
 _atom_site_type_symbol
 _atom_site_label
 _atom_site_symmetry_multiplicity
 _atom_site_fract_x
 _atom_site_fract_y
 _atom_site_fract_z
 _atom_site_occupancy
  Mn  Mn0  1  0.75000000  0.36678074  0.55603610  1
  Mn  Mn1  1  0.25000000  0.13321926  0.05603610  1
  Mn  Mn2  1  0.75000000  0.86678074  0.94396390  1
  Mn  Mn3  1  0.25000000  0.63321926  0.44396390  1
  Ge  Ge4  1  0.25000000  0.27479405  0.38295925  1
  Ge  Ge5  1  0.75000000  0.22520595  0.88295925  1
  Ge  Ge6  1  0.25000000  0.77479405  0.11704075  1
  Ge  Ge7  1  0.75000000  0.72520595  0.61704075  1
  Ho  Ho8  1  0.25000000  0.52283143  0.81678964  1
  Ho  Ho9  1  0.75000000  0.47716857  0.18321036  1
  Ho  Ho10  1  0.25000000  0.02283143  0.68321036  1
  Ho  Ho11  1  0.75000000  0.97716857  0.31678964  1
