# generated using pymatgen
data_VO2
_symmetry_space_group_name_H-M   'P 1'
_cell_length_a   7.70641386
_cell_length_b   8.56966627
_cell_length_c   8.56966627
_cell_angle_alpha   90.00000000
_cell_angle_beta   90.00000000
_cell_angle_gamma   90.00000000
_symmetry_Int_Tables_number   1
_chemical_formula_structural   VO2
_chemical_formula_sum   'V16 O32'
_cell_volume   565.95271446
_cell_formula_units_Z   16
loop_
 _symmetry_equiv_pos_site_id
 _symmetry_equiv_pos_as_xyz
  1  'x, y, z'
loop_
 _atom_site_type_symbol
 _atom_site_label
 _atom_site_symmetry_multiplicity
 _atom_site_fract_x
 _atom_site_fract_y
 _atom_site_fract_z
 _atom_site_occupancy
  O  O0  1  0.62499608  0.75002579  0.39923450  1
  O  O1  1  0.62499608  0.74997387  0.10076499  1
  O  O2  1  0.12499593  0.39923450  0.74997387  1
  O  O3  1  0.12499593  0.10076499  0.75002579  1
  O  O4  1  0.37500421  0.89923517  0.25002630  1
  O  O5  1  0.87500436  0.24997437  0.89923517  1
  O  O6  1  0.87500436  0.25002630  0.60076448  1
  O  O7  1  0.37500421  0.60076448  0.24997437  1
  O  O8  1  0.37500421  0.24997437  0.60076448  1
  O  O9  1  0.37500421  0.25002630  0.89923517  1
  O  O10  1  0.87500436  0.60076448  0.25002630  1
  O  O11  1  0.87500436  0.89923517  0.24997437  1
  O  O12  1  0.62499608  0.10076499  0.74997387  1
  O  O13  1  0.12499593  0.75002579  0.10076499  1
  O  O14  1  0.12499593  0.74997387  0.39923450  1
  O  O15  1  0.62499608  0.39923450  0.75002579  1
  O  O16  1  0.62523365  0.40723779  0.40723779  1
  O  O17  1  0.12523482  0.09276288  0.40723779  1
  O  O18  1  0.12523482  0.40723779  0.09276288  1
  O  O19  1  0.62523365  0.09276288  0.09276288  1
  O  O20  1  0.87476548  0.90723728  0.59276238  1
  O  O21  1  0.87476548  0.59276238  0.90723728  1
  O  O22  1  0.37476533  0.90723728  0.90723728  1
  O  O23  1  0.37476533  0.59276238  0.59276238  1
  O  O24  1  0.87518574  0.59348741  0.59348741  1
  O  O25  1  0.62481471  0.09348791  0.40651276  1
  O  O26  1  0.62481471  0.40651276  0.09348791  1
  O  O27  1  0.12481456  0.09348791  0.09348791  1
  O  O28  1  0.37518559  0.90651225  0.59348741  1
  O  O29  1  0.37518559  0.59348741  0.90651225  1
  O  O30  1  0.87518574  0.90651225  0.90651225  1
  O  O31  1  0.12481456  0.40651276  0.40651276  1
  V  V32  1  0.37499199  0.74992934  0.45351170  1
  V  V33  1  0.37499199  0.75007149  0.04648897  1
  V  V34  1  0.87499213  0.45351170  0.75007149  1
  V  V35  1  0.87499213  0.04648897  0.74992934  1
  V  V36  1  0.62500700  0.95351119  0.24992867  1
  V  V37  1  0.12500816  0.25007082  0.95351119  1
  V  V38  1  0.12500816  0.24992867  0.54648847  1
  V  V39  1  0.62500700  0.54648847  0.25007082  1
  V  V40  1  0.62500700  0.25007082  0.54648847  1
  V  V41  1  0.62500700  0.24992867  0.95351119  1
  V  V42  1  0.12500816  0.54648847  0.24992867  1
  V  V43  1  0.12500816  0.95351119  0.25007082  1
  V  V44  1  0.37499199  0.04648897  0.75007149  1
  V  V45  1  0.87499213  0.74992934  0.04648897  1
  V  V46  1  0.87499213  0.75007149  0.45351170  1
  V  V47  1  0.37499199  0.45351170  0.74992934  1
