# generated using pymatgen
data_CdH6(CO3)2
_symmetry_space_group_name_H-M   'P 1'
_cell_length_a   7.53188903
_cell_length_b   9.16067843
_cell_length_c   9.89122278
_cell_angle_alpha   96.48816588
_cell_angle_beta   90.00000000
_cell_angle_gamma   90.00000000
_symmetry_Int_Tables_number   1
_chemical_formula_structural   CdH6(CO3)2
_chemical_formula_sum   'Cd4 H24 C8 O24'
_cell_volume   678.09575638
_cell_formula_units_Z   4
loop_
 _symmetry_equiv_pos_site_id
 _symmetry_equiv_pos_as_xyz
  1  'x, y, z'
loop_
 _atom_site_type_symbol
 _atom_site_label
 _atom_site_symmetry_multiplicity
 _atom_site_fract_x
 _atom_site_fract_y
 _atom_site_fract_z
 _atom_site_occupancy
  H  H0  1  0.64749823  0.54006442  0.28353087  1
  H  H1  1  0.14749823  0.45993558  0.21646913  1
  H  H2  1  0.35250177  0.45993558  0.71646913  1
  H  H3  1  0.85250177  0.54006442  0.78353087  1
  H  H4  1  0.59906824  0.69874378  0.23826193  1
  H  H5  1  0.09906824  0.30125622  0.26173807  1
  H  H6  1  0.40093176  0.30125622  0.76173807  1
  H  H7  1  0.90093176  0.69874378  0.73826193  1
  H  H8  1  0.38863467  0.76855963  0.95927522  1
  H  H9  1  0.88863467  0.23144037  0.54072478  1
  H  H10  1  0.61136533  0.23144037  0.04072478  1
  H  H11  1  0.11136533  0.76855963  0.45927522  1
  H  H12  1  0.59491523  0.79613415  0.99205581  1
  H  H13  1  0.09491523  0.20386585  0.50794419  1
  H  H14  1  0.40508477  0.20386585  0.00794419  1
  H  H15  1  0.90508477  0.79613415  0.49205581  1
  H  H16  1  0.98074846  0.67827353  0.11541673  1
  H  H17  1  0.48074846  0.32172647  0.38458327  1
  H  H18  1  0.01925154  0.32172647  0.88458327  1
  H  H19  1  0.51925154  0.67827353  0.61541673  1
  H  H20  1  0.77430837  0.05386322  0.26360186  1
  H  H21  1  0.27430837  0.94613678  0.23639814  1
  H  H22  1  0.22569163  0.94613678  0.73639814  1
  H  H23  1  0.72569163  0.05386322  0.76360186  1
  C  C24  1  0.11669014  0.67481333  0.07248350  1
  C  C25  1  0.61669014  0.32518667  0.42751650  1
  C  C26  1  0.88330986  0.32518667  0.92751650  1
  C  C27  1  0.38330986  0.67481333  0.57248350  1
  C  C28  1  0.79369865  0.95407338  0.71585762  1
  C  C29  1  0.29369865  0.04592662  0.78414238  1
  C  C30  1  0.20630135  0.04592662  0.28414238  1
  C  C31  1  0.70630135  0.95407338  0.21585762  1
  O  O32  1  0.62536086  0.59533828  0.20413224  1
  O  O33  1  0.12536086  0.40466172  0.29586776  1
  O  O34  1  0.37463914  0.40466172  0.79586776  1
  O  O35  1  0.87463914  0.59533828  0.70413224  1
  O  O36  1  0.51105234  0.73526684  0.93183164  1
  O  O37  1  0.01105234  0.26473316  0.56816836  1
  O  O38  1  0.48894766  0.26473316  0.06816836  1
  O  O39  1  0.98894766  0.73526684  0.43183164  1
  O  O40  1  0.16858247  0.78459099  0.01366330  1
  O  O41  1  0.66858247  0.21540901  0.48633670  1
  O  O42  1  0.83141753  0.21540901  0.98633670  1
  O  O43  1  0.33141753  0.78459099  0.51366330  1
  O  O44  1  0.20920458  0.56185102  0.08623470  1
  O  O45  1  0.70920458  0.43814898  0.41376530  1
  O  O46  1  0.79079542  0.43814898  0.91376530  1
  O  O47  1  0.29079542  0.56185102  0.58623470  1
  O  O48  1  0.74991143  0.90516847  0.09483111  1
  O  O49  1  0.24991143  0.09483153  0.40516889  1
  O  O50  1  0.25008857  0.09483153  0.90516889  1
  O  O51  1  0.75008857  0.90516847  0.59483111  1
  O  O52  1  0.58984224  0.89430601  0.28450962  1
  O  O53  1  0.08984224  0.10569399  0.21549038  1
  O  O54  1  0.41015776  0.10569399  0.71549038  1
  O  O55  1  0.91015776  0.89430601  0.78450962  1
  Cd  Cd56  1  0.50000000  0.50000000  0.00000000  1
  Cd  Cd57  1  0.00000000  0.50000000  0.50000000  1
  Cd  Cd58  1  0.00000000  0.00000000  0.00000000  1
  Cd  Cd59  1  0.50000000  0.00000000  0.50000000  1
