# generated using pymatgen
data_BiP2O7
_symmetry_space_group_name_H-M   'P 1'
_cell_length_a   6.77799475
_cell_length_b   6.93087179
_cell_length_c   6.54335873
_cell_angle_alpha   108.07252694
_cell_angle_beta   87.73436530
_cell_angle_gamma   89.01115670
_symmetry_Int_Tables_number   1
_chemical_formula_structural   BiP2O7
_chemical_formula_sum   'Bi2 P4 O14'
_cell_volume   291.85536766
_cell_formula_units_Z   2
loop_
 _symmetry_equiv_pos_site_id
 _symmetry_equiv_pos_as_xyz
  1  'x, y, z'
loop_
 _atom_site_type_symbol
 _atom_site_label
 _atom_site_symmetry_multiplicity
 _atom_site_fract_x
 _atom_site_fract_y
 _atom_site_fract_z
 _atom_site_occupancy
  Bi  Bi0  1  0.84933475  0.27980236  0.81498789  1
  Bi  Bi1  1  0.15066525  0.72019764  0.18501211  1
  P  P2  1  0.34617703  0.34599679  0.71018407  1
  P  P3  1  0.65382297  0.65400321  0.28981593  1
  P  P4  1  0.11088854  0.24563121  0.32505401  1
  P  P5  1  0.88911146  0.75436879  0.67494599  1
  O  O6  1  0.64749393  0.43758064  0.13349615  1
  O  O7  1  0.92856682  0.21881586  0.45782477  1
  O  O8  1  0.07143318  0.78118414  0.54217523  1
  O  O9  1  0.06349624  0.38382540  0.18774215  1
  O  O10  1  0.19650566  0.21083656  0.77559364  1
  O  O11  1  0.28018414  0.36295151  0.47876143  1
  O  O12  1  0.19873570  0.03927492  0.18019093  1
  O  O13  1  0.35250607  0.56241936  0.86650385  1
  O  O14  1  0.80349434  0.78916344  0.22440636  1
  O  O15  1  0.55212835  0.24320053  0.66014508  1
  O  O16  1  0.44787165  0.75679947  0.33985492  1
  O  O17  1  0.80126430  0.96072508  0.81980907  1
  O  O18  1  0.71981586  0.63704849  0.52123857  1
  O  O19  1  0.93650376  0.61617460  0.81225785  1
