# generated using pymatgen
data_Bi2(PO4)3
_symmetry_space_group_name_H-M   'P 1'
_cell_length_a   8.76163345
_cell_length_b   9.24782269
_cell_length_c   12.54720330
_cell_angle_alpha   90.00000000
_cell_angle_beta   89.18398955
_cell_angle_gamma   90.00000000
_symmetry_Int_Tables_number   1
_chemical_formula_structural   Bi2(PO4)3
_chemical_formula_sum   'Bi8 P12 O48'
_cell_volume   1016.54699879
_cell_formula_units_Z   4
loop_
 _symmetry_equiv_pos_site_id
 _symmetry_equiv_pos_as_xyz
  1  'x, y, z'
loop_
 _atom_site_type_symbol
 _atom_site_label
 _atom_site_symmetry_multiplicity
 _atom_site_fract_x
 _atom_site_fract_y
 _atom_site_fract_z
 _atom_site_occupancy
  Bi  Bi0  1  0.74622317  0.03350402  0.38860056  1
  Bi  Bi1  1  0.25377683  0.96649598  0.61139944  1
  Bi  Bi2  1  0.74666626  0.46379568  0.61179085  1
  Bi  Bi3  1  0.25333374  0.53620432  0.38820915  1
  Bi  Bi4  1  0.75377683  0.53350402  0.11139944  1
  Bi  Bi5  1  0.75333374  0.96379568  0.88820915  1
  Bi  Bi6  1  0.24622317  0.46649598  0.88860056  1
  Bi  Bi7  1  0.24666626  0.03620432  0.11179085  1
  P  P8  1  0.04574042  0.25231354  0.50587644  1
  P  P9  1  0.89425838  0.62283472  0.83727535  1
  P  P10  1  0.45425958  0.75231354  0.99412356  1
  P  P11  1  0.61589274  0.39171921  0.35233523  1
  P  P12  1  0.60574162  0.12283472  0.66272465  1
  P  P13  1  0.11589274  0.10828079  0.85233523  1
  P  P14  1  0.38410826  0.60828079  0.64766477  1
  P  P15  1  0.95425958  0.74768646  0.49412356  1
  P  P16  1  0.54574042  0.24768646  0.00587644  1
  P  P17  1  0.39425838  0.87716528  0.33727535  1
  P  P18  1  0.88410726  0.89171921  0.14766477  1
  P  P19  1  0.10574162  0.37716528  0.16272465  1
  O  O20  1  0.76870318  0.94785989  0.06336421  1
  O  O21  1  0.16212797  0.26073568  0.81381623  1
  O  O22  1  0.38639462  0.50311054  0.74226998  1
  O  O23  1  0.09074167  0.36379808  0.41767851  1
  O  O24  1  0.33787203  0.76073568  0.68618377  1
  O  O25  1  0.26870318  0.55214011  0.56336421  1
  O  O26  1  0.11939225  0.21245231  0.19162432  1
  O  O27  1  0.45067829  0.38740102  0.40173990  1
  O  O28  1  0.04932171  0.88740102  0.09826010  1
  O  O29  1  0.54932171  0.61259898  0.59826010  1
  O  O30  1  0.44759743  0.18154542  0.09862279  1
  O  O31  1  0.40925833  0.86379808  0.08232149  1
  O  O32  1  0.12678228  0.39343710  0.04201314  1
  O  O33  1  0.37321772  0.89343710  0.45798686  1
  O  O34  1  0.83787203  0.73926432  0.18618377  1
  O  O35  1  0.69263968  0.30658739  0.05720996  1
  O  O36  1  0.66212797  0.23926432  0.31381623  1
  O  O37  1  0.44418906  0.07534700  0.70009160  1
  O  O38  1  0.05581094  0.57534700  0.79990840  1
  O  O39  1  0.80736032  0.80658739  0.44279004  1
  O  O40  1  0.38060775  0.71245231  0.30837568  1
  O  O41  1  0.73129682  0.44785989  0.43663579  1
  O  O42  1  0.46485502  0.36957705  0.94600153  1
  O  O43  1  0.53514498  0.63042295  0.05399847  1
  O  O44  1  0.03514498  0.86957705  0.55399847  1
  O  O45  1  0.11360538  0.00311054  0.75773002  1
  O  O46  1  0.61360538  0.49688946  0.25773002  1
  O  O47  1  0.55240257  0.81845458  0.90137721  1
  O  O48  1  0.23129682  0.05214011  0.93663579  1
  O  O49  1  0.72864282  0.03007119  0.72058928  1
  O  O50  1  0.95067829  0.11259898  0.90173990  1
  O  O51  1  0.87321772  0.60656290  0.95798686  1
  O  O52  1  0.90925833  0.63620192  0.58232149  1
  O  O53  1  0.55581094  0.92465300  0.29990840  1
  O  O54  1  0.30736032  0.69341261  0.94279004  1
  O  O55  1  0.05240257  0.68154542  0.40137721  1
  O  O56  1  0.27135718  0.96992881  0.27941072  1
  O  O57  1  0.61939225  0.28754769  0.69162432  1
  O  O58  1  0.62678228  0.10656290  0.54201314  1
  O  O59  1  0.77135718  0.53007119  0.77941072  1
  O  O60  1  0.94418906  0.42465300  0.20009160  1
  O  O61  1  0.19263968  0.19341261  0.55720996  1
  O  O62  1  0.94759743  0.31845458  0.59862279  1
  O  O63  1  0.88060775  0.78754769  0.80837568  1
  O  O64  1  0.59074167  0.13620192  0.91767851  1
  O  O65  1  0.22864282  0.46992881  0.22058928  1
  O  O66  1  0.96485502  0.13042295  0.44600153  1
  O  O67  1  0.88639462  0.99688946  0.24226998  1
