# generated using pymatgen
data_LiSn(PO3)4
_symmetry_space_group_name_H-M   'P 1'
_cell_length_a   9.55783308
_cell_length_b   9.55787148
_cell_length_c   9.51758269
_cell_angle_alpha   90.00063168
_cell_angle_beta   90.00078029
_cell_angle_gamma   89.99953478
_symmetry_Int_Tables_number   1
_chemical_formula_structural   LiSn(PO3)4
_chemical_formula_sum   'Li4 Sn4 P16 O48'
_cell_volume   869.45535499
_cell_formula_units_Z   4
loop_
 _symmetry_equiv_pos_site_id
 _symmetry_equiv_pos_as_xyz
  1  'x, y, z'
loop_
 _atom_site_type_symbol
 _atom_site_label
 _atom_site_symmetry_multiplicity
 _atom_site_fract_x
 _atom_site_fract_y
 _atom_site_fract_z
 _atom_site_occupancy
  Li  Li0  1  0.49997609  0.49996867  0.25000559  1
  Li  Li1  1  0.99997872  0.99996956  0.25000256  1
  Li  Li2  1  0.00003434  0.50004499  0.75000438  1
  Li  Li3  1  0.50003192  0.00004314  0.75000367  1
  Sn  Sn4  1  0.24996739  0.25002245  0.24999878  1
  Sn  Sn5  1  0.75006260  0.74993327  0.75000700  1
  Sn  Sn6  1  0.75002562  0.74996919  0.25000207  1
  Sn  Sn7  1  0.24992795  0.25006509  0.74999250  1
  P  P8  1  0.97300590  0.24998813  -0.00000604  1
  P  P9  1  0.24998240  0.97303056  0.50008240  1
  P  P10  1  0.75002216  0.03381886  0.49999574  1
  P  P11  1  0.53381393  0.25003260  0.49999807  1
  P  P12  1  0.52697135  0.25003029  0.99991150  1
  P  P13  1  0.24998134  0.96619494  0.00000088  1
  P  P14  1  0.25001017  0.52699485  0.49999917  1
  P  P15  1  0.47301932  0.74997398  0.50008178  1
  P  P16  1  0.75007137  0.46623073  0.50006542  1
  P  P17  1  0.74999199  0.47299807  0.00001135  1
  P  P18  1  0.02700935  0.75001363  0.50000712  1
  P  P19  1  0.03377903  0.74994110  0.99992543  1
  P  P20  1  0.46618649  0.74997163  0.00000585  1
  P  P21  1  0.75002383  0.02698201  -0.00008112  1
  P  P22  1  0.96623458  0.25006252  0.50006325  1
  P  P23  1  0.24993211  0.53376947  -0.00006857  1
  O  O24  1  0.31365826  0.04990380  0.37847771  1
  O  O25  1  0.31362106  0.45013991  0.62147173  1
  O  O26  1  0.36596742  0.63406640  0.43344360  1
  O  O27  1  0.13917285  0.86079330  0.92772333  1
  O  O28  1  0.32260068  0.04284391  0.88241054  1
  O  O29  1  0.45014973  0.31363778  0.87850549  1
  O  O30  1  0.54285212  0.82258657  0.88241175  1
  O  O31  1  0.95014905  0.68637319  0.37846899  1
  O  O32  1  0.95015075  0.81362328  0.62148661  1
  O  O33  1  0.63921815  0.36083957  0.57226909  1
  O  O34  1  0.45717456  0.32267855  0.38236863  1
  O  O35  1  0.18636028  0.45015873  0.37846549  1
  O  O36  1  0.54986162  0.68635899  0.62149106  1
  O  O37  1  0.18636946  0.04986040  0.62147819  1
  O  O38  1  0.54991115  0.81364863  0.37847900  1
  O  O39  1  0.67741155  0.54291632  0.38236448  1
  O  O40  1  0.04984517  0.18638217  0.87851478  1
  O  O41  1  0.63403483  0.36593874  0.06656203  1
  O  O42  1  0.86086975  0.36087359  0.42771707  1
  O  O43  1  0.13912775  0.63913749  0.07227582  1
  O  O44  1  0.45716962  0.17741378  0.61758806  1
  O  O45  1  0.17735808  0.45716060  0.88239717  1
  O  O46  1  0.68638171  0.54986042  0.87852622  1
  O  O47  1  0.17733254  0.04282795  0.11762933  1
  O  O48  1  0.82264647  0.54285275  0.61760656  1
  O  O49  1  0.13404666  0.63404673  0.56652836  1
  O  O50  1  0.45009734  0.18635855  0.12151410  1
  O  O51  1  0.04986042  0.31363178  0.12152420  1
  O  O52  1  0.36079285  0.63917395  0.92773290  1
  O  O53  1  0.54283213  0.67731889  0.11763826  1
  O  O54  1  0.63405515  0.13405125  0.93343018  1
  O  O55  1  0.95708943  0.82259373  0.11762228  1
  O  O56  1  0.13406902  0.86596555  0.43344465  1
  O  O57  1  0.81362457  0.95013108  0.87851171  1
  O  O58  1  0.04284396  0.32263600  0.61760127  1
  O  O59  1  0.63924236  0.13924336  0.42768965  1
  O  O60  1  0.32258893  0.45709314  0.11763094  1
  O  O61  1  0.04290166  0.17740237  0.38236407  1
  O  O62  1  0.67739571  0.95716315  0.61759367  1
  O  O63  1  0.36595873  0.86594926  0.56656330  1
  O  O64  1  0.86593849  0.13402425  0.06655063  1
  O  O65  1  0.36076987  0.86076080  0.07230663  1
  O  O66  1  0.81363828  0.54985508  0.12154308  1
  O  O67  1  0.86594920  0.36596061  0.93349567  1
  O  O68  1  0.82266457  0.95716259  0.38237176  1
  O  O69  1  0.86082558  0.13920641  0.57226657  1
  O  O70  1  0.68634507  0.95010208  0.12152966  1
  O  O71  1  0.95715449  0.67736082  0.88238595  1
