# generated using pymatgen
data_RbHCO2
_symmetry_space_group_name_H-M   'P 1'
_cell_length_a   4.72613830
_cell_length_b   7.50851169
_cell_length_c   9.38712047
_cell_angle_alpha   90.00000000
_cell_angle_beta   90.00000000
_cell_angle_gamma   90.00000000
_symmetry_Int_Tables_number   1
_chemical_formula_structural   RbHCO2
_chemical_formula_sum   'Rb4 H4 C4 O8'
_cell_volume   333.11384153
_cell_formula_units_Z   4
loop_
 _symmetry_equiv_pos_site_id
 _symmetry_equiv_pos_as_xyz
  1  'x, y, z'
loop_
 _atom_site_type_symbol
 _atom_site_label
 _atom_site_symmetry_multiplicity
 _atom_site_fract_x
 _atom_site_fract_y
 _atom_site_fract_z
 _atom_site_occupancy
  H  H0  1  0.43798449  0.75000000  0.97203350  1
  H  H1  1  0.43798449  0.25000000  0.52796650  1
  H  H2  1  0.56201551  0.75000000  0.47203350  1
  H  H3  1  0.56201551  0.25000000  0.02796650  1
  C  C4  1  0.38333747  0.25000000  0.94989498  1
  C  C5  1  0.38333747  0.75000000  0.55010502  1
  C  C6  1  0.61666253  0.75000000  0.05010502  1
  C  C7  1  0.61666253  0.25000000  0.44989498  1
  O  O8  1  0.13380812  0.25000000  0.00059918  1
  O  O9  1  0.13380812  0.75000000  0.49940082  1
  O  O10  1  0.86619188  0.25000000  0.50059918  1
  O  O11  1  0.86619188  0.75000000  0.99940082  1
  O  O12  1  0.44854746  0.25000000  0.81844644  1
  O  O13  1  0.44854746  0.75000000  0.68155356  1
  O  O14  1  0.55145254  0.75000000  0.18155356  1
  O  O15  1  0.55145254  0.25000000  0.31844644  1
  Rb  Rb16  1  0.93867982  0.50000000  0.75000000  1
  Rb  Rb17  1  0.06132018  0.00000000  0.25000000  1
  Rb  Rb18  1  0.06132018  0.50000000  0.25000000  1
  Rb  Rb19  1  0.93867982  0.00000000  0.75000000  1
