# generated using pymatgen
data_ZnH20Se2(NO7)2
_symmetry_space_group_name_H-M   'P 1'
_cell_length_a   6.51136369
_cell_length_b   9.39710563
_cell_length_c   12.74705598
_cell_angle_alpha   90.00000000
_cell_angle_beta   90.00000000
_cell_angle_gamma   106.43283452
_symmetry_Int_Tables_number   1
_chemical_formula_structural   ZnH20Se2(NO7)2
_chemical_formula_sum   'Zn2 H40 Se4 N4 O28'
_cell_volume   748.10644927
_cell_formula_units_Z   2
loop_
 _symmetry_equiv_pos_site_id
 _symmetry_equiv_pos_as_xyz
  1  'x, y, z'
loop_
 _atom_site_type_symbol
 _atom_site_label
 _atom_site_symmetry_multiplicity
 _atom_site_fract_x
 _atom_site_fract_y
 _atom_site_fract_z
 _atom_site_occupancy
  H  H0  1  0.45527406  0.57227268  0.17944636  1
  H  H1  1  0.05609990  0.76237980  0.59698450  1
  H  H2  1  0.94390010  0.73762020  0.09698450  1
  H  H3  1  0.94390010  0.23762020  0.40301550  1
  H  H4  1  0.19912621  0.06958521  0.32903768  1
  H  H5  1  0.80087379  0.43041479  0.82903768  1
  H  H6  1  0.80087379  0.93041479  0.67096232  1
  H  H7  1  0.19912621  0.56958521  0.17096232  1
  H  H8  1  0.37423970  0.16837703  0.41933827  1
  H  H9  1  0.62576030  0.33162297  0.91933827  1
  H  H10  1  0.62576030  0.83162297  0.58066173  1
  H  H11  1  0.37423970  0.66837703  0.08066173  1
  H  H12  1  0.38898628  0.22981530  0.29352582  1
  H  H13  1  0.61101372  0.27018470  0.79352582  1
  H  H14  1  0.61101372  0.77018470  0.70647418  1
  H  H15  1  0.38898628  0.72981530  0.20647418  1
  H  H16  1  0.45527406  0.07227268  0.32055364  1
  H  H17  1  0.54472594  0.42772732  0.82055364  1
  H  H18  1  0.54472594  0.92772732  0.67944636  1
  H  H19  1  0.89511058  0.74850928  0.87902702  1
  H  H20  1  0.99427034  0.63765047  0.68520606  1
  H  H21  1  0.00572966  0.86234953  0.18520606  1
  H  H22  1  0.00572966  0.36234953  0.31479394  1
  H  H23  1  0.99427034  0.13765047  0.81479394  1
  H  H24  1  0.67954316  0.28480281  0.58480592  1
  H  H25  1  0.32045684  0.21519719  0.08480592  1
  H  H26  1  0.32045684  0.71519719  0.41519408  1
  H  H27  1  0.67954316  0.78480281  0.91519408  1
  H  H28  1  0.89511058  0.24850928  0.62097298  1
  H  H29  1  0.10488942  0.25149072  0.12097298  1
  H  H30  1  0.32381407  0.02461564  0.85850386  1
  H  H31  1  0.67618593  0.47538436  0.35850386  1
  H  H32  1  0.67618593  0.97538436  0.14149614  1
  H  H33  1  0.32381407  0.52461564  0.64149614  1
  H  H34  1  0.33106887  0.90231213  0.94300878  1
  H  H35  1  0.66893113  0.59768787  0.44300878  1
  H  H36  1  0.66893113  0.09768787  0.05699122  1
  H  H37  1  0.33106887  0.40231213  0.55699122  1
  H  H38  1  0.10488942  0.75149072  0.37902702  1
  H  H39  1  0.05609990  0.26237980  0.90301550  1
  N  N40  1  0.35436694  0.13626723  0.34052572  1
  N  N41  1  0.35436694  0.63626723  0.15947428  1
  N  N42  1  0.64563306  0.36373277  0.84052572  1
  N  N43  1  0.64563306  0.86373277  0.65947428  1
  O  O44  1  0.82957152  0.32965769  0.60768107  1
  O  O45  1  0.70706103  0.00349455  0.06673898  1
  O  O46  1  0.70706103  0.50349455  0.43326102  1
  O  O47  1  0.29293897  0.99650545  0.93326102  1
  O  O48  1  0.96840558  0.38659864  0.17949718  1
  O  O49  1  0.03159442  0.11340136  0.67949718  1
  O  O50  1  0.96313077  0.15991653  0.88828043  1
  O  O51  1  0.03686923  0.34008347  0.38828043  1
  O  O52  1  0.03686923  0.84008347  0.11171957  1
  O  O53  1  0.96313077  0.65991653  0.61171957  1
  O  O54  1  0.03159442  0.61340136  0.82050282  1
  O  O55  1  0.96840558  0.88659864  0.32050282  1
  O  O56  1  0.60942265  0.27041919  0.05568238  1
  O  O57  1  0.39057735  0.22958081  0.55568238  1
  O  O58  1  0.17042848  0.17034231  0.10768107  1
  O  O59  1  0.29293897  0.49650545  0.56673898  1
  O  O60  1  0.82957152  0.82965769  0.89231893  1
  O  O61  1  0.39057735  0.72958081  0.94431762  1
  O  O62  1  0.78963240  0.06875140  0.43710486  1
  O  O63  1  0.21036760  0.43124860  0.93710486  1
  O  O64  1  0.21036760  0.93124860  0.56289514  1
  O  O65  1  0.78963240  0.56875140  0.06289514  1
  O  O66  1  0.57591176  0.92197123  0.26666209  1
  O  O67  1  0.42408824  0.57802877  0.76666209  1
  O  O68  1  0.42408824  0.07802877  0.73333791  1
  O  O69  1  0.57591176  0.42197123  0.23333791  1
  O  O70  1  0.60942265  0.77041919  0.44431762  1
  O  O71  1  0.17042848  0.67034231  0.39231893  1
  Zn  Zn72  1  0.00000000  0.00000000  0.00000000  1
  Zn  Zn73  1  0.00000000  0.50000000  0.50000000  1
  Se  Se74  1  0.25974513  0.58652918  0.86748707  1
  Se  Se75  1  0.74025487  0.91347082  0.36748707  1
  Se  Se76  1  0.25974513  0.08652918  0.63251293  1
  Se  Se77  1  0.74025487  0.41347082  0.13251293  1
