# generated using pymatgen
data_MnH6(CO3)2
_symmetry_space_group_name_H-M   'P 1'
_cell_length_a   7.36633919
_cell_length_b   8.94855120
_cell_length_c   9.66996385
_cell_angle_alpha   97.32461219
_cell_angle_beta   90.00000000
_cell_angle_gamma   90.00000000
_symmetry_Int_Tables_number   1
_chemical_formula_structural   MnH6(CO3)2
_chemical_formula_sum   'Mn4 H24 C8 O24'
_cell_volume   632.22375208
_cell_formula_units_Z   4
loop_
 _symmetry_equiv_pos_site_id
 _symmetry_equiv_pos_as_xyz
  1  'x, y, z'
loop_
 _atom_site_type_symbol
 _atom_site_label
 _atom_site_symmetry_multiplicity
 _atom_site_fract_x
 _atom_site_fract_y
 _atom_site_fract_z
 _atom_site_occupancy
  H  H0  1  0.64726668  0.53414178  0.28215707  1
  H  H1  1  0.14726668  0.46585822  0.21784293  1
  H  H2  1  0.35273332  0.46585822  0.71784293  1
  H  H3  1  0.85273332  0.53414178  0.78215707  1
  H  H4  1  0.09772749  0.30334160  0.26074121  1
  H  H5  1  0.40227251  0.30334160  0.76074121  1
  H  H6  1  0.90227251  0.69665840  0.73925879  1
  H  H7  1  0.89701925  0.79484233  0.49291568  1
  H  H8  1  0.71756182  0.06297171  0.77106143  1
  H  H9  1  0.21756182  0.93702829  0.72893857  1
  H  H10  1  0.28243818  0.93702829  0.22893857  1
  H  H11  1  0.78243818  0.06297171  0.27106143  1
  H  H12  1  0.39701925  0.20515767  0.00708432  1
  H  H13  1  0.10298075  0.20515767  0.50708432  1
  H  H14  1  0.60298075  0.79484233  0.99291568  1
  H  H15  1  0.97405506  0.67163038  0.10817434  1
  H  H16  1  0.60853742  0.23090552  0.04114840  1
  H  H17  1  0.89146258  0.23090552  0.54114840  1
  H  H18  1  0.39146258  0.76909448  0.95885160  1
  H  H19  1  0.59772749  0.69665840  0.23925879  1
  H  H20  1  0.52594494  0.67163038  0.60817434  1
  H  H21  1  0.47405506  0.32836962  0.39182566  1
  H  H22  1  0.02594494  0.32836962  0.89182566  1
  H  H23  1  0.10853742  0.76909448  0.45885160  1
  C  C24  1  0.11409987  0.67431685  0.06692924  1
  C  C25  1  0.61409987  0.32568315  0.43307076  1
  C  C26  1  0.88590013  0.32568315  0.93307076  1
  C  C27  1  0.38590013  0.67431685  0.56692924  1
  C  C28  1  0.28433985  0.04096030  0.77835387  1
  C  C29  1  0.21566015  0.04096030  0.27835387  1
  C  C30  1  0.78433985  0.95903970  0.72164613  1
  C  C31  1  0.71566015  0.95903970  0.22164613  1
  O  O32  1  0.33909588  0.78922908  0.50923165  1
  O  O33  1  0.83909588  0.21077092  0.99076835  1
  O  O34  1  0.66090412  0.21077092  0.49076835  1
  O  O35  1  0.16090412  0.78922908  0.00923165  1
  O  O36  1  0.51552715  0.72895087  0.93538928  1
  O  O37  1  0.01552715  0.27104913  0.56461072  1
  O  O38  1  0.48447285  0.27104913  0.06461072  1
  O  O39  1  0.21627310  0.56327568  0.08141773  1
  O  O40  1  0.26122668  0.09060094  0.40268820  1
  O  O41  1  0.23877332  0.09060094  0.90268820  1
  O  O42  1  0.73877332  0.90939906  0.59731180  1
  O  O43  1  0.59905044  0.89690004  0.29244730  1
  O  O44  1  0.09905044  0.10309996  0.20755270  1
  O  O45  1  0.40094956  0.10309996  0.70755270  1
  O  O46  1  0.71627310  0.43672432  0.41858227  1
  O  O47  1  0.76122668  0.90939906  0.09731180  1
  O  O48  1  0.88925577  0.58868712  0.70310490  1
  O  O49  1  0.38925577  0.41131288  0.79689510  1
  O  O50  1  0.11074423  0.41131288  0.29689510  1
  O  O51  1  0.61074423  0.58868712  0.20310490  1
  O  O52  1  0.78372690  0.43672432  0.91858227  1
  O  O53  1  0.28372690  0.56327568  0.58141773  1
  O  O54  1  0.98447285  0.72895087  0.43538928  1
  O  O55  1  0.90094956  0.89690004  0.79244730  1
  Mn  Mn56  1  0.00000000  0.50000000  0.50000000  1
  Mn  Mn57  1  0.50000000  0.50000000  0.00000000  1
  Mn  Mn58  1  0.50000000  0.00000000  0.50000000  1
  Mn  Mn59  1  0.00000000  0.00000000  0.00000000  1
