# generated using pymatgen
data_CoP2O7
_symmetry_space_group_name_H-M   'P 1'
_cell_length_a   6.44678887
_cell_length_b   6.34823777
_cell_length_c   13.36166041
_cell_angle_alpha   78.39980261
_cell_angle_beta   77.38388004
_cell_angle_gamma   99.08186375
_symmetry_Int_Tables_number   1
_chemical_formula_structural   CoP2O7
_chemical_formula_sum   'Co4 P8 O28'
_cell_volume   510.95659516
_cell_formula_units_Z   4
loop_
 _symmetry_equiv_pos_site_id
 _symmetry_equiv_pos_as_xyz
  1  'x, y, z'
loop_
 _atom_site_type_symbol
 _atom_site_label
 _atom_site_symmetry_multiplicity
 _atom_site_fract_x
 _atom_site_fract_y
 _atom_site_fract_z
 _atom_site_occupancy
  Co  Co0  1  0.73662797  0.87479575  0.85083839  1
  Co  Co1  1  0.77283146  0.40813525  0.35426513  1
  Co  Co2  1  0.22716754  0.59186375  0.64573487  1
  Co  Co3  1  0.26337203  0.12520325  0.14916161  1
  P  P4  1  0.22175812  0.74253996  0.86557148  1
  P  P5  1  0.77824188  0.25745904  0.13442852  1
  P  P6  1  0.89352084  0.91375143  0.36359505  1
  P  P7  1  0.76331059  0.58771800  0.56783557  1
  P  P8  1  0.34594651  0.66976810  0.06621092  1
  P  P9  1  0.23668941  0.41228300  0.43216343  1
  P  P10  1  0.10647916  0.08624757  0.63640495  1
  P  P11  1  0.65405349  0.33023190  0.93379008  1
  O  O12  1  0.78536455  0.39076779  0.01778608  1
  O  O13  1  0.76252653  0.17457063  0.87913558  1
  O  O14  1  0.90455923  0.53010913  0.64323133  1
  O  O15  1  0.87109833  0.98620448  0.70229619  1
  O  O16  1  0.23747247  0.82543037  0.12086342  1
  O  O17  1  0.09544077  0.46988987  0.35676967  1
  O  O18  1  0.12890267  0.01379652  0.29770381  1
  O  O19  1  0.03260112  0.85989570  0.87491942  1
  O  O20  1  0.09221355  0.19342766  0.51921559  1
  O  O21  1  0.33049710  0.45171321  0.14341154  1
  O  O22  1  0.23510990  0.90410670  0.62637547  1
  O  O23  1  0.28243289  0.59330319  0.49048510  1
  O  O24  1  0.18731772  0.56861049  0.80169328  1
  O  O25  1  0.58360157  0.77493677  0.00366732  1
  O  O26  1  0.21739447  0.27476597  0.67510862  1
  O  O27  1  0.21463645  0.60923121  0.98221492  1
  O  O28  1  0.44634074  0.35752493  0.37725386  1
  O  O29  1  0.90778545  0.80657334  0.48078341  1
  O  O30  1  0.44579073  0.89586095  0.82048616  1
  O  O31  1  0.55365926  0.64247607  0.62274614  1
  O  O32  1  0.96739888  0.14010330  0.12508158  1
  O  O33  1  0.78260353  0.72523303  0.32489138  1
  O  O34  1  0.41639743  0.22506223  0.99633368  1
  O  O35  1  0.81268328  0.43138851  0.19830572  1
  O  O36  1  0.71756811  0.40669781  0.50951390  1
  O  O37  1  0.76489110  0.09589230  0.37362453  1
  O  O38  1  0.66950290  0.54828779  0.85658846  1
  O  O39  1  0.55420927  0.10414005  0.17951384  1
