# generated using pymatgen
data_HS3N
_symmetry_space_group_name_H-M   'P 1'
_cell_length_a   8.51050045
_cell_length_b   8.79301445
_cell_length_c   13.19236268
_cell_angle_alpha   90.00000000
_cell_angle_beta   90.00000000
_cell_angle_gamma   114.70901617
_symmetry_Int_Tables_number   1
_chemical_formula_structural   HS3N
_chemical_formula_sum   'H8 S24 N8'
_cell_volume   896.83566140
_cell_formula_units_Z   8
loop_
 _symmetry_equiv_pos_site_id
 _symmetry_equiv_pos_as_xyz
  1  'x, y, z'
loop_
 _atom_site_type_symbol
 _atom_site_label
 _atom_site_symmetry_multiplicity
 _atom_site_fract_x
 _atom_site_fract_y
 _atom_site_fract_z
 _atom_site_occupancy
  H  H0  1  0.36053264  0.07625983  0.53976695  1
  H  H1  1  0.13946736  0.42374017  0.53976695  1
  H  H2  1  0.63946736  0.92374017  0.46023305  1
  H  H3  1  0.86053264  0.57625983  0.46023305  1
  H  H4  1  0.58569933  0.36708978  0.92432852  1
  H  H5  1  0.91430067  0.13291022  0.92432852  1
  H  H6  1  0.41430067  0.63291022  0.07567148  1
  H  H7  1  0.08569933  0.86708978  0.07567148  1
  N  N8  1  0.24514746  0.97737816  0.52408231  1
  N  N9  1  0.25485254  0.52262184  0.52408231  1
  N  N10  1  0.75485254  0.02262184  0.47591769  1
  N  N11  1  0.74514746  0.47737816  0.47591769  1
  N  N12  1  0.48850847  0.25212365  0.93993386  1
  N  N13  1  0.01149153  0.24787635  0.93993386  1
  N  N14  1  0.51149153  0.74787635  0.06006614  1
  N  N15  1  0.98850847  0.75212365  0.06006614  1
  S  S16  1  0.66905621  0.46168663  0.59471703  1
  S  S17  1  0.83094379  0.03831337  0.59471703  1
  S  S18  1  0.33094379  0.53831337  0.40528297  1
  S  S19  1  0.16905621  0.96168663  0.40528297  1
  S  S20  1  0.80677368  0.38089223  0.69254036  1
  S  S21  1  0.69322632  0.11910777  0.69254036  1
  S  S22  1  0.19322632  0.61910777  0.30745964  1
  S  S23  1  0.30677368  0.88089223  0.30745964  1
  S  S24  1  0.17518835  0.81647760  0.60822177  1
  S  S25  1  0.32481165  0.68352240  0.60822177  1
  S  S26  1  0.82481165  0.18352240  0.39177823  1
  S  S27  1  0.67518835  0.31647760  0.39177823  1
  S  S28  1  0.38491934  0.30952446  0.15686493  1
  S  S29  1  0.11508066  0.19047554  0.15686493  1
  S  S30  1  0.61508066  0.69047554  0.84313507  1
  S  S31  1  0.88491934  0.80952446  0.84313507  1
  S  S32  1  0.47641168  0.18203105  0.05936401  1
  S  S33  1  0.02358832  0.31796895  0.05936401  1
  S  S34  1  0.52358832  0.81796895  0.94063599  1
  S  S35  1  0.97641168  0.68203105  0.94063599  1
  S  S36  1  0.32123256  0.18015025  0.85637510  1
  S  S37  1  0.17876744  0.31984975  0.85637510  1
  S  S38  1  0.67876744  0.81984975  0.14362490  1
  S  S39  1  0.82123256  0.68015025  0.14362490  1
