# generated using pymatgen
data_CsH3O2
_symmetry_space_group_name_H-M   'P 1'
_cell_length_a   4.38865909
_cell_length_b   4.38865950
_cell_length_c   7.83001726
_cell_angle_alpha   106.27633843
_cell_angle_beta   106.27487610
_cell_angle_gamma   90.00000002
_symmetry_Int_Tables_number   1
_chemical_formula_structural   CsH3O2
_chemical_formula_sum   'Cs2 H6 O4'
_cell_volume   138.45775035
_cell_formula_units_Z   2
loop_
 _symmetry_equiv_pos_site_id
 _symmetry_equiv_pos_as_xyz
  1  'x, y, z'
loop_
 _atom_site_type_symbol
 _atom_site_label
 _atom_site_symmetry_multiplicity
 _atom_site_fract_x
 _atom_site_fract_y
 _atom_site_fract_z
 _atom_site_occupancy
  H  H0  1  0.00000000  0.50000000  0.00000000  1
  H  H1  1  0.00000000  0.50000000  0.50000000  1
  H  H2  1  0.00000000  0.00000000  0.50000000  1
  H  H3  1  0.50000000  0.50000000  0.00000000  1
  H  H4  1  0.12500000  0.37500059  0.74999999  1
  H  H5  1  0.87500000  0.62499941  0.25000001  1
  O  O6  1  0.21058360  0.46056841  0.92116719  1
  O  O7  1  0.78941640  0.53943159  0.07883281  1
  O  O8  1  0.96058361  0.71057693  0.42116722  1
  O  O9  1  0.03941639  0.28942307  0.57883278  1
  Cs  Cs10  1  0.62499999  0.87500005  0.74999998  1
  Cs  Cs11  1  0.37500001  0.12499995  0.25000002  1
