# generated using pymatgen
data_RbB10H9
_symmetry_space_group_name_H-M   'P 1'
_cell_length_a   7.30088936
_cell_length_b   12.71810641
_cell_length_c   19.06721549
_cell_angle_alpha   90.00000000
_cell_angle_beta   90.00000000
_cell_angle_gamma   90.00000000
_symmetry_Int_Tables_number   1
_chemical_formula_structural   RbB10H9
_chemical_formula_sum   'Rb8 B80 H72'
_cell_volume   1770.45746027
_cell_formula_units_Z   8
loop_
 _symmetry_equiv_pos_site_id
 _symmetry_equiv_pos_as_xyz
  1  'x, y, z'
loop_
 _atom_site_type_symbol
 _atom_site_label
 _atom_site_symmetry_multiplicity
 _atom_site_fract_x
 _atom_site_fract_y
 _atom_site_fract_z
 _atom_site_occupancy
  H  H0  1  0.61676815  0.28495312  0.71172404  1
  H  H1  1  0.38323185  0.71504688  0.21172404  1
  H  H2  1  0.88323185  0.78495312  0.71172404  1
  H  H3  1  0.11676815  0.21504688  0.21172404  1
  H  H4  1  0.88851685  0.47543335  0.78426073  1
  H  H5  1  0.11148315  0.52456665  0.28426073  1
  H  H6  1  0.61148315  0.97543335  0.78426073  1
  H  H7  1  0.38851685  0.02456665  0.28426073  1
  H  H8  1  0.28569186  0.28110237  0.79404370  1
  H  H9  1  0.71430814  0.71889763  0.29404370  1
  H  H10  1  0.21430814  0.78110237  0.79404370  1
  H  H11  1  0.78569186  0.21889763  0.29404370  1
  H  H12  1  0.57603476  0.12472469  0.85087744  1
  H  H13  1  0.42396524  0.87527531  0.35087744  1
  H  H14  1  0.92396524  0.62472469  0.85087744  1
  H  H15  1  0.07603476  0.37527531  0.35087744  1
  H  H16  1  0.39687668  0.32917134  0.94709633  1
  H  H17  1  0.60312332  0.67082866  0.44709633  1
  H  H18  1  0.10312332  0.82917134  0.94709633  1
  H  H19  1  0.89687668  0.17082866  0.44709633  1
  H  H20  1  0.47107670  0.49747263  0.80980667  1
  H  H21  1  0.52892330  0.50252737  0.30980667  1
  H  H22  1  0.02892330  0.99747263  0.80980667  1
  H  H23  1  0.97107670  0.00252737  0.30980667  1
  H  H24  1  0.93593251  0.20404415  0.80356035  1
  H  H25  1  0.06406749  0.79595585  0.30356035  1
  H  H26  1  0.56406749  0.70404415  0.80356035  1
  H  H27  1  0.43593251  0.29595585  0.30356035  1
  H  H28  1  0.76625599  0.22812060  0.96949274  1
  H  H29  1  0.23374401  0.77187940  0.46949274  1
  H  H30  1  0.73374401  0.72812060  0.96949274  1
  H  H31  1  0.26625599  0.27187940  0.46949274  1
  H  H32  1  0.69045954  0.49376346  0.94186925  1
  H  H33  1  0.30954046  0.50623654  0.44186925  1
  H  H34  1  0.80954046  0.99376346  0.94186925  1
  H  H35  1  0.19045954  0.00623654  0.44186925  1
  H  H36  1  0.05323795  0.38049895  0.90757490  1
  H  H37  1  0.94676205  0.61950105  0.40757490  1
  H  H38  1  0.44676205  0.88049895  0.90757490  1
  H  H39  1  0.55323795  0.11950105  0.40757490  1
  H  H40  1  0.45327500  0.37789277  0.58870528  1
  H  H41  1  0.54672500  0.62210723  0.08870528  1
  H  H42  1  0.04672500  0.87789277  0.58870528  1
  H  H43  1  0.95327500  0.12210723  0.08870528  1
  H  H44  1  0.57063139  0.55587618  0.69190683  1
  H  H45  1  0.42936861  0.44412382  0.19190683  1
  H  H46  1  0.92936861  0.05587618  0.69190683  1
  H  H47  1  0.07063139  0.94412382  0.19190683  1
  H  H48  1  0.74209437  0.52928464  0.52544488  1
  H  H49  1  0.25790563  0.47071536  0.02544488  1
  H  H50  1  0.75790563  0.02928464  0.52544488  1
  H  H51  1  0.24209437  0.97071536  0.02544488  1
  H  H52  1  0.81608608  0.26432075  0.55536636  1
  H  H53  1  0.18391392  0.73567925  0.05536636  1
  H  H54  1  0.68391392  0.76432075  0.55536636  1
  H  H55  1  0.31608608  0.23567925  0.05536636  1
  H  H56  1  0.92952501  0.63486345  0.64378213  1
  H  H57  1  0.07047499  0.36513655  0.14378213  1
  H  H58  1  0.57047499  0.13486345  0.64378213  1
  H  H59  1  0.42952501  0.86513655  0.14378213  1
  H  H60  1  0.10889197  0.42933263  0.54840389  1
  H  H61  1  0.89110803  0.57066737  0.04840389  1
  H  H62  1  0.39110803  0.92933263  0.54840389  1
  H  H63  1  0.60889197  0.07066737  0.04840389  1
  H  H64  1  0.03572937  0.26300689  0.68749610  1
  H  H65  1  0.96427063  0.73699311  0.18749610  1
  H  H66  1  0.46427063  0.76300689  0.68749610  1
  H  H67  1  0.53572937  0.23699311  0.18749610  1
  H  H68  1  0.22046416  0.47932306  0.70166036  1
  H  H69  1  0.77953584  0.52067694  0.20166036  1
  H  H70  1  0.27953584  0.97932306  0.70166036  1
  H  H71  1  0.72046416  0.02067694  0.20166036  1
  B  B72  1  0.43377302  0.30002647  0.81726043  1
  B  B73  1  0.56622698  0.69997353  0.31726043  1
  B  B74  1  0.06622698  0.80002647  0.81726043  1
  B  B75  1  0.93377302  0.19997353  0.31726043  1
  B  B76  1  0.63991720  0.31027614  0.77800973  1
  B  B77  1  0.36008280  0.68972386  0.27800973  1
  B  B78  1  0.86008280  0.81027614  0.77800973  1
  B  B79  1  0.13991720  0.18972386  0.27800973  1
  B  B80  1  0.60156968  0.21778673  0.84909433  1
  B  B81  1  0.39843032  0.78221327  0.34909433  1
  B  B82  1  0.89843032  0.71778673  0.84909433  1
  B  B83  1  0.10156968  0.28221327  0.34909433  1
  B  B84  1  0.50734830  0.32708602  0.90025886  1
  B  B85  1  0.49265170  0.67291398  0.40025886  1
  B  B86  1  0.99265170  0.82708602  0.90025886  1
  B  B87  1  0.00734830  0.17291398  0.40025886  1
  B  B88  1  0.54282992  0.41766561  0.82851792  1
  B  B89  1  0.45717008  0.58233439  0.32851792  1
  B  B90  1  0.95717008  0.91766561  0.82851792  1
  B  B91  1  0.04282992  0.08233439  0.32851792  1
  B  B92  1  0.83059851  0.26412875  0.83008603  1
  B  B93  1  0.16940149  0.73587125  0.33008603  1
  B  B94  1  0.66940149  0.76412875  0.83008603  1
  B  B95  1  0.33059851  0.23587125  0.33008603  1
  B  B96  1  0.73674527  0.27861191  0.91723601  1
  B  B97  1  0.26325473  0.72138809  0.41723601  1
  B  B98  1  0.76325473  0.77861191  0.91723601  1
  B  B99  1  0.23674527  0.22138809  0.41723601  1
  B  B100  1  0.69578960  0.41940309  0.90297186  1
  B  B101  1  0.30421040  0.58059691  0.40297186  1
  B  B102  1  0.80421040  0.91940309  0.90297186  1
  B  B103  1  0.19578960  0.08059691  0.40297186  1
  B  B104  1  0.78731559  0.40295707  0.81510799  1
  B  B105  1  0.21268441  0.59704293  0.31510799  1
  B  B106  1  0.71268441  0.90295707  0.81510799  1
  B  B107  1  0.28731559  0.09704293  0.31510799  1
  B  B108  1  0.90347585  0.36055473  0.88615964  1
  B  B109  1  0.09652415  0.63944527  0.38615964  1
  B  B110  1  0.59652415  0.86055473  0.88615964  1
  B  B111  1  0.40347585  0.13944527  0.38615964  1
  B  B112  1  0.60324101  0.39857072  0.60987000  1
  B  B113  1  0.39675899  0.60142928  0.10987000  1
  B  B114  1  0.89675899  0.89857072  0.60987000  1
  B  B115  1  0.10324101  0.10142928  0.10987000  1
  B  B116  1  0.67572355  0.49559512  0.66542238  1
  B  B117  1  0.32427645  0.50440488  0.16542238  1
  B  B118  1  0.82427645  0.99559512  0.66542238  1
  B  B119  1  0.17572355  0.00440488  0.16542238  1
  B  B120  1  0.77019494  0.47984352  0.57819532  1
  B  B121  1  0.22980506  0.52015648  0.07819532  1
  B  B122  1  0.72980506  0.97984352  0.57819532  1
  B  B123  1  0.27019494  0.02015648  0.07819532  1
  B  B124  1  0.81090141  0.33938717  0.59354733  1
  B  B125  1  0.18909859  0.66061283  0.09354733  1
  B  B126  1  0.68909859  0.83938717  0.59354733  1
  B  B127  1  0.31090141  0.16061283  0.09354733  1
  B  B128  1  0.71917716  0.35695831  0.68117271  1
  B  B129  1  0.28082284  0.64304169  0.18117271  1
  B  B130  1  0.78082284  0.85695831  0.68117271  1
  B  B131  1  0.21917716  0.14304169  0.18117271  1
  B  B132  1  0.90465287  0.54170942  0.64612411  1
  B  B133  1  0.09534713  0.45829058  0.14612411  1
  B  B134  1  0.59534713  0.04170942  0.64612411  1
  B  B135  1  0.40465287  0.95829058  0.14612411  1
  B  B136  1  -0.00046437  0.43178788  0.59551770  1
  B  B137  1  1.00046437  0.56821212  0.09551770  1
  B  B138  1  0.50046437  0.93178788  0.59551770  1
  B  B139  1  0.49953563  0.06821212  0.09551770  1
  B  B140  1  0.96368176  0.34224979  0.66795730  1
  B  B141  1  0.03631824  0.65775021  0.16795730  1
  B  B142  1  0.53631824  0.84224979  0.66795730  1
  B  B143  1  0.46368176  0.15775021  0.16795730  1
  B  B144  1  0.86634065  0.45006313  0.71785037  1
  B  B145  1  0.13365935  0.54993687  0.21785037  1
  B  B146  1  0.63365935  0.95006313  0.71785037  1
  B  B147  1  0.36634065  0.04993687  0.21785037  1
  B  B148  1  0.07242632  0.46005621  0.67848088  1
  B  B149  1  0.92757368  0.53994379  0.17848088  1
  B  B150  1  0.42757368  0.96005621  0.67848088  1
  B  B151  1  0.57242632  0.03994379  0.17848088  1
  Rb  Rb152  1  0.17022316  0.12656518  0.58066738  1
  Rb  Rb153  1  0.82977684  0.87343482  0.08066738  1
  Rb  Rb154  1  0.32977684  0.62656518  0.58066738  1
  Rb  Rb155  1  0.67022316  0.37343482  0.08066738  1
  Rb  Rb156  1  0.82485626  0.86609091  0.41841974  1
  Rb  Rb157  1  0.17514374  0.13390909  0.91841974  1
  Rb  Rb158  1  0.67514374  0.36609091  0.41841974  1
  Rb  Rb159  1  0.32485626  0.63390909  0.91841974  1
