# generated using pymatgen
data_ZrI2
_symmetry_space_group_name_H-M   'P 1'
_cell_length_a   9.29763958
_cell_length_b   9.29763958
_cell_length_c   9.29763958
_cell_angle_alpha   106.84701430
_cell_angle_beta   106.84701426
_cell_angle_gamma   106.84701427
_symmetry_Int_Tables_number   1
_chemical_formula_structural   ZrI2
_chemical_formula_sum   'Zr6 I12'
_cell_volume   672.14016271
_cell_formula_units_Z   6
loop_
 _symmetry_equiv_pos_site_id
 _symmetry_equiv_pos_as_xyz
  1  'x, y, z'
loop_
 _atom_site_type_symbol
 _atom_site_label
 _atom_site_symmetry_multiplicity
 _atom_site_fract_x
 _atom_site_fract_y
 _atom_site_fract_z
 _atom_site_occupancy
  Zr  Zr0  1  0.91059284  0.97073615  0.73255782  1
  Zr  Zr1  1  0.97073615  0.73255782  0.91059284  1
  Zr  Zr2  1  0.73255782  0.91059284  0.97073615  1
  Zr  Zr3  1  0.08940716  0.02926385  0.26744218  1
  Zr  Zr4  1  0.02926385  0.26744218  0.08940716  1
  Zr  Zr5  1  0.26744218  0.08940716  0.02926385  1
  I  I6  1  0.36688405  0.44106741  0.14201466  1
  I  I7  1  0.14201466  0.36688405  0.44106741  1
  I  I8  1  0.44106741  0.14201466  0.36688405  1
  I  I9  1  0.63311595  0.55893259  0.85798534  1
  I  I10  1  0.85798534  0.63311595  0.55893259  1
  I  I11  1  0.55893259  0.85798534  0.63311595  1
  I  I12  1  0.22277084  0.07564239  0.69523227  1
  I  I13  1  0.07564239  0.69523227  0.22277084  1
  I  I14  1  0.69523227  0.22277084  0.07564239  1
  I  I15  1  0.77722916  0.92435761  0.30476773  1
  I  I16  1  0.92435761  0.30476773  0.77722916  1
  I  I17  1  0.30476773  0.77722916  0.92435761  1
