# generated using pymatgen
data_Ba2As
_symmetry_space_group_name_H-M   'P 1'
_cell_length_a   5.10703821
_cell_length_b   5.10703821
_cell_length_c   9.72430250
_cell_angle_alpha   105.22388792
_cell_angle_beta   105.22388786
_cell_angle_gamma   90.00000002
_symmetry_Int_Tables_number   1
_chemical_formula_structural   Ba2As
_chemical_formula_sum   'Ba4 As2'
_cell_volume   235.49046943
_cell_formula_units_Z   2
loop_
 _symmetry_equiv_pos_site_id
 _symmetry_equiv_pos_as_xyz
  1  'x, y, z'
loop_
 _atom_site_type_symbol
 _atom_site_label
 _atom_site_symmetry_multiplicity
 _atom_site_fract_x
 _atom_site_fract_y
 _atom_site_fract_z
 _atom_site_occupancy
  As  As0  1  0.13224877  0.13224877  0.26449754  1
  As  As1  1  0.86775123  0.86775123  0.73550246  1
  Ba  Ba2  1  0.31593204  0.31593204  0.63186409  1
  Ba  Ba3  1  0.68406796  0.68406796  0.36813591  1
  Ba  Ba4  1  0.50000000  0.00000000  0.00000000  1
  Ba  Ba5  1  0.00000000  0.50000000  0.00000000  1
