# generated using pymatgen
data_CrI2
_symmetry_space_group_name_H-M   'P 1'
_cell_length_a   3.94696658
_cell_length_b   4.40254697
_cell_length_c   7.58960122
_cell_angle_alpha   80.14905462
_cell_angle_beta   74.92847606
_cell_angle_gamma   63.36793306
_symmetry_Int_Tables_number   1
_chemical_formula_structural   CrI2
_chemical_formula_sum   'Cr1 I2'
_cell_volume   113.60747049
_cell_formula_units_Z   1
loop_
 _symmetry_equiv_pos_site_id
 _symmetry_equiv_pos_as_xyz
  1  'x, y, z'
loop_
 _atom_site_type_symbol
 _atom_site_label
 _atom_site_symmetry_multiplicity
 _atom_site_fract_x
 _atom_site_fract_y
 _atom_site_fract_z
 _atom_site_occupancy
  Cr  Cr0  1  0.00000000  0.00000000  0.00000000  1
  I  I1  1  0.72363712  0.77598776  0.77673800  1
  I  I2  1  0.27636288  0.22401224  0.22326200  1
