# generated using pymatgen
data_P4SeO6
_symmetry_space_group_name_H-M   'P 1'
_cell_length_a   6.75631018
_cell_length_b   10.98709220
_cell_length_c   12.37808377
_cell_angle_alpha   109.84403533
_cell_angle_beta   90.00000000
_cell_angle_gamma   90.00000000
_symmetry_Int_Tables_number   1
_chemical_formula_structural   P4SeO6
_chemical_formula_sum   'P16 Se4 O24'
_cell_volume   864.29110662
_cell_formula_units_Z   4
loop_
 _symmetry_equiv_pos_site_id
 _symmetry_equiv_pos_as_xyz
  1  'x, y, z'
loop_
 _atom_site_type_symbol
 _atom_site_label
 _atom_site_symmetry_multiplicity
 _atom_site_fract_x
 _atom_site_fract_y
 _atom_site_fract_z
 _atom_site_occupancy
  O  O0  1  0.08543865  0.31626990  0.04972715  1
  O  O1  1  0.58543865  0.68373010  0.45027285  1
  O  O2  1  0.91456135  0.68373010  0.95027285  1
  O  O3  1  0.41456135  0.31626990  0.54972715  1
  O  O4  1  0.27404533  0.23439999  0.18947766  1
  O  O5  1  0.77404533  0.76560001  0.31052234  1
  O  O6  1  0.72595467  0.76560001  0.81052234  1
  O  O7  1  0.22595467  0.23439999  0.68947766  1
  O  O8  1  0.36688755  0.45117149  0.16913827  1
  O  O9  1  0.86688755  0.54882851  0.33086173  1
  O  O10  1  0.63311245  0.54882851  0.83086173  1
  O  O11  1  0.13311245  0.45117149  0.66913827  1
  O  O12  1  0.41240846  0.33848180  0.95341600  1
  O  O13  1  0.91240846  0.66151820  0.54658400  1
  O  O14  1  0.58759154  0.66151820  0.04658400  1
  O  O15  1  0.08759154  0.33848180  0.45341600  1
  O  O16  1  0.59860422  0.25656503  0.09243379  1
  O  O17  1  0.09860422  0.74343497  0.40756621  1
  O  O18  1  0.40139578  0.74343497  0.90756621  1
  O  O19  1  0.90139578  0.25656503  0.59243379  1
  O  O20  1  0.18146258  0.12329589  0.47290802  1
  O  O21  1  0.68146258  0.87670411  0.02709198  1
  O  O22  1  0.81853742  0.87670411  0.52709198  1
  O  O23  1  0.31853742  0.12329589  0.97290802  1
  P  P24  1  0.46353990  0.33461874  0.21051594  1
  P  P25  1  0.96353990  0.66538126  0.28948406  1
  P  P26  1  0.53646010  0.66538126  0.78948406  1
  P  P27  1  0.03646010  0.33461874  0.71051594  1
  P  P28  1  0.24358244  0.43016179  0.04772547  1
  P  P29  1  0.74358244  0.56983821  0.45227453  1
  P  P30  1  0.75641756  0.56983821  0.95227453  1
  P  P31  1  0.25641756  0.43016179  0.54772547  1
  P  P32  1  0.13559509  0.17751532  0.07143417  1
  P  P33  1  0.63559509  0.82248468  0.42856583  1
  P  P34  1  0.86440491  0.82248468  0.92856583  1
  P  P35  1  0.36440491  0.17751532  0.57143417  1
  P  P36  1  0.51006102  0.20718932  0.96266685  1
  P  P37  1  0.01006102  0.79281068  0.53733315  1
  P  P38  1  0.48993898  0.79281068  0.03733315  1
  P  P39  1  0.98993898  0.20718932  0.46266685  1
  Se  Se40  1  0.70648611  0.11268671  0.83476201  1
  Se  Se41  1  0.20648611  0.88731329  0.66523799  1
  Se  Se42  1  0.29351389  0.88731329  0.16523799  1
  Se  Se43  1  0.79351389  0.11268671  0.33476201  1
