# generated using pymatgen
data_Cr3(P2O7)2
_symmetry_space_group_name_H-M   'P 1'
_cell_length_a   5.91531057
_cell_length_b   7.04445489
_cell_length_c   7.63909821
_cell_angle_alpha   80.87530324
_cell_angle_beta   73.58493879
_cell_angle_gamma   75.27679661
_symmetry_Int_Tables_number   1
_chemical_formula_structural   Cr3(P2O7)2
_chemical_formula_sum   'Cr3 P4 O14'
_cell_volume   294.02698992
_cell_formula_units_Z   1
loop_
 _symmetry_equiv_pos_site_id
 _symmetry_equiv_pos_as_xyz
  1  'x, y, z'
loop_
 _atom_site_type_symbol
 _atom_site_label
 _atom_site_symmetry_multiplicity
 _atom_site_fract_x
 _atom_site_fract_y
 _atom_site_fract_z
 _atom_site_occupancy
  O  O0  1  0.48243408  0.67849686  0.58115295  1
  O  O1  1  0.91488168  0.38414172  0.43332941  1
  O  O2  1  0.66651102  0.68057497  0.87614110  1
  O  O3  1  0.08511832  0.61585828  0.56667059  1
  O  O4  1  0.33348898  0.31942603  0.12385890  1
  O  O5  1  0.23480367  0.17792485  0.87657366  1
  O  O6  1  0.07878029  0.89562955  0.74633750  1
  O  O7  1  0.20292129  0.54659314  0.86804899  1
  O  O8  1  0.92121771  0.10437045  0.25366250  1
  O  O9  1  0.51756492  0.32150314  0.41884705  1
  O  O10  1  0.76519533  0.82207515  0.12342634  1
  O  O11  1  0.61472490  0.31247667  0.80191326  1
  O  O12  1  0.79707871  0.45340686  0.13195101  1
  O  O13  1  0.38527510  0.68752433  0.19808674  1
  P  P14  1  0.21549292  0.69757745  0.68576356  1
  P  P15  1  0.35162173  0.32516909  0.91964934  1
  P  P16  1  0.64837727  0.67483091  0.08035066  1
  P  P17  1  0.78450808  0.30242255  0.31423644  1
  Cr  Cr18  1  0.75797139  0.52823537  0.66778492  1
  Cr  Cr19  1  0.24202861  0.47176463  0.33221408  1
  Cr  Cr20  1  0.00000000  0.00000000  0.00000000  1
