# generated using pymatgen
data_Nd12Zr12O37
_symmetry_space_group_name_H-M   'P 1'
_cell_length_a   7.59590056
_cell_length_b   7.61191060
_cell_length_c   22.92119411
_cell_angle_alpha   59.76027411
_cell_angle_beta   59.70421301
_cell_angle_gamma   59.63400537
_symmetry_Int_Tables_number   1
_chemical_formula_structural   Nd12Zr12O37
_chemical_formula_sum   'Nd12 Zr12 O37'
_cell_volume   930.72098516
_cell_formula_units_Z   1
loop_
 _symmetry_equiv_pos_site_id
 _symmetry_equiv_pos_as_xyz
  1  'x, y, z'
loop_
 _atom_site_type_symbol
 _atom_site_label
 _atom_site_symmetry_multiplicity
 _atom_site_fract_x
 _atom_site_fract_y
 _atom_site_fract_z
 _atom_site_occupancy
  Nd  Nd0  1  0.01070000  0.00103876  0.99575161  1
  Nd  Nd1  1  0.98848886  0.50453062  0.00572178  1
  Nd  Nd2  1  0.99362554  0.99748986  0.16561054  1
  Nd  Nd3  1  0.49938627  0.99907797  0.99520154  1
  Nd  Nd4  1  0.99824434  0.99693912  0.33519346  1
  Nd  Nd5  1  0.00585106  0.49977618  0.33217344  1
  Nd  Nd6  1  0.98936626  0.99127174  0.50037433  1
  Nd  Nd7  1  0.50481170  -0.00104837  0.33333786  1
  Nd  Nd8  1  0.98221403  -0.00149332  0.67519737  1
  Nd  Nd9  1  0.99884056  0.01603474  0.83241083  1
  Nd  Nd10  1  0.99733051  0.49935343  0.66254124  1
  Nd  Nd11  1  0.50237577  1.00106122  0.66829787  1
  O  O12  1  0.12364580  0.12753211  0.04051418  1
  O  O13  1  0.13951283  0.62197653  0.04398212  1
  O  O14  1  0.36740735  0.34480220  0.12418625  1
  O  O15  1  0.12639451  0.12359808  0.37548090  1
  O  O16  1  0.60346108  0.14471028  0.20481466  1
  O  O17  1  0.59778650  0.60612819  0.05212617  1
  O  O18  1  0.40775317  0.43070401  0.27532656  1
  O  O19  1  0.15209756  0.59914810  0.38530416  1
  O  O20  1  0.40868756  0.85241367  0.13926476  1
  O  O21  1  0.15107604  0.59666736  0.53098401  1
  O  O22  1  0.85658279  0.39478245  0.14086507  1
  O  O23  1  0.40776333  0.83955304  0.27788586  1
  O  O24  1  0.59892367  0.15235459  0.38438501  1
  O  O25  1  0.12855872  0.12517132  0.70784936  1
  O  O26  1  0.58680846  0.14790287  0.53709421  1
  O  O27  1  0.84044642  0.42403719  0.27329098  1
  O  O28  1  0.58832014  0.58978193  0.38887349  1
  O  O29  1  0.83700572  0.83710242  0.13912922  1
  O  O30  1  0.15144449  0.14880855  0.86727994  1
  O  O31  1  0.40041114  0.42610225  0.61497726  1
  O  O32  1  0.39757679  0.84164914  0.47826583  1
  O  O33  1  0.83890069  0.39492430  0.48003823  1
  O  O34  1  0.88465779  0.87267735  0.29061186  1
  O  O35  1  0.58995961  0.15403511  0.71962492  1
  O  O36  1  0.38027726  0.83524299  0.61268665  1
  O  O37  1  0.60391802  0.16097944  0.85835162  1
  O  O38  1  0.60234029  0.59968102  0.71373410  1
  O  O39  1  0.85066070  0.38952146  0.61075197  1
  O  O40  1  0.83855151  0.84419334  0.47057997  1
  O  O41  1  0.43728064  0.40953824  0.94333221  1
  O  O42  1  0.40662111  0.82931688  0.80796257  1
  O  O43  1  0.88667460  0.87657656  0.62488827  1
  O  O44  1  0.42561959  0.83531965  0.94391726  1
  O  O45  1  0.85608828  0.42582176  0.79632390  1
  O  O46  1  0.83397835  0.41782537  0.94748910  1
  O  O47  1  0.85000861  0.82572099  0.80308466  1
  O  O48  1  0.87162602  0.88286921  0.95586629  1
  Zr  Zr49  1  0.48736074  0.48242824  0.16533769  1
  Zr  Zr50  1  0.49625851  0.49218053  0.33651113  1
  Zr  Zr51  1  0.49813872  0.00313145  0.16954819  1
  Zr  Zr52  1  0.01768701  0.50149204  0.16177046  1
  Zr  Zr53  1  0.48848839  0.48917789  0.50211592  1
  Zr  Zr54  1  0.49950219  0.50165759  0.66743931  1
  Zr  Zr55  1  0.49848114  0.00097699  0.49969456  1
  Zr  Zr56  1  0.00462420  0.50146574  0.49721471  1
  Zr  Zr57  1  0.49698496  0.50099254  0.83050670  1
  Zr  Zr58  1  0.48394243  0.50535993  0.00681809  1
  Zr  Zr59  1  0.48864633  0.02078799  0.83152436  1
  Zr  Zr60  1  0.99602334  0.49214720  0.83838346  1
