# generated using pymatgen
data_Lu10Ti6O27
_symmetry_space_group_name_H-M   'P 1'
_cell_length_a   7.31527874
_cell_length_b   7.15243263
_cell_length_c   14.21125572
_cell_angle_alpha   59.78186635
_cell_angle_beta   59.55006685
_cell_angle_gamma   60.73370159
_symmetry_Int_Tables_number   1
_chemical_formula_structural   Lu10Ti6O27
_chemical_formula_sum   'Lu10 Ti6 O27'
_cell_volume   525.91160556
_cell_formula_units_Z   1
loop_
 _symmetry_equiv_pos_site_id
 _symmetry_equiv_pos_as_xyz
  1  'x, y, z'
loop_
 _atom_site_type_symbol
 _atom_site_label
 _atom_site_symmetry_multiplicity
 _atom_site_fract_x
 _atom_site_fract_y
 _atom_site_fract_z
 _atom_site_occupancy
  Lu  Lu0  1  0.01893591  0.97095368  0.26957837  1
  Lu  Lu1  1  0.53449962  0.98787584  0.99487435  1
  Lu  Lu2  1  0.98759837  0.51785325  0.23834756  1
  Lu  Lu3  1  0.46876815  0.52530626  0.99030966  1
  Lu  Lu4  1  0.50967123  0.98687316  0.25129797  1
  Lu  Lu5  1  0.99924762  0.48216213  0.76821406  1
  Lu  Lu6  1  0.50967123  0.50085967  0.25129797  1
  Lu  Lu7  1  0.54935010  0.99496139  0.73407409  1
  Lu  Lu8  1  0.52941882  0.48060406  0.50468653  1
  Lu  Lu9  1  0.54935010  0.48754034  0.73407409  1
  O  O10  1  0.09518016  0.65427468  0.04813524  1
  O  O11  1  0.14346305  0.15818862  0.31270443  1
  O  O12  1  0.61350115  0.15663696  0.06391801  1
  O  O13  1  0.14346305  0.57293947  0.31270443  1
  O  O14  1  0.37025851  0.88112759  0.18374315  1
  O  O15  1  0.32351065  0.35124765  0.47785431  1
  O  O16  1  0.97247811  0.07933871  0.86548051  1
  O  O17  1  0.02179549  0.78951230  0.44958995  1
  O  O18  1  0.61361525  0.10362965  0.33956272  1
  O  O19  1  0.61350115  0.60202588  0.06391801  1
  O  O20  1  0.65992132  0.08391905  0.54189857  1
  O  O21  1  0.91311597  0.33836237  0.16923991  1
  O  O22  1  0.36014965  0.37943952  0.69048566  1
  O  O23  1  0.63699569  0.61481275  0.31668941  1
  O  O24  1  0.97247811  0.71722215  0.86548051  1
  O  O25  1  0.32351065  0.86953307  0.47785431  1
  O  O26  1  0.33164327  0.36064687  0.93995094  1
  O  O27  1  0.31583554  0.91440150  0.67768073  1
  O  O28  1  0.66816386  0.11983426  0.79608381  1
  O  O29  1  0.89211018  0.31119610  0.49274881  1
  O  O30  1  0.91311597  0.91004184  0.16923991  1
  O  O31  1  0.65992132  0.67236249  0.54189857  1
  O  O32  1  0.93988257  0.37147870  0.66183789  1
  O  O33  1  0.33164327  0.92780798  0.93995094  1
  O  O34  1  0.63374240  0.62254578  0.81058302  1
  O  O35  1  0.98141007  0.30845768  0.95083729  1
  O  O36  1  0.93988257  0.86496296  0.66183789  1
  Ti  Ti37  1  0.01598798  0.99680286  0.00563418  1
  Ti  Ti38  1  0.02582912  0.00090257  0.49148610  1
  Ti  Ti39  1  0.99532554  0.99882953  0.75350770  1
  Ti  Ti40  1  0.50524012  0.99129177  0.50608817  1
  Ti  Ti41  1  0.01598798  0.47594080  0.00563418  1
  Ti  Ti42  1  0.02582912  0.49029611  0.49148610  1
