# generated using pymatgen
data_Li2Fe(PO4)2
_symmetry_space_group_name_H-M   'P 1'
_cell_length_a   8.15183846
_cell_length_b   5.36536126
_cell_length_c   6.41052947
_cell_angle_alpha   90.00000000
_cell_angle_beta   91.23899524
_cell_angle_gamma   90.00000000
_symmetry_Int_Tables_number   1
_chemical_formula_structural   Li2Fe(PO4)2
_chemical_formula_sum   'Li4 Fe2 P4 O16'
_cell_volume   280.31535278
_cell_formula_units_Z   2
loop_
 _symmetry_equiv_pos_site_id
 _symmetry_equiv_pos_as_xyz
  1  'x, y, z'
loop_
 _atom_site_type_symbol
 _atom_site_label
 _atom_site_symmetry_multiplicity
 _atom_site_fract_x
 _atom_site_fract_y
 _atom_site_fract_z
 _atom_site_occupancy
  Li  Li0  1  0.25334064  0.25000000  0.48714180  1
  Li  Li1  1  0.92581304  0.25000000  0.72844568  1
  Li  Li2  1  0.75231372  0.75000000  0.48887073  1
  Li  Li3  1  0.42560020  0.75000000  0.73025316  1
  Fe  Fe4  1  0.25293112  0.25000000  0.00862788  1
  Fe  Fe5  1  0.75289138  0.75000000  0.00867319  1
  P  P6  1  0.60122486  0.25000000  0.76479363  1
  P  P7  1  0.89597423  0.25000000  0.23247068  1
  P  P8  1  0.39585032  0.75000000  0.23335878  1
  P  P9  1  0.10123364  0.75000000  0.76552726  1
  O  O10  1  0.21697926  0.51679282  0.77072880  1
  O  O11  1  0.98982504  0.75000000  0.95659056  1
  O  O12  1  0.49615883  0.25000000  0.56354210  1
  O  O13  1  0.28686764  0.51288391  0.22843155  1
  O  O14  1  0.78684970  0.48699414  0.22812950  1
  O  O15  1  0.71676778  0.01661810  0.77021592  1
  O  O16  1  0.49668438  0.75000000  0.44083770  1
  O  O17  1  0.99734365  0.25000000  0.43935384  1
  O  O18  1  0.71676778  0.48338190  0.77021592  1
  O  O19  1  0.48959060  0.25000000  0.95557271  1
  O  O20  1  0.21697926  0.98320718  0.77072880  1
  O  O21  1  0.78684970  0.01300586  0.22812950  1
  O  O22  1  0.50903001  0.75000000  0.03973085  1
  O  O23  1  0.00873660  0.25000000  0.03842628  1
  O  O24  1  0.28686764  0.98711609  0.22843155  1
  O  O25  1  0.99545398  0.75000000  0.56523560  1
