# generated using pymatgen
data_CoP2O7
_symmetry_space_group_name_H-M   'P 1'
_cell_length_a   6.96053317
_cell_length_b   8.31063685
_cell_length_c   9.64384236
_cell_angle_alpha   90.00000000
_cell_angle_beta   108.76154965
_cell_angle_gamma   90.00000000
_symmetry_Int_Tables_number   1
_chemical_formula_structural   CoP2O7
_chemical_formula_sum   'Co4 P8 O28'
_cell_volume   528.22034329
_cell_formula_units_Z   4
loop_
 _symmetry_equiv_pos_site_id
 _symmetry_equiv_pos_as_xyz
  1  'x, y, z'
loop_
 _atom_site_type_symbol
 _atom_site_label
 _atom_site_symmetry_multiplicity
 _atom_site_fract_x
 _atom_site_fract_y
 _atom_site_fract_z
 _atom_site_occupancy
  O  O0  1  0.51478151  0.58637852  0.35608966  1
  O  O1  1  0.87642663  0.60996883  0.14691390  1
  O  O2  1  0.87019532  0.95563724  0.14766564  1
  O  O3  1  0.90846426  0.67107831  0.40615136  1
  O  O4  1  0.12357305  0.39003141  0.85308541  1
  O  O5  1  0.12980437  0.04436299  0.85233474  1
  O  O6  1  0.09153543  0.32892192  0.59384796  1
  O  O7  1  0.24069896  0.60268055  0.70441732  1
  O  O8  1  0.12357375  0.10996933  0.35308565  1
  O  O9  1  0.12980506  0.45563775  0.35233498  1
  O  O10  1  0.09153458  0.17107757  0.09384782  1
  O  O11  1  0.48743879  0.21430226  0.89243793  1
  O  O12  1  0.38901649  0.09700650  0.63567104  1
  O  O13  1  0.51478236  0.91362120  0.85608980  1
  O  O14  1  0.24069966  0.89732042  0.20441756  1
  O  O15  1  0.48521818  0.41362171  0.64390966  1
  O  O16  1  0.61098251  0.59700724  0.86432911  1
  O  O17  1  0.87642748  0.89003090  0.64691404  1
  O  O18  1  0.48743794  0.28569723  0.39243779  1
  O  O19  1  0.38901718  0.40299299  0.13567128  1
  O  O20  1  0.75930073  0.39731968  0.29558307  1
  O  O21  1  0.75930158  0.10267981  0.79558321  1
  O  O22  1  0.48521733  0.08637903  0.14390952  1
  O  O23  1  0.61098320  0.90299248  0.36432935  1
  O  O24  1  0.51256090  0.78569797  0.10756139  1
  O  O25  1  0.90846510  0.82892142  0.90615150  1
  O  O26  1  0.87019463  0.54436248  0.64766541  1
  O  O27  1  0.51256175  0.71430301  0.60756153  1
  P  P28  1  0.52760425  0.08056414  0.79365866  1
  P  P29  1  0.47239544  0.91943609  0.20634173  1
  P  P30  1  0.52760495  0.41943535  0.29365890  1
  P  P31  1  0.92422683  0.96338574  0.79825824  1
  P  P32  1  0.07577217  0.46338500  0.70174191  1
  P  P33  1  0.07577286  0.03661449  0.20174215  1
  P  P34  1  0.47239475  0.58056488  0.70634149  1
  P  P35  1  0.92422752  0.53661523  0.29825848  1
  Co  Co36  1  0.71375075  0.77452730  0.00528770  1
  Co  Co37  1  0.71375160  0.72547242  0.50528784  1
  Co  Co38  1  0.28624963  0.27452781  0.49471293  1
  Co  Co39  1  0.28624894  0.22547293  0.99471269  1
