# generated using pymatgen
data_LiCo2(PO4)3
_symmetry_space_group_name_H-M   'P 1'
_cell_length_a   8.50403283
_cell_length_b   8.79900282
_cell_length_c   11.95672156
_cell_angle_alpha   90.00000000
_cell_angle_beta   88.93175358
_cell_angle_gamma   90.00000000
_symmetry_Int_Tables_number   1
_chemical_formula_structural   LiCo2(PO4)3
_chemical_formula_sum   'Li4 Co8 P12 O48'
_cell_volume   894.53021097
_cell_formula_units_Z   4
loop_
 _symmetry_equiv_pos_site_id
 _symmetry_equiv_pos_as_xyz
  1  'x, y, z'
loop_
 _atom_site_type_symbol
 _atom_site_label
 _atom_site_symmetry_multiplicity
 _atom_site_fract_x
 _atom_site_fract_y
 _atom_site_fract_z
 _atom_site_occupancy
  Li  Li0  1  0.81475188  0.21605723  0.18140179  1
  Li  Li1  1  0.31475188  0.28394277  0.68140179  1
  Li  Li2  1  0.18524812  0.78394277  0.81859821  1
  Li  Li3  1  0.68524812  0.71605723  0.31859821  1
  Co  Co4  1  0.75155408  0.53097979  0.10990532  1
  Co  Co5  1  0.74807171  0.97713297  0.88192944  1
  Co  Co6  1  0.24844592  0.46902021  0.89009468  1
  Co  Co7  1  0.24807171  0.52286703  0.38192944  1
  Co  Co8  1  0.25192829  0.02286703  0.11807056  1
  Co  Co9  1  0.74844592  0.03097979  0.39009468  1
  Co  Co10  1  0.25155408  0.96902021  0.60990532  1
  Co  Co11  1  0.75192829  0.47713297  0.61807056  1
  P  P12  1  0.88520160  0.89225054  0.14778284  1
  P  P13  1  0.38926782  0.88196179  0.35231065  1
  P  P14  1  0.88926782  0.61803821  0.85231065  1
  P  P15  1  0.61479840  0.39225054  0.35221716  1
  P  P16  1  0.53719960  0.24948558  0.00969199  1
  P  P17  1  0.38520160  0.60774946  0.64778284  1
  P  P18  1  0.61073218  0.11803821  0.64768935  1
  P  P19  1  0.11479840  0.10774946  0.85221716  1
  P  P20  1  0.03719960  0.25051442  0.50969199  1
  P  P21  1  0.11073218  0.38196179  0.14768935  1
  P  P22  1  0.96280040  0.74948558  0.49030801  1
  P  P23  1  0.46280040  0.75051442  0.99030801  1
  O  O24  1  0.14331673  0.99086244  0.75664046  1
  O  O25  1  0.18113515  0.18123066  0.56761378  1
  O  O26  1  0.64597251  0.07319307  0.52407603  1
  O  O27  1  0.79999202  0.95452412  0.04448274  1
  O  O28  1  0.29999202  0.54547588  0.54448274  1
  O  O29  1  0.35402749  0.92680693  0.47592397  1
  O  O30  1  0.56374433  0.91476829  0.32496754  1
  O  O31  1  0.59473025  0.13464909  0.91960877  1
  O  O32  1  0.86941213  0.79203667  0.83860185  1
  O  O33  1  0.72300877  0.02965897  0.72294759  1
  O  O34  1  0.06374433  0.58523171  0.82496754  1
  O  O35  1  0.44129025  0.37008939  0.94960609  1
  O  O36  1  0.35668327  0.49086244  0.74335954  1
  O  O37  1  0.85668327  0.00913756  0.24335954  1
  O  O38  1  0.67501517  0.23552021  0.31724676  1
  O  O39  1  0.09473025  0.36535091  0.41960877  1
  O  O40  1  0.06380933  0.88658038  0.11579054  1
  O  O41  1  0.27699123  0.97034103  0.27705241  1
  O  O42  1  0.36941213  0.70796333  0.33860185  1
  O  O43  1  0.85402749  0.57319307  0.97592397  1
  O  O44  1  0.40526975  0.86535091  0.08039123  1
  O  O45  1  0.43625567  0.08523171  0.67503246  1
  O  O46  1  0.93668582  0.33691554  0.59831927  1
  O  O47  1  0.93625567  0.41476829  0.17503246  1
  O  O48  1  0.68113515  0.31876934  0.06761378  1
  O  O49  1  0.22300877  0.47034103  0.22294759  1
  O  O50  1  0.13058787  0.20796333  0.16139815  1
  O  O51  1  0.56331418  0.83691554  0.90168073  1
  O  O52  1  0.56380933  0.61341962  0.61579054  1
  O  O53  1  0.32498483  0.76447979  0.68275324  1
  O  O54  1  0.05870975  0.87008939  0.55039391  1
  O  O55  1  0.31886485  0.68123066  0.93238622  1
  O  O56  1  0.90526975  0.63464909  0.58039123  1
  O  O57  1  0.81886485  0.81876934  0.43238622  1
  O  O58  1  0.82498483  0.73552021  0.18275324  1
  O  O59  1  0.14597251  0.42680693  0.02407603  1
  O  O60  1  0.43619067  0.38658038  0.38420946  1
  O  O61  1  0.70000798  0.45452412  0.45551726  1
  O  O62  1  0.94129025  0.12991061  0.44960609  1
  O  O63  1  0.17501517  0.26447979  0.81724676  1
  O  O64  1  0.43668582  0.16308446  0.09831927  1
  O  O65  1  0.20000798  0.04547588  0.95551726  1
  O  O66  1  0.64331673  0.50913756  0.25664046  1
  O  O67  1  0.06331418  0.66308446  0.40168073  1
  O  O68  1  0.93619067  0.11341962  0.88420946  1
  O  O69  1  0.63058787  0.29203667  0.66139815  1
  O  O70  1  0.55870975  0.62991061  0.05039391  1
  O  O71  1  0.77699123  0.52965897  0.77705241  1
