# generated using pymatgen
data_Ga41N11O45
_symmetry_space_group_name_H-M   'P 1'
_cell_length_a   5.94373152
_cell_length_b   5.94373154
_cell_length_c   41.66227859
_cell_angle_alpha   60.05736870
_cell_angle_beta   60.05736863
_cell_angle_gamma   60.11452849
_symmetry_Int_Tables_number   1
_chemical_formula_structural   Ga41N11O45
_chemical_formula_sum   'Ga41 N11 O45'
_cell_volume   1042.55165176
_cell_formula_units_Z   1
loop_
 _symmetry_equiv_pos_site_id
 _symmetry_equiv_pos_as_xyz
  1  'x, y, z'
loop_
 _atom_site_type_symbol
 _atom_site_label
 _atom_site_symmetry_multiplicity
 _atom_site_fract_x
 _atom_site_fract_y
 _atom_site_fract_z
 _atom_site_occupancy
  Ga  Ga0  1  0.12849097  0.12849097  0.01825234  1
  Ga  Ga1  1  0.50550068  0.50550068  1.00018641  1
  Ga  Ga2  1  0.50367235  0.98993391  0.07480728  1
  Ga  Ga3  1  0.12261315  0.12261315  0.16403282  1
  Ga  Ga4  1  0.49940187  0.49940187  0.07421602  1
  Ga  Ga5  1  0.50623880  0.99202079  0.21573050  1
  Ga  Ga6  1  0.12516108  0.12516108  0.30048043  1
  Ga  Ga7  1  0.51807106  0.51807106  0.14915542  1
  Ga  Ga8  1  0.98993391  0.50367235  0.07480728  1
  Ga  Ga9  1  0.50985192  0.99543284  0.35653116  1
  Ga  Ga10  1  0.86931728  0.86931728  0.12714299  1
  Ga  Ga11  1  0.12863273  0.12863273  0.44591498  1
  Ga  Ga12  1  0.49853175  0.49853175  0.27941347  1
  Ga  Ga13  1  0.99202079  0.50623880  0.21573050  1
  Ga  Ga14  1  0.98784056  0.51922382  0.49889809  1
  Ga  Ga15  1  0.50386698  0.50386698  0.35479991  1
  Ga  Ga16  1  0.87262478  0.87262478  0.26479153  1
  Ga  Ga17  1  0.50663505  0.50663505  0.42623622  1
  Ga  Ga18  1  0.51922382  0.98784056  0.49889809  1
  Ga  Ga19  1  0.13210952  0.13210952  0.58787133  1
  Ga  Ga20  1  0.99543284  0.50985192  0.35653116  1
  Ga  Ga21  1  0.50873053  0.50873053  0.49832646  1
  Ga  Ga22  1  0.98772126  0.51894818  0.64216383  1
  Ga  Ga23  1  0.51894818  0.98772126  0.64216383  1
  Ga  Ga24  1  0.86112359  0.86112359  0.41107224  1
  Ga  Ga25  1  0.13161238  0.13161238  0.73107012  1
  Ga  Ga26  1  0.50793078  0.50793078  0.56960125  1
  Ga  Ga27  1  0.50797967  0.50797967  0.64170425  1
  Ga  Ga28  1  0.85985865  0.85985865  0.55533684  1
  Ga  Ga29  1  0.51837213  0.98702244  0.78535699  1
  Ga  Ga30  1  0.13124762  0.13124762  0.87407411  1
  Ga  Ga31  1  0.50750065  0.50750065  0.71277574  1
  Ga  Ga32  1  0.50740110  0.50740110  0.78486114  1
  Ga  Ga33  1  0.51687474  0.98696582  0.92869227  1
  Ga  Ga34  1  0.85950266  0.85950266  0.69856943  1
  Ga  Ga35  1  0.50668207  0.50668207  0.85596361  1
  Ga  Ga36  1  0.98702244  0.51837213  0.78535699  1
  Ga  Ga37  1  0.50610443  0.50610443  0.92822024  1
  Ga  Ga38  1  0.85836019  0.85836019  0.84194160  1
  Ga  Ga39  1  0.98696582  0.51687474  0.92869227  1
  Ga  Ga40  1  0.86415640  0.86415640  0.98294033  1
  N  N41  1  0.74385925  0.74385925  0.10603103  1
  N  N42  1  0.73145562  0.73145562  0.24993761  1
  N  N43  1  0.73597157  0.73597157  0.39076461  1
  N  N44  1  0.74012255  0.74012255  0.46715344  1
  N  N45  1  0.73811666  0.73811666  0.53448235  1
  N  N46  1  0.73833849  0.73833849  0.61102644  1
  N  N47  1  0.73771499  0.73771499  0.67778990  1
  N  N48  1  0.73763275  0.73763275  0.75426442  1
  N  N49  1  0.73695556  0.73695556  0.82103174  1
  N  N50  1  0.73635955  0.73635955  0.89772095  1
  N  N51  1  0.73618524  0.73618524  0.96431226  1
  O  O52  1  0.26452581  0.26452581  0.03644437  1
  O  O53  1  0.26491006  0.26491006  0.10299731  1
  O  O54  1  0.25809167  0.73292568  0.03666732  1
  O  O55  1  0.73292568  0.25809167  0.03666732  1
  O  O56  1  0.26974344  0.26974344  0.17825988  1
  O  O57  1  0.27042370  0.75586658  0.10331817  1
  O  O58  1  0.75586658  0.27042370  0.10331817  1
  O  O59  1  0.24931995  0.24931995  0.24708015  1
  O  O60  1  0.74194134  0.74194134  0.03907187  1
  O  O61  1  0.23829694  0.74804662  0.17788305  1
  O  O62  1  0.74804662  0.23829694  0.17788305  1
  O  O63  1  0.25444364  0.25444364  0.32346129  1
  O  O64  1  0.24944835  0.76038754  0.25150101  1
  O  O65  1  0.76038754  0.24944835  0.25150101  1
  O  O66  1  0.25521465  0.25521465  0.39001485  1
  O  O67  1  0.75497625  0.75497625  0.18035030  1
  O  O68  1  0.25151055  0.72570113  0.32397886  1
  O  O69  1  0.72570113  0.25151055  0.32397886  1
  O  O70  1  0.26175655  0.26175655  0.46502511  1
  O  O71  1  0.26596183  0.73738953  0.39139018  1
  O  O72  1  0.73738953  0.26596183  0.39139018  1
  O  O73  1  0.26191498  0.26191498  0.53117279  1
  O  O74  1  0.25727713  0.73244276  0.46468266  1
  O  O75  1  0.73673354  0.73673354  0.32460103  1
  O  O76  1  0.73244276  0.25727713  0.46468266  1
  O  O77  1  0.26185542  0.73894264  0.53528419  1
  O  O78  1  0.26224837  0.26224837  0.60793906  1
  O  O79  1  0.73894264  0.26185542  0.53528419  1
  O  O80  1  0.26202987  0.26202987  0.67416932  1
  O  O81  1  0.25696840  0.73462782  0.60760608  1
  O  O82  1  0.73462782  0.25696840  0.60760608  1
  O  O83  1  0.26171692  0.26171692  0.75107687  1
  O  O84  1  0.26099885  0.73842762  0.67858946  1
  O  O85  1  0.73842762  0.26099885  0.67858946  1
  O  O86  1  0.26165450  0.26165450  0.81719928  1
  O  O87  1  0.25624060  0.73436283  0.75075105  1
  O  O88  1  0.73436283  0.25624060  0.75075105  1
  O  O89  1  0.26115111  0.26115111  0.89413666  1
  O  O90  1  0.26001424  0.73778712  0.82179011  1
  O  O91  1  0.73778712  0.26001424  0.82179011  1
  O  O92  1  0.26171641  0.26171641  0.96034422  1
  O  O93  1  0.25539685  0.73420091  0.89389434  1
  O  O94  1  0.73420091  0.25539685  0.89389434  1
  O  O95  1  0.25912914  0.73930073  0.96493523  1
  O  O96  1  0.73930073  0.25912914  0.96493523  1
