# generated using pymatgen
data_H9C3N3O2
_symmetry_space_group_name_H-M   'P 1'
_cell_length_a   7.00514198
_cell_length_b   7.38468637
_cell_length_c   12.07735858
_cell_angle_alpha   90.00000000
_cell_angle_beta   90.00000000
_cell_angle_gamma   90.00000000
_symmetry_Int_Tables_number   1
_chemical_formula_structural   H9C3N3O2
_chemical_formula_sum   'H36 C12 N12 O8'
_cell_volume   624.77113741
_cell_formula_units_Z   4
loop_
 _symmetry_equiv_pos_site_id
 _symmetry_equiv_pos_as_xyz
  1  'x, y, z'
loop_
 _atom_site_type_symbol
 _atom_site_label
 _atom_site_symmetry_multiplicity
 _atom_site_fract_x
 _atom_site_fract_y
 _atom_site_fract_z
 _atom_site_occupancy
  H  H0  1  0.87508309  0.55686765  0.55415978  1
  H  H1  1  0.16967907  0.22990875  0.57021154  1
  H  H2  1  0.37508309  0.94313235  0.44584022  1
  H  H3  1  0.19188574  0.89203936  0.22512860  1
  H  H4  1  0.83032093  0.72990875  0.92978846  1
  H  H5  1  0.73344427  0.87894868  0.63454127  1
  H  H6  1  0.23344427  0.62105132  0.36545873  1
  H  H7  1  0.59600280  0.38791820  0.55100403  1
  H  H8  1  0.30811426  0.10796064  0.72512860  1
  H  H9  1  0.93571293  0.50981375  0.91918948  1
  H  H10  1  0.61813756  0.78775670  0.19882160  1
  H  H11  1  0.38186244  0.28775670  0.30117840  1
  H  H12  1  0.05385969  0.41846260  0.24373826  1
  H  H13  1  0.56428707  0.49018625  0.41918948  1
  H  H14  1  0.44614031  0.58153740  0.74373826  1
  H  H15  1  0.76655573  0.12105132  0.13454127  1
  H  H16  1  0.40399720  0.88791820  0.94899597  1
  H  H17  1  0.26655573  0.37894868  0.86545873  1
  H  H18  1  0.12491691  0.05686765  0.94584022  1
  H  H19  1  0.90399720  0.61208180  0.05100403  1
  H  H20  1  0.06428707  0.00981375  0.58081052  1
  H  H21  1  0.17987946  0.59563012  0.50723685  1
  H  H22  1  0.09600280  0.11208180  0.44899597  1
  H  H23  1  0.82012054  0.09563012  0.99276315  1
  H  H24  1  0.88186244  0.21224330  0.69882160  1
  H  H25  1  0.66967907  0.27009125  0.42978846  1
  H  H26  1  0.32012054  0.40436988  0.00723685  1
  H  H27  1  0.43571293  0.99018625  0.08081052  1
  H  H28  1  0.67987946  0.90436988  0.49276315  1
  H  H29  1  0.33032093  0.77009125  0.07021154  1
  H  H30  1  0.11813756  0.71224330  0.80117840  1
  H  H31  1  0.94614031  0.91846260  0.25626174  1
  H  H32  1  0.69188574  0.60796064  0.77487140  1
  H  H33  1  0.62491691  0.44313235  0.05415978  1
  H  H34  1  0.55385969  0.08153740  0.75626174  1
  H  H35  1  0.80811426  0.39203936  0.27487140  1
  C  C36  1  0.52317548  0.50387097  0.90074721  1
  C  C37  1  0.41190096  0.33332067  0.21490346  1
  C  C38  1  0.91190096  0.16667933  0.78509654  1
  C  C39  1  0.47682452  0.00387097  0.59925279  1
  C  C40  1  0.65995401  0.40424615  0.46881097  1
  C  C41  1  0.15995401  0.09575385  0.53118903  1
  C  C42  1  0.84004599  0.59575385  0.96881097  1
  C  C43  1  0.97682452  0.49612903  0.40074721  1
  C  C44  1  0.58809904  0.83332067  0.28509654  1
  C  C45  1  0.08809904  0.66667933  0.71490346  1
  C  C46  1  0.34004599  0.90424615  0.03118903  1
  C  C47  1  0.02317548  0.99612903  0.09925279  1
  N  N48  1  0.35118548  0.43315085  0.92550480  1
  N  N49  1  0.05844146  0.93379927  0.20130426  1
  N  N50  1  0.94155854  0.43379927  0.29869574  1
  N  N51  1  0.64881452  0.93315085  0.57449520  1
  N  N52  1  0.14881452  0.56684915  0.42550480  1
  N  N53  1  0.65293033  0.51488467  0.98199106  1
  N  N54  1  0.85118548  0.06684915  0.07449520  1
  N  N55  1  0.44155854  0.06620073  0.70130426  1
  N  N56  1  0.84706967  0.48511533  0.48199106  1
  N  N57  1  0.15293033  0.98511533  0.01800894  1
  N  N58  1  0.55844146  0.56620073  0.79869574  1
  N  N59  1  0.34706967  0.01488467  0.51800894  1
  O  O60  1  0.72875951  0.88820900  0.34163496  1
  O  O61  1  0.08523982  0.17448101  0.81695770  1
  O  O62  1  0.58523982  0.32551899  0.18304230  1
  O  O63  1  0.41476018  0.82551899  0.31695770  1
  O  O64  1  0.91476018  0.67448101  0.68304230  1
  O  O65  1  0.77124049  0.11179100  0.84163496  1
  O  O66  1  0.27124049  0.38820900  0.15836504  1
  O  O67  1  0.22875951  0.61179100  0.65836504  1
