# generated using pymatgen
data_K2CoF4
_symmetry_space_group_name_H-M   'P 1'
_cell_length_a   4.12522579
_cell_length_b   4.12522573
_cell_length_c   7.22412744
_cell_angle_alpha   106.58977570
_cell_angle_beta   106.58977543
_cell_angle_gamma   90.00000014
_symmetry_Int_Tables_number   1
_chemical_formula_structural   K2CoF4
_chemical_formula_sum   'K2 Co1 F4'
_cell_volume   112.46907175
_cell_formula_units_Z   1
loop_
 _symmetry_equiv_pos_site_id
 _symmetry_equiv_pos_as_xyz
  1  'x, y, z'
loop_
 _atom_site_type_symbol
 _atom_site_label
 _atom_site_symmetry_multiplicity
 _atom_site_fract_x
 _atom_site_fract_y
 _atom_site_fract_z
 _atom_site_occupancy
  K  K0  1  0.35524441  0.35524441  0.71048883  1
  K  K1  1  0.64475559  0.64475559  0.28951117  1
  Co  Co2  1  0.00000000  0.00000000  0.00000000  1
  F  F3  1  0.50000000  0.00000000  0.00000000  1
  F  F4  1  0.00000000  0.50000000  0.00000000  1
  F  F5  1  0.84583675  0.84583675  0.69167249  1
  F  F6  1  0.15416325  0.15416325  0.30832751  1
