# generated using pymatgen
data_Li2Cu5(Si2O7)2
_symmetry_space_group_name_H-M   'P 1'
_cell_length_a   5.54051919
_cell_length_b   7.54979544
_cell_length_c   7.87552570
_cell_angle_alpha   115.11471292
_cell_angle_beta   89.86214085
_cell_angle_gamma   106.75080895
_symmetry_Int_Tables_number   1
_chemical_formula_structural   Li2Cu5(Si2O7)2
_chemical_formula_sum   'Li2 Si4 Cu5 O14'
_cell_volume   282.88476209
_cell_formula_units_Z   1
loop_
 _symmetry_equiv_pos_site_id
 _symmetry_equiv_pos_as_xyz
  1  'x, y, z'
loop_
 _atom_site_type_symbol
 _atom_site_label
 _atom_site_symmetry_multiplicity
 _atom_site_fract_x
 _atom_site_fract_y
 _atom_site_fract_z
 _atom_site_occupancy
  Li  Li0  1  0.76241510  0.88763443  0.55127517  1
  Li  Li1  1  0.23757680  0.11237775  0.44872563  1
  Si  Si2  1  0.80196486  0.21405695  0.40332293  1
  Cu  Cu3  1  0.07939698  0.38800738  0.81460888  1
  Cu  Cu4  1  0.92067252  0.61213134  0.18547404  1
  Cu  Cu5  1  0.32943003  0.42821332  0.28556905  1
  Cu  Cu6  1  0.67053056  0.57177745  0.71438419  1
  Cu  Cu7  1  0.00003104  -0.00018172  1.00001006  1
  Si  Si8  1  0.49479417  0.22839008  0.86024095  1
  Si  Si9  1  0.50520887  0.77162127  0.13975609  1
  Si  Si10  1  0.19804164  0.78594608  0.59667548  1
  O  O11  1  0.10120990  0.82514692  0.42297523  1
  O  O12  1  0.69648488  0.77396587  0.98003376  1
  O  O13  1  0.40943933  0.33743450  0.73522239  1
  O  O14  1  0.96823033  0.81215436  0.73418317  1
  O  O15  1  0.46137994  0.98508403  0.71572103  1
  O  O16  1  0.59054740  0.66256854  0.26476037  1
  O  O17  1  0.28974430  0.58586019  0.54373976  1
  O  O18  1  0.71023992  0.41414824  0.45623946  1
  O  O19  1  0.03178357  0.18782376  0.26580019  1
  O  O20  1  0.30347181  0.22600581  0.01995001  1
  O  O21  1  0.78976128  0.35033449  0.96067743  1
  O  O22  1  0.89878640  0.17488668  0.57705156  1
  O  O23  1  0.21024851  0.64970829  0.03933978  1
  O  O24  1  0.53860987  0.01490402  0.28426336  1
