# generated using pymatgen
data_HgSb4C2(OF11)2
_symmetry_space_group_name_H-M   'P 1'
_cell_length_a   7.77514438
_cell_length_b   9.99828839
_cell_length_c   14.31770245
_cell_angle_alpha   90.00000000
_cell_angle_beta   90.00000000
_cell_angle_gamma   111.09155404
_symmetry_Int_Tables_number   1
_chemical_formula_structural   HgSb4C2(OF11)2
_chemical_formula_sum   'Hg2 Sb8 C4 O4 F44'
_cell_volume   1038.46572321
_cell_formula_units_Z   2
loop_
 _symmetry_equiv_pos_site_id
 _symmetry_equiv_pos_as_xyz
  1  'x, y, z'
loop_
 _atom_site_type_symbol
 _atom_site_label
 _atom_site_symmetry_multiplicity
 _atom_site_fract_x
 _atom_site_fract_y
 _atom_site_fract_z
 _atom_site_occupancy
  Hg  Hg0  1  0.50000000  0.00000000  0.00000000  1
  Hg  Hg1  1  0.00000000  0.50000000  0.50000000  1
  Sb  Sb2  1  0.46918232  0.25136932  0.41730536  1
  Sb  Sb3  1  0.17351293  0.86707326  0.72655260  1
  Sb  Sb4  1  0.96918232  0.75136932  0.08269464  1
  Sb  Sb5  1  0.67351293  0.36707326  0.77344740  1
  Sb  Sb6  1  0.82648707  0.13292674  0.27344740  1
  Sb  Sb7  1  0.03081768  0.24863068  0.91730536  1
  Sb  Sb8  1  0.53081768  0.74863068  0.58269464  1
  Sb  Sb9  1  0.32648707  0.63292674  0.22655260  1
  C  C10  1  0.50407046  0.80872371  0.93924001  1
  C  C11  1  0.00407046  0.30872371  0.56075999  1
  C  C12  1  0.49592954  0.19127629  0.06075999  1
  C  C13  1  0.99592954  0.69127629  0.43924001  1
  O  O14  1  0.50310911  0.70889298  0.90209305  1
  O  O15  1  0.99689089  0.79110702  0.40209305  1
  O  O16  1  0.49689089  0.29110702  0.09790695  1
  O  O17  1  0.00310911  0.20889298  0.59790695  1
  F  F18  1  0.26973972  0.07614935  0.43417386  1
  F  F19  1  0.22327246  0.04368887  0.66493744  1
  F  F20  1  0.30476867  0.58574224  0.60239509  1
  F  F21  1  0.76973972  0.57614935  0.06582614  1
  F  F22  1  0.69523133  0.41425776  0.39760491  1
  F  F23  1  0.90821688  0.36957520  0.84506253  1
  F  F24  1  0.19523133  0.91425776  0.10239509  1
  F  F25  1  0.59278767  0.21721971  0.52454287  1
  F  F26  1  0.17051427  0.69054964  0.77603724  1
  F  F27  1  0.09178312  0.63042480  0.15493747  1
  F  F28  1  0.03393953  0.12803727  0.20764387  1
  F  F29  1  0.61395443  0.71651485  0.70146264  1
  F  F30  1  0.46606047  0.37196273  0.70764387  1
  F  F31  1  0.72327246  0.54368887  0.83506256  1
  F  F32  1  0.45889156  0.73325905  0.11887215  1
  F  F33  1  0.90721233  0.28278029  0.02454287  1
  F  F34  1  0.95889156  0.23325905  0.38112785  1
  F  F35  1  0.40721233  0.78278029  0.47545713  1
  F  F36  1  0.73026028  0.92385065  0.56582614  1
  F  F37  1  0.27672754  0.45631113  0.16493744  1
  F  F38  1  0.32948573  0.80945036  0.27603724  1
  F  F39  1  0.40821688  0.86957520  0.65493747  1
  F  F40  1  0.84268927  0.46091652  0.67420408  1
  F  F41  1  0.11395443  0.21651485  0.79853736  1
  F  F42  1  0.04110844  0.76674095  0.61887215  1
  F  F43  1  0.80476867  0.08574224  0.89760491  1
  F  F44  1  0.84955266  0.86043723  0.01874184  1
  F  F45  1  0.82948573  0.30945036  0.22396276  1
  F  F46  1  0.65044734  0.63956277  0.51874184  1
  F  F47  1  0.54110844  0.26674095  0.88112785  1
  F  F48  1  0.15731073  0.53908348  0.32579592  1
  F  F49  1  0.38604557  0.28348515  0.29853736  1
  F  F50  1  0.77672754  0.95631113  0.33506256  1
  F  F51  1  0.96606047  0.87196273  0.79235613  1
  F  F52  1  0.65731073  0.03908348  0.17420408  1
  F  F53  1  0.88604557  0.78348515  0.20146264  1
  F  F54  1  0.23026028  0.42385065  0.93417386  1
  F  F55  1  0.59178312  0.13042480  0.34506253  1
  F  F56  1  0.09278767  0.71721971  0.97545713  1
  F  F57  1  0.15044734  0.13956277  0.98125816  1
  F  F58  1  0.53393953  0.62803727  0.29235613  1
  F  F59  1  0.67051427  0.19054964  0.72396276  1
  F  F60  1  0.34955266  0.36043723  0.48125816  1
  F  F61  1  0.34268927  0.96091652  0.82579592  1
