# generated using pymatgen
data_SbSe2S(NF3)2
_symmetry_space_group_name_H-M   'P 1'
_cell_length_a   10.18365715
_cell_length_b   10.81716921
_cell_length_c   16.97579612
_cell_angle_alpha   90.00000000
_cell_angle_beta   90.00000000
_cell_angle_gamma   97.73047768
_symmetry_Int_Tables_number   1
_chemical_formula_structural   SbSe2S(NF3)2
_chemical_formula_sum   'Sb8 Se16 S8 N16 F48'
_cell_volume   1853.03037533
_cell_formula_units_Z   8
loop_
 _symmetry_equiv_pos_site_id
 _symmetry_equiv_pos_as_xyz
  1  'x, y, z'
loop_
 _atom_site_type_symbol
 _atom_site_label
 _atom_site_symmetry_multiplicity
 _atom_site_fract_x
 _atom_site_fract_y
 _atom_site_fract_z
 _atom_site_occupancy
  Sb  Sb0  1  0.76614670  0.19141338  0.05922238  1
  Sb  Sb1  1  0.74610218  0.63568560  0.85028829  1
  Sb  Sb2  1  0.73385330  0.30858662  0.55922238  1
  Sb  Sb3  1  0.23385330  0.80858662  0.94077762  1
  Sb  Sb4  1  0.26614670  0.69141338  0.44077762  1
  Sb  Sb5  1  0.75389782  0.86431440  0.35028829  1
  Sb  Sb6  1  0.24610218  0.13568560  0.64971171  1
  Sb  Sb7  1  0.25389782  0.36431440  0.14971171  1
  Se  Se8  1  0.36186995  0.53507334  0.70579880  1
  Se  Se9  1  0.35358998  0.46815662  0.88564588  1
  Se  Se10  1  0.11751642  0.39496981  0.87674831  1
  Se  Se11  1  0.87573394  0.53525626  0.30511426  1
  Se  Se12  1  0.62426606  0.96474374  0.80511426  1
  Se  Se13  1  0.61751642  0.89496981  0.62325169  1
  Se  Se14  1  0.64641002  0.53184338  0.11435412  1
  Se  Se15  1  0.13813005  0.96492666  0.20579880  1
  Se  Se16  1  0.88248358  0.60503019  0.12325169  1
  Se  Se17  1  0.85358998  0.96815662  0.61435412  1
  Se  Se18  1  0.63813005  0.46492666  0.29420120  1
  Se  Se19  1  0.37573394  0.03525626  0.19488574  1
  Se  Se20  1  0.86186995  0.03507334  0.79420120  1
  Se  Se21  1  0.38248358  0.10503019  0.37674831  1
  Se  Se22  1  0.14641002  0.03184338  0.38564588  1
  Se  Se23  1  0.12426606  0.46474374  0.69488574  1
  S  S24  1  0.28479503  0.19719288  0.89188197  1
  S  S25  1  0.71520497  0.80280712  0.10811803  1
  S  S26  1  0.19672357  0.73527993  0.69212307  1
  S  S27  1  0.69672357  0.23527993  0.80787693  1
  S  S28  1  0.30327643  0.76472007  0.19212307  1
  S  S29  1  0.80327643  0.26472007  0.30787693  1
  S  S30  1  0.78479503  0.69719288  0.60811803  1
  S  S31  1  0.21520497  0.30280712  0.39188197  1
  N  N32  1  0.64178249  0.73442745  0.61631833  1
  N  N33  1  0.58528970  0.12062643  0.81208260  1
  N  N34  1  0.66090477  0.30360598  0.30084832  1
  N  N35  1  0.41471030  0.87937357  0.18791740  1
  N  N36  1  0.14178249  0.23442745  0.88368167  1
  N  N37  1  0.08528970  0.62062643  0.68791740  1
  N  N38  1  0.16090477  0.80360598  0.19915168  1
  N  N39  1  0.91471030  0.37937357  0.31208260  1
  N  N40  1  0.39476045  0.31292877  0.89437177  1
  N  N41  1  0.89476045  0.81292877  0.60562823  1
  N  N42  1  0.35821751  0.26557255  0.38368167  1
  N  N43  1  0.60523955  0.68707123  0.10562823  1
  N  N44  1  0.33909523  0.69639402  0.69915168  1
  N  N45  1  0.10523955  0.18707123  0.39437177  1
  N  N46  1  0.83909523  0.19639402  0.80084832  1
  N  N47  1  0.85821751  0.76557255  0.11631833  1
  F  F48  1  0.67757518  0.72555285  0.28414707  1
  F  F49  1  0.41405247  0.07799156  0.63635013  1
  F  F50  1  0.75143147  0.44916079  0.48918532  1
  F  F51  1  0.28531717  0.46705365  0.24149029  1
  F  F52  1  0.88050397  0.24622975  0.50991999  1
  F  F53  1  0.28140345  0.83665878  0.37008170  1
  F  F54  1  0.58594753  0.92200844  0.36364987  1
  F  F55  1  0.84163930  0.99597929  0.41472222  1
  F  F56  1  0.32242482  0.27444715  0.71585293  1
  F  F57  1  0.82242482  0.77444715  0.78414707  1
  F  F58  1  0.08594753  0.42200844  0.13635013  1
  F  F59  1  0.91405247  0.57799156  0.86364987  1
  F  F60  1  0.65836070  0.50402071  0.91472222  1
  F  F61  1  0.22507077  0.25738097  0.06012134  1
  F  F62  1  0.92282444  0.80652376  0.33160522  1
  F  F63  1  0.27492923  0.24261903  0.56012134  1
  F  F64  1  0.07717556  0.19347624  0.66839478  1
  F  F65  1  0.72507077  0.75738097  0.43987866  1
  F  F66  1  0.64609144  0.10210509  0.13365702  1
  F  F67  1  0.08923965  0.86683789  0.88703701  1
  F  F68  1  0.78140345  0.33665878  0.12991830  1
  F  F69  1  0.21859655  0.66334122  0.87008170  1
  F  F70  1  0.41076035  0.63316211  0.38703701  1
  F  F71  1  0.77492923  0.74261903  0.93987866  1
  F  F72  1  0.57717556  0.69347624  0.83160522  1
  F  F73  1  0.34163930  0.49597929  0.08527778  1
  F  F74  1  0.78531717  0.96705365  0.25850971  1
  F  F75  1  0.38050397  0.74622975  0.99008001  1
  F  F76  1  0.21468283  0.03294635  0.74149029  1
  F  F77  1  0.61542722  0.21293057  0.48737366  1
  F  F78  1  0.71859655  0.16334122  0.62991830  1
  F  F79  1  0.14609144  0.60210509  0.36634298  1
  F  F80  1  0.25143147  0.94916079  0.01081468  1
  F  F81  1  0.74856853  0.05083921  0.98918532  1
  F  F82  1  0.58923965  0.36683789  0.61296299  1
  F  F83  1  0.85390856  0.39789491  0.63365702  1
  F  F84  1  0.71468283  0.53294635  0.75850971  1
  F  F85  1  0.35390856  0.89789491  0.86634298  1
  F  F86  1  0.11949603  0.75377025  0.49008001  1
  F  F87  1  0.17757518  0.22555285  0.21585293  1
  F  F88  1  0.11542722  0.71293057  0.01262634  1
  F  F89  1  0.15836070  0.00402071  0.58527778  1
  F  F90  1  0.91076035  0.13316211  0.11296299  1
  F  F91  1  0.61949603  0.25377025  0.00991999  1
  F  F92  1  0.38457278  0.78706943  0.51262634  1
  F  F93  1  0.24856853  0.55083921  0.51081468  1
  F  F94  1  0.42282444  0.30652376  0.16839478  1
  F  F95  1  0.88457278  0.28706943  0.98737366  1
