# generated using pymatgen
data_Ga2S5N5Cl7
_symmetry_space_group_name_H-M   'P 1'
_cell_length_a   8.81212586
_cell_length_b   13.69674116
_cell_length_c   17.46857775
_cell_angle_alpha   90.00000000
_cell_angle_beta   94.66168617
_cell_angle_gamma   90.00000000
_symmetry_Int_Tables_number   1
_chemical_formula_structural   Ga2S5N5Cl7
_chemical_formula_sum   'Ga8 S20 N20 Cl28'
_cell_volume   2101.43731905
_cell_formula_units_Z   4
loop_
 _symmetry_equiv_pos_site_id
 _symmetry_equiv_pos_as_xyz
  1  'x, y, z'
loop_
 _atom_site_type_symbol
 _atom_site_label
 _atom_site_symmetry_multiplicity
 _atom_site_fract_x
 _atom_site_fract_y
 _atom_site_fract_z
 _atom_site_occupancy
  Ga  Ga0  1  0.92199417  0.31614939  0.86131280  1
  Ga  Ga1  1  0.75607293  0.74593911  0.98200070  1
  Ga  Ga2  1  0.42199417  0.18385061  0.36131280  1
  Ga  Ga3  1  0.57800583  0.81614939  0.63868720  1
  Ga  Ga4  1  0.24392707  0.25406089  0.01799930  1
  Ga  Ga5  1  0.25607293  0.75406089  0.48200070  1
  Ga  Ga6  1  0.74392707  0.24593911  0.51799930  1
  Ga  Ga7  1  0.07800583  0.68385061  0.13868720  1
  S  S8  1  0.51404822  0.99522890  0.87040515  1
  S  S9  1  0.10899937  0.06202761  0.68279839  1
  S  S10  1  0.07578780  0.61339418  0.76724641  1
  S  S11  1  0.42421220  0.11339418  0.73275359  1
  S  S12  1  0.57578780  0.88660582  0.26724641  1
  S  S13  1  0.97785768  0.08378625  0.19979484  1
  S  S14  1  0.39100063  0.56202761  0.81720161  1
  S  S15  1  0.27456216  0.85583829  0.92301587  1
  S  S16  1  0.02214232  0.91621375  0.80020516  1
  S  S17  1  0.98595178  0.49522890  0.62959485  1
  S  S18  1  0.47785768  0.41621375  0.69979484  1
  S  S19  1  0.52214232  0.58378625  0.30020516  1
  S  S20  1  0.72543784  0.14416171  0.07698413  1
  S  S21  1  0.48595178  0.00477110  0.12959485  1
  S  S22  1  0.01404822  0.50477110  0.37040515  1
  S  S23  1  0.60899937  0.43797239  0.18279839  1
  S  S24  1  0.92421220  0.38660582  0.23275359  1
  S  S25  1  0.22543784  0.35583829  0.57698413  1
  S  S26  1  0.77456216  0.64416171  0.42301587  1
  S  S27  1  0.89100063  0.93797239  0.31720161  1
  N  N28  1  0.23100633  0.61459955  0.81978383  1
  N  N29  1  0.87483492  0.12919334  0.13095603  1
  N  N30  1  0.89313117  0.00778859  0.24697503  1
  N  N31  1  0.26899367  0.11459955  0.68021617  1
  N  N32  1  0.07501157  0.41498491  0.58697673  1
  N  N33  1  0.62516508  0.62919334  0.36904397  1
  N  N34  1  0.57501157  0.08501509  0.08697673  1
  N  N35  1  0.76899367  0.38540045  0.18021617  1
  N  N36  1  0.91354714  0.45927203  0.30146409  1
  N  N37  1  0.58645286  0.95927203  0.19853591  1
  N  N38  1  0.41354714  0.04072797  0.80146409  1
  N  N39  1  0.42498843  0.91498491  0.91302327  1
  N  N40  1  0.37483492  0.37080666  0.63095603  1
  N  N41  1  0.39313117  0.49221141  0.74697503  1
  N  N42  1  0.60686883  0.50778859  0.25302497  1
  N  N43  1  0.73100633  0.88540045  0.31978383  1
  N  N44  1  0.92498843  0.58501509  0.41302327  1
  N  N45  1  0.12516508  0.87080666  0.86904397  1
  N  N46  1  0.08645286  0.54072797  0.69853591  1
  N  N47  1  0.10686883  0.99221141  0.75302497  1
  Cl  Cl48  1  0.92909268  0.17507552  0.46573689  1
  Cl  Cl49  1  0.07090732  0.82492448  0.53426311  1
  Cl  Cl50  1  0.81533760  0.89139092  0.02424047  1
  Cl  Cl51  1  0.88129276  0.69436143  0.20550724  1
  Cl  Cl52  1  0.97906808  0.65251888  0.01237041  1
  Cl  Cl53  1  0.26453048  0.26301150  0.14282205  1
  Cl  Cl54  1  0.57090732  0.67507552  0.03426311  1
  Cl  Cl55  1  0.20961157  0.81785420  0.13706986  1
  Cl  Cl56  1  0.71321420  0.94754162  0.66338519  1
  Cl  Cl57  1  0.68466240  0.39139092  0.47575953  1
  Cl  Cl58  1  0.29038843  0.31785420  0.36293014  1
  Cl  Cl59  1  0.28678580  0.05245838  0.33661481  1
  Cl  Cl60  1  0.76453048  0.23698850  0.64282205  1
  Cl  Cl61  1  0.23546952  0.76301150  0.35717795  1
  Cl  Cl62  1  0.47906808  0.84748112  0.51237041  1
  Cl  Cl63  1  0.02093192  0.34748112  0.98762959  1
  Cl  Cl64  1  0.79038843  0.18214580  0.86293014  1
  Cl  Cl65  1  0.11870724  0.30563857  0.79449276  1
  Cl  Cl66  1  0.18466240  0.10860908  0.97575953  1
  Cl  Cl67  1  0.73546952  0.73698850  0.85717795  1
  Cl  Cl68  1  0.38129276  0.80563857  0.70550724  1
  Cl  Cl69  1  0.70961157  0.68214580  0.63706986  1
  Cl  Cl70  1  0.21321420  0.55245838  0.16338519  1
  Cl  Cl71  1  0.61870724  0.19436143  0.29449276  1
  Cl  Cl72  1  0.78678580  0.44754162  0.83661481  1
  Cl  Cl73  1  0.31533760  0.60860908  0.52424047  1
  Cl  Cl74  1  0.52093192  0.15251888  0.48762959  1
  Cl  Cl75  1  0.42909268  0.32492448  0.96573689  1
