# generated using pymatgen
data_H10C3S3N
_symmetry_space_group_name_H-M   'P 1'
_cell_length_a   5.90222725
_cell_length_b   10.57824863
_cell_length_c   13.57423867
_cell_angle_alpha   97.66944088
_cell_angle_beta   90.00000000
_cell_angle_gamma   90.00000000
_symmetry_Int_Tables_number   1
_chemical_formula_structural   H10C3S3N
_chemical_formula_sum   'H40 C12 S12 N4'
_cell_volume   839.92928839
_cell_formula_units_Z   4
loop_
 _symmetry_equiv_pos_site_id
 _symmetry_equiv_pos_as_xyz
  1  'x, y, z'
loop_
 _atom_site_type_symbol
 _atom_site_label
 _atom_site_symmetry_multiplicity
 _atom_site_fract_x
 _atom_site_fract_y
 _atom_site_fract_z
 _atom_site_occupancy
  H  H0  1  0.12700637  0.23990735  0.53086869  1
  H  H1  1  0.47085541  0.50782914  0.37140924  1
  H  H2  1  0.61794182  0.85410992  0.95367996  1
  H  H3  1  0.47085541  0.49217086  0.12859076  1
  H  H4  1  0.35483562  0.70572126  0.03980474  1
  H  H5  1  0.87299363  0.76009265  0.46913131  1
  H  H6  1  0.35483562  0.29427874  0.46019526  1
  H  H7  1  0.62924703  0.10201020  0.11246676  1
  H  H8  1  0.27754179  0.61531176  0.32206540  1
  H  H9  1  0.61794182  0.14589008  0.54632004  1
  H  H10  1  0.52914459  0.49217086  0.62859076  1
  H  H11  1  0.37075297  0.10201020  0.61246676  1
  H  H12  1  0.12700637  0.76009265  0.96913131  1
  H  H13  1  0.38595231  0.83367475  0.32002206  1
  H  H14  1  0.30390263  0.61844248  0.45416978  1
  H  H15  1  0.38205818  0.14589008  0.04632004  1
  H  H16  1  0.72245821  0.38468824  0.67793460  1
  H  H17  1  0.61404769  0.83367475  0.82002206  1
  H  H18  1  0.37075297  0.89798980  0.88753324  1
  H  H19  1  0.64516438  0.70572126  0.53980474  1
  H  H20  1  0.69609737  0.61844248  0.95416978  1
  H  H21  1  0.81144384  0.40732462  0.04082903  1
  H  H22  1  0.38595231  0.16632525  0.17997794  1
  H  H23  1  0.62924703  0.89798980  0.38753324  1
  H  H24  1  0.67828447  0.32160220  0.18253135  1
  H  H25  1  0.18855616  0.40732462  0.54082903  1
  H  H26  1  0.30390263  0.38155752  0.04583022  1
  H  H27  1  0.32171553  0.67839780  0.81746865  1
  H  H28  1  0.64516438  0.29427874  0.96019526  1
  H  H29  1  0.67828447  0.67839780  0.31746865  1
  H  H30  1  0.72245821  0.61531176  0.82206540  1
  H  H31  1  0.61404769  0.16632525  0.67997794  1
  H  H32  1  0.38205818  0.85410992  0.45367996  1
  H  H33  1  0.81144384  0.59267538  0.45917097  1
  H  H34  1  0.32171553  0.32160220  0.68253135  1
  H  H35  1  0.87299363  0.23990735  0.03086869  1
  H  H36  1  0.69609737  0.38155752  0.54583022  1
  H  H37  1  0.52914459  0.50782914  0.87140924  1
  H  H38  1  0.27754179  0.38468824  0.17793460  1
  H  H39  1  0.18855616  0.59267538  0.95917097  1
  C  C40  1  0.60544380  0.39675965  0.61708900  1
  C  C41  1  0.51223843  0.16913418  0.61280505  1
  C  C42  1  0.26160150  0.31113559  0.53060524  1
  C  C43  1  0.51223843  0.83086582  0.88719495  1
  C  C44  1  0.73839850  0.68886441  0.46939476  1
  C  C45  1  0.48776157  0.16913418  0.11280505  1
  C  C46  1  0.26160150  0.68886441  0.96939476  1
  C  C47  1  0.60544380  0.60324035  0.88291100  1
  C  C48  1  0.48776157  0.83086582  0.38719495  1
  C  C49  1  0.39455620  0.60324035  0.38291100  1
  C  C50  1  0.73839850  0.31113559  0.03060524  1
  C  C51  1  0.39455620  0.39675965  0.11708900  1
  S  S52  1  0.12758820  0.65112556  0.69006616  1
  S  S53  1  0.05134256  0.04471380  0.32522373  1
  S  S54  1  0.12758820  0.34887444  0.80993384  1
  S  S55  1  0.94865744  0.04471380  0.82522373  1
  S  S56  1  0.79354908  0.82487740  0.14792387  1
  S  S57  1  0.20645092  0.17512260  0.85207613  1
  S  S58  1  0.87241180  0.65112556  0.19006616  1
  S  S59  1  0.87241180  0.34887444  0.30993384  1
  S  S60  1  0.05134256  0.95528620  0.17477627  1
  S  S61  1  0.20645092  0.82487740  0.64792387  1
  S  S62  1  0.79354908  0.17512260  0.35207613  1
  S  S63  1  0.94865744  0.95528620  0.67477627  1
  N  N64  1  0.58003985  0.69938952  0.38536424  1
  N  N65  1  0.41996015  0.30061048  0.61463576  1
  N  N66  1  0.41996015  0.69938952  0.88536424  1
  N  N67  1  0.58003985  0.30061048  0.11463576  1
