# generated using pymatgen
data_Rb2Mo2H4C4O15
_symmetry_space_group_name_H-M   'P 1'
_cell_length_a   7.03023005
_cell_length_b   7.80941348
_cell_length_c   14.53349074
_cell_angle_alpha   90.00000000
_cell_angle_beta   90.00000000
_cell_angle_gamma   94.47768637
_symmetry_Int_Tables_number   1
_chemical_formula_structural   Rb2Mo2H4C4O15
_chemical_formula_sum   'Rb4 Mo4 H8 C8 O30'
_cell_volume   795.48192851
_cell_formula_units_Z   2
loop_
 _symmetry_equiv_pos_site_id
 _symmetry_equiv_pos_as_xyz
  1  'x, y, z'
loop_
 _atom_site_type_symbol
 _atom_site_label
 _atom_site_symmetry_multiplicity
 _atom_site_fract_x
 _atom_site_fract_y
 _atom_site_fract_z
 _atom_site_occupancy
  Rb  Rb0  1  0.87284175  0.19158742  0.36280417  1
  Rb  Rb1  1  0.62715825  0.80841258  0.86280417  1
  Rb  Rb2  1  0.12715825  0.80841258  0.63719583  1
  Rb  Rb3  1  0.37284175  0.19158742  0.13719583  1
  Mo  Mo4  1  0.61610583  0.10554064  0.60693046  1
  Mo  Mo5  1  0.88389417  0.89445936  0.10693046  1
  Mo  Mo6  1  0.11610583  0.10554064  0.89306954  1
  Mo  Mo7  1  0.38389417  0.89445936  0.39306954  1
  H  H8  1  0.27422044  0.28965868  0.56452484  1
  H  H9  1  0.77359858  0.26031246  0.82493150  1
  H  H10  1  0.22640142  0.73968754  0.17506850  1
  H  H11  1  0.27359858  0.26031246  0.67506850  1
  H  H12  1  0.72640142  0.73968754  0.32493150  1
  H  H13  1  0.77422044  0.28965868  0.93547516  1
  H  H14  1  0.72577956  0.71034132  0.43547516  1
  H  H15  1  0.22577956  0.71034132  0.06452484  1
  C  C16  1  0.23983619  0.47968055  0.92998574  1
  C  C17  1  0.25198660  0.45687592  0.82378773  1
  C  C18  1  0.26016381  0.52031945  0.42998574  1
  C  C19  1  0.75198660  0.45687592  0.67621227  1
  C  C20  1  0.24801340  0.54312408  0.32378773  1
  C  C21  1  0.76016381  0.52031945  0.07001426  1
  C  C22  1  0.74801340  0.54312408  0.17621227  1
  C  C23  1  0.73983619  0.47968055  0.57001426  1
  O  O24  1  0.53090366  0.96982348  0.69526019  1
  O  O25  1  0.34954452  0.05651650  0.91021443  1
  O  O26  1  0.18531928  0.42631794  0.27272127  1
  O  O27  1  0.15045548  0.94348350  0.41021443  1
  O  O28  1  0.79997167  0.61828693  0.53443598  1
  O  O29  1  0.81468072  0.57368206  0.72727873  1
  O  O30  1  0.17945116  0.78179796  0.11582363  1
  O  O31  1  0.65045548  0.94348350  0.08978557  1
  O  O32  1  0.31468072  0.57368206  0.77272127  1
  O  O33  1  0.84954452  0.05651650  0.58978557  1
  O  O34  1  0.83296821  0.65500089  0.02744615  1
  O  O35  1  0.30914208  0.69766263  0.29552574  1
  O  O36  1  0.19085792  0.30233737  0.79552574  1
  O  O37  1  0.96909634  0.03017652  0.19526019  1
  O  O38  1  0.70002833  0.38171307  0.03443598  1
  O  O39  1  0.16703179  0.34499911  0.97255385  1
  O  O40  1  0.29997167  0.61828693  0.96556402  1
  O  O41  1  0.33296821  0.65500089  0.47255385  1
  O  O42  1  0.82054884  0.21820204  0.88417637  1
  O  O43  1  0.80914208  0.69766263  0.20447426  1
  O  O44  1  0.00000000  0.00000000  0.00000000  1
  O  O45  1  0.67945116  0.78179796  0.38417637  1
  O  O46  1  0.68531928  0.42631794  0.22727873  1
  O  O47  1  0.66703179  0.34499911  0.52744615  1
  O  O48  1  0.20002833  0.38171307  0.46556402  1
  O  O49  1  0.03090366  0.96982348  0.80473981  1
  O  O50  1  0.69085792  0.30233737  0.70447426  1
  O  O51  1  0.32054884  0.21820204  0.61582363  1
  O  O52  1  0.46909634  0.03017652  0.30473981  1
  O  O53  1  0.50000000  0.00000000  0.50000000  1
