# generated using pymatgen
data_CSCl(OF)3
_symmetry_space_group_name_H-M   'P 1'
_cell_length_a   5.28213661
_cell_length_b   5.39716338
_cell_length_c   23.67984420
_cell_angle_alpha   90.00000000
_cell_angle_beta   90.00000000
_cell_angle_gamma   113.00356470
_symmetry_Int_Tables_number   1
_chemical_formula_structural   CSCl(OF)3
_chemical_formula_sum   'C4 S4 Cl4 O12 F12'
_cell_volume   621.39627675
_cell_formula_units_Z   4
loop_
 _symmetry_equiv_pos_site_id
 _symmetry_equiv_pos_as_xyz
  1  'x, y, z'
loop_
 _atom_site_type_symbol
 _atom_site_label
 _atom_site_symmetry_multiplicity
 _atom_site_fract_x
 _atom_site_fract_y
 _atom_site_fract_z
 _atom_site_occupancy
  C  C0  1  0.28852289  0.17900988  0.57092150  1
  C  C1  1  0.28852289  0.67900988  0.92907850  1
  C  C2  1  0.71147711  0.32099012  0.07092150  1
  C  C3  1  0.71147711  0.82099012  0.42907850  1
  S  S4  1  0.46950241  0.50850374  0.83766217  1
  S  S5  1  0.46950241  0.00850374  0.66233783  1
  S  S6  1  0.53049759  0.49149626  0.16233783  1
  S  S7  1  0.53049759  0.99149626  0.33766217  1
  Cl  Cl8  1  0.88309788  0.28341142  0.31114030  1
  Cl  Cl9  1  0.11690212  0.21658858  0.81114030  1
  Cl  Cl10  1  0.88309788  0.78341142  0.18885970  1
  Cl  Cl11  1  0.11690212  0.71658858  0.68885970  1
  O  O12  1  0.60094823  0.39580231  0.87669115  1
  O  O13  1  0.65169053  0.79319795  0.37107874  1
  O  O14  1  0.60094823  0.89580231  0.62330885  1
  O  O15  1  0.39450024  0.83472566  0.29000527  1
  O  O16  1  0.34830947  0.70680205  0.87107874  1
  O  O17  1  0.60549976  0.66527434  0.79000527  1
  O  O18  1  0.34830947  0.20680205  0.62892126  1
  O  O19  1  0.39905177  0.10419769  0.37669115  1
  O  O20  1  0.39905177  0.60419769  0.12330885  1
  O  O21  1  0.65169053  0.29319795  0.12892126  1
  O  O22  1  0.60549976  0.16527434  0.70999473  1
  O  O23  1  0.39450024  0.33472566  0.20999473  1
  F  F24  1  0.85012278  0.66425564  0.43979650  1
  F  F25  1  0.86720797  0.57722835  0.05644207  1
  F  F26  1  0.14987722  0.33574436  0.56020350  1
  F  F27  1  0.86720797  0.07722835  0.44355793  1
  F  F28  1  0.47929175  0.23536932  0.03988657  1
  F  F29  1  0.14987722  0.83574436  0.93979650  1
  F  F30  1  0.13279203  0.42277165  0.94355793  1
  F  F31  1  0.52070825  0.76463068  0.96011343  1
  F  F32  1  0.52070825  0.26463068  0.53988657  1
  F  F33  1  0.47929175  0.73536932  0.46011343  1
  F  F34  1  0.85012278  0.16425564  0.06020350  1
  F  F35  1  0.13279203  0.92277165  0.55644207  1
