# generated using pymatgen
data_K3UH6C5SNO13
_symmetry_space_group_name_H-M   'P 1'
_cell_length_a   10.91951325
_cell_length_b   12.26611252
_cell_length_c   14.05614140
_cell_angle_alpha   90.00000000
_cell_angle_beta   111.30589264
_cell_angle_gamma   90.00000000
_symmetry_Int_Tables_number   1
_chemical_formula_structural   K3UH6C5SNO13
_chemical_formula_sum   'K12 U4 H24 C20 S4 N4 O52'
_cell_volume   1754.00541835
_cell_formula_units_Z   4
loop_
 _symmetry_equiv_pos_site_id
 _symmetry_equiv_pos_as_xyz
  1  'x, y, z'
loop_
 _atom_site_type_symbol
 _atom_site_label
 _atom_site_symmetry_multiplicity
 _atom_site_fract_x
 _atom_site_fract_y
 _atom_site_fract_z
 _atom_site_occupancy
  K  K0  1  0.78169106  0.40050478  0.91731649  1
  K  K1  1  0.97601381  0.10840047  0.10362410  1
  K  K2  1  0.86298334  0.07701799  0.34394583  1
  K  K3  1  0.21830894  0.59949522  0.08268351  1
  K  K4  1  0.28169106  0.09949522  0.41731649  1
  K  K5  1  0.36298334  0.42298201  0.84394583  1
  K  K6  1  0.63701666  0.57701799  0.15605417  1
  K  K7  1  0.47601381  0.39159953  0.60362410  1
  K  K8  1  0.02398619  0.89159953  0.89637590  1
  K  K9  1  0.13701666  0.92298201  0.65605417  1
  K  K10  1  0.71830894  0.90050478  0.58268351  1
  K  K11  1  0.52398619  0.60840047  0.39637590  1
  U  U12  1  0.41568232  0.10615437  0.18625669  1
  U  U13  1  0.08431768  0.60615437  0.31374331  1
  U  U14  1  0.91568232  0.39384563  0.68625669  1
  U  U15  1  0.58431768  0.89384563  0.81374331  1
  H  H16  1  0.16191175  0.33947548  0.48525466  1
  H  H17  1  0.50071157  0.35139612  0.05989785  1
  H  H18  1  0.63187561  0.31925080  0.05213327  1
  H  H19  1  0.65968525  0.14683507  0.09461623  1
  H  H20  1  0.26264517  0.35203592  0.03370484  1
  H  H21  1  0.36931881  0.86381181  0.55882152  1
  H  H22  1  0.76264517  0.14796408  0.53370484  1
  H  H23  1  0.86931881  0.63618819  0.05882152  1
  H  H24  1  0.66191175  0.16052452  0.98525466  1
  H  H25  1  0.49928843  0.64860388  0.94010215  1
  H  H26  1  0.86812439  0.81925080  0.44786673  1
  H  H27  1  0.13187561  0.18074920  0.55213327  1
  H  H28  1  0.36812439  0.68074920  0.94786673  1
  H  H29  1  0.34031475  0.85316493  0.90538377  1
  H  H30  1  0.99928843  0.85139612  0.44010215  1
  H  H31  1  0.83808825  0.66052452  0.51474534  1
  H  H32  1  0.15968525  0.35316493  0.59461623  1
  H  H33  1  0.23735483  0.85203592  0.46629516  1
  H  H34  1  0.13068119  0.36381181  0.94117848  1
  H  H35  1  0.63068119  0.13618819  0.44117848  1
  H  H36  1  0.73735483  0.64796408  0.96629516  1
  H  H37  1  0.00071157  0.14860388  0.55989785  1
  H  H38  1  0.84031475  0.64683507  0.40538377  1
  H  H39  1  0.33808825  0.83947548  0.01474534  1
  C  C40  1  0.95996159  0.17546963  0.83313724  1
  C  C41  1  0.31995167  0.13174359  0.91677955  1
  C  C42  1  0.04003841  0.82453037  0.16686276  1
  C  C43  1  0.81995167  0.36825641  0.41677955  1
  C  C44  1  0.57037330  0.15987783  0.78080307  1
  C  C45  1  0.07037330  0.34012217  0.28080307  1
  C  C46  1  0.02657368  0.38864370  0.17036167  1
  C  C47  1  0.92962670  0.65987783  0.71919693  1
  C  C48  1  0.54003841  0.67546963  0.66686276  1
  C  C49  1  0.52657368  0.11135630  0.67036167  1
  C  C50  1  0.18004833  0.63174359  0.58322045  1
  C  C51  1  0.45996159  0.32453037  0.33313724  1
  C  C52  1  0.68004833  0.86825641  0.08322045  1
  C  C53  1  0.56575979  0.62643425  0.77467345  1
  C  C54  1  0.97342632  0.61135630  0.82963833  1
  C  C55  1  0.42962670  0.84012217  0.21919693  1
  C  C56  1  0.06575979  0.87356575  0.27467345  1
  C  C57  1  0.43424021  0.37356575  0.22532655  1
  C  C58  1  0.93424021  0.12643425  0.72532655  1
  C  C59  1  0.47342632  0.88864370  0.32963833  1
  S  S60  1  0.23883430  0.65389394  0.70426179  1
  S  S61  1  0.26116570  0.15389394  0.79573821  1
  S  S62  1  0.76116570  0.34610606  0.29573821  1
  S  S63  1  0.73883430  0.84610606  0.20426179  1
  N  N64  1  0.13663416  0.61579005  0.49362457  1
  N  N65  1  0.63663416  0.88420995  0.99362457  1
  N  N66  1  0.86336584  0.38420995  0.50637543  1
  N  N67  1  0.36336584  0.11579005  0.00637543  1
  O  O68  1  0.09015531  0.39410263  0.70194311  1
  O  O69  1  0.05873987  0.97366455  0.28614338  1
  O  O70  1  0.55873987  0.52633545  0.78614338  1
  O  O71  1  0.10439517  0.41380471  0.35193084  1
  O  O72  1  0.04765828  0.49245223  0.16888889  1
  O  O73  1  0.74288476  0.38988200  0.67056743  1
  O  O74  1  0.59015531  0.10589737  0.20194311  1
  O  O75  1  0.45234172  0.99245223  0.33111111  1
  O  O76  1  0.29814395  0.81082903  0.94449331  1
  O  O77  1  0.60439517  0.08619529  0.85193084  1
  O  O78  1  0.09649705  0.80145931  0.34744509  1
  O  O79  1  0.90350295  0.19854069  0.65255491  1
  O  O80  1  0.95234172  0.50754777  0.83111111  1
  O  O81  1  0.70185605  0.18917097  0.05550669  1
  O  O82  1  0.57317928  0.26024970  0.79434536  1
  O  O83  1  0.45830238  0.21884507  0.33424427  1
  O  O84  1  0.06874385  0.11904713  0.53689488  1
  O  O85  1  0.79814395  0.68917097  0.44449331  1
  O  O86  1  0.28268246  0.89726360  0.52647380  1
  O  O87  1  0.59649705  0.69854069  0.84744509  1
  O  O88  1  0.47734081  0.38553279  0.40727476  1
  O  O89  1  0.54169762  0.78115493  0.66575573  1
  O  O90  1  0.21731754  0.39726360  0.97352620  1
  O  O91  1  0.02204502  0.67028608  0.90593043  1
  O  O92  1  0.97734081  0.11446721  0.90727476  1
  O  O93  1  0.71731754  0.10273640  0.47352620  1
  O  O94  1  0.43125615  0.61904713  0.96310512  1
  O  O95  1  0.20185605  0.31082903  0.55550669  1
  O  O96  1  0.25711524  0.61011800  0.32943257  1
  O  O97  1  0.52204502  0.82971392  0.40593043  1
  O  O98  1  0.24288476  0.11011800  0.17056743  1
  O  O99  1  0.90984469  0.60589737  0.29805689  1
  O  O100  1  0.07317928  0.23975030  0.29434536  1
  O  O101  1  0.39560483  0.91380471  0.14806916  1
  O  O102  1  0.75711524  0.88988200  0.82943257  1
  O  O103  1  0.97795498  0.32971392  0.09406957  1
  O  O104  1  0.93125615  0.88095287  0.46310512  1
  O  O105  1  0.54765828  0.00754777  0.66888889  1
  O  O106  1  0.94126013  0.02633545  0.71385662  1
  O  O107  1  0.89560483  0.58619529  0.64806916  1
  O  O108  1  0.02265919  0.88553279  0.09272524  1
  O  O109  1  0.78268246  0.60273640  0.02647380  1
  O  O110  1  0.95830238  0.28115493  0.83424427  1
  O  O111  1  0.92682072  0.76024970  0.70565464  1
  O  O112  1  0.52265919  0.61446721  0.59272524  1
  O  O113  1  0.56874385  0.38095287  0.03689488  1
  O  O114  1  0.42682072  0.73975030  0.20565464  1
  O  O115  1  0.47795498  0.17028608  0.59406957  1
  O  O116  1  0.44126013  0.47366455  0.21385662  1
  O  O117  1  0.40984469  0.89410263  0.79805689  1
  O  O118  1  0.04169762  0.71884507  0.16575573  1
  O  O119  1  0.40350295  0.30145931  0.15255491  1
