# generated using pymatgen
data_SrCoO3
_symmetry_space_group_name_H-M   'P 1'
_cell_length_a   4.92884755
_cell_length_b   5.50023746
_cell_length_c   9.63170488
_cell_angle_alpha   90.35869226
_cell_angle_beta   95.74437707
_cell_angle_gamma   89.90167177
_symmetry_Int_Tables_number   1
_chemical_formula_structural   SrCoO3
_chemical_formula_sum   'Sr4 Co4 O12'
_cell_volume   259.79743026
_cell_formula_units_Z   4
loop_
 _symmetry_equiv_pos_site_id
 _symmetry_equiv_pos_as_xyz
  1  'x, y, z'
loop_
 _atom_site_type_symbol
 _atom_site_label
 _atom_site_symmetry_multiplicity
 _atom_site_fract_x
 _atom_site_fract_y
 _atom_site_fract_z
 _atom_site_occupancy
  Sr  Sr0  1  0.53281951  0.25246042  0.65621764  1
  Sr  Sr1  1  0.46589096  0.74740422  0.34324084  1
  Sr  Sr2  1  0.02091670  0.75021697  0.65367795  1
  Sr  Sr3  1  0.97789742  0.24951330  0.34676731  1
  Co  Co4  1  0.50025329  1.00003621  -0.00001728  1
  Co  Co5  1  0.00268588  0.24945976  0.99718117  1
  Co  Co6  1  0.50028392  0.49992458  -0.00000618  1
  Co  Co7  1  0.99843873  0.75056310  0.00288608  1
  O  O8  1  0.19044133  0.00130121  0.10561573  1
  O  O9  1  0.68561317  0.75437747  0.10360289  1
  O  O10  1  0.69526632  0.24855315  0.10019928  1
  O  O11  1  0.48607942  0.24939343  0.39419328  1
  O  O12  1  0.81414122  0.50009943  0.89685229  1
  O  O13  1  0.30556663  0.75143622  0.89987173  1
  O  O14  1  0.18665115  0.49982729  0.10319061  1
  O  O15  1  0.51250321  0.75076707  0.60542666  1
  O  O16  1  0.81039500  0.99870200  0.89443197  1
  O  O17  1  0.31528354  0.24559963  0.89651764  1
  O  O18  1  0.02098417  0.25686975  0.60482424  1
  O  O19  1  0.97788742  0.74349480  0.39532618  1
