# generated using pymatgen
data_Cu3WO6
_symmetry_space_group_name_H-M   'P 1'
_cell_length_a   9.91842609
_cell_length_b   9.91842609
_cell_length_c   9.91842609
_cell_angle_alpha   90.00000000
_cell_angle_beta   90.00000000
_cell_angle_gamma   90.00000000
_symmetry_Int_Tables_number   1
_chemical_formula_structural   Cu3WO6
_chemical_formula_sum   'Cu24 W8 O48'
_cell_volume   975.72691327
_cell_formula_units_Z   8
loop_
 _symmetry_equiv_pos_site_id
 _symmetry_equiv_pos_as_xyz
  1  'x, y, z'
loop_
 _atom_site_type_symbol
 _atom_site_label
 _atom_site_symmetry_multiplicity
 _atom_site_fract_x
 _atom_site_fract_y
 _atom_site_fract_z
 _atom_site_occupancy
  Cu  Cu0  1  0.59495746  0.74340298  0.36403740  1
  Cu  Cu1  1  0.63596260  0.09495746  0.75659702  1
  Cu  Cu2  1  0.36403740  0.59495746  0.74340298  1
  Cu  Cu3  1  0.25659702  0.63596260  0.40504254  1
  Cu  Cu4  1  0.40504254  0.24340298  0.13596260  1
  Cu  Cu5  1  0.86403740  0.59495746  0.75659702  1
  Cu  Cu6  1  0.25659702  0.86403740  0.90504254  1
  Cu  Cu7  1  0.90504254  0.24340298  0.36403740  1
  Cu  Cu8  1  0.24340298  0.13596260  0.40504254  1
  Cu  Cu9  1  0.24340298  0.36403740  0.90504254  1
  Cu  Cu10  1  0.75659702  0.86403740  0.59495746  1
  Cu  Cu11  1  0.13596260  0.40504254  0.24340298  1
  Cu  Cu12  1  0.86403740  0.90504254  0.25659702  1
  Cu  Cu13  1  0.59495746  0.75659702  0.86403740  1
  Cu  Cu14  1  0.36403740  0.90504254  0.24340298  1
  Cu  Cu15  1  0.74340298  0.36403740  0.59495746  1
  Cu  Cu16  1  0.63596260  0.40504254  0.25659702  1
  Cu  Cu17  1  0.09495746  0.75659702  0.63596260  1
  Cu  Cu18  1  0.40504254  0.25659702  0.63596260  1
  Cu  Cu19  1  0.09495746  0.74340298  0.13596260  1
  Cu  Cu20  1  0.75659702  0.63596260  0.09495746  1
  Cu  Cu21  1  0.13596260  0.09495746  0.74340298  1
  Cu  Cu22  1  0.74340298  0.13596260  0.09495746  1
  Cu  Cu23  1  0.90504254  0.25659702  0.86403740  1
  W  W24  1  0.61701089  0.11701089  0.38298911  1
  W  W25  1  0.88298911  0.61701089  0.38298911  1
  W  W26  1  0.11701089  0.38298911  0.61701089  1
  W  W27  1  0.11701089  0.11701089  0.11701089  1
  W  W28  1  0.38298911  0.88298911  0.61701089  1
  W  W29  1  0.61701089  0.38298911  0.88298911  1
  W  W30  1  0.88298911  0.88298911  0.88298911  1
  W  W31  1  0.38298911  0.61701089  0.11701089  1
  O  O32  1  0.94724407  0.46270114  0.30286166  1
  O  O33  1  0.44724407  0.03729886  0.69713834  1
  O  O34  1  0.55275593  0.53729886  0.80286166  1
  O  O35  1  0.90820614  0.72109870  0.19568287  1
  O  O36  1  0.46270114  0.19713834  0.44724407  1
  O  O37  1  0.44724407  0.46270114  0.19713834  1
  O  O38  1  0.69713834  0.44724407  0.03729886  1
  O  O39  1  0.80431713  0.09179386  0.27890130  1
  O  O40  1  0.40820614  0.77890130  0.80431713  1
  O  O41  1  0.96270114  0.19713834  0.05275593  1
  O  O42  1  0.55275593  0.96270114  0.30286166  1
  O  O43  1  0.80431713  0.40820614  0.77890130  1
  O  O44  1  0.69568287  0.90820614  0.77890130  1
  O  O45  1  0.94724407  0.03729886  0.80286166  1
  O  O46  1  0.09179386  0.22109870  0.30431713  1
  O  O47  1  0.19568287  0.90820614  0.72109870  1
  O  O48  1  0.46270114  0.30286166  0.94724407  1
  O  O49  1  0.40820614  0.72109870  0.30431713  1
  O  O50  1  0.53729886  0.69713834  0.05275593  1
  O  O51  1  0.03729886  0.80286166  0.94724407  1
  O  O52  1  0.19713834  0.05275593  0.96270114  1
  O  O53  1  0.69713834  0.05275593  0.53729886  1
  O  O54  1  0.22109870  0.30431713  0.09179386  1
  O  O55  1  0.53729886  0.80286166  0.55275593  1
  O  O56  1  0.19713834  0.44724407  0.46270114  1
  O  O57  1  0.59179386  0.22109870  0.19568287  1
  O  O58  1  0.27890130  0.69568287  0.59179386  1
  O  O59  1  0.09179386  0.27890130  0.80431713  1
  O  O60  1  0.69568287  0.59179386  0.27890130  1
  O  O61  1  0.77890130  0.69568287  0.90820614  1
  O  O62  1  0.72109870  0.30431713  0.40820614  1
  O  O63  1  0.05275593  0.53729886  0.69713834  1
  O  O64  1  0.05275593  0.96270114  0.19713834  1
  O  O65  1  0.77890130  0.80431713  0.40820614  1
  O  O66  1  0.90820614  0.77890130  0.69568287  1
  O  O67  1  0.27890130  0.80431713  0.09179386  1
  O  O68  1  0.30431713  0.09179386  0.22109870  1
  O  O69  1  0.80286166  0.55275593  0.53729886  1
  O  O70  1  0.30286166  0.55275593  0.96270114  1
  O  O71  1  0.30286166  0.94724407  0.46270114  1
  O  O72  1  0.03729886  0.69713834  0.44724407  1
  O  O73  1  0.96270114  0.30286166  0.55275593  1
  O  O74  1  0.22109870  0.19568287  0.59179386  1
  O  O75  1  0.30431713  0.40820614  0.72109870  1
  O  O76  1  0.19568287  0.59179386  0.22109870  1
  O  O77  1  0.59179386  0.27890130  0.69568287  1
  O  O78  1  0.80286166  0.94724407  0.03729886  1
  O  O79  1  0.72109870  0.19568287  0.90820614  1
