# generated using pymatgen
data_NiH20C4(N5O6)2
_symmetry_space_group_name_H-M   'P 1'
_cell_length_a   6.66546980
_cell_length_b   7.91123552
_cell_length_c   18.18416763
_cell_angle_alpha   90.00000000
_cell_angle_beta   90.00000000
_cell_angle_gamma   98.37943598
_symmetry_Int_Tables_number   1
_chemical_formula_structural   NiH20C4(N5O6)2
_chemical_formula_sum   'Ni2 H40 C8 N20 O24'
_cell_volume   948.65293986
_cell_formula_units_Z   2
loop_
 _symmetry_equiv_pos_site_id
 _symmetry_equiv_pos_as_xyz
  1  'x, y, z'
loop_
 _atom_site_type_symbol
 _atom_site_label
 _atom_site_symmetry_multiplicity
 _atom_site_fract_x
 _atom_site_fract_y
 _atom_site_fract_z
 _atom_site_occupancy
  Ni  Ni0  1  0.00000000  0.00000000  -0.00000000  1
  Ni  Ni1  1  0.50000000  0.50000000  0.50000000  1
  H  H2  1  0.04960359  0.70017936  0.05810100  1
  H  H3  1  0.95039641  0.29982064  0.94189900  1
  H  H4  1  0.45039641  0.79982064  0.55810100  1
  H  H5  1  0.54960359  0.20017936  0.44189900  1
  H  H6  1  0.07179996  0.92877479  0.83833117  1
  H  H7  1  0.92820004  0.07122521  0.16166883  1
  H  H8  1  0.42820004  0.57122521  0.33833117  1
  H  H9  1  0.57179996  0.42877479  0.66166883  1
  H  H10  1  0.27674843  0.95741032  0.77407683  1
  H  H11  1  0.72325157  0.04258968  0.22592317  1
  H  H12  1  0.22325157  0.54258968  0.27407683  1
  H  H13  1  0.77674843  0.45741032  0.72592317  1
  H  H14  1  0.98184133  0.83240692  0.31219108  1
  H  H15  1  0.01815867  0.16759308  0.68780892  1
  H  H16  1  0.51815867  0.66759308  0.81219108  1
  H  H17  1  0.48184133  0.33240692  0.18780892  1
  H  H18  1  0.79271032  0.66758253  0.28642711  1
  H  H19  1  0.20728968  0.33241747  0.71357289  1
  H  H20  1  0.70728968  0.83241747  0.78642711  1
  H  H21  1  0.29271032  0.16758253  0.21357289  1
  H  H22  1  0.39446413  0.80430496  0.09967743  1
  H  H23  1  0.60553587  0.19569504  0.90032257  1
  H  H24  1  0.10553587  0.69569504  0.59967743  1
  H  H25  1  0.89446413  0.30430496  0.40032257  1
  H  H26  1  0.85767206  0.77615750  0.49958460  1
  H  H27  1  0.14232794  0.22384250  0.50041540  1
  H  H28  1  0.64232794  0.72384250  0.99958460  1
  H  H29  1  0.35767206  0.27615750  0.00041540  1
  H  H30  1  0.42094810  0.87151131  0.19023162  1
  H  H31  1  0.57905190  0.12848869  0.80976838  1
  H  H32  1  0.07905190  0.62848869  0.69023162  1
  H  H33  1  0.92094810  0.37151131  0.30976838  1
  H  H34  1  0.02457122  0.89245639  0.43592430  1
  H  H35  1  0.97542878  0.10754361  0.56407570  1
  H  H36  1  0.47542878  0.60754361  0.93592430  1
  H  H37  1  0.52457122  0.39245639  0.06407570  1
  H  H38  1  0.36618567  0.79256073  0.47819610  1
  H  H39  1  0.63381433  0.20743927  0.52180390  1
  H  H40  1  0.13381433  0.70743927  0.97819610  1
  H  H41  1  0.86618567  0.29256073  0.02180390  1
  C  C42  1  0.67579095  0.92383685  0.12507245  1
  C  C43  1  0.32420905  0.07616315  0.87492755  1
  C  C44  1  0.82420905  0.57616315  0.62507245  1
  C  C45  1  0.17579095  0.42383685  0.37492755  1
  C  C46  1  0.78683696  0.72901212  0.39375516  1
  C  C47  1  0.21316304  0.27098788  0.60624484  1
  C  C48  1  0.71316304  0.77098788  0.89375516  1
  C  C49  1  0.28683696  0.22901212  0.10624484  1
  N  N50  1  0.84501504  0.76076444  0.32320852  1
  N  N51  1  0.15498496  0.23923556  0.67679148  1
  N  N52  1  0.65498496  0.73923556  0.82320852  1
  N  N53  1  0.34501504  0.26076444  0.17679148  1
  N  N54  1  0.88689602  0.82320038  0.44744067  1
  N  N55  1  0.11310398  0.17679962  0.55255933  1
  N  N56  1  0.61310398  0.67679962  0.94744067  1
  N  N57  1  0.38689602  0.32320038  0.05255933  1
  N  N58  1  0.48851304  0.84248557  0.14250702  1
  N  N59  1  0.51148696  0.15751443  0.85749298  1
  N  N60  1  0.01148696  0.65751443  0.64250702  1
  N  N61  1  0.98851304  0.34248557  0.35749298  1
  N  N62  1  0.21687115  0.97989060  0.82377570  1
  N  N63  1  0.78312885  0.02010940  0.17622430  1
  N  N64  1  0.28312885  0.52010940  0.32377570  1
  N  N65  1  0.71687115  0.47989060  0.67622430  1
  N  N66  1  0.87931151  0.51561023  0.15872052  1
  N  N67  1  0.12068849  0.48438977  0.84127948  1
  N  N68  1  0.62068849  0.98438977  0.65872052  1
  N  N69  1  0.37931151  0.01561023  0.34127948  1
  O  O70  1  0.32244217  0.98872560  0.40794111  1
  O  O71  1  0.67755783  0.01127440  0.59205889  1
  O  O72  1  0.17755783  0.51127440  0.90794111  1
  O  O73  1  0.82244217  0.48872560  0.09205889  1
  O  O74  1  0.26528441  0.95268498  0.28888981  1
  O  O75  1  0.73471559  0.04731502  0.71111019  1
  O  O76  1  0.23471559  0.54731502  0.78888981  1
  O  O77  1  0.76528441  0.45268498  0.21111019  1
  O  O78  1  0.04723263  0.60624028  0.17205654  1
  O  O79  1  0.95276737  0.39375972  0.82794346  1
  O  O80  1  0.45276737  0.89375972  0.67205654  1
  O  O81  1  0.54723263  0.10624028  0.32794346  1
  O  O82  1  0.75274443  0.59813936  0.56116207  1
  O  O83  1  0.24725557  0.40186064  0.43883793  1
  O  O84  1  0.74725557  0.90186064  0.06116207  1
  O  O85  1  0.25274443  0.09813936  0.93883793  1
  O  O86  1  0.63327525  0.61594534  0.40661196  1
  O  O87  1  0.36672475  0.38405466  0.59338804  1
  O  O88  1  0.86672475  0.88405466  0.90661196  1
  O  O89  1  0.13327525  0.11594534  0.09338804  1
  O  O90  1  0.13338008  0.77575010  0.02329281  1
  O  O91  1  0.86661992  0.22424990  0.97670719  1
  O  O92  1  0.36661992  0.72424990  0.52329281  1
  O  O93  1  0.63338008  0.27575010  0.47670719  1
