# generated using pymatgen
data_VHO3
_symmetry_space_group_name_H-M   'P 1'
_cell_length_a   6.17562187
_cell_length_b   6.21759916
_cell_length_c   12.14103179
_cell_angle_alpha   93.52565982
_cell_angle_beta   86.46681288
_cell_angle_gamma   145.89861136
_symmetry_Int_Tables_number   1
_chemical_formula_structural   VHO3
_chemical_formula_sum   'V4 H4 O12'
_cell_volume   260.82885263
_cell_formula_units_Z   4
loop_
 _symmetry_equiv_pos_site_id
 _symmetry_equiv_pos_as_xyz
  1  'x, y, z'
loop_
 _atom_site_type_symbol
 _atom_site_label
 _atom_site_symmetry_multiplicity
 _atom_site_fract_x
 _atom_site_fract_y
 _atom_site_fract_z
 _atom_site_occupancy
  V  V0  1  0.07246092  0.92152651  0.86323583  1
  V  V1  1  0.92767609  0.07872580  0.13651297  1
  V  V2  1  0.78707570  0.21910174  0.86337849  1
  V  V3  1  0.21387341  0.78137823  0.13659226  1
  H  H4  1  0.20936449  0.59232001  0.50193138  1
  H  H5  1  0.64361940  0.88782861  0.48868739  1
  H  H6  1  0.40223145  0.10897879  0.48478122  1
  H  H7  1  0.53132305  0.44703709  0.50712593  1
  O  O8  1  0.61046733  0.38588597  0.89343703  1
  O  O9  1  0.38996964  0.61424706  0.10625640  1
  O  O10  1  0.92739346  0.07412745  0.91270770  1
  O  O11  1  0.07283900  0.92623438  0.08789499  1
  O  O12  1  0.24748436  0.75596543  0.89994325  1
  O  O13  1  0.75300964  0.24451427  0.09977207  1
  O  O14  1  0.07136101  0.92215390  0.73153475  1
  O  O15  1  0.92710207  0.07874987  0.26845596  1
  O  O16  1  0.80595909  0.20102679  0.73167703  1
  O  O17  1  0.19749323  0.79972246  0.26829453  1
  O  O18  1  0.38517086  0.61492639  0.49236570  1
  O  O19  1  0.63281280  0.38288024  0.50066113  1
