# generated using pymatgen
data_V3(H3O5)2
_symmetry_space_group_name_H-M   'P 1'
_cell_length_a   8.95753340
_cell_length_b   9.07775391
_cell_length_c   5.94510462
_cell_angle_alpha   88.32257747
_cell_angle_beta   90.00000000
_cell_angle_gamma   90.00000000
_symmetry_Int_Tables_number   1
_chemical_formula_structural   V3(H3O5)2
_chemical_formula_sum   'V6 H12 O20'
_cell_volume   483.21476520
_cell_formula_units_Z   2
loop_
 _symmetry_equiv_pos_site_id
 _symmetry_equiv_pos_as_xyz
  1  'x, y, z'
loop_
 _atom_site_type_symbol
 _atom_site_label
 _atom_site_symmetry_multiplicity
 _atom_site_fract_x
 _atom_site_fract_y
 _atom_site_fract_z
 _atom_site_occupancy
  V  V0  1  0.49880464  0.49916311  0.25292322  1
  V  V1  1  0.00119536  0.99916311  0.25292322  1
  V  V2  1  0.36079345  0.13618708  0.26744397  1
  V  V3  1  0.63640379  0.86347598  0.27427826  1
  V  V4  1  0.13920655  0.63618708  0.26744397  1
  V  V5  1  0.86359621  0.36347598  0.27427826  1
  H  H6  1  0.43887080  0.17638753  0.65011158  1
  H  H7  1  0.56765303  0.89048955  0.66489683  1
  H  H8  1  0.06112920  0.67638753  0.65011158  1
  H  H9  1  0.93234697  0.39048955  0.66489683  1
  H  H10  1  0.28765312  0.90812757  0.81719757  1
  H  H11  1  0.35840273  0.75342064  0.85397378  1
  H  H12  1  0.63671275  0.14033091  0.92381033  1
  H  H13  1  0.70500422  0.22656754  0.71704642  1
  H  H14  1  0.14159727  0.25342064  0.85397378  1
  H  H15  1  0.21234688  0.40812757  0.81719757  1
  H  H16  1  0.86328725  0.64033091  0.92381033  1
  H  H17  1  0.79499578  0.72656754  0.71704642  1
  O  O18  1  0.49215160  0.49300844  0.52509226  1
  O  O19  1  0.00784840  0.99300844  0.52509226  1
  O  O20  1  0.41244082  0.30501465  0.16399090  1
  O  O21  1  0.58599429  0.69606076  0.17140089  1
  O  O22  1  0.08755918  0.80501465  0.16399090  1
  O  O23  1  0.91400571  0.19606076  0.17140089  1
  O  O24  1  0.30539578  0.58626720  0.14760390  1
  O  O25  1  0.69328061  0.41167003  0.16665900  1
  O  O26  1  0.80671939  0.91167003  0.16665900  1
  O  O27  1  0.19460422  0.08626720  0.14760390  1
  O  O28  1  0.35018382  0.14004198  0.56308230  1
  O  O29  1  0.65213891  0.85394232  0.57312219  1
  O  O30  1  0.14981618  0.64004198  0.56308230  1
  O  O31  1  0.84786109  0.35394232  0.57312219  1
  O  O32  1  0.50572428  0.00526148  0.19717672  1
  O  O33  1  0.99427572  0.50526148  0.19717672  1
  O  O34  1  0.36951703  0.84594869  0.76810741  1
  O  O35  1  0.62186756  0.16207952  0.76286746  1
  O  O36  1  0.13048297  0.34594869  0.76810741  1
  O  O37  1  0.87813244  0.66207952  0.76286746  1
