# generated using pymatgen
data_V6H4O13
_symmetry_space_group_name_H-M   'P 1'
_cell_length_a   6.51003008
_cell_length_b   6.51003008
_cell_length_c   10.42548197
_cell_angle_alpha   79.71396153
_cell_angle_beta   100.28603847
_cell_angle_gamma   144.93112774
_symmetry_Int_Tables_number   1
_chemical_formula_structural   V6H4O13
_chemical_formula_sum   'V6 H4 O13'
_cell_volume   249.37130574
_cell_formula_units_Z   1
loop_
 _symmetry_equiv_pos_site_id
 _symmetry_equiv_pos_as_xyz
  1  'x, y, z'
loop_
 _atom_site_type_symbol
 _atom_site_label
 _atom_site_symmetry_multiplicity
 _atom_site_fract_x
 _atom_site_fract_y
 _atom_site_fract_z
 _atom_site_occupancy
  V  V0  1  0.64986022  0.35013978  0.99774967  1
  V  V1  1  0.35190946  0.64809054  0.00353630  1
  V  V2  1  0.59022207  0.40977793  0.60912352  1
  V  V3  1  0.40713431  0.59286569  0.36536263  1
  V  V4  1  0.28704257  0.71295743  0.63283778  1
  V  V5  1  0.71783491  0.28216509  0.38688847  1
  H  H6  1  0.81038633  0.18961367  0.87685796  1
  H  H7  1  0.92528293  0.07471707  0.49535723  1
  H  H8  1  0.51741284  0.48258716  0.80439851  1
  H  H9  1  0.58180881  0.41819119  0.19439918  1
  O  O10  1  0.81878770  0.18121230  0.97307596  1
  O  O11  1  0.19307656  0.80692344  0.00536379  1
  O  O12  1  0.12340594  0.87659406  0.61635320  1
  O  O13  1  0.89512146  0.10487854  0.40060526  1
  O  O14  1  0.75693160  0.24306840  0.59516868  1
  O  O15  1  0.25530326  0.74469674  0.41516616  1
  O  O16  1  0.49212543  0.50787457  0.00394181  1
  O  O17  1  0.59647146  0.40352854  0.80293465  1
  O  O18  1  0.38404627  0.61595373  0.19943817  1
  O  O19  1  0.32614500  0.67385500  0.79923137  1
  O  O20  1  0.66179189  0.33820811  0.19928141  1
  O  O21  1  0.43622090  0.56377910  0.58157994  1
  O  O22  1  0.56576608  0.43423392  0.42159236  1
