# generated using pymatgen
data_V3(H3O5)2
_symmetry_space_group_name_H-M   'P 1'
_cell_length_a   8.81160222
_cell_length_b   9.11377897
_cell_length_c   5.81707741
_cell_angle_alpha   87.38705070
_cell_angle_beta   94.66676209
_cell_angle_gamma   91.39088673
_symmetry_Int_Tables_number   1
_chemical_formula_structural   V3(H3O5)2
_chemical_formula_sum   'V6 H12 O20'
_cell_volume   465.01997334
_cell_formula_units_Z   2
loop_
 _symmetry_equiv_pos_site_id
 _symmetry_equiv_pos_as_xyz
  1  'x, y, z'
loop_
 _atom_site_type_symbol
 _atom_site_label
 _atom_site_symmetry_multiplicity
 _atom_site_fract_x
 _atom_site_fract_y
 _atom_site_fract_z
 _atom_site_occupancy
  V  V0  1  0.49160006  0.51180141  0.26609751  1
  V  V1  1  0.99395987  0.99741254  0.27383292  1
  V  V2  1  0.37208660  0.13870037  0.24208595  1
  V  V3  1  0.63172758  0.87533843  0.24429514  1
  V  V4  1  0.12496195  0.62951424  0.29959942  1
  V  V5  1  0.85580941  0.35774603  0.29456984  1
  H  H6  1  0.61119051  0.55981440  0.64618351  1
  H  H7  1  0.09776587  0.92663071  0.65153478  1
  H  H8  1  0.36549535  0.90111984  0.69666866  1
  H  H9  1  0.27235322  0.75191028  0.72415225  1
  H  H10  1  0.71232452  0.10017011  0.84708058  1
  H  H11  1  0.57694604  0.17273835  0.67344613  1
  H  H12  1  0.76637989  0.26146592  0.68861285  1
  H  H13  1  0.12914728  0.21568344  0.83944897  1
  H  H14  1  0.09937317  0.37683077  0.74729846  1
  H  H15  1  0.29872442  0.33981027  0.97768876  1
  H  H16  1  0.87762686  0.61339359  0.70344372  1
  H  H17  1  0.77168827  0.74896408  0.71135981  1
  O  O18  1  0.51349191  0.51637286  0.56880147  1
  O  O19  1  0.00830983  0.98581731  0.57889342  1
  O  O20  1  0.38578755  0.32828002  0.11458397  1
  O  O21  1  0.57936708  0.69329956  0.17759206  1
  O  O22  1  0.07123339  0.81059897  0.22534550  1
  O  O23  1  0.90885298  0.19209078  0.19210723  1
  O  O24  1  0.29624988  0.58994218  0.18373692  1
  O  O25  1  0.67108202  0.40557402  0.20559341  1
  O  O26  1  0.80406066  0.92967525  0.12717146  1
  O  O27  1  0.18510361  0.08322283  0.18226022  1
  O  O28  1  0.42103706  0.14326461  0.52171334  1
  O  O29  1  0.64831748  0.89056744  0.52623665  1
  O  O30  1  0.14051282  0.60421325  0.58453537  1
  O  O31  1  0.86746077  0.34003792  0.59018218  1
  O  O32  1  0.49375239  0.01174447  0.12371472  1
  O  O33  1  0.98065608  0.49967012  0.19162202  1
  O  O34  1  0.27206871  0.85742627  0.75253188  1
  O  O35  1  0.67340793  0.19317786  0.77651821  1
  O  O36  1  0.18069721  0.30712690  0.79134110  1
  O  O37  1  0.77881278  0.64233859  0.74762763  1
