# generated using pymatgen
data_MoH4O5
_symmetry_space_group_name_H-M   'P 1'
_cell_length_a   7.85075749
_cell_length_b   6.85192621
_cell_length_c   3.99701156
_cell_angle_alpha   89.99780604
_cell_angle_beta   90.10930435
_cell_angle_gamma   91.20425224
_symmetry_Int_Tables_number   1
_chemical_formula_structural   MoH4O5
_chemical_formula_sum   'Mo2 H8 O10'
_cell_volume   214.96260636
_cell_formula_units_Z   2
loop_
 _symmetry_equiv_pos_site_id
 _symmetry_equiv_pos_as_xyz
  1  'x, y, z'
loop_
 _atom_site_type_symbol
 _atom_site_label
 _atom_site_symmetry_multiplicity
 _atom_site_fract_x
 _atom_site_fract_y
 _atom_site_fract_z
 _atom_site_occupancy
  Mo  Mo0  1  0.71724688  0.99359783  0.91489853  1
  Mo  Mo1  1  0.21700800  0.99346762  0.08449851  1
  H  H2  1  0.06970181  0.45495968  0.40818924  1
  H  H3  1  0.92855223  0.58420815  0.56535397  1
  H  H4  1  0.42840960  0.58426071  0.43441662  1
  H  H5  1  0.56955384  0.45494254  0.59217061  1
  H  H6  1  0.87045115  0.33107324  0.89420014  1
  H  H7  1  0.68316865  0.64724226  0.14309264  1
  H  H8  1  0.18323649  0.64722299  0.85625660  1
  H  H9  1  0.37057758  0.33103898  0.10652250  1
  O  O10  1  0.99556905  0.99963135  0.01138616  1
  O  O11  1  0.49543761  0.99986963  0.98748435  1
  O  O12  1  0.02519740  0.50399303  0.62110207  1
  O  O13  1  0.52530226  0.50348757  0.37942279  1
  O  O14  1  0.73769811  0.98564801  0.47588981  1
  O  O15  1  0.23805600  0.98556252  0.52373952  1
  O  O16  1  0.76142761  0.27095323  0.96599004  1
  O  O17  1  0.75658692  0.71731674  0.97757864  1
  O  O18  1  0.25687002  0.71723469  0.02214722  1
  O  O19  1  0.26181779  0.27082023  0.03416303  1
