# generated using pymatgen
data_Mo(HO2)2
_symmetry_space_group_name_H-M   'P 1'
_cell_length_a   7.93595420
_cell_length_b   3.76432708
_cell_length_c   6.57764800
_cell_angle_alpha   109.02700045
_cell_angle_beta   114.10531052
_cell_angle_gamma   92.13965930
_symmetry_Int_Tables_number   1
_chemical_formula_structural   Mo(HO2)2
_chemical_formula_sum   'Mo2 H4 O8'
_cell_volume   166.22065778
_cell_formula_units_Z   2
loop_
 _symmetry_equiv_pos_site_id
 _symmetry_equiv_pos_as_xyz
  1  'x, y, z'
loop_
 _atom_site_type_symbol
 _atom_site_label
 _atom_site_symmetry_multiplicity
 _atom_site_fract_x
 _atom_site_fract_y
 _atom_site_fract_z
 _atom_site_occupancy
  Mo  Mo0  1  0.79067901  0.20864541  0.94405375  1
  Mo  Mo1  1  0.20162954  0.81460949  0.07078454  1
  H  H2  1  0.65808502  0.97241468  0.43600390  1
  H  H3  1  0.11279022  0.51084546  0.57585042  1
  H  H4  1  0.82995418  0.76765808  0.49840153  1
  H  H5  1  0.31599156  0.03765821  0.52711241  1
  O  O6  1  0.54772017  0.12328707  0.79696487  1
  O  O7  1  0.44313989  0.89391859  0.19670099  1
  O  O8  1  0.11675375  0.28809209  0.03720579  1
  O  O9  1  0.86338368  0.70461547  0.92927351  1
  O  O10  1  0.83811442  0.38255862  0.24603604  1
  O  O11  1  0.16170022  0.63641600  0.74963490  1
  O  O12  1  0.77948696  0.98509556  0.56867026  1
  O  O13  1  0.19813839  0.99307426  0.38084007  1
