# generated using pymatgen
data_Cu2WO4
_symmetry_space_group_name_H-M   'P 1'
_cell_length_a   5.94600673
_cell_length_b   8.00992677
_cell_length_c   8.30080518
_cell_angle_alpha   110.17809285
_cell_angle_beta   96.09247399
_cell_angle_gamma   93.26062659
_symmetry_Int_Tables_number   1
_chemical_formula_structural   Cu2WO4
_chemical_formula_sum   'Cu8 W4 O16'
_cell_volume   367.12729273
_cell_formula_units_Z   4
loop_
 _symmetry_equiv_pos_site_id
 _symmetry_equiv_pos_as_xyz
  1  'x, y, z'
loop_
 _atom_site_type_symbol
 _atom_site_label
 _atom_site_symmetry_multiplicity
 _atom_site_fract_x
 _atom_site_fract_y
 _atom_site_fract_z
 _atom_site_occupancy
  Cu  Cu0  1  0.29067822  0.95648451  0.39376916  1
  Cu  Cu1  1  0.09154811  0.24887588  0.99814466  1
  Cu  Cu2  1  0.24252539  0.48710115  0.34038749  1
  Cu  Cu3  1  0.08204505  0.25510838  0.50610246  1
  Cu  Cu4  1  0.94954011  0.87843948  0.93901784  1
  Cu  Cu5  1  0.85440545  0.56673870  0.61048427  1
  Cu  Cu6  1  0.93025566  0.00306878  0.64809717  1
  Cu  Cu7  1  0.23217142  0.61569024  0.05156539  1
  W  W8  1  0.75609219  0.60794518  0.23026410  1
  W  W9  1  0.58263754  0.32455525  0.82134564  1
  W  W10  1  0.42444959  0.88960340  0.76587458  1
  W  W11  1  0.59887094  0.17125504  0.17433627  1
  O  O12  1  0.52076220  0.54194114  0.01043345  1
  O  O13  1  0.97000431  0.70612777  0.13348014  1
  O  O14  1  0.66375702  0.95592060  0.98413278  1
  O  O15  1  0.56139489  0.70089188  0.65092005  1
  O  O16  1  0.80029340  0.32333419  0.05040308  1
  O  O17  1  0.52922130  0.41965897  0.28185848  1
  O  O18  1  0.83935441  0.17849275  0.33007667  1
  O  O19  1  0.64601321  0.07515703  0.70842967  1
  O  O20  1  0.62558274  0.79679533  0.34868285  1
  O  O21  1  0.96801921  0.57696681  0.40485045  1
  O  O22  1  0.20830448  0.91523727  0.59039379  1
  O  O23  1  0.21256029  0.78738103  0.86054544  1
  O  O24  1  0.81179839  0.43054026  0.75348169  1
  O  O25  1  0.33677590  0.32221381  0.67139675  1
  O  O26  1  0.38015489  0.16929823  0.94350882  1
  O  O27  1  0.36888371  0.06307694  0.23951685  1
