# generated using pymatgen
data_H2WO5
_symmetry_space_group_name_H-M   'P 1'
_cell_length_a   12.20565594
_cell_length_b   3.94785219
_cell_length_c   12.53955695
_cell_angle_alpha   90.00000000
_cell_angle_beta   144.45345927
_cell_angle_gamma   90.00000000
_symmetry_Int_Tables_number   1
_chemical_formula_structural   H2WO5
_chemical_formula_sum   'H8 W4 O20'
_cell_volume   351.27915633
_cell_formula_units_Z   4
loop_
 _symmetry_equiv_pos_site_id
 _symmetry_equiv_pos_as_xyz
  1  'x, y, z'
loop_
 _atom_site_type_symbol
 _atom_site_label
 _atom_site_symmetry_multiplicity
 _atom_site_fract_x
 _atom_site_fract_y
 _atom_site_fract_z
 _atom_site_occupancy
  H  H0  1  0.32867597  0.56862143  0.18420735  1
  H  H1  1  0.17258241  0.30295190  0.09465659  1
  H  H2  1  0.67132403  0.06862143  0.31579265  1
  H  H3  1  0.82741759  0.80295190  0.40534341  1
  H  H4  1  0.67132403  0.43137857  0.81579265  1
  H  H5  1  0.82741759  0.69704810  0.90534341  1
  H  H6  1  0.17258241  0.19704810  0.59465659  1
  H  H7  1  0.32867597  0.93137857  0.68420735  1
  W  W8  1  0.18445584  0.42649062  0.86599401  1
  W  W9  1  0.81554416  0.92649062  0.63400599  1
  W  W10  1  0.81554416  0.57350938  0.13400599  1
  W  W11  1  0.18445584  0.07350938  0.36599401  1
  O  O12  1  0.15700408  0.42439529  0.70565001  1
  O  O13  1  0.84299592  0.92439529  0.79434999  1
  O  O14  1  0.84299592  0.57560471  0.29434999  1
  O  O15  1  0.15700408  0.07560471  0.20565001  1
  O  O16  1  0.10247972  0.92892810  0.82208445  1
  O  O17  1  0.89752028  0.42892810  0.67791555  1
  O  O18  1  0.89752028  0.07107190  0.17791555  1
  O  O19  1  0.10247972  0.57107190  0.32208445  1
  O  O20  1  0.20790671  0.46700681  0.06592235  1
  O  O21  1  0.79209329  0.96700681  0.43407765  1
  O  O22  1  0.79209329  0.53299319  0.93407765  1
  O  O23  1  0.20790671  0.03299319  0.56592235  1
  O  O24  1  0.44303756  0.24711491  0.08146651  1
  O  O25  1  0.55696244  0.74711491  0.41853349  1
  O  O26  1  0.55696244  0.75288509  0.91853349  1
  O  O27  1  0.44303756  0.25288509  0.58146651  1
  O  O28  1  0.43654735  0.61929716  0.07906395  1
  O  O29  1  0.56345265  0.11929716  0.42093605  1
  O  O30  1  0.56345265  0.38070284  0.92093605  1
  O  O31  1  0.43654735  0.88070284  0.57906395  1
