# generated using pymatgen
data_Zn(HO)2
_symmetry_space_group_name_H-M   'P 1'
_cell_length_a   5.43770409
_cell_length_b   6.33826778
_cell_length_c   5.95783991
_cell_angle_alpha   90.00000000
_cell_angle_beta   90.00000000
_cell_angle_gamma   90.00000000
_symmetry_Int_Tables_number   1
_chemical_formula_structural   Zn(HO)2
_chemical_formula_sum   'Zn4 H8 O8'
_cell_volume   205.34067395
_cell_formula_units_Z   4
loop_
 _symmetry_equiv_pos_site_id
 _symmetry_equiv_pos_as_xyz
  1  'x, y, z'
loop_
 _atom_site_type_symbol
 _atom_site_label
 _atom_site_symmetry_multiplicity
 _atom_site_fract_x
 _atom_site_fract_y
 _atom_site_fract_z
 _atom_site_occupancy
  Zn  Zn0  1  0.86601179  0.53757580  0.20100011  1
  Zn  Zn1  1  0.63398821  0.46242420  0.70100011  1
  Zn  Zn2  1  0.36601179  0.96242420  0.79899989  1
  Zn  Zn3  1  0.13398821  0.03757580  0.29899989  1
  H  H4  1  0.41542702  0.47028650  0.34904104  1
  H  H5  1  0.08457298  0.52971350  0.84904104  1
  H  H6  1  0.91542702  0.02971350  0.65095896  1
  H  H7  1  0.58457298  0.97028650  0.15095896  1
  H  H8  1  0.93340185  0.85206243  0.97448245  1
  H  H9  1  0.56659815  0.14793757  0.47448245  1
  H  H10  1  0.43340185  0.64793757  0.02551755  1
  H  H11  1  0.06659815  0.35206243  0.52551755  1
  O  O12  1  0.56694645  0.55103424  0.38477370  1
  O  O13  1  0.93305355  0.44896576  0.88477370  1
  O  O14  1  0.06694645  0.94896576  0.61522630  1
  O  O15  1  0.43305355  0.05103424  0.11522630  1
  O  O16  1  0.89794561  0.85315613  0.13550030  1
  O  O17  1  0.60205439  0.14684387  0.63550030  1
  O  O18  1  0.39794561  0.64684387  0.86449970  1
  O  O19  1  0.10205439  0.35315613  0.36449970  1
