# generated using pymatgen
data_U(HO2)2
_symmetry_space_group_name_H-M   'P 1'
_cell_length_a   5.55410387
_cell_length_b   5.55410387
_cell_length_c   7.12091963
_cell_angle_alpha   90.00000000
_cell_angle_beta   90.00000000
_cell_angle_gamma   44.05665948
_symmetry_Int_Tables_number   1
_chemical_formula_structural   U(HO2)2
_chemical_formula_sum   'U2 H4 O8'
_cell_volume   152.74944598
_cell_formula_units_Z   2
loop_
 _symmetry_equiv_pos_site_id
 _symmetry_equiv_pos_as_xyz
  1  'x, y, z'
loop_
 _atom_site_type_symbol
 _atom_site_label
 _atom_site_symmetry_multiplicity
 _atom_site_fract_x
 _atom_site_fract_y
 _atom_site_fract_z
 _atom_site_occupancy
  U  U0  1  0.49432153  0.49432153  0.50305131  1
  U  U1  1  0.00567847  0.00567847  0.00305131  1
  H  H2  1  0.82640002  0.82640002  0.36366659  1
  H  H3  1  0.67359998  0.67359998  0.86366659  1
  H  H4  1  0.16053740  0.16053740  0.63802751  1
  H  H5  1  0.33946260  0.33946260  0.13802751  1
  O  O6  1  0.33178266  0.33178266  0.60337713  1
  O  O7  1  0.65660582  0.65660582  0.40337996  1
  O  O8  1  0.16821734  0.16821734  0.10337713  1
  O  O9  1  0.84339418  0.84339418  0.90337996  1
  O  O10  1  0.06448094  0.06448094  0.65065763  1
  O  O11  1  0.92284491  0.92284491  0.35607087  1
  O  O12  1  0.43551906  0.43551906  0.15065763  1
  O  O13  1  0.57715509  0.57715509  0.85607087  1
