# generated using pymatgen
data_Sn7(SBr5)2
_symmetry_space_group_name_H-M   'P 1'
_cell_length_a   11.42051630
_cell_length_b   11.58955268
_cell_length_c   6.70563963
_cell_angle_alpha   87.21191923
_cell_angle_beta   85.72118180
_cell_angle_gamma   121.47914244
_symmetry_Int_Tables_number   1
_chemical_formula_structural   Sn7(SBr5)2
_chemical_formula_sum   'Sn7 S2 Br10'
_cell_volume   750.80431306
_cell_formula_units_Z   1
loop_
 _symmetry_equiv_pos_site_id
 _symmetry_equiv_pos_as_xyz
  1  'x, y, z'
loop_
 _atom_site_type_symbol
 _atom_site_label
 _atom_site_symmetry_multiplicity
 _atom_site_fract_x
 _atom_site_fract_y
 _atom_site_fract_z
 _atom_site_occupancy
  Sn  Sn0  1  0.23080926  0.77976816  0.29601279  1
  Sn  Sn1  1  0.27727634  0.45844046  0.32642814  1
  Sn  Sn2  1  0.03652756  0.01289366  0.12963915  1
  Sn  Sn3  1  0.57238603  0.86627021  0.08424844  1
  Sn  Sn4  1  0.39287444  0.12055261  0.57656095  1
  Sn  Sn5  1  0.70246957  0.59645508  0.63856973  1
  Sn  Sn6  1  0.89462866  0.27400525  0.53446106  1
  S  S7  1  0.19413673  0.97246946  0.36972640  1
  S  S8  1  0.05776347  0.22920893  0.31189168  1
  Br  Br9  1  0.91191927  0.76566047  0.82574601  1
  Br  Br10  1  0.13613373  0.45514746  0.70331443  1
  Br  Br11  1  0.31130781  0.85804003  0.87845020  1
  Br  Br12  1  0.24822998  0.20234609  0.83650258  1
  Br  Br13  1  0.49884925  0.61751815  0.84769479  1
  Br  Br14  1  0.81169425  0.03691972  0.82723437  1
  Br  Br15  1  0.46030433  0.36766698  0.33030047  1
  Br  Br16  1  0.72369438  0.79153423  0.34610315  1
  Br  Br17  1  0.61957105  0.08863215  0.29840232  1
  Br  Br18  1  0.96292488  0.58256790  0.30061034  1
