# generated using pymatgen
data_Ti2NiH
_symmetry_space_group_name_H-M   'P 1'
_cell_length_a   8.08636196
_cell_length_b   8.08750916
_cell_length_c   8.08926276
_cell_angle_alpha   59.98062212
_cell_angle_beta   59.97442291
_cell_angle_gamma   59.96794959
_symmetry_Int_Tables_number   1
_chemical_formula_structural   Ti2NiH
_chemical_formula_sum   'Ti16 Ni8 H8'
_cell_volume   373.86003102
_cell_formula_units_Z   8
loop_
 _symmetry_equiv_pos_site_id
 _symmetry_equiv_pos_as_xyz
  1  'x, y, z'
loop_
 _atom_site_type_symbol
 _atom_site_label
 _atom_site_symmetry_multiplicity
 _atom_site_fract_x
 _atom_site_fract_y
 _atom_site_fract_z
 _atom_site_occupancy
  Ti  Ti0  1  0.56510269  0.18499991  0.18486690  1
  Ti  Ti1  1  0.18520146  0.56509403  0.56502364  1
  Ti  Ti2  1  0.18497335  0.18470808  0.56518105  1
  Ti  Ti3  1  0.56501433  0.56505359  0.18502473  1
  Ti  Ti4  1  0.18508651  0.56516668  0.18469064  1
  Ti  Ti5  1  0.56504871  0.18509082  0.56501954  1
  Ti  Ti6  1  0.43499953  0.81500289  0.81512640  1
  Ti  Ti7  1  0.81480631  0.43481545  0.43491388  1
  Ti  Ti8  1  0.81499688  0.81523058  0.43498716  1
  Ti  Ti9  1  0.43497794  0.43496618  0.81487439  1
  Ti  Ti10  1  0.81494037  0.43493854  0.81529302  1
  Ti  Ti11  1  0.43488642  0.81485738  0.43496720  1
  Ti  Ti12  1  0.99986219  0.50000704  0.00000610  1
  Ti  Ti13  1  0.99997634  0.00001304  0.50004081  1
  Ti  Ti14  1  0.50003278  0.99984358  0.99996588  1
  Ti  Ti15  1  0.00009046  0.00002860  0.99987273  1
  Ni  Ni16  1  0.78485424  0.14553756  0.78481537  1
  Ni  Ni17  1  0.78477936  0.78469064  0.14577503  1
  Ni  Ni18  1  0.14560019  0.78477725  0.78482267  1
  Ni  Ni19  1  0.78478702  0.78473510  0.78480869  1
  Ni  Ni20  1  0.21519859  0.85440300  0.21521127  1
  Ni  Ni21  1  0.21520161  0.21528172  0.85430097  1
  Ni  Ni22  1  0.85444073  0.21523132  0.21517126  1
  Ni  Ni23  1  0.21518647  0.21527704  0.21523386  1
  H  H24  1  0.49994369  0.99996288  0.50011093  1
  H  H25  1  0.50002478  0.50013191  0.99998528  1
  H  H26  1  0.00001226  0.49997250  0.50003210  1
  H  H27  1  0.50000388  0.50003228  0.49988623  1
  H  H28  1  0.62487490  0.62503212  0.62504275  1
  H  H29  1  0.37511253  0.37507625  0.37498731  1
  H  H30  1  0.87500715  0.87504301  0.87495239  1
  H  H31  1  0.12497634  0.12499900  0.12500982  1
