# generated using pymatgen
data_Rb
_symmetry_space_group_name_H-M   'P 1'
_cell_length_a   9.36948379
_cell_length_b   11.11523882
_cell_length_c   10.83567151
_cell_angle_alpha   50.96372135
_cell_angle_beta   61.69284551
_cell_angle_gamma   64.41101067
_symmetry_Int_Tables_number   1
_chemical_formula_structural   Rb
_chemical_formula_sum   Rb8
_cell_volume   756.92590940
_cell_formula_units_Z   8
loop_
 _symmetry_equiv_pos_site_id
 _symmetry_equiv_pos_as_xyz
  1  'x, y, z'
loop_
 _atom_site_type_symbol
 _atom_site_label
 _atom_site_symmetry_multiplicity
 _atom_site_fract_x
 _atom_site_fract_y
 _atom_site_fract_z
 _atom_site_occupancy
  Rb  Rb0  1  0.44157222  0.61570679  0.15553155  1
  Rb  Rb1  1  0.96488912  0.01789243  0.19284257  1
  Rb  Rb2  1  0.66967678  0.10056619  0.62199386  1
  Rb  Rb3  1  0.44926288  0.22449655  0.02630508  1
  Rb  Rb4  1  0.44343581  0.73096210  0.54317173  1
  Rb  Rb5  1  0.93318762  0.54725505  0.73202924  1
  Rb  Rb6  1  0.14590285  0.15381951  0.61343062  1
  Rb  Rb7  1  0.95061173  0.63026636  0.11846835  1
