# generated using pymatgen
data_TeAs(Se2F3)2
_symmetry_space_group_name_H-M   'P 1'
_cell_length_a   13.38736883
_cell_length_b   16.54070413
_cell_length_c   19.40820456
_cell_angle_alpha   90.00000000
_cell_angle_beta   90.00000000
_cell_angle_gamma   90.00000000
_symmetry_Int_Tables_number   1
_chemical_formula_structural   TeAs(Se2F3)2
_chemical_formula_sum   'Te16 As16 Se64 F96'
_cell_volume   4297.68502289
_cell_formula_units_Z   16
loop_
 _symmetry_equiv_pos_site_id
 _symmetry_equiv_pos_as_xyz
  1  'x, y, z'
loop_
 _atom_site_type_symbol
 _atom_site_label
 _atom_site_symmetry_multiplicity
 _atom_site_fract_x
 _atom_site_fract_y
 _atom_site_fract_z
 _atom_site_occupancy
  Te  Te0  1  0.21763657  0.86065401  0.70208750  1
  Te  Te1  1  0.27970613  0.25530008  0.03363500  1
  Te  Te2  1  0.71763657  0.63934599  0.70208750  1
  Te  Te3  1  0.77970613  0.75530008  0.46636500  1
  Te  Te4  1  0.28236343  0.63934599  0.20208750  1
  Te  Te5  1  0.22029387  0.24469992  0.53363500  1
  Te  Te6  1  0.77970613  0.24469992  0.03363500  1
  Te  Te7  1  0.21763657  0.13934599  0.79791250  1
  Te  Te8  1  0.28236343  0.36065401  0.29791250  1
  Te  Te9  1  0.27970613  0.74469992  0.46636500  1
  Te  Te10  1  0.71763657  0.36065401  0.79791250  1
  Te  Te11  1  0.22029387  0.75530008  0.96636500  1
  Te  Te12  1  0.72029387  0.74469992  0.96636500  1
  Te  Te13  1  0.78236343  0.13934599  0.29791250  1
  Te  Te14  1  0.78236343  0.86065401  0.20208750  1
  Te  Te15  1  0.72029387  0.25530008  0.53363500  1
  As  As16  1  0.47787787  0.40384848  0.64588032  1
  As  As17  1  0.93435402  0.41409450  0.63789279  1
  As  As18  1  0.97787787  0.90384848  0.85411968  1
  As  As19  1  0.06564598  0.41409450  0.13789279  1
  As  As20  1  0.97787787  0.09615152  0.64588032  1
  As  As21  1  0.43435402  0.91409450  0.86210721  1
  As  As22  1  0.56564598  0.08590550  0.13789279  1
  As  As23  1  0.43435402  0.08590550  0.63789279  1
  As  As24  1  0.93435402  0.58590550  0.86210721  1
  As  As25  1  0.06564598  0.58590550  0.36210721  1
  As  As26  1  0.56564598  0.91409450  0.36210721  1
  As  As27  1  0.02212213  0.09615152  0.14588032  1
  As  As28  1  0.02212213  0.90384848  0.35411968  1
  As  As29  1  0.52212213  0.59615152  0.35411968  1
  As  As30  1  0.52212213  0.40384848  0.14588032  1
  As  As31  1  0.47787787  0.59615152  0.85411968  1
  Se  Se32  1  0.11329783  0.23644424  0.96340163  1
  Se  Se33  1  0.61864564  0.20001438  0.35300784  1
  Se  Se34  1  0.36518639  0.22149719  0.26535590  1
  Se  Se35  1  0.36925283  0.39094510  0.41572712  1
  Se  Se36  1  0.34033505  0.38732567  0.97139255  1
  Se  Se37  1  0.75101929  0.87777791  0.70851027  1
  Se  Se38  1  0.11864564  0.29998562  0.35300784  1
  Se  Se39  1  0.74898071  0.37777791  0.29148973  1
  Se  Se40  1  0.84033505  0.88732567  0.52860745  1
  Se  Se41  1  0.74898071  0.62222209  0.20851027  1
  Se  Se42  1  0.15966495  0.11267433  0.47139255  1
  Se  Se43  1  0.11963812  0.35354169  0.46253213  1
  Se  Se44  1  0.25101929  0.62222209  0.70851027  1
  Se  Se45  1  0.13074717  0.89094510  0.58427288  1
  Se  Se46  1  0.11329783  0.76355576  0.53659837  1
  Se  Se47  1  0.63074717  0.60905490  0.58427288  1
  Se  Se48  1  0.88036188  0.64645831  0.53746787  1
  Se  Se49  1  0.70587979  0.07527112  0.90334742  1
  Se  Se50  1  0.38135436  0.79998562  0.64699216  1
  Se  Se51  1  0.13481361  0.72149719  0.73464410  1
  Se  Se52  1  0.11963812  0.64645831  0.03746787  1
  Se  Se53  1  0.63481361  0.22149719  0.76535590  1
  Se  Se54  1  0.13481361  0.27850281  0.76535590  1
  Se  Se55  1  0.63481361  0.77850281  0.73464410  1
  Se  Se56  1  0.88670217  0.23644424  0.46340163  1
  Se  Se57  1  0.20587979  0.57527112  0.59665258  1
  Se  Se58  1  0.61963812  0.14645831  0.46253213  1
  Se  Se59  1  0.34033505  0.61267433  0.52860745  1
  Se  Se60  1  0.86518639  0.27850281  0.26535590  1
  Se  Se61  1  0.11864564  0.70001438  0.14699216  1
  Se  Se62  1  0.86925283  0.10905490  0.41572712  1
  Se  Se63  1  0.20587979  0.42472888  0.90334742  1
  Se  Se64  1  0.88135436  0.70001438  0.64699216  1
  Se  Se65  1  0.61329783  0.73644424  0.53659837  1
  Se  Se66  1  0.88135436  0.29998562  0.85300784  1
  Se  Se67  1  0.38036188  0.14645831  0.96253213  1
  Se  Se68  1  0.75101929  0.12222209  0.79148973  1
  Se  Se69  1  0.38670217  0.26355576  0.46340163  1
  Se  Se70  1  0.24898071  0.87777791  0.20851027  1
  Se  Se71  1  0.61963812  0.85354169  0.03746787  1
  Se  Se72  1  0.79412021  0.57527112  0.09665258  1
  Se  Se73  1  0.38670217  0.73644424  0.03659837  1
  Se  Se74  1  0.84033505  0.11267433  0.97139255  1
  Se  Se75  1  0.38036188  0.85354169  0.53746787  1
  Se  Se76  1  0.79412021  0.42472888  0.40334742  1
  Se  Se77  1  0.61864564  0.79998562  0.14699216  1
  Se  Se78  1  0.15966495  0.88732567  0.02860745  1
  Se  Se79  1  0.65966495  0.61267433  0.02860745  1
  Se  Se80  1  0.24898071  0.12222209  0.29148973  1
  Se  Se81  1  0.88670217  0.76355576  0.03659837  1
  Se  Se82  1  0.65966495  0.38732567  0.47139255  1
  Se  Se83  1  0.36518639  0.77850281  0.23464410  1
  Se  Se84  1  0.88036188  0.35354169  0.96253213  1
  Se  Se85  1  0.36925283  0.60905490  0.08427288  1
  Se  Se86  1  0.38135436  0.20001438  0.85300784  1
  Se  Se87  1  0.29412021  0.07527112  0.40334742  1
  Se  Se88  1  0.63074717  0.39094510  0.91572712  1
  Se  Se89  1  0.29412021  0.92472888  0.09665258  1
  Se  Se90  1  0.25101929  0.37777791  0.79148973  1
  Se  Se91  1  0.86518639  0.72149719  0.23464410  1
  Se  Se92  1  0.13074717  0.10905490  0.91572712  1
  Se  Se93  1  0.70587979  0.92472888  0.59665258  1
  Se  Se94  1  0.61329783  0.26355576  0.96340163  1
  Se  Se95  1  0.86925283  0.89094510  0.08427288  1
  F  F96  1  0.54114620  0.31862792  0.61002150  1
  F  F97  1  0.13201292  0.67557453  0.33770260  1
  F  F98  1  0.32719036  0.02721337  0.65991289  1
  F  F99  1  0.13201292  0.32442547  0.16229740  1
  F  F100  1  0.04200680  0.35763488  0.61368275  1
  F  F101  1  0.90381206  0.04834075  0.15865340  1
  F  F102  1  0.04200680  0.64236512  0.88631725  1
  F  F103  1  0.36118504  0.35484078  0.63433627  1
  F  F104  1  0.54200680  0.14236512  0.61368275  1
  F  F105  1  0.45799320  0.14236512  0.11368275  1
  F  F106  1  0.40381206  0.45165925  0.15865340  1
  F  F107  1  0.67280964  0.97278663  0.34008711  1
  F  F108  1  0.95799320  0.35763488  0.11368275  1
  F  F109  1  0.51899361  0.07770868  0.22220813  1
  F  F110  1  0.63201292  0.17557453  0.16229740  1
  F  F111  1  0.09618794  0.04834075  0.65865340  1
  F  F112  1  0.58346268  0.51091770  0.32037786  1
  F  F113  1  0.82719036  0.52721337  0.84008711  1
  F  F114  1  0.01056118  0.14043401  0.22938901  1
  F  F115  1  0.47005421  0.44644230  0.56179330  1
  F  F116  1  0.91653732  0.01091770  0.67962214  1
  F  F117  1  0.63201292  0.82442547  0.33770260  1
  F  F118  1  0.86118504  0.85484078  0.86566373  1
  F  F119  1  0.45799320  0.85763488  0.38631725  1
  F  F120  1  0.09618794  0.95165925  0.84134660  1
  F  F121  1  0.95885380  0.18137208  0.11002150  1
  F  F122  1  0.63881496  0.64515922  0.36566373  1
  F  F123  1  0.48943882  0.64043401  0.77061099  1
  F  F124  1  0.38670067  0.90004924  0.94752516  1
  F  F125  1  0.11329933  0.59995076  0.44752516  1
  F  F126  1  0.45885380  0.31862792  0.11002150  1
  F  F127  1  0.38670067  0.09995076  0.55247484  1
  F  F128  1  0.08346268  0.01091770  0.17962214  1
  F  F129  1  0.86118504  0.14515922  0.63433627  1
  F  F130  1  0.41653732  0.48908230  0.67962214  1
  F  F131  1  0.95885380  0.81862792  0.38997850  1
  F  F132  1  0.99526112  0.50409470  0.61161157  1
  F  F133  1  0.52994579  0.44644230  0.06179330  1
  F  F134  1  0.97005421  0.94644230  0.93820670  1
  F  F135  1  0.48100639  0.07770868  0.72220813  1
  F  F136  1  0.36798708  0.82442547  0.83770260  1
  F  F137  1  0.00473888  0.50409470  0.11161157  1
  F  F138  1  0.13881496  0.85484078  0.36566373  1
  F  F139  1  0.95799320  0.64236512  0.38631725  1
  F  F140  1  0.97005421  0.05355770  0.56179330  1
  F  F141  1  0.59618794  0.54834075  0.84134660  1
  F  F142  1  0.50473888  0.00409470  0.38838843  1
  F  F143  1  0.01056118  0.85956599  0.27061099  1
  F  F144  1  0.32719036  0.97278663  0.84008711  1
  F  F145  1  0.41653732  0.51091770  0.82037786  1
  F  F146  1  0.61329933  0.09995076  0.05247484  1
  F  F147  1  0.98943882  0.14043401  0.72938901  1
  F  F148  1  0.98100639  0.57770868  0.77779187  1
  F  F149  1  0.36798708  0.17557453  0.66229740  1
  F  F150  1  0.01899361  0.42229132  0.22220813  1
  F  F151  1  0.67280964  0.02721337  0.15991289  1
  F  F152  1  0.90381206  0.95165925  0.34134660  1
  F  F153  1  0.86798708  0.32442547  0.66229740  1
  F  F154  1  0.47005421  0.55355770  0.93820670  1
  F  F155  1  0.51056118  0.35956599  0.22938901  1
  F  F156  1  0.88670067  0.40004924  0.55247484  1
  F  F157  1  0.63881496  0.35484078  0.13433627  1
  F  F158  1  0.08346268  0.98908230  0.32037786  1
  F  F159  1  0.59618794  0.45165925  0.65865340  1
  F  F160  1  0.88670067  0.59995076  0.94752516  1
  F  F161  1  0.50473888  0.99590530  0.11161157  1
  F  F162  1  0.54114620  0.68137208  0.88997850  1
  F  F163  1  0.17280964  0.47278663  0.15991289  1
  F  F164  1  0.01899361  0.57770868  0.27779187  1
  F  F165  1  0.45885380  0.68137208  0.38997850  1
  F  F166  1  0.61329933  0.90004924  0.44752516  1
  F  F167  1  0.98100639  0.42229132  0.72220813  1
  F  F168  1  0.99526112  0.49590530  0.88838843  1
  F  F169  1  0.86798708  0.67557453  0.83770260  1
  F  F170  1  0.02994579  0.94644230  0.43820670  1
  F  F171  1  0.82719036  0.47278663  0.65991289  1
  F  F172  1  0.48100639  0.92229132  0.77779187  1
  F  F173  1  0.04114620  0.18137208  0.61002150  1
  F  F174  1  0.11329933  0.40004924  0.05247484  1
  F  F175  1  0.49526112  0.00409470  0.88838843  1
  F  F176  1  0.40381206  0.54834075  0.34134660  1
  F  F177  1  0.13881496  0.14515922  0.13433627  1
  F  F178  1  0.91653732  0.98908230  0.82037786  1
  F  F179  1  0.02994579  0.05355770  0.06179330  1
  F  F180  1  0.51056118  0.64043401  0.27061099  1
  F  F181  1  0.17280964  0.52721337  0.34008711  1
  F  F182  1  0.51899361  0.92229132  0.27779187  1
  F  F183  1  0.98943882  0.85956599  0.77061099  1
  F  F184  1  0.04114620  0.81862792  0.88997850  1
  F  F185  1  0.48943882  0.35956599  0.72938901  1
  F  F186  1  0.36118504  0.64515922  0.86566373  1
  F  F187  1  0.49526112  0.99590530  0.61161157  1
  F  F188  1  0.58346268  0.48908230  0.17962214  1
  F  F189  1  0.00473888  0.49590530  0.38838843  1
  F  F190  1  0.52994579  0.55355770  0.43820670  1
  F  F191  1  0.54200680  0.85763488  0.88631725  1
