# generated using pymatgen
data_Nd2Cu2O5
_symmetry_space_group_name_H-M   'P 1'
_cell_length_a   3.71304908
_cell_length_b   7.13425482
_cell_length_c   26.68183401
_cell_angle_alpha   87.28945260
_cell_angle_beta   86.01013253
_cell_angle_gamma   74.91647754
_symmetry_Int_Tables_number   1
_chemical_formula_structural   Nd2Cu2O5
_chemical_formula_sum   'Nd12 Cu12 O30'
_cell_volume   680.47998169
_cell_formula_units_Z   6
loop_
 _symmetry_equiv_pos_site_id
 _symmetry_equiv_pos_as_xyz
  1  'x, y, z'
loop_
 _atom_site_type_symbol
 _atom_site_label
 _atom_site_symmetry_multiplicity
 _atom_site_fract_x
 _atom_site_fract_y
 _atom_site_fract_z
 _atom_site_occupancy
  Nd  Nd0  1  0.57479743  0.17130310  0.63554412  1
  Nd  Nd1  1  0.09547829  0.34475118  0.40184528  1
  Nd  Nd2  1  0.42520257  0.82869690  0.36445588  1
  Nd  Nd3  1  0.88164465  0.32869690  0.86445588  1
  Nd  Nd4  1  0.11835535  0.67130310  0.13554412  1
  Nd  Nd5  1  0.88462171  0.49210028  0.73158011  1
  Nd  Nd6  1  0.11537829  0.50789972  0.26841989  1
  Nd  Nd7  1  0.90452171  0.65524882  0.59815472  1
  Nd  Nd8  1  0.60830211  0.00789972  0.76841989  1
  Nd  Nd9  1  0.34207474  0.15524882  0.09815472  1
  Nd  Nd10  1  0.39169789  0.99210028  0.23158011  1
  Nd  Nd11  1  0.65792526  0.84475118  0.90184528  1
  Cu  Cu12  1  0.24844276  0.83118253  0.68090952  1
  Cu  Cu13  1  0.26104486  0.97663875  0.53880178  1
  Cu  Cu14  1  0.27648538  0.52336125  0.96119822  1
  Cu  Cu15  1  0.29164696  0.65734595  0.46986169  1
  Cu  Cu16  1  0.91885460  0.84265405  0.03013831  1
  Cu  Cu17  1  0.26053481  0.66881747  0.81909048  1
  Cu  Cu18  1  0.72351462  0.47663875  0.03880178  1
  Cu  Cu19  1  0.73895514  0.02336125  0.46119822  1
  Cu  Cu20  1  0.75155724  0.16881747  0.31909048  1
  Cu  Cu21  1  0.70835304  0.34265405  0.53013831  1
  Cu  Cu22  1  0.08114540  0.15734595  0.96986169  1
  Cu  Cu23  1  0.73946519  0.33118253  0.18090952  1
  O  O24  1  0.25104712  0.17095349  0.31965462  1
  O  O25  1  0.38696114  0.49095813  0.66505450  1
  O  O26  1  0.75834477  0.67095349  0.81965462  1
  O  O27  1  0.27956862  0.94388637  0.46179111  1
  O  O28  1  0.74619747  0.25000000  0.25000000  1
  O  O29  1  0.71942609  0.41092999  0.11068635  1
  O  O30  1  0.87900699  0.12433207  0.03876163  1
  O  O31  1  0.74895288  0.82904651  0.68034538  1
  O  O32  1  0.00237236  0.32361919  0.58990400  1
  O  O33  1  0.04383804  0.16180418  0.70911591  1
  O  O34  1  0.24165523  0.32904651  0.18034538  1
  O  O35  1  0.04297376  0.00904187  0.83494550  1
  O  O36  1  0.25895756  0.91092999  0.61068635  1
  O  O37  1  0.28057391  0.58907001  0.88931365  1
  O  O38  1  0.41475813  0.33819582  0.79088409  1
  O  O39  1  0.18524610  0.55611363  0.03820889  1
  O  O40  1  0.99762764  0.67638081  0.41009600  1
  O  O41  1  0.25380253  0.75000000  0.75000000  1
  O  O42  1  0.58410445  0.82361919  0.08990400  1
  O  O43  1  0.72043138  0.05611363  0.53820889  1
  O  O44  1  0.81475390  0.44388637  0.96179111  1
  O  O45  1  0.58524187  0.66180418  0.20911591  1
  O  O46  1  0.95702624  0.99095813  0.16505450  1
  O  O47  1  0.45789932  0.62433207  0.53876163  1
  O  O48  1  0.54210068  0.37566793  0.46123837  1
  O  O49  1  0.12099301  0.87566793  0.96123837  1
  O  O50  1  0.95616196  0.83819582  0.29088409  1
  O  O51  1  0.74104244  0.08907001  0.38931365  1
  O  O52  1  0.41589555  0.17638081  0.91009600  1
  O  O53  1  0.61303886  0.50904187  0.33494550  1
