# generated using pymatgen
data_Co3(PO4)2
_symmetry_space_group_name_H-M   'P 1'
_cell_length_a   4.77905934
_cell_length_b   5.99662837
_cell_length_c   10.32821809
_cell_angle_alpha   91.33758628
_cell_angle_beta   90.00000000
_cell_angle_gamma   90.00000000
_symmetry_Int_Tables_number   1
_chemical_formula_structural   Co3(PO4)2
_chemical_formula_sum   'Co6 P4 O16'
_cell_volume   295.90792849
_cell_formula_units_Z   2
loop_
 _symmetry_equiv_pos_site_id
 _symmetry_equiv_pos_as_xyz
  1  'x, y, z'
loop_
 _atom_site_type_symbol
 _atom_site_label
 _atom_site_symmetry_multiplicity
 _atom_site_fract_x
 _atom_site_fract_y
 _atom_site_fract_z
 _atom_site_occupancy
  Co  Co0  1  0.53382196  0.23349469  0.77561347  1
  Co  Co1  1  0.96617804  0.23349469  0.27561347  1
  Co  Co2  1  0.03382196  0.76650531  0.72438653  1
  Co  Co3  1  0.46617804  0.76650531  0.22438653  1
  Co  Co4  1  0.00000000  0.50000000  0.00000000  1
  Co  Co5  1  0.50000000  0.50000000  0.50000000  1
  P  P6  1  0.08620597  0.25788871  0.59459537  1
  P  P7  1  0.41379403  0.25788871  0.09459537  1
  P  P8  1  0.58620597  0.74211129  0.90540463  1
  P  P9  1  0.91379403  0.74211129  0.40540463  1
  O  O10  1  0.74387641  0.52633364  0.84607036  1
  O  O11  1  0.19230106  0.25198562  0.45256886  1
  O  O12  1  0.23372291  0.72597873  0.39452473  1
  O  O13  1  0.24387641  0.47366636  0.65392964  1
  O  O14  1  0.25612359  0.47366636  0.15392964  1
  O  O15  1  0.70522637  0.93342849  0.82299957  1
  O  O16  1  0.69230106  0.74801438  0.04743114  1
  O  O17  1  0.76627709  0.27402127  0.60547527  1
  O  O18  1  0.26627709  0.72597873  0.89452473  1
  O  O19  1  0.79477363  0.93342849  0.32299957  1
  O  O20  1  0.30769894  0.25198562  0.95256886  1
  O  O21  1  0.29477363  0.06657151  0.17700043  1
  O  O22  1  0.75612359  0.52633364  0.34607036  1
  O  O23  1  0.73372291  0.27402127  0.10547527  1
  O  O24  1  0.80769894  0.74801438  0.54743114  1
  O  O25  1  0.20522637  0.06657151  0.67700043  1
