# generated using pymatgen
data_Sr6Bi2O11
_symmetry_space_group_name_H-M   'P 1'
_cell_length_a   12.36661165
_cell_length_b   12.64363511
_cell_length_c   8.74672464
_cell_angle_alpha   46.22812803
_cell_angle_beta   135.01448009
_cell_angle_gamma   119.29406610
_symmetry_Int_Tables_number   1
_chemical_formula_structural   Sr6Bi2O11
_chemical_formula_sum   'Sr12 Bi4 O22'
_cell_volume   698.13699578
_cell_formula_units_Z   2
loop_
 _symmetry_equiv_pos_site_id
 _symmetry_equiv_pos_as_xyz
  1  'x, y, z'
loop_
 _atom_site_type_symbol
 _atom_site_label
 _atom_site_symmetry_multiplicity
 _atom_site_fract_x
 _atom_site_fract_y
 _atom_site_fract_z
 _atom_site_occupancy
  Sr  Sr0  1  0.27716209  0.79247878  0.70704407  1
  Sr  Sr1  1  0.27716209  0.79247878  0.26232356  1
  Sr  Sr2  1  0.22283791  0.20752122  0.73767644  1
  Sr  Sr3  1  0.22283791  0.20752122  0.29295593  1
  Sr  Sr4  1  0.50000000  0.50044887  0.49955113  1
  Sr  Sr5  1  0.72283791  0.79247878  0.70799838  1
  Sr  Sr6  1  0.50000000  0.06901947  0.43098053  1
  Sr  Sr7  1  0.72283791  0.79247878  0.15271989  1
  Sr  Sr8  1  0.77716209  0.20752122  0.84728011  1
  Sr  Sr9  1  0.77716209  0.20752122  0.29200162  1
  Sr  Sr10  1  -0.00000000  0.49955113  0.50044887  1
  Sr  Sr11  1  -0.00000000  0.93098053  0.56901947  1
  Bi  Bi12  1  -0.00000000  0.99977013  0.00022987  1
  Bi  Bi13  1  0.50000000  0.54056387  0.95943613  1
  Bi  Bi14  1  0.50000000  0.00022987  0.99977013  1
  Bi  Bi15  1  -0.00000000  0.45943613  0.04056387  1
  O  O16  1  0.25356385  0.01613923  0.73742462  1
  O  O17  1  0.50000000  0.98473635  0.76901364  1
  O  O18  1  0.27022318  0.61411211  0.65611007  1
  O  O19  1  0.22977682  0.38588789  0.34388993  1
  O  O20  1  0.50000000  0.61476995  0.65573862  1
  O  O21  1  -0.00000000  0.01526365  0.23098636  1
  O  O22  1  0.75356385  0.98386177  0.76970207  1
  O  O23  1  0.50000000  0.22898056  0.77101944  1
  O  O24  1  0.50000000  0.77159069  0.22840931  1
  O  O25  1  0.24643615  0.98386177  0.26257538  1
  O  O26  1  -0.00000000  0.01526365  0.73848735  1
  O  O27  1  0.50000000  0.61476995  0.11472247  1
  O  O28  1  0.77022318  0.38588789  0.88433529  1
  O  O29  1  0.50000000  0.31730058  0.18269942  1
  O  O30  1  -0.00000000  0.68269942  0.81730058  1
  O  O31  1  0.72977682  0.61411211  0.11566471  1
  O  O32  1  -0.00000000  0.38523005  0.88527753  1
  O  O33  1  0.50000000  0.98473635  0.26151265  1
  O  O34  1  -0.00000000  0.22840931  0.77159069  1
  O  O35  1  -0.00000000  0.77101944  0.22898056  1
  O  O36  1  0.74643615  0.01613923  0.23029793  1
  O  O37  1  -0.00000000  0.38523005  0.34426138  1
