# generated using pymatgen
data_Sr4Nb2O9
_symmetry_space_group_name_H-M   'P 1'
_cell_length_a   6.02142028
_cell_length_b   6.15455878
_cell_length_c   20.00472654
_cell_angle_alpha   55.17485780
_cell_angle_beta   59.07747053
_cell_angle_gamma   59.20303158
_symmetry_Int_Tables_number   1
_chemical_formula_structural   Sr4Nb2O9
_chemical_formula_sum   'Sr8 Nb4 O18'
_cell_volume   496.30435217
_cell_formula_units_Z   2
loop_
 _symmetry_equiv_pos_site_id
 _symmetry_equiv_pos_as_xyz
  1  'x, y, z'
loop_
 _atom_site_type_symbol
 _atom_site_label
 _atom_site_symmetry_multiplicity
 _atom_site_fract_x
 _atom_site_fract_y
 _atom_site_fract_z
 _atom_site_occupancy
  Sr  Sr0  1  0.29714145  0.28712846  0.04884571  1
  Sr  Sr1  1  0.49758441  0.43789985  0.18308664  1
  Sr  Sr2  1  0.28300670  0.28553738  0.43197004  1
  Sr  Sr3  1  0.15847095  0.27859975  0.79665135  1
  Sr  Sr4  1  0.79558773  0.73043018  0.22451652  1
  Sr  Sr5  1  0.73029083  0.85142114  0.58954141  1
  Sr  Sr6  1  0.46073797  0.56349443  0.83201978  1
  Sr  Sr7  1  0.69877980  0.74028379  0.95172102  1
  Nb  Nb8  1  0.96960123  0.00057405  0.00802736  1
  Nb  Nb9  1  0.99497630  0.97072657  0.29552167  1
  Nb  Nb10  1  0.90717053  0.08609860  0.69197566  1
  Nb  Nb11  1  0.55033523  0.55029328  0.50215915  1
  O  O12  1  0.16784138  0.69248127  0.09169709  1
  O  O13  1  0.31382508  0.01603022  0.27418709  1
  O  O14  1  0.73077725  0.23453470  0.07278834  1
  O  O15  1  0.09246157  0.60145337  0.30637946  1
  O  O16  1  0.19499659  0.18578076  0.59359001  1
  O  O17  1  0.67562932  0.82256322  0.06535081  1
  O  O18  1  0.97407534  0.10273483  0.18600579  1
  O  O19  1  0.67499385  0.29083165  0.30469162  1
  O  O20  1  0.63508576  0.33591505  0.45054564  1
  O  O21  1  0.20586155  0.82331154  0.50987974  1
  O  O22  1  0.27261978  0.18310736  0.93384556  1
  O  O23  1  0.64387563  0.28024828  0.60320885  1
  O  O24  1  0.80379248  0.75552363  0.43808904  1
  O  O25  1  0.61383231  0.39246785  0.71995584  1
  O  O26  1  0.05395783  0.93434502  0.78000259  1
  O  O27  1  0.16858863  0.79666795  0.92882686  1
  O  O28  1  0.85033770  0.76197625  0.71752919  1
  O  O29  1  0.76336485  0.33613755  0.91572518  1
