# generated using pymatgen
data_Na6MgAl4Si13O36
_symmetry_space_group_name_H-M   'P 1'
_cell_length_a   5.29615273
_cell_length_b   19.34582933
_cell_length_c   14.97639772
_cell_angle_alpha   25.37206842
_cell_angle_beta   72.77846732
_cell_angle_gamma   76.75016768
_symmetry_Int_Tables_number   1
_chemical_formula_structural   Na6MgAl4Si13O36
_chemical_formula_sum   'Na6 Mg1 Al4 Si13 O36'
_cell_volume   625.27195245
_cell_formula_units_Z   1
loop_
 _symmetry_equiv_pos_site_id
 _symmetry_equiv_pos_as_xyz
  1  'x, y, z'
loop_
 _atom_site_type_symbol
 _atom_site_label
 _atom_site_symmetry_multiplicity
 _atom_site_fract_x
 _atom_site_fract_y
 _atom_site_fract_z
 _atom_site_occupancy
  Na  Na0  1  0.25000000  0.03589152  0.29744148  1
  Na  Na1  1  0.25051747  0.36478853  0.30278289  1
  Na  Na2  1  0.24948253  0.69902595  0.30006963  1
  Na  Na3  1  0.75019617  0.29665410  0.70545870  1
  Na  Na4  1  0.75000000  0.63586750  0.69746550  1
  Na  Na5  1  0.74980383  0.96543390  0.69912030  1
  Mg  Mg6  1  0.75000000  0.23812737  0.09520563  1
  Al  Al7  1  0.24878224  0.09371854  0.90703368  1
  Al  Al8  1  0.74864581  0.56969621  0.09770805  1
  Al  Al9  1  0.25121777  0.76113776  0.90477702  1
  Al  Al10  1  0.75135419  0.90376646  0.09549628  1
  Si  Si11  1  0.26560512  0.14704719  0.37845473  1
  Si  Si12  1  0.23029046  0.00266038  0.80322548  1
  Si  Si13  1  0.26970953  0.47521323  0.38556692  1
  Si  Si14  1  0.23439488  0.33921611  0.80194897  1
  Si  Si15  1  0.26831827  0.80633275  0.38926371  1
  Si  Si16  1  0.77722731  0.33224083  0.19469680  1
  Si  Si17  1  0.25000000  0.42907760  0.90425540  1
  Si  Si18  1  0.23168173  0.66859521  0.80247533  1
  Si  Si19  1  0.72840055  0.18881108  0.61782071  1
  Si  Si20  1  0.77159945  0.66210988  0.19792433  1
  Si  Si21  1  0.72277269  0.52584546  0.61388391  1
  Si  Si22  1  0.76916005  0.99429675  0.19734601  1
  Si  Si23  1  0.73083995  0.85260551  0.62241873  1
  O  O24  1  0.00810725  0.10945976  0.65591367  1
  O  O25  1  0.34267075  0.23468150  0.17106956  1
  O  O26  1  0.00317558  0.44385064  0.66116688  1
  O  O27  1  0.20249474  0.28207909  0.62776765  1
  O  O28  1  0.70152108  0.14309688  0.09012137  1
  O  O29  1  0.36969377  0.55209981  0.18807289  1
  O  O30  1  0.49682442  0.21553516  0.34611431  1
  O  O31  1  0.87401264  0.03419624  0.03661636  1
  O  O32  1  0.00707422  0.77020308  0.66030647  1
  O  O33  1  0.15732925  0.30709856  0.95381739  1
  O  O34  1  0.50873109  0.12514145  0.63855763  1
  O  O35  1  0.29240543  0.19245002  0.90096230  1
  O  O36  1  0.19215355  0.61158938  0.63724014  1
  O  O37  1  0.79847892  0.04298212  0.39046663  1
  O  O38  1  0.70107857  0.47482011  0.10179071  1
  O  O39  1  0.37096404  0.88318339  0.19111600  1
  O  O40  1  0.49189275  0.54149918  0.35979439  1
  O  O41  1  0.90129138  0.38699383  0.01864738  1
  O  O42  1  0.12903596  0.62414977  0.96821684  1
  O  O43  1  0.51172123  0.46375298  0.62963234  1
  O  O44  1  0.62466259  0.10971618  0.81814216  1
  O  O45  1  0.30784645  0.52708590  0.89075158  1
  O  O46  1  0.20759457  0.95252934  0.62072435  1
  O  O47  1  0.79529836  0.38228335  0.37678221  1
  O  O48  1  0.70470164  0.80801592  0.09958551  1
  O  O49  1  0.49292578  0.86737963  0.36877682  1
  O  O50  1  0.87533741  0.70424051  0.03456815  1
  O  O51  1  0.98827877  0.22380531  0.34947637  1
  O  O52  1  0.13030623  0.95893951  0.96755478  1
  O  O53  1  0.50962699  0.78862996  0.64325151  1
  O  O54  1  0.59870862  0.45930104  0.80172475  1
  O  O55  1  0.29750526  0.85859184  0.89822841  1
  O  O56  1  0.79892143  0.71809793  0.37195724  1
  O  O57  1  0.99126891  0.55550653  0.34746139  1
  O  O58  1  0.62598736  0.77167584  0.82417756  1
  O  O59  1  0.99037301  0.88717843  0.34760610  1
