# generated using pymatgen
data_K3Nd3I10
_symmetry_space_group_name_H-M   'P 1'
_cell_length_a   9.10295191
_cell_length_b   9.99929487
_cell_length_c   14.46959883
_cell_angle_alpha   90.00000000
_cell_angle_beta   90.00000000
_cell_angle_gamma   93.18475289
_symmetry_Int_Tables_number   1
_chemical_formula_structural   K3Nd3I10
_chemical_formula_sum   'K6 Nd6 I20'
_cell_volume   1315.03364485
_cell_formula_units_Z   2
loop_
 _symmetry_equiv_pos_site_id
 _symmetry_equiv_pos_as_xyz
  1  'x, y, z'
loop_
 _atom_site_type_symbol
 _atom_site_label
 _atom_site_symmetry_multiplicity
 _atom_site_fract_x
 _atom_site_fract_y
 _atom_site_fract_z
 _atom_site_occupancy
  K  K0  1  0.04567018  0.53175008  0.84491366  1
  K  K1  1  0.45432982  0.96824992  0.34491366  1
  K  K2  1  0.54030640  0.00486409  0.65778059  1
  K  K3  1  0.51113746  0.51461869  0.68646350  1
  K  K4  1  0.98886254  0.98538131  0.18646350  1
  K  K5  1  0.95969360  0.49513591  0.15778059  1
  Nd  Nd6  1  0.97922133  0.05290048  0.81249688  1
  Nd  Nd7  1  0.07410827  0.19899167  0.56849779  1
  Nd  Nd8  1  0.42589173  0.30100833  0.06849779  1
  Nd  Nd9  1  0.52077867  0.44709952  0.31249688  1
  Nd  Nd10  1  0.56158364  0.78430759  0.98821065  1
  Nd  Nd11  1  0.93841636  0.71569241  0.48821065  1
  I  I12  1  0.07599955  0.23521389  0.98960077  1
  I  I13  1  0.16515718  0.69589559  0.32206426  1
  I  I14  1  0.13941601  0.52398704  0.60649789  1
  I  I15  1  0.21015481  0.91481703  0.55390778  1
  I  I16  1  0.23125292  0.28369087  0.25064418  1
  I  I17  1  0.26874708  0.21630913  0.75064418  1
  I  I18  1  0.28984519  0.58518297  0.05390778  1
  I  I19  1  0.36058399  0.97601296  0.10649789  1
  I  I20  1  0.33484282  0.80410441  0.82206426  1
  I  I21  1  0.42400045  0.26478611  0.48960077  1
  I  I22  1  0.57763364  0.69236143  0.47584299  1
  I  I23  1  0.69153938  0.23853675  0.19725734  1
  I  I24  1  0.65329940  0.08179161  0.91998352  1
  I  I25  1  0.64481022  0.48494083  0.92629149  1
  I  I26  1  0.66110439  0.70559663  0.19954671  1
  I  I27  1  0.83889561  0.79440337  0.69954671  1
  I  I28  1  0.85518978  0.01505917  0.42629149  1
  I  I29  1  0.84670060  0.41820839  0.41998352  1
  I  I30  1  0.80846062  0.26146325  0.69725734  1
  I  I31  1  0.92236636  0.80763857  0.97584299  1
