# generated using pymatgen
data_Fe(Mo3Se4)2
_symmetry_space_group_name_H-M   'P 1'
_cell_length_a   13.71290325
_cell_length_b   6.83679455
_cell_length_c   9.61508880
_cell_angle_alpha   95.83071425
_cell_angle_beta   45.15516112
_cell_angle_gamma   93.25964215
_symmetry_Int_Tables_number   1
_chemical_formula_structural   Fe(Mo3Se4)2
_chemical_formula_sum   'Fe2 Mo12 Se16'
_cell_volume   635.68960532
_cell_formula_units_Z   2
loop_
 _symmetry_equiv_pos_site_id
 _symmetry_equiv_pos_as_xyz
  1  'x, y, z'
loop_
 _atom_site_type_symbol
 _atom_site_label
 _atom_site_symmetry_multiplicity
 _atom_site_fract_x
 _atom_site_fract_y
 _atom_site_fract_z
 _atom_site_occupancy
  Fe  Fe0  1  0.26174033  0.88301907  0.96488126  1
  Fe  Fe1  1  0.73825967  0.11698093  0.03511874  1
  Mo  Mo2  1  0.09352392  0.54287244  0.23255033  1
  Mo  Mo3  1  0.07133439  0.23576835  0.40910171  1
  Mo  Mo4  1  0.15630280  0.58250363  0.45271022  1
  Mo  Mo5  1  0.34556855  0.41763166  0.54685374  1
  Mo  Mo6  1  0.59725126  0.53182113  0.22771830  1
  Mo  Mo7  1  0.43242926  0.76671508  0.58292369  1
  Mo  Mo8  1  0.56757074  0.23328492  0.41707631  1
  Mo  Mo9  1  0.40274874  0.46817887  0.77228170  1
  Mo  Mo10  1  0.65443145  0.58236834  0.45314626  1
  Mo  Mo11  1  0.84369720  0.41749637  0.54728978  1
  Mo  Mo12  1  0.92866561  0.76423165  0.59089829  1
  Mo  Mo13  1  0.90647608  0.45712756  0.76744967  1
  Se  Se14  1  0.01018601  0.20698897  0.21057373  1
  Se  Se15  1  0.17941499  0.87367444  0.28426329  1
  Se  Se16  1  0.30923813  0.37300340  0.11936546  1
  Se  Se17  1  0.12791362  0.27283386  0.61494306  1
  Se  Se18  1  0.37971776  0.72276234  0.37463096  1
  Se  Se19  1  0.17876783  0.62025831  0.88555454  1
  Se  Se20  1  0.50190738  0.20217514  0.21291190  1
  Se  Se21  1  0.31883477  0.13383449  0.73593781  1
  Se  Se22  1  0.68116523  0.86616551  0.26406219  1
  Se  Se23  1  0.49809262  0.79782486  0.78708810  1
  Se  Se24  1  0.82123217  0.37974169  0.11444546  1
  Se  Se25  1  0.62028224  0.27723766  0.62536904  1
  Se  Se26  1  0.87208638  0.72716614  0.38505694  1
  Se  Se27  1  0.69076187  0.62699660  0.88063454  1
  Se  Se28  1  0.82058501  0.12632556  0.71573671  1
  Se  Se29  1  0.98981399  0.79301103  0.78942627  1
