# generated using pymatgen
data_LiTi(PO3)5
_symmetry_space_group_name_H-M   'P 1'
_cell_length_a   12.52921315
_cell_length_b   9.62392473
_cell_length_c   5.25054057
_cell_angle_alpha   90.00000000
_cell_angle_beta   95.23243543
_cell_angle_gamma   90.00000000
_symmetry_Int_Tables_number   1
_chemical_formula_structural   LiTi(PO3)5
_chemical_formula_sum   'Li2 Ti2 P10 O30'
_cell_volume   630.47303701
_cell_formula_units_Z   2
loop_
 _symmetry_equiv_pos_site_id
 _symmetry_equiv_pos_as_xyz
  1  'x, y, z'
loop_
 _atom_site_type_symbol
 _atom_site_label
 _atom_site_symmetry_multiplicity
 _atom_site_fract_x
 _atom_site_fract_y
 _atom_site_fract_z
 _atom_site_occupancy
  Li  Li0  1  0.57074043  0.41612210  0.62334493  1
  Li  Li1  1  0.07074043  0.58387790  0.12334493  1
  Ti  Ti2  1  0.99291641  0.00793438  0.00303089  1
  Ti  Ti3  1  0.49291641  0.99206562  0.50303089  1
  P  P4  1  0.74409155  0.98358980  0.75882624  1
  P  P5  1  0.08511781  0.18638288  0.50560009  1
  P  P6  1  0.86288677  0.51477574  0.37612601  1
  P  P7  1  0.58511781  0.81361712  0.00560009  1
  P  P8  1  0.24409155  0.01641020  0.25882624  1
  P  P9  1  0.64540063  0.51488723  0.12065749  1
  P  P10  1  0.40721410  0.17976423  0.00724517  1
  P  P11  1  0.90721410  0.82023577  0.50724517  1
  P  P12  1  0.36288677  0.48522426  0.87612601  1
  P  P13  1  0.14540063  0.48511277  0.62065749  1
  O  O14  1  0.83985512  0.06107040  0.89052198  1
  O  O15  1  0.25459126  0.41509272  0.73846681  1
  O  O16  1  0.75459126  0.58490728  0.23846681  1
  O  O17  1  0.98509226  0.87813352  0.72570710  1
  O  O18  1  0.20066786  0.11189951  0.47798805  1
  O  O19  1  0.65957322  0.40525866  0.92817670  1
  O  O20  1  0.78935556  0.88482103  0.54777161  1
  O  O21  1  0.84193498  0.40276023  0.55435130  1
  O  O22  1  0.15957322  0.59474134  0.42817670  1
  O  O23  1  0.00746491  0.13356583  0.28376489  1
  O  O24  1  0.57018039  0.49901734  0.31848108  1
  O  O25  1  0.93549403  0.86636418  0.24367780  1
  O  O26  1  0.05308906  0.14685852  0.76875687  1
  O  O27  1  0.07018039  0.50098266  0.81848108  1
  O  O28  1  0.34193498  0.59723977  0.05435130  1
  O  O29  1  0.60449135  0.66003685  0.95288424  1
  O  O30  1  0.28935556  0.11517897  0.04777161  1
  O  O31  1  0.70066786  0.88810049  0.97798805  1
  O  O32  1  0.14814933  0.94195286  0.12423372  1
  O  O33  1  0.89605992  0.66497015  0.55274884  1
  O  O34  1  0.48509226  0.12186648  0.22570710  1
  O  O35  1  0.55308906  0.85314148  0.26875687  1
  O  O36  1  0.10449135  0.33996315  0.45288424  1
  O  O37  1  0.33985512  0.93892960  0.39052198  1
  O  O38  1  0.64814933  0.05804714  0.62423372  1
  O  O39  1  0.44176306  0.48792969  0.68324417  1
  O  O40  1  0.94176306  0.51207031  0.18324417  1
  O  O41  1  0.39605992  0.33502985  0.05274884  1
  O  O42  1  0.50746491  0.86643417  0.78376489  1
  O  O43  1  0.43549403  0.13363582  0.74367780  1
