# generated using pymatgen
data_Cu7PSe6
_symmetry_space_group_name_H-M   'P 1'
_cell_length_a   10.17444548
_cell_length_b   10.11005170
_cell_length_c   10.14773928
_cell_angle_alpha   90.12442638
_cell_angle_beta   89.97532165
_cell_angle_gamma   90.08702635
_symmetry_Int_Tables_number   1
_chemical_formula_structural   Cu7PSe6
_chemical_formula_sum   'Cu28 P4 Se24'
_cell_volume   1043.83501552
_cell_formula_units_Z   4
loop_
 _symmetry_equiv_pos_site_id
 _symmetry_equiv_pos_as_xyz
  1  'x, y, z'
loop_
 _atom_site_type_symbol
 _atom_site_label
 _atom_site_symmetry_multiplicity
 _atom_site_fract_x
 _atom_site_fract_y
 _atom_site_fract_z
 _atom_site_occupancy
  Cu  Cu0  1  0.04660657  0.27204091  0.04340567  1
  Cu  Cu1  1  0.03447259  0.04600444  0.26880500  1
  Cu  Cu2  1  0.06732035  0.90000564  0.74089022  1
  Cu  Cu3  1  0.08944322  0.23833497  0.43317318  1
  Cu  Cu4  1  0.13324158  0.65512570  0.86166846  1
  Cu  Cu5  1  0.23419312  0.43407756  0.09737542  1
  Cu  Cu6  1  0.22462784  0.95169626  0.55278498  1
  Cu  Cu7  1  0.27294017  0.04185773  0.04612248  1
  Cu  Cu8  1  0.27282166  0.57260453  0.59453424  1
  Cu  Cu9  1  0.35825262  0.35707934  0.35866999  1
  Cu  Cu10  1  0.40911610  0.76920995  0.92426954  1
  Cu  Cu11  1  0.43411776  0.09323317  0.23623998  1
  Cu  Cu12  1  0.49371987  0.72426051  0.49273067  1
  Cu  Cu13  1  0.50938415  0.99494225  0.77550950  1
  Cu  Cu14  1  0.49880732  0.48492419  0.72432999  1
  Cu  Cu15  1  0.51179422  0.21930461  0.00122557  1
  Cu  Cu16  1  0.57682829  0.59882649  0.27061647  1
  Cu  Cu17  1  0.59773285  0.27177427  0.57611172  1
  Cu  Cu18  1  0.64738178  0.86330475  0.14555302  1
  Cu  Cu19  1  0.72433230  0.50021390  0.48746928  1
  Cu  Cu20  1  0.72251328  0.07326104  0.90950267  1
  Cu  Cu21  1  0.77758582  0.92737471  0.41152133  1
  Cu  Cu22  1  0.77507057  0.50394382  0.99033352  1
  Cu  Cu23  1  0.86335088  0.13866308  0.64352799  1
  Cu  Cu24  1  0.90863955  0.72231011  0.07423799  1
  Cu  Cu25  1  0.92410985  0.40555468  0.76529645  1
  Cu  Cu26  1  0.99214782  0.77802345  0.50400126  1
  Cu  Cu27  1  0.00125964  0.51288938  0.21811367  1
  P  P28  1  0.24643131  0.75476545  0.25249352  1
  P  P29  1  0.25281254  0.24387576  0.75395307  1
  P  P30  1  0.74700042  0.74654479  0.74724236  1
  P  P31  1  0.75339224  0.25254709  0.24642758  1
  Se  Se32  1  0.01014648  0.50544781  0.98197393  1
  Se  Se33  1  0.11281117  0.87330333  0.12627306  1
  Se  Se34  1  0.12558578  0.11184792  0.87493740  1
  Se  Se35  1  0.12670726  0.37628066  0.62796625  1
  Se  Se36  1  0.13098820  0.62450610  0.38824841  1
  Se  Se37  1  0.22690153  0.22654696  0.22964286  1
  Se  Se38  1  0.27315055  0.77122152  0.72825084  1
  Se  Se39  1  0.37092888  0.37225359  0.89071025  1
  Se  Se40  1  0.37762289  0.62779786  0.12485693  1
  Se  Se41  1  0.37146137  0.89026345  0.37486356  1
  Se  Se42  1  0.38692064  0.12654110  0.62504535  1
  Se  Se43  1  0.48904677  0.48757546  0.48883315  1
  Se  Se44  1  0.50634763  0.98211226  0.01221380  1
  Se  Se45  1  0.61020568  0.62859708  0.87317848  1
  Se  Se46  1  0.62486136  0.38879865  0.13090001  1
  Se  Se47  1  0.62828923  0.12492982  0.37814775  1
  Se  Se48  1  0.63189488  0.87437069  0.61034917  1
  Se  Se49  1  0.73078543  0.26787029  0.77188037  1
  Se  Se50  1  0.77579060  0.72999227  0.27302482  1
  Se  Se51  1  0.87178746  0.12673621  0.11016021  1
  Se  Se52  1  0.87184720  0.87434214  0.87944762  1
  Se  Se53  1  0.87564674  0.61119524  0.62951517  1
  Se  Se54  1  0.88923320  0.37353983  0.37192467  1
  Se  Se55  1  0.99519081  0.01415520  0.50391917  1
