# generated using pymatgen
data_Cu18S11
_symmetry_space_group_name_H-M   'P 1'
_cell_length_a   3.87070304
_cell_length_b   3.85277433
_cell_length_c   43.22128664
_cell_angle_alpha   60.08250662
_cell_angle_beta   58.93517954
_cell_angle_gamma   59.61841491
_symmetry_Int_Tables_number   1
_chemical_formula_structural   Cu18S11
_chemical_formula_sum   'Cu18 S11'
_cell_volume   450.96662012
_cell_formula_units_Z   1
loop_
 _symmetry_equiv_pos_site_id
 _symmetry_equiv_pos_as_xyz
  1  'x, y, z'
loop_
 _atom_site_type_symbol
 _atom_site_label
 _atom_site_symmetry_multiplicity
 _atom_site_fract_x
 _atom_site_fract_y
 _atom_site_fract_z
 _atom_site_occupancy
  Cu  Cu0  1  0.70928578  0.70554349  0.08075218  1
  Cu  Cu1  1  0.70869039  0.79533666  0.15252035  1
  Cu  Cu2  1  0.71478285  0.45621965  0.21707937  1
  Cu  Cu3  1  0.80327347  0.69096139  0.25649171  1
  Cu  Cu4  1  0.73427832  0.71992392  0.33594874  1
  Cu  Cu5  1  0.58316760  0.57791008  0.40237154  1
  Cu  Cu6  1  0.76408467  0.76362450  0.43903015  1
  Cu  Cu7  1  0.75291247  0.74838689  0.52441073  1
  Cu  Cu8  1  0.27022066  0.27485754  0.65274010  1
  Cu  Cu9  1  0.26185924  0.26823823  0.74513508  1
  Cu  Cu10  1  0.78962374  0.78307770  0.60432723  1
  Cu  Cu11  1  0.78055073  0.77737933  0.69665709  1
  Cu  Cu12  1  0.26024398  0.26667837  0.83726873  1
  Cu  Cu13  1  0.26984578  0.26553771  0.93133082  1
  Cu  Cu14  1  0.77331529  0.76628824  0.79111453  1
  Cu  Cu15  1  0.78010394  0.76580037  0.88565425  1
  Cu  Cu16  1  0.47136861  0.47376716  0.96598149  1
  Cu  Cu17  1  0.67948417  0.69125087  0.99951890  1
  S  S18  1  0.99683668  0.00724505  0.00390286  1
  S  S19  1  0.00564827  0.00428717  0.08993511  1
  S  S20  1  0.97541754  0.00802375  0.18391903  1
  S  S21  1  0.00966266  0.00171755  0.36840992  1
  S  S22  1  0.04452116  0.96998917  0.27392566  1
  S  S23  1  0.01939124  0.02003028  0.45816129  1
  S  S24  1  0.02518069  0.02445320  0.63056555  1
  S  S25  1  0.02081516  0.02060794  0.54127030  1
  S  S26  1  0.01801820  0.02005749  0.72270939  1
  S  S27  1  0.03952266  0.03828306  0.90242605  1
  S  S28  1  0.02189407  0.02252325  0.81298785  1
