# generated using pymatgen
data_Li2Fe(PO4)2
_symmetry_space_group_name_H-M   'P 1'
_cell_length_a   4.92880290
_cell_length_b   17.55322329
_cell_length_c   6.69059236
_cell_angle_alpha   90.00000000
_cell_angle_beta   93.93016024
_cell_angle_gamma   90.00000000
_symmetry_Int_Tables_number   1
_chemical_formula_structural   Li2Fe(PO4)2
_chemical_formula_sum   'Li8 Fe4 P8 O32'
_cell_volume   577.48456586
_cell_formula_units_Z   4
loop_
 _symmetry_equiv_pos_site_id
 _symmetry_equiv_pos_as_xyz
  1  'x, y, z'
loop_
 _atom_site_type_symbol
 _atom_site_label
 _atom_site_symmetry_multiplicity
 _atom_site_fract_x
 _atom_site_fract_y
 _atom_site_fract_z
 _atom_site_occupancy
  Li  Li0  1  0.72361794  0.61649965  0.97771220  1
  Li  Li1  1  0.77638206  0.11649965  0.52228780  1
  Li  Li2  1  0.27126495  0.05633347  0.28943671  1
  Li  Li3  1  0.21753469  0.88681618  0.52337429  1
  Li  Li4  1  0.69062431  0.80230864  0.32432628  1
  Li  Li5  1  0.28246531  0.38681618  0.97662571  1
  Li  Li6  1  0.80937569  0.30230864  0.17567372  1
  Li  Li7  1  0.22873505  0.55633347  0.21056329  1
  Fe  Fe8  1  0.19416440  0.87225307  0.00561062  1
  Fe  Fe9  1  0.30583560  0.37225307  0.49438938  1
  Fe  Fe10  1  0.79916498  0.12917139  0.98086514  1
  Fe  Fe11  1  0.70083502  0.62917239  0.51913486  1
  P  P12  1  0.72310601  0.96400155  0.22765542  1
  P  P13  1  0.17143011  0.71414106  0.27985748  1
  P  P14  1  0.66648378  0.78548983  0.78157266  1
  P  P15  1  0.83351622  0.28548983  0.71842734  1
  P  P16  1  0.21948406  0.53570237  0.72573702  1
  P  P17  1  0.77689399  0.46400155  0.27234458  1
  P  P18  1  0.28051594  0.03570237  0.77426298  1
  P  P19  1  0.32856989  0.21414106  0.22014252  1
  O  O20  1  0.41679461  0.93927484  0.22117850  1
  O  O21  1  0.64289858  0.69693457  0.76183528  1
  O  O22  1  0.36239715  0.55676704  0.93208507  1
  O  O23  1  0.97068603  0.80941837  0.80465115  1
  O  O24  1  0.13760285  0.05676704  0.56791493  1
  O  O25  1  0.85710142  0.19693457  0.73816472  1
  O  O26  1  0.01090177  0.69602349  0.46579682  1
  O  O27  1  0.92333146  0.56585467  0.72163382  1
  O  O28  1  0.96193221  0.32163723  0.91115142  1
  O  O29  1  0.43506589  0.16082782  0.38960620  1
  O  O30  1  0.53806779  0.82163723  0.58884858  1
  O  O31  1  0.57666854  0.06585467  0.77836618  1
  O  O32  1  0.97744051  0.30866610  0.52756904  1
  O  O33  1  0.63331585  0.43190975  0.08035895  1
  O  O34  1  0.77149419  0.55307538  0.27878027  1
  O  O35  1  0.86352200  0.93245537  0.04564814  1
  O  O36  1  0.72850581  0.05307538  0.22121973  1
  O  O37  1  0.06493411  0.66082782  0.11039380  1
  O  O38  1  0.11239224  0.80050598  0.23865381  1
  O  O39  1  0.08320539  0.43927484  0.27882150  1
  O  O40  1  0.36264677  0.56977882  0.54600778  1
  O  O41  1  0.28054669  0.94739913  0.78734176  1
  O  O42  1  0.38760776  0.30050598  0.26134719  1
  O  O43  1  0.63647800  0.43245537  0.45435186  1
  O  O44  1  0.52255949  0.80866610  0.97243096  1
  O  O45  1  0.01868558  0.19984222  0.18050320  1
  O  O46  1  0.13735323  0.06977882  0.95399222  1
  O  O47  1  0.86668415  0.93190975  0.41964105  1
  O  O48  1  0.48909823  0.19602349  0.03420318  1
  O  O49  1  0.48131442  0.69984222  0.31949680  1
  O  O50  1  0.21945331  0.44739913  0.71265824  1
  O  O51  1  0.52931397  0.30941837  0.69534885  1
