# generated using pymatgen
data_Fe3P4O15
_symmetry_space_group_name_H-M   'P 1'
_cell_length_a   17.39669703
_cell_length_b   6.39415723
_cell_length_c   10.81786430
_cell_angle_alpha   90.00000000
_cell_angle_beta   90.00000000
_cell_angle_gamma   90.00000000
_symmetry_Int_Tables_number   1
_chemical_formula_structural   Fe3P4O15
_chemical_formula_sum   'Fe12 P16 O60'
_cell_volume   1203.34910880
_cell_formula_units_Z   4
loop_
 _symmetry_equiv_pos_site_id
 _symmetry_equiv_pos_as_xyz
  1  'x, y, z'
loop_
 _atom_site_type_symbol
 _atom_site_label
 _atom_site_symmetry_multiplicity
 _atom_site_fract_x
 _atom_site_fract_y
 _atom_site_fract_z
 _atom_site_occupancy
  Fe  Fe0  1  0.37443341  0.08636221  0.99393480  1
  Fe  Fe1  1  0.12556659  0.58636221  0.49393480  1
  Fe  Fe2  1  0.24459378  0.31089415  0.74091984  1
  Fe  Fe3  1  0.62556659  0.58636221  0.00606520  1
  Fe  Fe4  1  0.87443341  0.08636221  0.50606520  1
  Fe  Fe5  1  0.66023066  0.60194037  0.49307161  1
  Fe  Fe6  1  0.16023066  0.60194037  0.00692839  1
  Fe  Fe7  1  0.33976934  0.10194037  0.50692839  1
  Fe  Fe8  1  0.74459378  0.31089415  0.75908016  1
  Fe  Fe9  1  0.75540622  0.81089415  0.25908016  1
  Fe  Fe10  1  0.83976934  0.10194037  0.99307161  1
  Fe  Fe11  1  0.25540622  0.81089415  0.24091984  1
  P  P12  1  0.82229936  0.58577451  0.52444548  1
  P  P13  1  0.94799848  0.14589125  0.77268130  1
  P  P14  1  0.42738697  0.96368045  0.26434995  1
  P  P15  1  0.70822083  0.09744381  0.49626295  1
  P  P16  1  0.05200152  0.64589125  0.22731870  1
  P  P17  1  0.32229936  0.58577451  0.97555452  1
  P  P18  1  0.79177917  0.59744381  0.99626295  1
  P  P19  1  0.07261303  0.46368045  0.76434995  1
  P  P20  1  0.67770064  0.08577451  0.02444548  1
  P  P21  1  0.44799848  0.14589125  0.72731870  1
  P  P22  1  0.55200152  0.64589125  0.27268130  1
  P  P23  1  0.57261303  0.46368045  0.73565005  1
  P  P24  1  0.20822083  0.09744381  0.00373705  1
  P  P25  1  0.92738697  0.96368045  0.23565005  1
  P  P26  1  0.29177917  0.59744381  0.50373705  1
  P  P27  1  0.17770064  0.08577451  0.47555452  1
  O  O28  1  0.76603211  0.61432947  0.40957892  1
  O  O29  1  0.23396789  0.11432947  0.59042108  1
  O  O30  1  0.48939660  0.36743066  0.70567674  1
  O  O31  1  0.86889750  0.78459796  0.54291880  1
  O  O32  1  0.63724545  0.68938478  0.31090492  1
  O  O33  1  0.26479648  0.12425844  0.88949659  1
  O  O34  1  0.56345897  0.57978525  0.85789191  1
  O  O35  1  0.04527236  0.59373305  0.36462586  1
  O  O36  1  0.73859777  0.05035594  0.13115634  1
  O  O37  1  0.66166061  0.29568959  0.47107861  1
  O  O38  1  0.23859777  0.05035594  0.36884366  1
  O  O39  1  0.76479648  0.12425844  0.61050341  1
  O  O40  1  0.51060340  0.86743066  0.29432326  1
  O  O41  1  0.36889750  0.78459796  0.95708120  1
  O  O42  1  0.48396314  0.98579210  0.64211812  1
  O  O43  1  0.91272913  0.10800820  0.12619977  1
  O  O44  1  0.62644868  0.89489143  0.00682013  1
  O  O45  1  0.83833939  0.79568959  0.97107861  1
  O  O46  1  0.76140223  0.55035594  0.63115634  1
  O  O47  1  0.26603211  0.61432947  0.09042108  1
  O  O48  1  0.13110250  0.28459796  0.45708120  1
  O  O49  1  0.51603686  0.48579210  0.35788188  1
  O  O50  1  0.13308889  0.28788152  0.75672349  1
  O  O51  1  0.87355132  0.39489143  0.50682013  1
  O  O52  1  0.15593575  0.91003407  0.98382769  1
  O  O53  1  0.23209067  0.54978579  0.61047248  1
  O  O54  1  0.63110250  0.28459796  0.04291880  1
  O  O55  1  0.01603686  0.48579210  0.14211812  1
  O  O56  1  0.76790933  0.04978579  0.38952752  1
  O  O57  1  0.33833939  0.79568959  0.52892139  1
  O  O58  1  0.93654103  0.07978525  0.35789191  1
  O  O59  1  0.36275455  0.18938478  0.68909508  1
  O  O60  1  0.58727087  0.60800920  0.62619977  1
  O  O61  1  0.06345897  0.57978525  0.64210809  1
  O  O62  1  0.84406425  0.41003407  0.01617231  1
  O  O63  1  0.26790933  0.04978579  0.11047248  1
  O  O64  1  0.43654103  0.07978525  0.14210809  1
  O  O65  1  0.98939660  0.36743066  0.79432326  1
  O  O66  1  0.41272913  0.10800820  0.37380023  1
  O  O67  1  0.73396789  0.11432947  0.90957892  1
  O  O68  1  0.95472764  0.09373305  0.63537414  1
  O  O69  1  0.08727087  0.60800920  0.87380023  1
  O  O70  1  0.73520352  0.62425844  0.11050341  1
  O  O71  1  0.37355132  0.39489143  0.99317987  1
  O  O72  1  0.98396314  0.98579210  0.85788188  1
  O  O73  1  0.63308889  0.28788152  0.74327651  1
  O  O74  1  0.54527236  0.59373305  0.13537414  1
  O  O75  1  0.26140223  0.55035594  0.86884366  1
  O  O76  1  0.13724545  0.68938478  0.18909508  1
  O  O77  1  0.65593575  0.91003407  0.51617231  1
  O  O78  1  0.73209067  0.54978579  0.88952752  1
  O  O79  1  0.12644868  0.89489143  0.49317987  1
  O  O80  1  0.16166061  0.29568959  0.02892139  1
  O  O81  1  0.23520352  0.62425844  0.38949659  1
  O  O82  1  0.86275455  0.18938478  0.81090492  1
  O  O83  1  0.34406425  0.41003407  0.48382769  1
  O  O84  1  0.01060340  0.86743066  0.20567674  1
  O  O85  1  0.45472764  0.09373305  0.86462586  1
  O  O86  1  0.36691111  0.78788152  0.25672349  1
  O  O87  1  0.86691111  0.78788152  0.24327651  1
