# generated using pymatgen
data_LiFeP2O7
_symmetry_space_group_name_H-M   'P 1'
_cell_length_a   8.50445633
_cell_length_b   13.25571260
_cell_length_c   5.08362385
_cell_angle_alpha   90.00000000
_cell_angle_beta   92.03205862
_cell_angle_gamma   90.00000000
_symmetry_Int_Tables_number   1
_chemical_formula_structural   LiFeP2O7
_chemical_formula_sum   'Li4 Fe4 P8 O28'
_cell_volume   572.72988909
_cell_formula_units_Z   4
loop_
 _symmetry_equiv_pos_site_id
 _symmetry_equiv_pos_as_xyz
  1  'x, y, z'
loop_
 _atom_site_type_symbol
 _atom_site_label
 _atom_site_symmetry_multiplicity
 _atom_site_fract_x
 _atom_site_fract_y
 _atom_site_fract_z
 _atom_site_occupancy
  Li  Li0  1  0.64800293  0.62153164  0.62753553  1
  Li  Li1  1  0.85199707  0.12153164  0.87246447  1
  Li  Li2  1  0.14800293  0.87846836  0.12753553  1
  Li  Li3  1  0.35199707  0.37846836  0.37246447  1
  Fe  Fe4  1  0.26551450  0.67402766  0.29913688  1
  Fe  Fe5  1  0.76551450  0.82597234  0.79913688  1
  Fe  Fe6  1  0.73448550  0.32597234  0.70086312  1
  Fe  Fe7  1  0.23448550  0.17402766  0.20086312  1
  P  P8  1  0.77630597  0.96856938  0.30030569  1
  P  P9  1  0.27630597  0.53143062  0.80030569  1
  P  P10  1  0.72369403  0.46856938  0.19969431  1
  P  P11  1  0.04268101  0.67785529  0.76426882  1
  P  P12  1  0.54268101  0.82214471  0.26426882  1
  P  P13  1  0.22369403  0.03143062  0.69969431  1
  P  P14  1  0.45731899  0.17785529  0.73573118  1
  P  P15  1  0.95731899  0.32214471  0.23573118  1
  O  O16  1  0.08093225  0.71438442  0.48721786  1
  O  O17  1  0.13427078  0.30893126  0.19424095  1
  O  O18  1  0.31649081  0.55079095  0.09766609  1
  O  O19  1  0.58535891  0.94035194  0.27216505  1
  O  O20  1  0.81649081  0.94920905  0.59766609  1
  O  O21  1  0.86042489  0.88964134  0.12457619  1
  O  O22  1  0.18350919  0.05079095  0.40233391  1
  O  O23  1  0.41906775  0.21438442  0.01278214  1
  O  O24  1  0.63427078  0.19106874  0.69424095  1
  O  O25  1  0.20468163  0.92548790  0.78774766  1
  O  O26  1  0.14097851  0.72878431  0.98483322  1
  O  O27  1  0.64097851  0.77121569  0.48483322  1
  O  O28  1  0.70468163  0.57451210  0.28774766  1
  O  O29  1  0.91906775  0.28561558  0.51278214  1
  O  O30  1  0.63957511  0.38964134  0.37542381  1
  O  O31  1  0.41464109  0.05964806  0.72783495  1
  O  O32  1  0.08535891  0.55964806  0.77216505  1
  O  O33  1  0.85902149  0.27121569  0.01516678  1
  O  O34  1  0.58093225  0.78561558  0.98721786  1
  O  O35  1  0.79531837  0.07451210  0.21225234  1
  O  O36  1  0.36572922  0.80893126  0.30575905  1
  O  O37  1  0.68350919  0.44920905  0.90233391  1
  O  O38  1  0.35902149  0.22878431  0.51516678  1
  O  O39  1  0.29531837  0.42548790  0.71225234  1
  O  O40  1  0.36042489  0.61035866  0.62457619  1
  O  O41  1  0.86572922  0.69106874  0.80575905  1
  O  O42  1  0.91464109  0.44035194  0.22783495  1
  O  O43  1  0.13957511  0.11035866  0.87542381  1
