# generated using pymatgen
data_YbCu(MoO4)2
_symmetry_space_group_name_H-M   'P 1'
_cell_length_a   9.89753028
_cell_length_b   10.42189560
_cell_length_c   14.67865024
_cell_angle_alpha   90.00000000
_cell_angle_beta   90.00000000
_cell_angle_gamma   90.00000000
_symmetry_Int_Tables_number   1
_chemical_formula_structural   YbCu(MoO4)2
_chemical_formula_sum   'Yb8 Cu8 Mo16 O64'
_cell_volume   1514.11785128
_cell_formula_units_Z   8
loop_
 _symmetry_equiv_pos_site_id
 _symmetry_equiv_pos_as_xyz
  1  'x, y, z'
loop_
 _atom_site_type_symbol
 _atom_site_label
 _atom_site_symmetry_multiplicity
 _atom_site_fract_x
 _atom_site_fract_y
 _atom_site_fract_z
 _atom_site_occupancy
  Yb  Yb0  1  0.27595975  0.46849362  0.10359245  1
  Yb  Yb1  1  0.22404025  0.46849362  0.60359245  1
  Yb  Yb2  1  0.72404025  0.53150638  0.89640755  1
  Yb  Yb3  1  0.72404025  0.03150638  0.60359245  1
  Yb  Yb4  1  0.77595975  0.03150638  0.10359245  1
  Yb  Yb5  1  0.27595975  0.96849362  0.39640755  1
  Yb  Yb6  1  0.77595975  0.53150638  0.39640755  1
  Yb  Yb7  1  0.22404025  0.96849362  0.89640755  1
  Cu  Cu8  1  0.30923669  0.31663691  0.29772574  1
  Cu  Cu9  1  0.69076331  0.68336309  0.70227426  1
  Cu  Cu10  1  0.80923669  0.18336309  0.29772574  1
  Cu  Cu11  1  0.19076331  0.31663691  0.79772574  1
  Cu  Cu12  1  0.80923669  0.68336309  0.20227426  1
  Cu  Cu13  1  0.19076331  0.81663691  0.70227426  1
  Cu  Cu14  1  0.30923669  0.81663691  0.20227426  1
  Cu  Cu15  1  0.69076331  0.18336309  0.79772574  1
  Mo  Mo16  1  0.33256692  0.10512908  0.65554566  1
  Mo  Mo17  1  0.50388895  0.27861811  0.44565826  1
  Mo  Mo18  1  0.49611105  0.72138189  0.55434174  1
  Mo  Mo19  1  0.66743308  0.89487092  0.34445434  1
  Mo  Mo20  1  0.00388895  0.22138189  0.44565826  1
  Mo  Mo21  1  0.50388895  0.77861811  0.05434174  1
  Mo  Mo22  1  0.16743308  0.60512908  0.34445434  1
  Mo  Mo23  1  0.00388895  0.72138189  0.05434174  1
  Mo  Mo24  1  0.83256692  0.89487092  0.84445434  1
  Mo  Mo25  1  0.99611105  0.77861811  0.55434174  1
  Mo  Mo26  1  0.99611105  0.27861811  0.94565826  1
  Mo  Mo27  1  0.49611105  0.22138189  0.94565826  1
  Mo  Mo28  1  0.16743308  0.10512908  0.15554566  1
  Mo  Mo29  1  0.33256692  0.60512908  0.84445434  1
  Mo  Mo30  1  0.66743308  0.39487092  0.15554566  1
  Mo  Mo31  1  0.83256692  0.39487092  0.65554566  1
  O  O32  1  0.38717770  0.18722425  0.36707583  1
  O  O33  1  0.11279731  0.32812274  0.50318239  1
  O  O34  1  0.88720269  0.67187726  0.49681761  1
  O  O35  1  0.90821193  0.62867694  0.97640775  1
  O  O36  1  0.79602421  0.42219957  0.54020155  1
  O  O37  1  0.77150427  0.23295092  0.68571406  1
  O  O38  1  0.09998457  0.11789968  0.37346551  1
  O  O39  1  0.27150427  0.76704908  0.81428594  1
  O  O40  1  0.75604606  0.01500241  0.27482589  1
  O  O41  1  0.59998457  0.38210032  0.37346551  1
  O  O42  1  0.50843954  0.09044828  0.67024661  1
  O  O43  1  0.61282230  0.31277575  0.86707583  1
  O  O44  1  0.09178807  0.87132306  0.47640775  1
  O  O45  1  0.74395394  0.51500241  0.72517411  1
  O  O46  1  0.49156046  0.90955172  0.32975339  1
  O  O47  1  0.50843954  0.59044828  0.82975339  1
  O  O48  1  0.79602421  0.92219957  0.95979845  1
  O  O49  1  0.29602421  0.07780043  0.54020155  1
  O  O50  1  0.61279731  0.67187726  0.99681761  1
  O  O51  1  0.00843954  0.40955172  0.67024661  1
  O  O52  1  0.22849573  0.26704908  0.18571406  1
  O  O53  1  0.77150427  0.73295092  0.81428594  1
  O  O54  1  0.90821193  0.12867694  0.52359225  1
  O  O55  1  0.88717770  0.31277575  0.36707583  1
  O  O56  1  0.38720269  0.32812274  0.00318239  1
  O  O57  1  0.25604606  0.48499759  0.27482589  1
  O  O58  1  0.72849573  0.73295092  0.31428594  1
  O  O59  1  0.75604606  0.51500241  0.22517411  1
  O  O60  1  0.40821193  0.87132306  0.97640775  1
  O  O61  1  0.25604606  0.98499759  0.22517411  1
  O  O62  1  0.40821193  0.37132306  0.52359225  1
  O  O63  1  0.29602421  0.57780043  0.95979845  1
  O  O64  1  0.20397579  0.07780043  0.04020155  1
  O  O65  1  0.38717770  0.68722425  0.13292417  1
  O  O66  1  0.24395394  0.48499759  0.77482589  1
  O  O67  1  0.38720269  0.82812274  0.49681761  1
  O  O68  1  0.49156046  0.40955172  0.17024661  1
  O  O69  1  0.88720269  0.17187726  0.00318239  1
  O  O70  1  0.72849573  0.23295092  0.18571406  1
  O  O71  1  0.27150427  0.26704908  0.68571406  1
  O  O72  1  0.99156046  0.59044828  0.32975339  1
  O  O73  1  0.90001543  0.38210032  0.87346551  1
  O  O74  1  0.11282230  0.18722425  0.86707583  1
  O  O75  1  0.59178807  0.62867694  0.47640775  1
  O  O76  1  0.90001543  0.88210032  0.62653449  1
  O  O77  1  0.09998457  0.61789968  0.12653449  1
  O  O78  1  0.11279731  0.82812274  0.99681761  1
  O  O79  1  0.70397579  0.92219957  0.45979845  1
  O  O80  1  0.20397579  0.57780043  0.45979845  1
  O  O81  1  0.40001543  0.11789968  0.87346551  1
  O  O82  1  0.40001543  0.61789968  0.62653449  1
  O  O83  1  0.59178807  0.12867694  0.02359225  1
  O  O84  1  0.88717770  0.81277575  0.13292417  1
  O  O85  1  0.59998457  0.88210032  0.12653449  1
  O  O86  1  0.09178807  0.37132306  0.02359225  1
  O  O87  1  0.70397579  0.42219957  0.04020155  1
  O  O88  1  0.74395394  0.01500241  0.77482589  1
  O  O89  1  0.24395394  0.98499759  0.72517411  1
  O  O90  1  0.99156046  0.09044828  0.17024661  1
  O  O91  1  0.00843954  0.90955172  0.82975339  1
  O  O92  1  0.61282230  0.81277575  0.63292417  1
  O  O93  1  0.61279731  0.17187726  0.50318239  1
  O  O94  1  0.22849573  0.76704908  0.31428594  1
  O  O95  1  0.11282230  0.68722425  0.63292417  1
