# generated using pymatgen
data_Yb6H20N8O49
_symmetry_space_group_name_H-M   'P 1'
_cell_length_a   10.14965693
_cell_length_b   10.31901822
_cell_length_c   11.48385689
_cell_angle_alpha   95.98917075
_cell_angle_beta   109.75412281
_cell_angle_gamma   108.50932138
_symmetry_Int_Tables_number   1
_chemical_formula_structural   Yb6H20N8O49
_chemical_formula_sum   'Yb6 H20 N8 O49'
_cell_volume   1042.80309632
_cell_formula_units_Z   1
loop_
 _symmetry_equiv_pos_site_id
 _symmetry_equiv_pos_as_xyz
  1  'x, y, z'
loop_
 _atom_site_type_symbol
 _atom_site_label
 _atom_site_symmetry_multiplicity
 _atom_site_fract_x
 _atom_site_fract_y
 _atom_site_fract_z
 _atom_site_occupancy
  Yb  Yb0  1  0.74442349  0.47040718  0.61563054  1
  Yb  Yb1  1  0.25557651  0.52959282  0.38436946  1
  Yb  Yb2  1  0.36106275  0.24040234  0.47662393  1
  Yb  Yb3  1  0.63893725  0.75959766  0.52337607  1
  Yb  Yb4  1  0.54273133  0.45191177  0.30788014  1
  Yb  Yb5  1  0.45726867  0.54808823  0.69211986  1
  H  H6  1  0.59742192  0.20801214  0.39851185  1
  H  H7  1  0.40257808  0.79198786  0.60148815  1
  H  H8  1  0.84000982  0.65333302  0.44185485  1
  H  H9  1  0.15999018  0.34666698  0.55814515  1
  H  H10  1  0.20426665  0.26821999  0.21921884  1
  H  H11  1  0.79573335  0.73178001  0.78078116  1
  H  H12  1  0.43237205  0.66821737  0.24244523  1
  H  H13  1  0.56762795  0.33178263  0.75755477  1
  H  H14  1  0.98752132  0.72734293  0.64600703  1
  H  H15  1  0.01247868  0.27265707  0.35399297  1
  H  H16  1  0.09644705  0.65602469  0.71759469  1
  H  H17  1  0.90355295  0.34397531  0.28240531  1
  H  H18  1  0.96129312  0.53592774  0.87534984  1
  H  H19  1  0.03870688  0.46407226  0.12465016  1
  H  H20  1  0.18312228  0.97986403  0.20929204  1
  H  H21  1  0.81687772  0.02013597  0.79070796  1
  H  H22  1  0.06737046  0.95527930  0.35104933  1
  H  H23  1  0.93262954  0.04472070  0.64895067  1
  H  H24  1  0.01956455  0.80693746  0.86537531  1
  H  H25  1  0.98043545  0.19306254  0.13462469  1
  N  N26  1  0.90482653  0.27612689  0.60597361  1
  N  N27  1  0.09517347  0.72387311  0.39402639  1
  N  N28  1  0.31911741  0.01940897  0.63285124  1
  N  N29  1  0.68088259  0.98059103  0.36714876  1
  N  N30  1  0.75438106  0.50115903  0.17980103  1
  N  N31  1  0.24561894  0.49884097  0.82019897  1
  N  N32  1  0.67576818  0.20378732  0.95628331  1
  N  N33  1  0.32423182  0.79621268  0.04371669  1
  O  O34  1  0.50000000  0.50000000  0.50000000  1
  O  O35  1  0.57449392  0.28723791  0.42844728  1
  O  O36  1  0.42550608  0.71276209  0.57155272  1
  O  O37  1  0.75785552  0.61746223  0.47044699  1
  O  O38  1  0.24214448  0.38253777  0.52955301  1
  O  O39  1  0.29828290  0.33628453  0.29383992  1
  O  O40  1  0.70171710  0.66371547  0.70616008  1
  O  O41  1  0.46367799  0.63911010  0.32297706  1
  O  O42  1  0.53632201  0.36088990  0.67702294  1
  O  O43  1  0.00354061  0.67231427  0.70990050  1
  O  O44  1  0.99645939  0.32768573  0.29009950  1
  O  O45  1  0.85165633  0.51517186  0.84260477  1
  O  O46  1  0.14834367  0.48482814  0.15739523  1
  O  O47  1  0.23300108  0.03183225  0.29907979  1
  O  O48  1  0.76699892  0.96816775  0.70092021  1
  O  O49  1  0.10898595  0.04767779  0.32850580  1
  O  O50  1  0.89101405  0.95232221  0.67149420  1
  O  O51  1  0.36677150  0.20852655  0.05093936  1
  O  O52  1  0.63322850  0.79147345  0.94906064  1
  O  O53  1  0.36071914  0.33093976  0.08387057  1
  O  O54  1  0.63928086  0.66906024  0.91612943  1
  O  O55  1  0.74604852  0.88093039  0.04319420  1
  O  O56  1  0.25395148  0.11906961  0.95680580  1
  O  O57  1  0.95180681  0.83267629  0.90057905  1
  O  O58  1  0.04819319  0.16732371  0.09942095  1
  O  O59  1  0.81350314  0.25243667  0.65998532  1
  O  O60  1  0.18649686  0.74756333  0.34001468  1
  O  O61  1  0.92729263  0.38254493  0.55868485  1
  O  O62  1  0.07270737  0.61745507  0.44131515  1
  O  O63  1  0.97563033  0.19594514  0.59762669  1
  O  O64  1  0.02436967  0.80405486  0.40237331  1
  O  O65  1  0.24464389  0.09683072  0.63007627  1
  O  O66  1  0.75535611  0.90316928  0.36992373  1
  O  O67  1  0.40899937  0.04141701  0.57599485  1
  O  O68  1  0.59100063  0.95858299  0.42400515  1
  O  O69  1  0.30531197  0.92120124  0.68906435  1
  O  O70  1  0.69468803  0.07879876  0.31093565  1
  O  O71  1  0.73801443  0.40374395  0.24104514  1
  O  O72  1  0.26198557  0.59625605  0.75895486  1
  O  O73  1  0.66473391  0.56542556  0.16563190  1
  O  O74  1  0.33526609  0.43457444  0.83436810  1
  O  O75  1  0.85561951  0.53105581  0.13764103  1
  O  O76  1  0.14438049  0.46894419  0.86235897  1
  O  O77  1  0.57138446  0.24397685  0.89977858  1
  O  O78  1  0.42861554  0.75602315  0.10022142  1
  O  O79  1  0.66923006  0.14246546  0.04346504  1
  O  O80  1  0.33076994  0.85753454  0.95653496  1
  O  O81  1  0.78741676  0.22591890  0.92497339  1
  O  O82  1  0.21258324  0.77408110  0.07502661  1
