# generated using pymatgen
data_NaLiH4C2O5
_symmetry_space_group_name_H-M   'P 1'
_cell_length_a   7.13992866
_cell_length_b   8.30498289
_cell_length_c   10.50438260
_cell_angle_alpha   109.56122004
_cell_angle_beta   99.40892890
_cell_angle_gamma   90.42197375
_symmetry_Int_Tables_number   1
_chemical_formula_structural   NaLiH4C2O5
_chemical_formula_sum   'Na4 Li4 H16 C8 O20'
_cell_volume   577.73880447
_cell_formula_units_Z   4
loop_
 _symmetry_equiv_pos_site_id
 _symmetry_equiv_pos_as_xyz
  1  'x, y, z'
loop_
 _atom_site_type_symbol
 _atom_site_label
 _atom_site_symmetry_multiplicity
 _atom_site_fract_x
 _atom_site_fract_y
 _atom_site_fract_z
 _atom_site_occupancy
  Na  Na0  1  0.40753882  0.13855963  0.64507607  1
  Na  Na1  1  0.59246118  0.86144037  0.35492393  1
  Na  Na2  1  0.91006336  0.14614044  0.64728451  1
  Na  Na3  1  0.08993664  0.85385956  0.35271549  1
  Li  Li4  1  0.21615627  0.43878618  0.86288455  1
  Li  Li5  1  0.78384373  0.56121382  0.13711545  1
  Li  Li6  1  0.69409884  0.86783465  0.79462325  1
  Li  Li7  1  0.30590116  0.13216535  0.20537675  1
  H  H8  1  0.54846217  0.46552700  0.82688715  1
  H  H9  1  0.45153783  0.53447300  0.17311285  1
  H  H10  1  0.43836513  0.55799902  0.73001606  1
  H  H11  1  0.56163487  0.44200098  0.26998394  1
  H  H12  1  0.86864906  0.46484305  0.83579203  1
  H  H13  1  0.13135094  0.53515695  0.16420797  1
  H  H14  1  0.92507865  0.56622765  0.74046984  1
  H  H15  1  0.07492135  0.43377235  0.25953016  1
  H  H16  1  0.03417474  0.38635023  0.49945834  1
  H  H17  1  0.96582526  0.61364977  0.50054166  1
  H  H18  1  0.36500829  0.58729333  0.48107726  1
  H  H19  1  0.63499171  0.41270667  0.51892274  1
  H  H20  1  0.20249735  0.96920727  0.86586151  1
  H  H21  1  0.79750265  0.03079273  0.13413849  1
  H  H22  1  0.72928725  0.19842065  0.01691991  1
  H  H23  1  0.27071275  0.80157935  0.98308009  1
  C  C24  1  0.09137556  0.26754459  0.43547545  1
  C  C25  1  0.90862444  0.73245541  0.56452455  1
  C  C26  1  0.39631128  0.71885765  0.55743199  1
  C  C27  1  0.60368872  0.28114235  0.44256801  1
  C  C28  1  0.22194250  0.11169087  0.90880723  1
  C  C29  1  0.77805750  0.88830913  0.09119277  1
  C  C30  1  0.72302164  0.23619741  0.92481317  1
  C  C31  1  0.27697836  0.76380259  0.07518683  1
  O  O32  1  0.12234799  0.15132554  0.48775707  1
  O  O33  1  0.87765201  0.84867446  0.51224293  1
  O  O34  1  0.11843809  0.26247156  0.31785614  1
  O  O35  1  0.88156191  0.73752844  0.68214386  1
  O  O36  1  0.37859029  0.84137256  0.51098498  1
  O  O37  1  0.62140971  0.15862744  0.48901502  1
  O  O38  1  0.45026225  0.73224616  0.68226483  1
  O  O39  1  0.54973775  0.26775384  0.31773517  1
  O  O40  1  0.20047903  0.18827947  0.82050252  1
  O  O41  1  0.79952097  0.81172053  0.17949748  1
  O  O42  1  0.26207201  0.18237321  0.03681601  1
  O  O43  1  0.73792799  0.81762679  0.96318399  1
  O  O44  1  0.69976865  0.11805101  0.80861620  1
  O  O45  1  0.30023135  0.88194899  0.19138380  1
  O  O46  1  0.73830607  0.39666869  0.94624789  1
  O  O47  1  0.26169393  0.60333131  0.05375211  1
  O  O48  1  0.42988048  0.45684552  0.76156456  1
  O  O49  1  0.57011952  0.54315448  0.23843544  1
  O  O50  1  0.95376371  0.46526818  0.77026980  1
  O  O51  1  0.04623629  0.53473182  0.22973020  1
