# generated using pymatgen
data_NaMgPH12O11
_symmetry_space_group_name_H-M   'P 1'
_cell_length_a   6.85864497
_cell_length_b   6.85864497
_cell_length_c   10.94138826
_cell_angle_alpha   90.00000000
_cell_angle_beta   90.00000000
_cell_angle_gamma   90.00000000
_symmetry_Int_Tables_number   1
_chemical_formula_structural   NaMgPH12O11
_chemical_formula_sum   'Na2 Mg2 P2 H24 O22'
_cell_volume   514.69396357
_cell_formula_units_Z   2
loop_
 _symmetry_equiv_pos_site_id
 _symmetry_equiv_pos_as_xyz
  1  'x, y, z'
loop_
 _atom_site_type_symbol
 _atom_site_label
 _atom_site_symmetry_multiplicity
 _atom_site_fract_x
 _atom_site_fract_y
 _atom_site_fract_z
 _atom_site_occupancy
  Na  Na0  1  0.50000000  0.50000000  0.50000000  1
  Na  Na1  1  0.50000000  0.50000000  0.00000000  1
  Mg  Mg2  1  0.50000000  0.00000000  0.50000000  1
  Mg  Mg3  1  0.00000000  0.50000000  0.00000000  1
  P  P4  1  0.00000000  0.00000000  0.75000000  1
  P  P5  1  0.00000000  0.00000000  0.25000000  1
  H  H6  1  0.19176097  0.21775110  0.57113260  1
  H  H7  1  0.80823903  0.78224890  0.57113260  1
  H  H8  1  0.78224890  0.19176097  0.07113260  1
  H  H9  1  0.21775110  0.80823903  0.07113260  1
  H  H10  1  0.80823903  0.21775110  0.42886740  1
  H  H11  1  0.19176097  0.78224890  0.42886740  1
  H  H12  1  0.21775110  0.19176097  0.92886740  1
  H  H13  1  0.78224890  0.80823903  0.92886740  1
  H  H14  1  0.80823903  0.78224890  0.42886740  1
  H  H15  1  0.19176097  0.21775110  0.42886740  1
  H  H16  1  0.21775110  0.80823903  0.92886740  1
  H  H17  1  0.78224890  0.19176097  0.92886740  1
  H  H18  1  0.19176097  0.78224890  0.57113260  1
  H  H19  1  0.80823903  0.21775110  0.57113260  1
  H  H20  1  0.78224890  0.80823903  0.07113260  1
  H  H21  1  0.21775110  0.19176097  0.07113260  1
  H  H22  1  0.38216896  0.00000000  0.74302074  1
  H  H23  1  0.61783104  0.00000000  0.74302074  1
  H  H24  1  0.00000000  0.38216896  0.24302074  1
  H  H25  1  0.00000000  0.61783104  0.24302074  1
  H  H26  1  0.61783104  0.00000000  0.25697926  1
  H  H27  1  0.38216896  0.00000000  0.25697926  1
  H  H28  1  0.00000000  0.38216896  0.75697926  1
  H  H29  1  0.00000000  0.61783104  0.75697926  1
  O  O30  1  0.18587916  0.00000000  0.83139511  1
  O  O31  1  0.81412084  0.00000000  0.83139511  1
  O  O32  1  0.00000000  0.18587916  0.33139511  1
  O  O33  1  0.00000000  0.81412084  0.33139511  1
  O  O34  1  0.81412084  0.00000000  0.16860489  1
  O  O35  1  0.18587916  0.00000000  0.16860489  1
  O  O36  1  0.00000000  0.18587916  0.66860489  1
  O  O37  1  0.00000000  0.81412084  0.66860489  1
  O  O38  1  0.28397816  0.22641472  0.50000000  1
  O  O39  1  0.71602184  0.77358528  0.50000000  1
  O  O40  1  0.77358528  0.28397816  0.00000000  1
  O  O41  1  0.22641472  0.71602184  0.00000000  1
  O  O42  1  0.71602184  0.22641472  0.50000000  1
  O  O43  1  0.28397816  0.77358528  0.50000000  1
  O  O44  1  0.22641472  0.28397816  0.00000000  1
  O  O45  1  0.77358528  0.71602184  0.00000000  1
  O  O46  1  0.50000000  0.00000000  0.68805692  1
  O  O47  1  0.00000000  0.50000000  0.18805692  1
  O  O48  1  0.50000000  0.00000000  0.31194308  1
  O  O49  1  0.00000000  0.50000000  0.81194308  1
  O  O50  1  0.50000000  0.50000000  0.75000000  1
  O  O51  1  0.50000000  0.50000000  0.25000000  1
