# generated using pymatgen
data_Ba2Na2O3
_symmetry_space_group_name_H-M   'P 1'
_cell_length_a   7.18098152
_cell_length_b   7.18098152
_cell_length_c   11.10306487
_cell_angle_alpha   90.00000000
_cell_angle_beta   90.00000000
_cell_angle_gamma   90.00000000
_symmetry_Int_Tables_number   1
_chemical_formula_structural   Ba2Na2O3
_chemical_formula_sum   'Ba8 Na8 O12'
_cell_volume   572.54614566
_cell_formula_units_Z   4
loop_
 _symmetry_equiv_pos_site_id
 _symmetry_equiv_pos_as_xyz
  1  'x, y, z'
loop_
 _atom_site_type_symbol
 _atom_site_label
 _atom_site_symmetry_multiplicity
 _atom_site_fract_x
 _atom_site_fract_y
 _atom_site_fract_z
 _atom_site_occupancy
  Ba  Ba0  1  0.98451552  0.75239257  0.35616800  1
  Ba  Ba1  1  0.24760743  0.01548448  0.14383200  1
  Ba  Ba2  1  0.25239257  0.51548448  0.60616800  1
  Ba  Ba3  1  0.51548448  0.25239257  0.39383200  1
  Ba  Ba4  1  0.48451552  0.74760743  0.89383200  1
  Ba  Ba5  1  0.74760743  0.48451552  0.10616800  1
  Ba  Ba6  1  0.75239257  0.98451552  0.64383200  1
  Ba  Ba7  1  0.01548448  0.24760743  0.85616800  1
  Na  Na8  1  0.96741897  0.75396281  0.89311579  1
  Na  Na9  1  0.24603719  0.03258103  0.60688421  1
  Na  Na10  1  0.25396281  0.53258103  0.14311579  1
  Na  Na11  1  0.53258103  0.25396281  0.85688421  1
  Na  Na12  1  0.46741897  0.74603719  0.35688421  1
  Na  Na13  1  0.74603719  0.46741897  0.64311579  1
  Na  Na14  1  0.75396281  0.96741897  0.10688421  1
  Na  Na15  1  0.03258103  0.24603719  0.39311579  1
  O  O16  1  0.99748309  0.25461586  0.61793947  1
  O  O17  1  0.29816304  0.29816304  0.00000000  1
  O  O18  1  0.24538414  0.49748309  0.36793947  1
  O  O19  1  0.25461586  0.99748309  0.38206053  1
  O  O20  1  0.20183696  0.79816304  0.75000000  1
  O  O21  1  0.50251691  0.75461586  0.13206053  1
  O  O22  1  0.49748309  0.24538414  0.63206053  1
  O  O23  1  0.79816304  0.20183696  0.25000000  1
  O  O24  1  0.74538414  0.00251691  0.88206053  1
  O  O25  1  0.75461586  0.50251691  0.86793947  1
  O  O26  1  0.70183696  0.70183696  0.50000000  1
  O  O27  1  0.00251691  0.74538414  0.11793947  1
