# generated using pymatgen
data_NaH8SeNO6
_symmetry_space_group_name_H-M   'P 1'
_cell_length_a   6.52097826
_cell_length_b   8.48145178
_cell_length_c   13.35146755
_cell_angle_alpha   90.00000000
_cell_angle_beta   90.00000000
_cell_angle_gamma   90.00000000
_symmetry_Int_Tables_number   1
_chemical_formula_structural   NaH8SeNO6
_chemical_formula_sum   'Na4 H32 Se4 N4 O24'
_cell_volume   738.43445797
_cell_formula_units_Z   4
loop_
 _symmetry_equiv_pos_site_id
 _symmetry_equiv_pos_as_xyz
  1  'x, y, z'
loop_
 _atom_site_type_symbol
 _atom_site_label
 _atom_site_symmetry_multiplicity
 _atom_site_fract_x
 _atom_site_fract_y
 _atom_site_fract_z
 _atom_site_occupancy
  Na  Na0  1  0.59196350  0.73732298  0.98741887  1
  Na  Na1  1  0.09196350  0.76267702  0.01258113  1
  Na  Na2  1  0.40803650  0.23732298  0.51258113  1
  Na  Na3  1  0.90803650  0.26267702  0.48741887  1
  H  H4  1  0.30388340  0.77637915  0.81267831  1
  H  H5  1  0.80388340  0.72362085  0.18732169  1
  H  H6  1  0.69611660  0.27637915  0.68732169  1
  H  H7  1  0.19611660  0.22362085  0.31267831  1
  H  H8  1  0.25649266  0.60230300  0.84685669  1
  H  H9  1  0.75649266  0.89769700  0.15314331  1
  H  H10  1  0.74350734  0.10230300  0.65314331  1
  H  H11  1  0.24350734  0.39769700  0.34685669  1
  H  H12  1  0.14347083  0.52518610  0.58574553  1
  H  H13  1  0.64347083  0.97481390  0.41425447  1
  H  H14  1  0.85652917  0.02518610  0.91425447  1
  H  H15  1  0.35652917  0.47481390  0.08574553  1
  H  H16  1  0.87338972  0.90265882  0.82941311  1
  H  H17  1  0.37338972  0.59734118  0.17058689  1
  H  H18  1  0.12661028  0.40265882  0.67058689  1
  H  H19  1  0.62661028  0.09734118  0.32941311  1
  H  H20  1  0.72952413  0.74713682  0.64385077  1
  H  H21  1  0.22952413  0.75286318  0.35614923  1
  H  H22  1  0.27047587  0.24713682  0.85614923  1
  H  H23  1  0.77047587  0.25286318  0.14385077  1
  H  H24  1  0.63901306  0.58342566  0.70178755  1
  H  H25  1  0.13901306  0.91657434  0.29821245  1
  H  H26  1  0.36098694  0.08342566  0.79821245  1
  H  H27  1  0.86098694  0.41657434  0.20178755  1
  H  H28  1  0.63792251  0.59156129  0.57429644  1
  H  H29  1  0.13792251  0.90843871  0.42570356  1
  H  H30  1  0.36207749  0.09156129  0.92570356  1
  H  H31  1  0.86207749  0.40843871  0.07429644  1
  H  H32  1  0.47742715  0.70924171  0.63914341  1
  H  H33  1  0.97742715  0.79075829  0.36085659  1
  H  H34  1  0.52257285  0.20924171  0.86085659  1
  H  H35  1  0.02257285  0.29075829  0.13914341  1
  Se  Se36  1  0.11665487  0.90380172  0.62919227  1
  Se  Se37  1  0.61665487  0.59619828  0.37080773  1
  Se  Se38  1  0.88334513  0.40380172  0.87080773  1
  Se  Se39  1  0.38334513  0.09619828  0.12919227  1
  N  N40  1  0.12031656  0.84280944  0.36039330  1
  N  N41  1  0.62031656  0.65719056  0.63960670  1
  N  N42  1  0.87968344  0.34280944  0.13960670  1
  N  N43  1  0.37968344  0.15719056  0.86039330  1
  O  O44  1  0.30503397  0.92232959  0.71400692  1
  O  O45  1  0.80503397  0.57767041  0.28599308  1
  O  O46  1  0.69496603  0.42232959  0.78599308  1
  O  O47  1  0.19496603  0.07767041  0.21400692  1
  O  O48  1  0.88655785  0.92017615  0.68629983  1
  O  O49  1  0.38655785  0.57982385  0.31370017  1
  O  O50  1  0.11344215  0.42017615  0.81370017  1
  O  O51  1  0.61344215  0.07982385  0.18629983  1
  O  O52  1  0.13580250  0.72818832  0.57450903  1
  O  O53  1  0.63580250  0.77181168  0.42549097  1
  O  O54  1  0.86419750  0.22818832  0.92549097  1
  O  O55  1  0.36419750  0.27181168  0.07450903  1
  O  O56  1  0.36103881  0.95705892  0.04042201  1
  O  O57  1  0.86103881  0.54294108  0.95957799  1
  O  O58  1  0.63896119  0.45705892  0.45957799  1
  O  O59  1  0.13896119  0.04294108  0.54042201  1
  O  O60  1  0.81937749  0.79772307  0.13034761  1
  O  O61  1  0.31937749  0.70227693  0.86965239  1
  O  O62  1  0.18062251  0.29772307  0.36965239  1
  O  O63  1  0.68062251  0.20227693  0.63034761  1
  O  O64  1  0.85305093  0.90983901  0.90258443  1
  O  O65  1  0.35305093  0.59016099  0.09741557  1
  O  O66  1  0.14694907  0.40983901  0.59741557  1
  O  O67  1  0.64694907  0.09016099  0.40258443  1
