# generated using pymatgen
data_Ce2Sm2O7
_symmetry_space_group_name_H-M   'P 1'
_cell_length_a   7.80718001
_cell_length_b   7.80718001
_cell_length_c   7.80718001
_cell_angle_alpha   60.00000000
_cell_angle_beta   90.00000000
_cell_angle_gamma   120.00000000
_symmetry_Int_Tables_number   1
_chemical_formula_structural   Ce2Sm2O7
_chemical_formula_sum   'Ce4 Sm4 O14'
_cell_volume   336.48645124
_cell_formula_units_Z   2
loop_
 _symmetry_equiv_pos_site_id
 _symmetry_equiv_pos_as_xyz
  1  'x, y, z'
loop_
 _atom_site_type_symbol
 _atom_site_label
 _atom_site_symmetry_multiplicity
 _atom_site_fract_x
 _atom_site_fract_y
 _atom_site_fract_z
 _atom_site_occupancy
  Ce  Ce0  1  0.12500000  0.25000000  0.12500000  1
  Ce  Ce1  1  0.62500000  0.75000000  0.12500000  1
  Ce  Ce2  1  0.12500000  0.75000000  0.12500000  1
  Ce  Ce3  1  0.12500000  0.25000000  0.62500000  1
  Sm  Sm4  1  0.62500000  0.25000000  0.12500000  1
  Sm  Sm5  1  0.62500000  0.25000000  0.62500000  1
  Sm  Sm6  1  0.62500000  0.75000000  0.62500000  1
  Sm  Sm7  1  0.12500000  0.75000000  0.62500000  1
  O  O8  1  0.77556466  0.00000000  0.22443534  1
  O  O9  1  0.77556466  0.00000000  0.77556466  1
  O  O10  1  0.22443534  0.00000000  0.22443534  1
  O  O11  1  0.77556466  0.55113032  0.22443534  1
  O  O12  1  0.50000000  0.00000000  0.50000000  1
  O  O13  1  0.47443534  0.50000000  0.02556466  1
  O  O14  1  0.02556466  0.05113032  0.47443534  1
  O  O15  1  0.02556466  0.50000000  0.02556466  1
  O  O16  1  0.47443534  0.94886968  0.02556466  1
  O  O17  1  0.47443534  0.50000000  0.47443534  1
  O  O18  1  0.75000000  0.50000000  0.75000000  1
  O  O19  1  0.22443534  0.00000000  0.77556466  1
  O  O20  1  0.02556466  0.50000000  0.47443534  1
  O  O21  1  0.22443534  0.44886968  0.77556466  1
