# generated using pymatgen
data_K3H2S2NO7
_symmetry_space_group_name_H-M   'P 1'
_cell_length_a   8.21978685
_cell_length_b   8.05423299
_cell_length_c   6.81867974
_cell_angle_alpha   103.24889546
_cell_angle_beta   90.89203249
_cell_angle_gamma   97.63847817
_symmetry_Int_Tables_number   1
_chemical_formula_structural   K3H2S2NO7
_chemical_formula_sum   'K6 H4 S4 N2 O14'
_cell_volume   435.01402969
_cell_formula_units_Z   2
loop_
 _symmetry_equiv_pos_site_id
 _symmetry_equiv_pos_as_xyz
  1  'x, y, z'
loop_
 _atom_site_type_symbol
 _atom_site_label
 _atom_site_symmetry_multiplicity
 _atom_site_fract_x
 _atom_site_fract_y
 _atom_site_fract_z
 _atom_site_occupancy
  K  K0  1  0.75913814  0.05544228  0.68691652  1
  K  K1  1  0.24086186  0.94455772  0.31308348  1
  K  K2  1  0.06376407  0.34440335  0.19876668  1
  K  K3  1  0.93623593  0.65559665  0.80123332  1
  K  K4  1  0.42343320  0.67391631  0.66841332  1
  K  K5  1  0.57656680  0.32608369  0.33158668  1
  H  H6  1  0.66025672  0.45479643  0.90028684  1
  H  H7  1  0.33974328  0.54520357  0.09971316  1
  H  H8  1  0.51941483  0.31651063  0.78071312  1
  H  H9  1  0.48058517  0.68348937  0.21928688  1
  S  S10  1  0.27718512  0.06214705  0.84920064  1
  S  S11  1  0.72281488  0.93785295  0.15079936  1
  S  S12  1  0.14597572  0.30672812  0.68060534  1
  S  S13  1  0.85402428  0.69327188  0.31939466  1
  N  N14  1  0.12269257  0.12722121  0.75115221  1
  N  N15  1  0.87730743  0.87277879  0.24884779  1
  O  O16  1  0.33774412  0.18582781  0.04090769  1
  O  O17  1  0.66225588  0.81417219  0.95909231  1
  O  O18  1  0.20926723  0.89291474  0.88640685  1
  O  O19  1  0.79073277  0.10708526  0.11359315  1
  O  O20  1  0.41144561  0.04233724  0.70467181  1
  O  O21  1  0.58855439  0.95766276  0.29532819  1
  O  O22  1  0.19776686  0.45753472  0.85463671  1
  O  O23  1  0.80223314  0.54246528  0.14536329  1
  O  O24  1  0.26798665  0.30631131  0.52106189  1
  O  O25  1  0.73201335  0.69368869  0.47893811  1
  O  O26  1  0.98034664  0.31787027  0.60014343  1
  O  O27  1  0.01965336  0.68212973  0.39985657  1
  O  O28  1  0.61144828  0.40154000  0.76386412  1
  O  O29  1  0.38855172  0.59846000  0.23613588  1
