# generated using pymatgen
data_KFePO4
_symmetry_space_group_name_H-M   'P 1'
_cell_length_a   5.40459222
_cell_length_b   6.76300213
_cell_length_c   10.43027048
_cell_angle_alpha   90.00918694
_cell_angle_beta   90.02818388
_cell_angle_gamma   89.99597653
_symmetry_Int_Tables_number   1
_chemical_formula_structural   KFePO4
_chemical_formula_sum   'K4 Fe4 P4 O16'
_cell_volume   381.23956667
_cell_formula_units_Z   4
loop_
 _symmetry_equiv_pos_site_id
 _symmetry_equiv_pos_as_xyz
  1  'x, y, z'
loop_
 _atom_site_type_symbol
 _atom_site_label
 _atom_site_symmetry_multiplicity
 _atom_site_fract_x
 _atom_site_fract_y
 _atom_site_fract_z
 _atom_site_occupancy
  K  K0  1  0.99996179  0.00027842  0.99986549  1
  K  K1  1  0.50007111  0.00001799  0.50009922  1
  K  K2  1  0.99993819  0.49968832  0.99986588  1
  K  K3  1  0.50005091  0.49993399  0.50002290  1
  Fe  Fe4  1  0.02806580  0.75008135  0.70230354  1
  Fe  Fe5  1  0.47208841  0.75022603  0.20236511  1
  Fe  Fe6  1  0.97216861  0.24992050  0.29764973  1
  Fe  Fe7  1  0.52730099  0.24997078  0.79751359  1
  P  P8  1  0.54182377  0.75001684  0.87404027  1
  P  P9  1  0.95828769  0.74997601  0.37393261  1
  P  P10  1  0.45831100  0.25002408  0.12604287  1
  P  P11  1  0.04160967  0.24997387  0.62602848  1
  O  O12  1  0.74394730  0.24986416  0.14245572  1
  O  O13  1  0.16518080  0.43464427  0.68907717  1
  O  O14  1  0.66509242  0.56530816  0.81096090  1
  O  O15  1  0.83470029  0.93451078  0.31083992  1
  O  O16  1  0.33480600  0.06551233  0.18913806  1
  O  O17  1  0.83492319  0.56524675  0.31093060  1
  O  O18  1  0.33492358  0.43470818  0.18905252  1
  O  O19  1  0.16521833  0.06544302  0.68916886  1
  O  O20  1  0.25611523  0.75009991  0.85765930  1
  O  O21  1  0.75602532  0.24992627  0.64244550  1
  O  O22  1  0.66515915  0.93454393  0.81086588  1
  O  O23  1  0.24392641  0.75013246  0.35761915  1
  O  O24  1  0.60228531  0.75008737  0.02118046  1
  O  O25  1  0.39807010  0.24991735  0.97885086  1
  O  O26  1  0.10189158  0.24989076  0.47891883  1
  O  O27  1  0.89806003  0.75005411  0.52110557  1
