# generated using pymatgen
data_ScTlO3
_symmetry_space_group_name_H-M   'P 1'
_cell_length_a   5.51815311
_cell_length_b   5.68151619
_cell_length_c   8.17784504
_cell_angle_alpha   90.00000000
_cell_angle_beta   90.12591132
_cell_angle_gamma   90.00000000
_symmetry_Int_Tables_number   1
_chemical_formula_structural   ScTlO3
_chemical_formula_sum   'Sc4 Tl4 O12'
_cell_volume   256.38689527
_cell_formula_units_Z   4
loop_
 _symmetry_equiv_pos_site_id
 _symmetry_equiv_pos_as_xyz
  1  'x, y, z'
loop_
 _atom_site_type_symbol
 _atom_site_label
 _atom_site_symmetry_multiplicity
 _atom_site_fract_x
 _atom_site_fract_y
 _atom_site_fract_z
 _atom_site_occupancy
  Sc  Sc0  1  0.00000000  0.50000000  0.50000000  1
  Sc  Sc1  1  0.00000000  0.50000000  0.00000000  1
  Sc  Sc2  1  0.50000000  0.00000000  0.50000000  1
  Sc  Sc3  1  0.50000000  0.00000000  0.00000000  1
  Tl  Tl4  1  0.01946617  0.94724286  0.74805227  1
  Tl  Tl5  1  0.48053383  0.44724286  0.75194773  1
  Tl  Tl6  1  0.51946617  0.55275714  0.24805227  1
  Tl  Tl7  1  0.98053383  0.05275714  0.25194773  1
  O  O8  1  0.12235535  0.43656360  0.24981936  1
  O  O9  1  0.18896617  0.19205982  0.56589809  1
  O  O10  1  0.19000811  0.19294699  0.92997424  1
  O  O11  1  0.30999189  0.69294699  0.57002576  1
  O  O12  1  0.31103383  0.69205982  0.93410191  1
  O  O13  1  0.37764465  0.93656360  0.25018064  1
  O  O14  1  0.62235535  0.06343640  0.74981936  1
  O  O15  1  0.68896617  0.30794018  0.06589809  1
  O  O16  1  0.69000811  0.30705301  0.42997424  1
  O  O17  1  0.80999189  0.80705301  0.07002576  1
  O  O18  1  0.81103383  0.80794018  0.43410191  1
  O  O19  1  0.87764465  0.56343640  0.75018064  1
