# generated using pymatgen
data_CaP2(HO2)4
_symmetry_space_group_name_H-M   'P 1'
_cell_length_a   7.88772298
_cell_length_b   8.44685080
_cell_length_c   5.63537123
_cell_angle_alpha   67.58249147
_cell_angle_beta   95.90102121
_cell_angle_gamma   111.51895890
_symmetry_Int_Tables_number   1
_chemical_formula_structural   CaP2(HO2)4
_chemical_formula_sum   'Ca2 P4 H8 O16'
_cell_volume   322.59688371
_cell_formula_units_Z   2
loop_
 _symmetry_equiv_pos_site_id
 _symmetry_equiv_pos_as_xyz
  1  'x, y, z'
loop_
 _atom_site_type_symbol
 _atom_site_label
 _atom_site_symmetry_multiplicity
 _atom_site_fract_x
 _atom_site_fract_y
 _atom_site_fract_z
 _atom_site_occupancy
  Ca  Ca0  1  0.32100114  0.44962424  0.75065703  1
  Ca  Ca1  1  0.67899886  0.55037576  0.24934297  1
  P  P2  1  0.27693812  0.68842282  0.11452974  1
  P  P3  1  0.26282113  0.14210590  0.32253154  1
  P  P4  1  0.73717887  0.85789410  0.67746846  1
  P  P5  1  0.72306188  0.31157718  0.88547026  1
  H  H6  1  0.98452902  0.94592444  0.88030030  1
  H  H7  1  0.14884382  0.75970476  0.36458195  1
  H  H8  1  0.33834542  0.93741618  0.65839670  1
  H  H9  1  0.00000000  0.00000000  0.50000000  1
  H  H10  1  0.50000000  0.00000000  0.00000000  1
  H  H11  1  0.66165458  0.06258382  0.34160330  1
  H  H12  1  0.85115618  0.24029524  0.63541805  1
  H  H13  1  0.01547098  0.05407556  0.11969970  1
  O  O14  1  0.10555714  0.67711099  0.26821659  1
  O  O15  1  0.31209950  0.96576608  0.46039590  1
  O  O16  1  0.20044556  0.57325433  0.95460159  1
  O  O17  1  0.36795505  0.89716130  0.93485068  1
  O  O18  1  0.14751091  0.11244054  0.07763046  1
  O  O19  1  0.12515484  0.13937271  0.50278146  1
  O  O20  1  0.41087934  0.63225449  0.32002428  1
  O  O21  1  0.58056103  0.68332681  0.80003000  1
  O  O22  1  0.41943897  0.31667319  0.19997000  1
  O  O23  1  0.58912066  0.36774551  0.67997572  1
  O  O24  1  0.87484516  0.86062729  0.49721854  1
  O  O25  1  0.85248909  0.88755946  0.92236954  1
  O  O26  1  0.63204495  0.10283870  0.06514932  1
  O  O27  1  0.79955444  0.42674567  0.04539841  1
  O  O28  1  0.68790050  0.03423392  0.53960410  1
  O  O29  1  0.89444286  0.32288901  0.73178341  1
