# generated using pymatgen
data_Sr3CaI8
_symmetry_space_group_name_H-M   'P 1'
_cell_length_a   7.99737059
_cell_length_b   7.99716315
_cell_length_c   9.79104829
_cell_angle_alpha   66.02729795
_cell_angle_beta   65.73808989
_cell_angle_gamma   89.81366841
_symmetry_Int_Tables_number   1
_chemical_formula_structural   Sr3CaI8
_chemical_formula_sum   'Sr3 Ca1 I8'
_cell_volume   511.47420646
_cell_formula_units_Z   1
loop_
 _symmetry_equiv_pos_site_id
 _symmetry_equiv_pos_as_xyz
  1  'x, y, z'
loop_
 _atom_site_type_symbol
 _atom_site_label
 _atom_site_symmetry_multiplicity
 _atom_site_fract_x
 _atom_site_fract_y
 _atom_site_fract_z
 _atom_site_occupancy
  Sr  Sr0  1  0.74887862  0.25046797  0.50196354  1
  Sr  Sr1  1  0.50275286  0.50172227  0.99965744  1
  Sr  Sr2  1  0.24884828  0.75241118  0.49800918  1
  Ca  Ca3  1  0.00417932  0.00052792  0.99952067  1
  I  I4  1  0.62831067  0.12172375  0.25018560  1
  I  I5  1  0.12392732  0.12727364  0.24485239  1
  I  I6  1  0.87866223  0.36924318  0.75393837  1
  I  I7  1  0.37062957  0.37514454  0.75257377  1
  I  I8  1  0.12578399  0.62970553  0.24939677  1
  I  I9  1  0.63540102  0.63156494  0.24586365  1
  I  I10  1  0.36624908  0.87890639  0.75735631  1
  I  I11  1  0.87571804  0.87794468  0.75118430  1
