# generated using pymatgen
data_ErInO3
_symmetry_space_group_name_H-M   'P 1'
_cell_length_a   5.52122608
_cell_length_b   5.84036295
_cell_length_c   8.17680352
_cell_angle_alpha   90.00000000
_cell_angle_beta   90.00000000
_cell_angle_gamma   90.00000000
_symmetry_Int_Tables_number   1
_chemical_formula_structural   ErInO3
_chemical_formula_sum   'Er4 In4 O12'
_cell_volume   263.66891387
_cell_formula_units_Z   4
loop_
 _symmetry_equiv_pos_site_id
 _symmetry_equiv_pos_as_xyz
  1  'x, y, z'
loop_
 _atom_site_type_symbol
 _atom_site_label
 _atom_site_symmetry_multiplicity
 _atom_site_fract_x
 _atom_site_fract_y
 _atom_site_fract_z
 _atom_site_occupancy
  Er  Er0  1  0.01791642  0.93732030  0.75000000  1
  Er  Er1  1  0.48208358  0.43732030  0.75000000  1
  Er  Er2  1  0.51791642  0.56267970  0.25000000  1
  Er  Er3  1  0.98208358  0.06267970  0.25000000  1
  In  In4  1  0.00000000  0.50000000  0.00000000  1
  In  In5  1  0.00000000  0.50000000  0.50000000  1
  In  In6  1  0.50000000  0.00000000  0.00000000  1
  In  In7  1  0.50000000  0.00000000  0.50000000  1
  O  O8  1  0.14814524  0.42331524  0.25000000  1
  O  O9  1  0.17978707  0.18348651  0.57515751  1
  O  O10  1  0.17978707  0.18348651  0.92484249  1
  O  O11  1  0.32021293  0.68348651  0.57515751  1
  O  O12  1  0.32021293  0.68348651  0.92484249  1
  O  O13  1  0.35185476  0.92331524  0.25000000  1
  O  O14  1  0.64814524  0.07668476  0.75000000  1
  O  O15  1  0.67978707  0.31651349  0.07515751  1
  O  O16  1  0.67978707  0.31651349  0.42484249  1
  O  O17  1  0.82021293  0.81651349  0.07515751  1
  O  O18  1  0.82021293  0.81651349  0.42484249  1
  O  O19  1  0.85185476  0.57668476  0.75000000  1
