# generated using pymatgen
data_Bi2B2O7
_symmetry_space_group_name_H-M   'P 1'
_cell_length_a   7.43190108
_cell_length_b   6.60235628
_cell_length_c   6.39148278
_cell_angle_alpha   92.58593770
_cell_angle_beta   81.17109973
_cell_angle_gamma   100.44427739
_symmetry_Int_Tables_number   1
_chemical_formula_structural   Bi2B2O7
_chemical_formula_sum   'Bi4 B4 O14'
_cell_volume   304.71880771
_cell_formula_units_Z   2
loop_
 _symmetry_equiv_pos_site_id
 _symmetry_equiv_pos_as_xyz
  1  'x, y, z'
loop_
 _atom_site_type_symbol
 _atom_site_label
 _atom_site_symmetry_multiplicity
 _atom_site_fract_x
 _atom_site_fract_y
 _atom_site_fract_z
 _atom_site_occupancy
  Bi  Bi0  1  0.27519036  0.72378109  0.17670019  1
  Bi  Bi1  1  0.26292069  0.24650263  0.58473318  1
  Bi  Bi2  1  0.73707931  0.75349737  0.41526682  1
  Bi  Bi3  1  0.72480964  0.27621891  0.82329981  1
  B  B4  1  0.27307913  0.78362928  0.67683601  1
  B  B5  1  0.33273048  0.23854121  0.10403098  1
  B  B6  1  0.66726952  0.76145879  0.89596902  1
  B  B7  1  0.72692087  0.21637072  0.32316399  1
  O  O8  1  0.00175014  0.32043383  0.71583752  1
  O  O9  1  0.29433391  0.66524807  0.84240902  1
  O  O10  1  0.32111752  0.06601478  0.22684225  1
  O  O11  1  0.25309923  0.39037748  0.21577759  1
  O  O12  1  0.17304018  0.93611201  0.69396082  1
  O  O13  1  0.36997447  0.71762960  0.48558326  1
  O  O14  1  0.41818696  0.25786530  0.89535742  1
  O  O15  1  0.58181304  0.74213470  0.10464258  1
  O  O16  1  0.63002553  0.28237040  0.51441674  1
  O  O17  1  0.82695982  0.06388799  0.30603918  1
  O  O18  1  0.74690077  0.60962252  0.78422241  1
  O  O19  1  0.67888248  0.93398522  0.77315775  1
  O  O20  1  0.70566609  0.33475193  0.15759098  1
  O  O21  1  0.99824986  0.67956617  0.28416248  1
