# generated using pymatgen
data_LiSnP2O7
_symmetry_space_group_name_H-M   'P 1'
_cell_length_a   5.06898100
_cell_length_b   8.95088233
_cell_length_c   7.19523130
_cell_angle_alpha   90.00000000
_cell_angle_beta   109.13039865
_cell_angle_gamma   90.00000000
_symmetry_Int_Tables_number   1
_chemical_formula_structural   LiSnP2O7
_chemical_formula_sum   'Li2 Sn2 P4 O14'
_cell_volume   308.43222159
_cell_formula_units_Z   2
loop_
 _symmetry_equiv_pos_site_id
 _symmetry_equiv_pos_as_xyz
  1  'x, y, z'
loop_
 _atom_site_type_symbol
 _atom_site_label
 _atom_site_symmetry_multiplicity
 _atom_site_fract_x
 _atom_site_fract_y
 _atom_site_fract_z
 _atom_site_occupancy
  Li  Li0  1  0.20205941  0.79412887  0.66214068  1
  Li  Li1  1  0.79794059  0.29412887  0.33785932  1
  Sn  Sn2  1  0.21422753  0.44068018  0.73366585  1
  Sn  Sn3  1  0.78577247  0.94068018  0.26633415  1
  P  P4  1  0.39605592  0.12487559  0.53557600  1
  P  P5  1  0.21122987  0.73220363  0.07675117  1
  P  P6  1  0.78877013  0.23220363  0.92324883  1
  P  P7  1  0.60394408  0.62487559  0.46442400  1
  O  O8  1  0.05027611  0.25834327  0.86735546  1
  O  O9  1  0.14726262  0.65387274  0.87623050  1
  O  O10  1  0.22232943  0.98051924  0.50729589  1
  O  O11  1  0.21695102  0.26813281  0.50744806  1
  O  O12  1  0.41210935  0.63073137  0.59071905  1
  O  O13  1  0.62509073  0.37673686  0.92703762  1
  O  O14  1  0.58802325  0.11643044  0.76580280  1
  O  O15  1  0.41197675  0.61643044  0.23419720  1
  O  O16  1  0.37490927  0.87673686  0.07296238  1
  O  O17  1  0.58789065  0.13073137  0.40928095  1
  O  O18  1  0.78304898  0.76813281  0.49255194  1
  O  O19  1  0.77767057  0.48051924  0.49270411  1
  O  O20  1  0.85273738  0.15387274  0.12376950  1
  O  O21  1  0.94972389  0.75834327  0.13264454  1
