# generated using pymatgen
data_Li2Cu7F16
_symmetry_space_group_name_H-M   'P 1'
_cell_length_a   6.38934489
_cell_length_b   8.97272031
_cell_length_c   6.37901083
_cell_angle_alpha   88.88208328
_cell_angle_beta   60.58272516
_cell_angle_gamma   110.81098885
_symmetry_Int_Tables_number   1
_chemical_formula_structural   Li2Cu7F16
_chemical_formula_sum   'Li2 Cu7 F16'
_cell_volume   289.19514851
_cell_formula_units_Z   1
loop_
 _symmetry_equiv_pos_site_id
 _symmetry_equiv_pos_as_xyz
  1  'x, y, z'
loop_
 _atom_site_type_symbol
 _atom_site_label
 _atom_site_symmetry_multiplicity
 _atom_site_fract_x
 _atom_site_fract_y
 _atom_site_fract_z
 _atom_site_occupancy
  Li  Li0  1  0.64973740  0.01027745  0.68757021  1
  Li  Li1  1  0.34956019  0.98981264  0.31334922  1
  Cu  Cu2  1  0.57855981  0.34226008  0.90506082  1
  Cu  Cu3  1  0.86289971  0.33944367  0.24082457  1
  Cu  Cu4  1  0.76171180  0.65721042  0.47188500  1
  Cu  Cu5  1  0.00008774  0.00014407  0.99982293  1
  Cu  Cu6  1  0.23907758  0.34287204  0.52786889  1
  Cu  Cu7  1  0.13689227  0.66047382  0.75930032  1
  Cu  Cu8  1  0.42144976  0.65774297  0.09507682  1
  F  F9  1  0.83808778  0.24966064  0.57930468  1
  F  F10  1  0.75828157  0.58100003  0.86537393  1
  F  F11  1  0.77072331  0.11225614  0.22904663  1
  F  F12  1  0.35861434  0.11237449  0.99644916  1
  F  F13  1  0.96023362  0.58004604  0.17546806  1
  F  F14  1  0.55523890  0.41843906  0.62463379  1
  F  F15  1  0.89307121  0.88443029  0.32301967  1
  F  F16  1  0.52593706  0.29435805  0.24374546  1
  F  F17  1  0.47417660  0.70566592  0.75625548  1
  F  F18  1  0.10682239  0.11543667  0.67646484  1
  F  F19  1  0.44426128  0.58168643  0.37552482  1
  F  F20  1  0.03988077  0.41975326  0.82475680  1
  F  F21  1  0.64125487  0.88757208  0.00329639  1
  F  F22  1  0.22938849  0.88756988  0.77069043  1
  F  F23  1  0.24250031  0.41902062  0.13439641  1
  F  F24  1  0.16155123  0.75049323  0.42081567  1
