# generated using pymatgen
data_BaLaCl5
_symmetry_space_group_name_H-M   'P 1'
_cell_length_a   7.77929158
_cell_length_b   4.57513517
_cell_length_c   13.06369199
_cell_angle_alpha   90.00000000
_cell_angle_beta   92.92765756
_cell_angle_gamma   90.00000000
_symmetry_Int_Tables_number   1
_chemical_formula_structural   BaLaCl5
_chemical_formula_sum   'Ba2 La2 Cl10'
_cell_volume   464.34706879
_cell_formula_units_Z   2
loop_
 _symmetry_equiv_pos_site_id
 _symmetry_equiv_pos_as_xyz
  1  'x, y, z'
loop_
 _atom_site_type_symbol
 _atom_site_label
 _atom_site_symmetry_multiplicity
 _atom_site_fract_x
 _atom_site_fract_y
 _atom_site_fract_z
 _atom_site_occupancy
  Ba  Ba0  1  0.05528890  0.75000000  0.84323754  1
  Ba  Ba1  1  0.94471110  0.25000000  0.15676246  1
  La  La2  1  0.43644774  0.25000000  0.65385898  1
  La  La3  1  0.56355226  0.75000000  0.34614102  1
  Cl  Cl4  1  0.07942842  0.25000000  0.66029683  1
  Cl  Cl5  1  0.15482551  0.75000000  0.07558799  1
  Cl  Cl6  1  0.32957089  0.75000000  0.52018611  1
  Cl  Cl7  1  0.36270230  0.25000000  0.85856362  1
  Cl  Cl8  1  0.36281827  0.25000000  0.28293950  1
  Cl  Cl9  1  0.63718173  0.75000000  0.71706050  1
  Cl  Cl10  1  0.63729770  0.75000000  0.14143638  1
  Cl  Cl11  1  0.67042911  0.25000000  0.47981389  1
  Cl  Cl12  1  0.84517449  0.25000000  0.92441201  1
  Cl  Cl13  1  0.92057158  0.75000000  0.33970317  1
