# generated using pymatgen
data_TiCuGe
_symmetry_space_group_name_H-M   'P 1'
_cell_length_a   5.13596551
_cell_length_b   7.13478597
_cell_length_c   9.13771798
_cell_angle_alpha   129.93787370
_cell_angle_beta   90.10835273
_cell_angle_gamma   43.87691358
_symmetry_Int_Tables_number   1
_chemical_formula_structural   TiCuGe
_chemical_formula_sum   'Ti2 Cu2 Ge2'
_cell_volume   88.61749053
_cell_formula_units_Z   2
loop_
 _symmetry_equiv_pos_site_id
 _symmetry_equiv_pos_as_xyz
  1  'x, y, z'
loop_
 _atom_site_type_symbol
 _atom_site_label
 _atom_site_symmetry_multiplicity
 _atom_site_fract_x
 _atom_site_fract_y
 _atom_site_fract_z
 _atom_site_occupancy
  Ti  Ti0  1  0.77029198  0.50064703  0.30781692  1
  Ti  Ti1  1  0.27234892  0.49943145  0.70690013  1
  Cu  Cu2  1  0.52085485  0.50028585  0.00801356  1
  Cu  Cu3  1  0.02268517  0.49900661  0.00700897  1
  Ge  Ge4  1  0.77117474  0.50098474  0.61525844  1
  Ge  Ge5  1  0.27135134  0.49964432  0.39945098  1
