# generated using pymatgen
data_K6YO4
_symmetry_space_group_name_H-M   'P 1'
_cell_length_a   9.39544270
_cell_length_b   9.39509039
_cell_length_c   6.71466104
_cell_angle_alpha   90.00169315
_cell_angle_beta   89.99862829
_cell_angle_gamma   120.00085145
_symmetry_Int_Tables_number   1
_chemical_formula_structural   K6YO4
_chemical_formula_sum   'K12 Y2 O8'
_cell_volume   513.29757273
_cell_formula_units_Z   2
loop_
 _symmetry_equiv_pos_site_id
 _symmetry_equiv_pos_as_xyz
  1  'x, y, z'
loop_
 _atom_site_type_symbol
 _atom_site_label
 _atom_site_symmetry_multiplicity
 _atom_site_fract_x
 _atom_site_fract_y
 _atom_site_fract_z
 _atom_site_occupancy
  K  K0  1  0.13223481  0.86779128  0.99510332  1
  K  K1  1  0.08386591  0.54191347  0.31374600  1
  K  K2  1  0.45805135  0.91612194  0.31372303  1
  K  K3  1  0.13222146  0.26445324  0.99511191  1
  K  K4  1  0.45807412  0.54193851  0.31372788  1
  K  K5  1  0.26444520  0.13221372  0.49514056  1
  K  K6  1  0.73555267  0.86777357  0.99510255  1
  K  K7  1  0.54193422  0.45804360  0.81372728  1
  K  K8  1  0.54193971  0.08385249  0.81371634  1
  K  K9  1  0.86777086  0.73555362  0.49512427  1
  K  K10  1  0.91613935  0.45806992  0.81374206  1
  K  K11  1  0.86775842  0.13222455  0.49514760  1
  Y  Y12  1  0.33334408  0.66666556  0.73082221  1
  Y  Y13  1  0.66666714  0.33331374  0.23082508  1
  O  O14  1  0.20948643  0.79056032  0.61169729  1
  O  O15  1  0.33333504  0.66663436  0.05365243  1
  O  O16  1  0.20948574  0.41892035  0.61168872  1
  O  O17  1  0.58110785  0.79058374  0.61170280  1
  O  O18  1  0.41889916  0.20935760  0.11170596  1
  O  O19  1  0.79046283  0.58106872  0.11170137  1
  O  O20  1  0.66669540  0.33331062  0.55364627  1
  O  O21  1  0.79058828  0.20949509  0.11166506  1
