# generated using pymatgen
data_Na2O
_symmetry_space_group_name_H-M   'P 1'
_cell_length_a   3.80581279
_cell_length_b   3.80581279
_cell_length_c   8.20602208
_cell_angle_alpha   104.07320388
_cell_angle_beta   75.92679612
_cell_angle_gamma   119.86247479
_symmetry_Int_Tables_number   1
_chemical_formula_structural   Na2O
_chemical_formula_sum   'Na4 O2'
_cell_volume   98.92381466
_cell_formula_units_Z   2
loop_
 _symmetry_equiv_pos_site_id
 _symmetry_equiv_pos_as_xyz
  1  'x, y, z'
loop_
 _atom_site_type_symbol
 _atom_site_label
 _atom_site_symmetry_multiplicity
 _atom_site_fract_x
 _atom_site_fract_y
 _atom_site_fract_z
 _atom_site_occupancy
  Na  Na0  1  0.11227262  0.88772738  0.67817740  1
  Na  Na1  1  0.29655500  0.70344500  0.10472634  1
  Na  Na2  1  0.70344500  0.29655500  0.89527366  1
  Na  Na3  1  0.88772738  0.11227262  0.32182260  1
  O  O4  1  0.59302316  0.40697684  0.21042661  1
  O  O5  1  0.40697684  0.59302316  0.78957339  1
