# generated using pymatgen
data_Tm2TiO5
_symmetry_space_group_name_H-M   'P 1'
_cell_length_a   5.26004390
_cell_length_b   6.33637935
_cell_length_c   7.50121799
_cell_angle_alpha   68.69280487
_cell_angle_beta   90.00000000
_cell_angle_gamma   65.47646430
_symmetry_Int_Tables_number   1
_chemical_formula_structural   Tm2TiO5
_chemical_formula_sum   'Tm4 Ti2 O10'
_cell_volume   208.52973670
_cell_formula_units_Z   2
loop_
 _symmetry_equiv_pos_site_id
 _symmetry_equiv_pos_as_xyz
  1  'x, y, z'
loop_
 _atom_site_type_symbol
 _atom_site_label
 _atom_site_symmetry_multiplicity
 _atom_site_fract_x
 _atom_site_fract_y
 _atom_site_fract_z
 _atom_site_occupancy
  Tm  Tm0  1  0.63052430  0.72473338  0.74851535  1
  Tm  Tm1  1  0.64474132  0.72473338  0.24851535  1
  Tm  Tm2  1  0.35525868  0.27526662  0.75148465  1
  Tm  Tm3  1  0.36947570  0.27526662  0.25148465  1
  Ti  Ti4  1  0.00000000  0.00000000  0.50000000  1
  Ti  Ti5  1  0.00000000  0.00000000  0.00000000  1
  O  O6  1  0.75244175  0.85543273  0.95508043  1
  O  O7  1  0.39212552  0.85543273  0.45508043  1
  O  O8  1  0.02678098  0.65895653  0.64105250  1
  O  O9  1  0.68573750  0.34104347  0.85894750  1
  O  O10  1  0.31426250  0.65895653  0.14105250  1
  O  O11  1  0.97321902  0.34104347  0.35894750  1
  O  O12  1  0.60787448  0.14456727  0.54491957  1
  O  O13  1  0.17150810  0.00000000  0.75000000  1
  O  O14  1  0.24755825  0.14456727  0.04491957  1
  O  O15  1  0.82849190  0.00000000  0.25000000  1
