# generated using pymatgen
data_TmAsO4
_symmetry_space_group_name_H-M   'P 1'
_cell_length_a   6.72093735
_cell_length_b   6.93773986
_cell_length_c   6.63852771
_cell_angle_alpha   90.00000000
_cell_angle_beta   105.82663354
_cell_angle_gamma   90.00000000
_symmetry_Int_Tables_number   1
_chemical_formula_structural   TmAsO4
_chemical_formula_sum   'Tm4 As4 O16'
_cell_volume   297.80770369
_cell_formula_units_Z   4
loop_
 _symmetry_equiv_pos_site_id
 _symmetry_equiv_pos_as_xyz
  1  'x, y, z'
loop_
 _atom_site_type_symbol
 _atom_site_label
 _atom_site_symmetry_multiplicity
 _atom_site_fract_x
 _atom_site_fract_y
 _atom_site_fract_z
 _atom_site_occupancy
  Tm  Tm0  1  0.21933825  0.14371936  0.41508229  1
  Tm  Tm1  1  0.28066175  0.64371936  0.08491771  1
  Tm  Tm2  1  0.71933825  0.35628064  0.91508229  1
  Tm  Tm3  1  0.78066175  0.85628064  0.58491771  1
  As  As4  1  0.19984608  0.16033956  0.88892702  1
  As  As5  1  0.30015392  0.66033956  0.61107298  1
  As  As6  1  0.69984608  0.33966044  0.38892702  1
  As  As7  1  0.80015392  0.83966044  0.11107298  1
  O  O8  1  0.01707159  0.10359005  0.65848274  1
  O  O9  1  0.10904668  0.71457417  0.72944806  1
  O  O10  1  0.10036541  0.35221382  0.99328209  1
  O  O11  1  0.25466889  0.49089805  0.41387670  1
  O  O12  1  0.39095332  0.21457417  0.77055194  1
  O  O13  1  0.24533111  0.99089805  0.08612330  1
  O  O14  1  0.39963459  0.85221382  0.50671791  1
  O  O15  1  0.48292841  0.60359005  0.84151726  1
  O  O16  1  0.51707159  0.39640995  0.15848274  1
  O  O17  1  0.60036541  0.14778618  0.49328209  1
  O  O18  1  0.75466889  0.00910195  0.91387670  1
  O  O19  1  0.60904668  0.78542583  0.22944806  1
  O  O20  1  0.74533111  0.50910195  0.58612330  1
  O  O21  1  0.89963459  0.64778618  0.00671791  1
  O  O22  1  0.89095332  0.28542583  0.27055194  1
  O  O23  1  0.98292841  0.89640995  0.34151726  1
