# generated using pymatgen
data_TbTmO3
_symmetry_space_group_name_H-M   'P 1'
_cell_length_a   5.65550201
_cell_length_b   5.92657082
_cell_length_c   8.33553242
_cell_angle_alpha   90.00000000
_cell_angle_beta   90.00000000
_cell_angle_gamma   90.00000000
_symmetry_Int_Tables_number   1
_chemical_formula_structural   TbTmO3
_chemical_formula_sum   'Tb4 Tm4 O12'
_cell_volume   279.38815161
_cell_formula_units_Z   4
loop_
 _symmetry_equiv_pos_site_id
 _symmetry_equiv_pos_as_xyz
  1  'x, y, z'
loop_
 _atom_site_type_symbol
 _atom_site_label
 _atom_site_symmetry_multiplicity
 _atom_site_fract_x
 _atom_site_fract_y
 _atom_site_fract_z
 _atom_site_occupancy
  Tb  Tb0  1  0.01665205  0.94559521  0.75000000  1
  Tb  Tb1  1  0.48334795  0.44559521  0.75000000  1
  Tb  Tb2  1  0.51665205  0.55440479  0.25000000  1
  Tb  Tb3  1  0.98334795  0.05440479  0.25000000  1
  Tm  Tm4  1  0.00000000  0.50000000  0.00000000  1
  Tm  Tm5  1  0.00000000  0.50000000  0.50000000  1
  Tm  Tm6  1  0.50000000  0.00000000  0.00000000  1
  Tm  Tm7  1  0.50000000  0.00000000  0.50000000  1
  O  O8  1  0.14375848  0.42683006  0.25000000  1
  O  O9  1  0.18279577  0.18630909  0.57530944  1
  O  O10  1  0.18279577  0.18630909  0.92469056  1
  O  O11  1  0.31720423  0.68630909  0.92469056  1
  O  O12  1  0.31720423  0.68630909  0.57530944  1
  O  O13  1  0.35624152  0.92683006  0.25000000  1
  O  O14  1  0.64375848  0.07316994  0.75000000  1
  O  O15  1  0.68279577  0.31369091  0.42469056  1
  O  O16  1  0.68279577  0.31369091  0.07530944  1
  O  O17  1  0.81720423  0.81369091  0.07530944  1
  O  O18  1  0.81720423  0.81369091  0.42469056  1
  O  O19  1  0.85624152  0.57316994  0.75000000  1
