# generated using pymatgen
data_Bi2B2O7
_symmetry_space_group_name_H-M   'P 1'
_cell_length_a   8.31478530
_cell_length_b   6.48300046
_cell_length_c   5.75789740
_cell_angle_alpha   71.96168787
_cell_angle_beta   105.89114142
_cell_angle_gamma   108.52269601
_symmetry_Int_Tables_number   1
_chemical_formula_structural   Bi2B2O7
_chemical_formula_sum   'Bi4 B4 O14'
_cell_volume   274.48582596
_cell_formula_units_Z   2
loop_
 _symmetry_equiv_pos_site_id
 _symmetry_equiv_pos_as_xyz
  1  'x, y, z'
loop_
 _atom_site_type_symbol
 _atom_site_label
 _atom_site_symmetry_multiplicity
 _atom_site_fract_x
 _atom_site_fract_y
 _atom_site_fract_z
 _atom_site_occupancy
  Bi  Bi0  1  0.13799912  0.22916204  0.31764595  1
  Bi  Bi1  1  0.32025583  0.53763613  0.78640299  1
  Bi  Bi2  1  0.67974417  0.46236387  0.21359701  1
  Bi  Bi3  1  0.86200088  0.77083796  0.68235405  1
  B  B4  1  0.09705874  0.73910654  0.26240822  1
  B  B5  1  0.28244542  0.98625980  0.89002662  1
  B  B6  1  0.71755458  0.01374020  0.10997338  1
  B  B7  1  0.90294126  0.26089346  0.73759178  1
  O  O8  1  0.06851763  0.84204387  0.43423156  1
  O  O9  1  0.06259875  0.40450122  0.86621025  1
  O  O10  1  0.22155710  0.59464853  0.39335773  1
  O  O11  1  0.37231066  0.86113862  0.84667628  1
  O  O12  1  0.30377639  0.20358628  0.72629544  1
  O  O13  1  0.16957501  0.92240088  0.05060472  1
  O  O14  1  0.40352102  0.38830564  0.18468485  1
  O  O15  1  0.59647898  0.61169436  0.81531515  1
  O  O16  1  0.83042499  0.07759912  0.94939528  1
  O  O17  1  0.69622361  0.79641372  0.27370456  1
  O  O18  1  0.62768934  0.13886138  0.15332372  1
  O  O19  1  0.77844290  0.40535147  0.60664227  1
  O  O20  1  0.93740125  0.59549878  0.13378975  1
  O  O21  1  0.93148237  0.15795613  0.56576844  1
