# generated using pymatgen
data_Li2Nb4O11
_symmetry_space_group_name_H-M   'P 1'
_cell_length_a   8.42451990
_cell_length_b   8.42451990
_cell_length_c   9.93105325
_cell_angle_alpha   52.32575048
_cell_angle_beta   127.67424952
_cell_angle_gamma   153.98278938
_symmetry_Int_Tables_number   1
_chemical_formula_structural   Li2Nb4O11
_chemical_formula_sum   'Li2 Nb4 O11'
_cell_volume   240.78098732
_cell_formula_units_Z   1
loop_
 _symmetry_equiv_pos_site_id
 _symmetry_equiv_pos_as_xyz
  1  'x, y, z'
loop_
 _atom_site_type_symbol
 _atom_site_label
 _atom_site_symmetry_multiplicity
 _atom_site_fract_x
 _atom_site_fract_y
 _atom_site_fract_z
 _atom_site_occupancy
  Li  Li0  1  0.11499467  0.88500533  0.47068738  1
  Li  Li1  1  0.88500533  0.11499467  0.52931262  1
  Nb  Nb2  1  0.15216207  0.84783793  0.15797988  1
  Nb  Nb3  1  0.62866710  0.37133290  0.83556666  1
  Nb  Nb4  1  0.37133290  0.62866710  0.16443334  1
  Nb  Nb5  1  0.84783793  0.15216207  0.84202012  1
  O  O6  1  0.16413729  0.83586271  0.91950615  1
  O  O7  1  0.34704110  0.65295890  0.91231828  1
  O  O8  1  0.17596429  0.82403571  0.35786353  1
  O  O9  1  0.31640980  0.68359020  0.28407506  1
  O  O10  1  0.48974464  0.51025536  0.66620046  1
  O  O11  1  0.51025536  0.48974464  0.33379954  1
  O  O12  1  0.68359020  0.31640980  0.71592494  1
  O  O13  1  0.00000000  0.00000000  0.00000000  1
  O  O14  1  0.82403571  0.17596429  0.64213647  1
  O  O15  1  0.65295890  0.34704110  0.08768172  1
  O  O16  1  0.83586271  0.16413729  0.08049385  1
