# generated using pymatgen
data_Li2Cu(SiO3)2
_symmetry_space_group_name_H-M   'P 1'
_cell_length_a   5.10843864
_cell_length_b   10.41332388
_cell_length_c   5.09658554
_cell_angle_alpha   104.36105548
_cell_angle_beta   90.95429460
_cell_angle_gamma   75.59087544
_symmetry_Int_Tables_number   1
_chemical_formula_structural   Li2Cu(SiO3)2
_chemical_formula_sum   'Li4 Cu2 Si4 O12'
_cell_volume   254.08972101
_cell_formula_units_Z   2
loop_
 _symmetry_equiv_pos_site_id
 _symmetry_equiv_pos_as_xyz
  1  'x, y, z'
loop_
 _atom_site_type_symbol
 _atom_site_label
 _atom_site_symmetry_multiplicity
 _atom_site_fract_x
 _atom_site_fract_y
 _atom_site_fract_z
 _atom_site_occupancy
  Li  Li0  1  0.52805809  0.83534293  0.91669215  1
  Li  Li1  1  0.11342346  0.66433995  0.83010376  1
  Li  Li2  1  0.83306782  0.33530262  0.11206472  1
  Li  Li3  1  0.92078531  0.16355185  0.52650455  1
  Cu  Cu4  1  0.70172127  0.49979104  0.70155402  1
  Cu  Cu5  1  0.95275105  0.99989292  0.95053646  1
  Si  Si6  1  0.16535924  0.83594266  0.39755534  1
  Si  Si7  1  0.75199626  0.66259840  0.31183357  1
  Si  Si8  1  0.31161309  0.33694516  0.74800568  1
  Si  Si9  1  0.40026896  0.16317010  0.16111131  1
  O  O10  1  0.11145690  0.98772499  0.60624366  1
  O  O11  1  0.17563104  0.83314434  0.07678316  1
  O  O12  1  0.94364196  0.75911287  0.48515150  1
  O  O13  1  0.45266556  0.74001478  0.47535371  1
  O  O14  1  0.75869112  0.66625557  0.99453694  1
  O  O15  1  0.84842186  0.51116800  0.36827017  1
  O  O16  1  0.36886320  0.48820750  0.84741019  1
  O  O17  1  0.99542329  0.33337954  0.75620217  1
  O  O18  1  0.47465145  0.26151806  0.44673130  1
  O  O19  1  0.48731635  0.23782493  0.93483333  1
  O  O20  1  0.08044999  0.16618417  0.17250743  1
  O  O21  1  0.60884073  0.01169663  0.10847889  1
