# generated using pymatgen
data_Li3Ti2(PO4)3
_symmetry_space_group_name_H-M   'P 1'
_cell_length_a   4.96862571
_cell_length_b   4.96862571
_cell_length_c   18.61473453
_cell_angle_alpha   89.63124503
_cell_angle_beta   89.63124503
_cell_angle_gamma   66.84019053
_symmetry_Int_Tables_number   1
_chemical_formula_structural   Li3Ti2(PO4)3
_chemical_formula_sum   'Li6 Ti4 P6 O24'
_cell_volume   422.49970195
_cell_formula_units_Z   2
loop_
 _symmetry_equiv_pos_site_id
 _symmetry_equiv_pos_as_xyz
  1  'x, y, z'
loop_
 _atom_site_type_symbol
 _atom_site_label
 _atom_site_symmetry_multiplicity
 _atom_site_fract_x
 _atom_site_fract_y
 _atom_site_fract_z
 _atom_site_occupancy
  Li  Li0  1  0.99990661  0.99990661  0.83418805  1
  Li  Li1  1  0.32937242  0.32937242  0.57916002  1
  Li  Li2  1  0.33009210  0.33009210  0.91222207  1
  Li  Li3  1  0.00009339  0.00009339  0.49914595  1
  Li  Li4  1  0.66990790  0.66990790  0.42111093  1
  Li  Li5  1  0.67062758  0.67062758  0.75417298  1
  Ti  Ti6  1  0.00000000  0.00000000  0.16666700  1
  Ti  Ti7  1  0.99833623  0.99833623  0.00305804  1
  Ti  Ti8  1  0.00166377  0.00166377  0.33027496  1
  Ti  Ti9  1  0.00000000  0.00000000  0.66666700  1
  P  P10  1  0.34771847  0.34771847  0.41381677  1
  P  P11  1  0.34625255  0.34625255  0.08346895  1
  P  P12  1  0.35104937  0.35104937  0.74724192  1
  P  P13  1  0.65374745  0.65374745  0.24986405  1
  P  P14  1  0.64895063  0.64895063  0.58609208  1
  P  P15  1  0.65228153  0.65228153  0.91951623  1
  O  O16  1  0.22588083  0.69053059  0.08438893  1
  O  O17  1  0.23517551  0.69227363  0.40809353  1
  O  O18  1  0.23882788  0.69518282  0.74363422  1
  O  O19  1  0.30946941  0.77411917  0.24894507  1
  O  O20  1  0.30481718  0.76117212  0.58969878  1
  O  O21  1  0.30772637  0.76482449  0.92524047  1
  O  O22  1  0.76405389  0.76405389  0.18384429  1
  O  O23  1  0.74991128  0.74991128  0.51795172  1
  O  O24  1  0.24493874  0.24493874  0.01394750  1
  O  O25  1  0.23207258  0.23207258  0.34906374  1
  O  O26  1  0.23594611  0.23594611  0.14948971  1
  O  O27  1  0.74698775  0.74698775  0.84967679  1
  O  O28  1  0.75722250  0.75722250  0.65413416  1
  O  O29  1  0.75506126  0.75506126  0.31938650  1
  O  O30  1  0.25301225  0.25301225  0.48365721  1
  O  O31  1  0.24277750  0.24277750  0.67919984  1
  O  O32  1  0.76792742  0.76792742  0.98426926  1
  O  O33  1  0.25008872  0.25008872  0.81538228  1
  O  O34  1  0.77411917  0.30946941  0.24894507  1
  O  O35  1  0.76482449  0.30772637  0.92524047  1
  O  O36  1  0.69053059  0.22588083  0.08438893  1
  O  O37  1  0.76117212  0.30481718  0.58969878  1
  O  O38  1  0.69518282  0.23882788  0.74363422  1
  O  O39  1  0.69227363  0.23517551  0.40809353  1
