# generated using pymatgen
data_LiSn(PO3)4
_symmetry_space_group_name_H-M   'P 1'
_cell_length_a   5.48844257
_cell_length_b   10.63247055
_cell_length_c   10.63247055
_cell_angle_alpha   69.48290291
_cell_angle_beta   99.71257192
_cell_angle_gamma   99.71257192
_symmetry_Int_Tables_number   1
_chemical_formula_structural   LiSn(PO3)4
_chemical_formula_sum   'Li2 Sn2 P8 O24'
_cell_volume   568.72899992
_cell_formula_units_Z   2
loop_
 _symmetry_equiv_pos_site_id
 _symmetry_equiv_pos_as_xyz
  1  'x, y, z'
loop_
 _atom_site_type_symbol
 _atom_site_label
 _atom_site_symmetry_multiplicity
 _atom_site_fract_x
 _atom_site_fract_y
 _atom_site_fract_z
 _atom_site_occupancy
  Li  Li0  1  0.38603603  0.43592139  0.43592139  1
  Li  Li1  1  0.61396397  0.56407861  0.56407861  1
  Sn  Sn2  1  0.00000000  0.50000000  0.00000000  1
  Sn  Sn3  1  0.00000000  0.00000000  0.50000000  1
  P  P4  1  0.17429933  0.37175338  0.77554068  1
  P  P5  1  0.17429933  0.77554068  0.37175338  1
  P  P6  1  0.54923817  0.93921876  0.70369332  1
  P  P7  1  0.54923817  0.70369332  0.93921876  1
  P  P8  1  0.45076183  0.06078124  0.29630668  1
  P  P9  1  0.45076183  0.29630668  0.06078124  1
  P  P10  1  0.82570067  0.22445932  0.62824662  1
  P  P11  1  0.82570067  0.62824662  0.22445932  1
  O  O12  1  0.00000000  0.23604167  0.76395833  1
  O  O13  1  0.00000000  0.76395833  0.23604167  1
  O  O14  1  0.26915712  0.67883904  0.91991850  1
  O  O15  1  0.26915712  0.91991850  0.67883904  1
  O  O16  1  0.98922754  0.19099207  0.54473675  1
  O  O17  1  0.98922754  0.54473675  0.19099207  1
  O  O18  1  0.32273748  0.43550800  0.65977286  1
  O  O19  1  0.32273748  0.65977286  0.43550800  1
  O  O20  1  0.35840158  0.30131032  0.90943955  1
  O  O21  1  0.35840158  0.90943955  0.30131032  1
  O  O22  1  0.63561747  0.86146370  0.86146370  1
  O  O23  1  0.31658299  0.38376253  0.10594973  1
  O  O24  1  0.31658299  0.10594973  0.38376253  1
  O  O25  1  0.68341701  0.61623747  0.89405027  1
  O  O26  1  0.68341701  0.89405027  0.61623747  1
  O  O27  1  0.36438253  0.13853630  0.13853630  1
  O  O28  1  0.64159842  0.69868968  0.09056045  1
  O  O29  1  0.64159842  0.09056045  0.69868968  1
  O  O30  1  0.67726252  0.34022714  0.56449200  1
  O  O31  1  0.67726252  0.56449200  0.34022714  1
  O  O32  1  0.01077246  0.45526325  0.80900793  1
  O  O33  1  0.01077246  0.80900793  0.45526325  1
  O  O34  1  0.73084288  0.08008150  0.32116096  1
  O  O35  1  0.73084288  0.32116096  0.08008150  1
