# generated using pymatgen
data_KSbPCO7
_symmetry_space_group_name_H-M   'P 1'
_cell_length_a   10.14029833
_cell_length_b   6.65438195
_cell_length_c   5.79527085
_cell_angle_alpha   90.00000000
_cell_angle_beta   91.33245659
_cell_angle_gamma   90.00000000
_symmetry_Int_Tables_number   1
_chemical_formula_structural   KSbPCO7
_chemical_formula_sum   'K2 Sb2 P2 C2 O14'
_cell_volume   390.94417324
_cell_formula_units_Z   2
loop_
 _symmetry_equiv_pos_site_id
 _symmetry_equiv_pos_as_xyz
  1  'x, y, z'
loop_
 _atom_site_type_symbol
 _atom_site_label
 _atom_site_symmetry_multiplicity
 _atom_site_fract_x
 _atom_site_fract_y
 _atom_site_fract_z
 _atom_site_occupancy
  K  K0  1  0.21075620  0.43509834  0.23596208  1
  K  K1  1  0.78924380  0.93509834  0.76403792  1
  Sb  Sb2  1  0.36086765  0.77436726  0.78454869  1
  Sb  Sb3  1  0.63913235  0.27436726  0.21545131  1
  P  P4  1  0.44162189  0.26901274  0.72532843  1
  P  P5  1  0.55837811  0.76901274  0.27467157  1
  C  C6  1  0.11164175  0.73417144  0.71753273  1
  C  C7  1  0.88835825  0.23417144  0.28246727  1
  O  O8  1  0.00786157  0.20845733  0.30818735  1
  O  O9  1  0.17445686  0.75151801  0.92522742  1
  O  O10  1  0.19791049  0.74651270  0.54433961  1
  O  O11  1  0.35007480  0.09128937  0.79840632  1
  O  O12  1  0.35938303  0.45403040  0.80464282  1
  O  O13  1  0.42187437  0.75982572  0.14769558  1
  O  O14  1  0.46004876  0.27356669  0.46187702  1
  O  O15  1  0.53995124  0.77356669  0.53812298  1
  O  O16  1  0.57812563  0.25982572  0.85230442  1
  O  O17  1  0.64061697  0.95403040  0.19535718  1
  O  O18  1  0.64992520  0.59128937  0.20159368  1
  O  O19  1  0.80208951  0.24651270  0.45566039  1
  O  O20  1  0.82554314  0.25151801  0.07477258  1
  O  O21  1  0.99213843  0.70845733  0.69181265  1
