# generated using pymatgen
data_LiCuPO4
_symmetry_space_group_name_H-M   'P 1'
_cell_length_a   6.31360727
_cell_length_b   9.43221471
_cell_length_c   5.95055290
_cell_angle_alpha   96.61890518
_cell_angle_beta   99.61476889
_cell_angle_gamma   73.24257021
_symmetry_Int_Tables_number   1
_chemical_formula_structural   LiCuPO4
_chemical_formula_sum   'Li4 Cu4 P4 O16'
_cell_volume   333.70213019
_cell_formula_units_Z   4
loop_
 _symmetry_equiv_pos_site_id
 _symmetry_equiv_pos_as_xyz
  1  'x, y, z'
loop_
 _atom_site_type_symbol
 _atom_site_label
 _atom_site_symmetry_multiplicity
 _atom_site_fract_x
 _atom_site_fract_y
 _atom_site_fract_z
 _atom_site_occupancy
  Li  Li0  1  0.17998395  0.29197260  0.56891940  1
  Li  Li1  1  0.34394851  0.67387010  0.43137619  1
  Li  Li2  1  0.65605149  0.32612990  0.56862381  1
  Li  Li3  1  0.82001605  0.70802740  0.43108060  1
  Cu  Cu4  1  0.10701730  0.71995802  0.97925190  1
  Cu  Cu5  1  0.34378190  0.94627013  0.80072881  1
  Cu  Cu6  1  0.65621810  0.05372987  0.19927119  1
  Cu  Cu7  1  0.89298270  0.28004198  0.02074810  1
  P  P8  1  0.29261183  0.38400163  0.12787809  1
  P  P9  1  0.18656914  0.00418924  0.28607752  1
  P  P10  1  0.81343086  0.99581076  0.71392248  1
  P  P11  1  0.70738817  0.61599837  0.87212191  1
  O  O12  1  0.25342440  0.06428894  0.52985370  1
  O  O13  1  0.10269157  0.35870755  0.25069972  1
  O  O14  1  0.26554687  0.33043844  0.87827589  1
  O  O15  1  0.05461003  0.89797112  0.80343114  1
  O  O16  1  0.35018513  0.02497975  0.13135007  1
  O  O17  1  0.27630971  0.55392963  0.16437623  1
  O  O18  1  0.18547562  0.84081065  0.27121676  1
  O  O19  1  0.47959181  0.69583276  0.73409632  1
  O  O20  1  0.52040819  0.30416724  0.26590368  1
  O  O21  1  0.81452438  0.15918935  0.72878324  1
  O  O22  1  0.72369029  0.44607037  0.83562377  1
  O  O23  1  0.64981487  0.97502025  0.86864993  1
  O  O24  1  0.94538997  0.10202888  0.19656886  1
  O  O25  1  0.73445313  0.66956156  0.12172411  1
  O  O26  1  0.89730843  0.64129245  0.74930028  1
  O  O27  1  0.74657560  0.93571106  0.47014630  1
