# generated using pymatgen
data_Li2CuPO4
_symmetry_space_group_name_H-M   'P 1'
_cell_length_a   5.31746557
_cell_length_b   5.31746557
_cell_length_c   6.22860838
_cell_angle_alpha   90.39507942
_cell_angle_beta   89.60492058
_cell_angle_gamma   86.49071147
_symmetry_Int_Tables_number   1
_chemical_formula_structural   Li2CuPO4
_chemical_formula_sum   'Li4 Cu2 P2 O8'
_cell_volume   175.77750137
_cell_formula_units_Z   2
loop_
 _symmetry_equiv_pos_site_id
 _symmetry_equiv_pos_as_xyz
  1  'x, y, z'
loop_
 _atom_site_type_symbol
 _atom_site_label
 _atom_site_symmetry_multiplicity
 _atom_site_fract_x
 _atom_site_fract_y
 _atom_site_fract_z
 _atom_site_occupancy
  Li  Li0  1  0.31703557  0.68296443  0.76005278  1
  Li  Li1  1  0.17873256  0.17873256  0.50000000  1
  Li  Li2  1  0.82126744  0.82126744  0.50000000  1
  Li  Li3  1  0.68296443  0.31703557  0.23994722  1
  Cu  Cu4  1  0.19094223  0.19094223  0.00000000  1
  Cu  Cu5  1  0.80905777  0.80905777  0.00000000  1
  P  P6  1  0.32399672  0.67600328  0.26557401  1
  P  P7  1  0.67600328  0.32399672  0.73442599  1
  O  O8  1  0.20863746  0.79136254  0.05542462  1
  O  O9  1  0.19820199  0.80179801  0.46811345  1
  O  O10  1  0.61452110  0.70686754  0.26704318  1
  O  O11  1  0.29313246  0.38547890  0.26704318  1
  O  O12  1  0.38547890  0.29313246  0.73295682  1
  O  O13  1  0.70686754  0.61452110  0.73295682  1
  O  O14  1  0.80179801  0.19820199  0.53188655  1
  O  O15  1  0.79136254  0.20863746  0.94457538  1
