# generated using pymatgen
data_Li3BePCO7
_symmetry_space_group_name_H-M   'P 1'
_cell_length_a   8.22117411
_cell_length_b   6.21803268
_cell_length_c   4.78289976
_cell_angle_alpha   90.00000000
_cell_angle_beta   87.21035377
_cell_angle_gamma   90.00000000
_symmetry_Int_Tables_number   1
_chemical_formula_structural   Li3BePCO7
_chemical_formula_sum   'Li6 Be2 P2 C2 O14'
_cell_volume   244.20983973
_cell_formula_units_Z   2
loop_
 _symmetry_equiv_pos_site_id
 _symmetry_equiv_pos_as_xyz
  1  'x, y, z'
loop_
 _atom_site_type_symbol
 _atom_site_label
 _atom_site_symmetry_multiplicity
 _atom_site_fract_x
 _atom_site_fract_y
 _atom_site_fract_z
 _atom_site_occupancy
  Li  Li0  1  0.12021307  0.25000000  0.75031640  1
  Li  Li1  1  0.24178241  0.98303148  0.22534348  1
  Li  Li2  1  0.24178241  0.51696852  0.22534348  1
  Li  Li3  1  0.75821759  0.48303148  0.77465652  1
  Li  Li4  1  0.75821759  0.01696852  0.77465652  1
  Li  Li5  1  0.87978693  0.75000000  0.24968360  1
  Be  Be6  1  0.36366982  0.75000000  0.77529941  1
  Be  Be7  1  0.63633018  0.25000000  0.22470059  1
  P  P8  1  0.42695483  0.25000000  0.73161584  1
  P  P9  1  0.57304517  0.75000000  0.26838416  1
  C  C10  1  0.05274416  0.75000000  0.74706232  1
  C  C11  1  0.94725584  0.25000000  0.25293768  1
  O  O12  1  0.07113121  0.75000000  0.01320971  1
  O  O13  1  0.09284544  0.25000000  0.35064584  1
  O  O14  1  0.18165532  0.75000000  0.57645400  1
  O  O15  1  0.31833501  0.05471827  0.81506134  1
  O  O16  1  0.31833501  0.44528173  0.81506134  1
  O  O17  1  0.46579198  0.25000000  0.41008725  1
  O  O18  1  0.40773908  0.75000000  0.12474459  1
  O  O19  1  0.59226092  0.25000000  0.87525541  1
  O  O20  1  0.53420802  0.75000000  0.58991275  1
  O  O21  1  0.68166499  0.55471827  0.18493866  1
  O  O22  1  0.68166499  0.94528173  0.18493866  1
  O  O23  1  0.81834468  0.25000000  0.42354600  1
  O  O24  1  0.90715456  0.75000000  0.64935416  1
  O  O25  1  0.92886879  0.25000000  0.98679029  1
