# generated using pymatgen
data_LiSn(PO3)4
_symmetry_space_group_name_H-M   'P 1'
_cell_length_a   5.40980239
_cell_length_b   14.21062354
_cell_length_c   7.39928380
_cell_angle_alpha   90.00000000
_cell_angle_beta   95.23022697
_cell_angle_gamma   90.00000000
_symmetry_Int_Tables_number   1
_chemical_formula_structural   LiSn(PO3)4
_chemical_formula_sum   'Li2 Sn2 P8 O24'
_cell_volume   566.46389918
_cell_formula_units_Z   2
loop_
 _symmetry_equiv_pos_site_id
 _symmetry_equiv_pos_as_xyz
  1  'x, y, z'
loop_
 _atom_site_type_symbol
 _atom_site_label
 _atom_site_symmetry_multiplicity
 _atom_site_fract_x
 _atom_site_fract_y
 _atom_site_fract_z
 _atom_site_occupancy
  Li  Li0  1  0.64406235  0.99307657  0.09885088  1
  Li  Li1  1  0.35593765  0.49307657  0.90114912  1
  Sn  Sn2  1  0.51674906  0.76283347  0.50807642  1
  Sn  Sn3  1  0.48325094  0.26283347  0.49192358  1
  P  P4  1  0.03722473  0.90374103  0.55599413  1
  P  P5  1  0.00087193  0.61739002  0.44904332  1
  P  P6  1  0.12670087  0.32833665  0.09536183  1
  P  P7  1  0.21828304  0.68350144  0.10896375  1
  P  P8  1  0.78171696  0.18350144  0.89103625  1
  P  P9  1  0.87329913  0.82833665  0.90463817  1
  P  P10  1  0.99912807  0.11739002  0.55095668  1
  P  P11  1  0.96277527  0.40374103  0.44400587  1
  O  O12  1  0.03680079  0.73680708  0.95939004  1
  O  O13  1  0.05254780  0.88030069  0.76866527  1
  O  O14  1  0.98661340  0.14383013  0.76003129  1
  O  O15  1  0.15320675  0.39289365  0.94027769  1
  O  O16  1  0.07755356  0.50782229  0.45845008  1
  O  O17  1  0.14959586  0.34181009  0.55143114  1
  O  O18  1  0.19780853  0.66673088  0.57211958  1
  O  O19  1  0.29867713  0.90336678  0.50023279  1
  O  O20  1  0.26570421  0.12732105  0.50813941  1
  O  O21  1  0.38652088  0.75374522  0.21325130  1
  O  O22  1  0.36170655  0.29422888  0.20176441  1
  O  O23  1  0.33375329  0.60311408  0.02032511  1
  O  O24  1  0.66624671  0.10311408  0.97967489  1
  O  O25  1  0.63829345  0.79422888  0.79823559  1
  O  O26  1  0.61347912  0.25374522  0.78674870  1
  O  O27  1  0.73429579  0.62732105  0.49186059  1
  O  O28  1  0.70132287  0.40336678  0.49976721  1
  O  O29  1  0.80219147  0.16673088  0.42788042  1
  O  O30  1  0.85040414  0.84181009  0.44856886  1
  O  O31  1  0.92244644  0.00782229  0.54154992  1
  O  O32  1  0.84679325  0.89289365  0.05972231  1
  O  O33  1  0.01338660  0.64383013  0.23996871  1
  O  O34  1  0.94745220  0.38030069  0.23133473  1
  O  O35  1  0.96319921  0.23680708  0.04060996  1
