# generated using pymatgen
data_Sb5O7F
_symmetry_space_group_name_H-M   'P 1'
_cell_length_a   4.15791312
_cell_length_b   10.10533407
_cell_length_c   13.88434140
_cell_angle_alpha   63.89270981
_cell_angle_beta   89.88175611
_cell_angle_gamma   78.27141960
_symmetry_Int_Tables_number   1
_chemical_formula_structural   Sb5O7F
_chemical_formula_sum   'Sb10 O14 F2'
_cell_volume   510.38126287
_cell_formula_units_Z   2
loop_
 _symmetry_equiv_pos_site_id
 _symmetry_equiv_pos_as_xyz
  1  'x, y, z'
loop_
 _atom_site_type_symbol
 _atom_site_label
 _atom_site_symmetry_multiplicity
 _atom_site_fract_x
 _atom_site_fract_y
 _atom_site_fract_z
 _atom_site_occupancy
  Sb  Sb0  1  0.53655472  0.92363408  0.33990057  1
  Sb  Sb1  1  0.10792550  0.77525414  0.55880387  1
  Sb  Sb2  1  0.77374927  0.44842319  0.88865944  1
  Sb  Sb3  1  0.59744872  0.81203671  0.12779934  1
  Sb  Sb4  1  0.23276300  0.54600193  0.35602137  1
  Sb  Sb5  1  0.77273203  0.45508782  0.64296852  1
  Sb  Sb6  1  0.40359321  0.18980550  0.87091575  1
  Sb  Sb7  1  0.22710186  0.55331146  0.11014703  1
  Sb  Sb8  1  0.87969020  0.22594764  0.43992581  1
  Sb  Sb9  1  0.45176206  0.07785995  0.65896728  1
  O  O10  1  0.06101105  0.87412093  0.39064117  1
  O  O11  1  0.60301142  0.78743641  0.50131993  1
  O  O12  1  0.70844477  0.58212621  0.72089904  1
  O  O13  1  0.61681563  0.76346315  0.28762653  1
  O  O14  1  0.30109901  0.39096745  0.87219749  1
  O  O15  1  0.21539592  0.56084488  0.58560179  1
  O  O16  1  0.14377270  0.72071277  0.17509126  1
  O  O17  1  0.85533552  0.28130248  0.82311160  1
  O  O18  1  0.77416897  0.44018938  0.41358493  1
  O  O19  1  0.69881923  0.61050888  0.12706527  1
  O  O20  1  0.37474737  0.23841571  0.71094896  1
  O  O21  1  0.29202712  0.41917115  0.27806519  1
  O  O22  1  0.38502161  0.21445707  0.49751577  1
  O  O23  1  0.92822261  0.12588660  0.60803911  1
  F  F24  1  0.12426313  0.77061255  0.97701199  1
  F  F25  1  0.87872638  0.23014294  0.02093799  1
