# generated using pymatgen
data_Li3Ti3(PO4)4
_symmetry_space_group_name_H-M   'P 1'
_cell_length_a   7.72580060
_cell_length_b   8.08045146
_cell_length_c   10.25670300
_cell_angle_alpha   90.00000000
_cell_angle_beta   94.83073251
_cell_angle_gamma   90.00000000
_symmetry_Int_Tables_number   1
_chemical_formula_structural   Li3Ti3(PO4)4
_chemical_formula_sum   'Li6 Ti6 P8 O32'
_cell_volume   638.03054099
_cell_formula_units_Z   2
loop_
 _symmetry_equiv_pos_site_id
 _symmetry_equiv_pos_as_xyz
  1  'x, y, z'
loop_
 _atom_site_type_symbol
 _atom_site_label
 _atom_site_symmetry_multiplicity
 _atom_site_fract_x
 _atom_site_fract_y
 _atom_site_fract_z
 _atom_site_occupancy
  Li  Li0  1  0.09243449  0.36950556  0.29358438  1
  Li  Li1  1  0.40756551  0.86950556  0.95641562  1
  Li  Li2  1  0.61141190  0.14215422  0.54635076  1
  Li  Li3  1  0.60012458  0.13157702  0.04716448  1
  Li  Li4  1  0.88858810  0.64215422  0.70364924  1
  Li  Li5  1  0.89987542  0.63157702  0.20283552  1
  Ti  Ti6  1  0.99143272  0.99523533  0.75462816  1
  Ti  Ti7  1  0.98782010  0.00309915  0.24803506  1
  Ti  Ti8  1  0.10091137  0.35091813  0.80000566  1
  Ti  Ti9  1  0.39908863  0.85091813  0.44999434  1
  Ti  Ti10  1  0.50856728  0.49523533  0.49537184  1
  Ti  Ti11  1  0.51217990  0.50309915  0.00196494  1
  P  P12  1  0.20341451  0.19752002  0.51366496  1
  P  P13  1  0.20358181  0.18748315  0.02707931  1
  P  P14  1  0.29658549  0.69752002  0.73633504  1
  P  P15  1  0.29641819  0.68748315  0.22292069  1
  P  P16  1  0.69778448  0.30357673  0.77012446  1
  P  P17  1  0.70286587  0.30968277  0.26781640  1
  P  P18  1  0.79713413  0.80968277  0.98218360  1
  P  P19  1  0.80221552  0.80357673  0.47987554  1
  O  O20  1  0.05862337  0.14243379  0.91294273  1
  O  O21  1  0.05891772  0.13890221  0.41154961  1
  O  O22  1  0.12583308  0.19667693  0.65226020  1
  O  O23  1  0.14327891  0.57436924  0.72561379  1
  O  O24  1  0.11643147  0.19272810  0.15609479  1
  O  O25  1  0.14377725  0.57346243  0.22024819  1
  O  O26  1  0.23618615  0.87180042  0.77258674  1
  O  O27  1  0.25287826  0.36676417  0.97320500  1
  O  O28  1  0.24712174  0.86676417  0.27679500  1
  O  O29  1  0.26381385  0.37180042  0.47741326  1
  O  O30  1  0.35672109  0.07436924  0.52438621  1
  O  O31  1  0.37416692  0.69667693  0.59773980  1
  O  O32  1  0.35622275  0.07346243  0.02975181  1
  O  O33  1  0.44108228  0.63890221  0.83845039  1
  O  O34  1  0.38356853  0.69272710  0.09390521  1
  O  O35  1  0.44137663  0.64243379  0.33705727  1
  O  O36  1  0.56261631  0.36146256  0.66035537  1
  O  O37  1  0.61893680  0.30916340  0.90297215  1
  O  O38  1  0.55968130  0.36361314  0.15742533  1
  O  O39  1  0.64604436  0.92744209  0.97215874  1
  O  O40  1  0.61472976  0.30727322  0.40046715  1
  O  O41  1  0.64124543  0.92295236  0.47371099  1
  O  O42  1  0.74003389  0.62920477  0.52061073  1
  O  O43  1  0.75996611  0.12920477  0.72938927  1
  O  O44  1  0.74278996  0.63099909  0.02099156  1
  O  O45  1  0.75721004  0.13099909  0.22900844  1
  O  O46  1  0.85875457  0.42295236  0.77628901  1
  O  O47  1  0.88527024  0.80727322  0.84953285  1
  O  O48  1  0.85395564  0.42744209  0.27784126  1
  O  O49  1  0.88106320  0.80916340  0.34702785  1
  O  O50  1  0.93738369  0.86146256  0.58964463  1
  O  O51  1  0.94031870  0.86361314  0.09257467  1
