# generated using pymatgen
data_LiCuPO4
_symmetry_space_group_name_H-M   'P 1'
_cell_length_a   9.23422925
_cell_length_b   5.77373430
_cell_length_c   6.11628931
_cell_angle_alpha   101.89908634
_cell_angle_beta   103.60349633
_cell_angle_gamma   79.36722695
_symmetry_Int_Tables_number   1
_chemical_formula_structural   LiCuPO4
_chemical_formula_sum   'Li4 Cu4 P4 O16'
_cell_volume   306.94929383
_cell_formula_units_Z   4
loop_
 _symmetry_equiv_pos_site_id
 _symmetry_equiv_pos_as_xyz
  1  'x, y, z'
loop_
 _atom_site_type_symbol
 _atom_site_label
 _atom_site_symmetry_multiplicity
 _atom_site_fract_x
 _atom_site_fract_y
 _atom_site_fract_z
 _atom_site_occupancy
  Li  Li0  1  0.10879190  0.33393208  0.36528644  1
  Li  Li1  1  0.24323366  0.82684214  0.47259982  1
  Li  Li2  1  0.75676634  0.17315786  0.52740018  1
  Li  Li3  1  0.89120810  0.66606792  0.63471356  1
  Cu  Cu4  1  0.22175760  0.69384532  0.94326897  1
  Cu  Cu5  1  0.41094028  0.22199611  0.15595390  1
  Cu  Cu6  1  0.58905972  0.77800389  0.84404610  1
  Cu  Cu7  1  0.77824240  0.30615468  0.05673103  1
  P  P8  1  0.08627666  0.18482881  0.83478536  1
  P  P9  1  0.45989573  0.32289756  0.70478961  1
  P  P10  1  0.54010427  0.67710244  0.29521039  1
  P  P11  1  0.91372334  0.81517119  0.16521464  1
  O  O12  1  0.10725888  0.36437893  0.69195429  1
  O  O13  1  0.12596800  0.91984831  0.71420834  1
  O  O14  1  0.08243382  0.77267256  0.15111196  1
  O  O15  1  0.18488354  0.21968751  0.08064503  1
  O  O16  1  0.42856377  0.15012211  0.84610406  1
  O  O17  1  0.38845953  0.59162387  0.77304985  1
  O  O18  1  0.38813829  0.22554245  0.45704678  1
  O  O19  1  0.36926331  0.67091117  0.25740466  1
  O  O20  1  0.63073669  0.32908883  0.74259534  1
  O  O21  1  0.61186171  0.77445755  0.54295322  1
  O  O22  1  0.61154047  0.40837613  0.22695015  1
  O  O23  1  0.57143623  0.84987789  0.15389594  1
  O  O24  1  0.81511646  0.78031249  0.91935497  1
  O  O25  1  0.91756618  0.22732744  0.84888804  1
  O  O26  1  0.87403200  0.08015169  0.28579166  1
  O  O27  1  0.89274112  0.63562107  0.30804571  1
