# generated using pymatgen
data_Li3V(PO4)2
_symmetry_space_group_name_H-M   'P 1'
_cell_length_a   8.62654717
_cell_length_b   5.36663127
_cell_length_c   7.00150567
_cell_angle_alpha   90.00000000
_cell_angle_beta   97.07510805
_cell_angle_gamma   90.00000000
_symmetry_Int_Tables_number   1
_chemical_formula_structural   Li3V(PO4)2
_chemical_formula_sum   'Li6 V2 P4 O16'
_cell_volume   321.67005384
_cell_formula_units_Z   2
loop_
 _symmetry_equiv_pos_site_id
 _symmetry_equiv_pos_as_xyz
  1  'x, y, z'
loop_
 _atom_site_type_symbol
 _atom_site_label
 _atom_site_symmetry_multiplicity
 _atom_site_fract_x
 _atom_site_fract_y
 _atom_site_fract_z
 _atom_site_occupancy
  Li  Li0  1  0.97233106  0.75000000  0.34838334  1
  Li  Li1  1  0.31787331  0.25000000  0.40991824  1
  Li  Li2  1  0.34147742  0.75000000  0.71373707  1
  Li  Li3  1  0.65852258  0.25000000  0.28626293  1
  Li  Li4  1  0.68212669  0.75000000  0.59008176  1
  Li  Li5  1  0.02766894  0.25000000  0.65161666  1
  V  V6  1  0.25039377  0.25000000  0.97472713  1
  V  V7  1  0.74960623  0.75000000  0.02527287  1
  P  P8  1  0.04751303  0.75000000  0.78351335  1
  P  P9  1  0.41043626  0.75000000  0.25638840  1
  P  P10  1  0.58956374  0.25000000  0.74361160  1
  P  P11  1  0.95248697  0.25000000  0.21648665  1
  O  O12  1  0.96990288  0.75000000  0.96778687  1
  O  O13  1  0.07371114  0.25000000  0.39572531  1
  O  O14  1  0.16097005  0.52196759  0.77422808  1
  O  O15  1  0.16097005  0.97803241  0.77422808  1
  O  O16  1  0.32493795  0.50687340  0.18022872  1
  O  O17  1  0.32493795  0.99312660  0.18022872  1
  O  O18  1  0.42400569  0.75000000  0.47702930  1
  O  O19  1  0.42566929  0.25000000  0.81188925  1
  O  O20  1  0.57433071  0.75000000  0.18811075  1
  O  O21  1  0.57599431  0.25000000  0.52297070  1
  O  O22  1  0.67506205  0.00687340  0.81977128  1
  O  O23  1  0.67506205  0.49312660  0.81977128  1
  O  O24  1  0.83902995  0.02196759  0.22577192  1
  O  O25  1  0.83902995  0.47803241  0.22577192  1
  O  O26  1  0.92628886  0.75000000  0.60427469  1
  O  O27  1  0.03009712  0.25000000  0.03221313  1
