# generated using pymatgen
data_LiCuPO4
_symmetry_space_group_name_H-M   'P 1'
_cell_length_a   7.49402601
_cell_length_b   4.85905772
_cell_length_c   17.87545240
_cell_angle_alpha   90.00000000
_cell_angle_beta   87.75806848
_cell_angle_gamma   90.00000000
_symmetry_Int_Tables_number   1
_chemical_formula_structural   LiCuPO4
_chemical_formula_sum   'Li8 Cu8 P8 O32'
_cell_volume   650.41678450
_cell_formula_units_Z   8
loop_
 _symmetry_equiv_pos_site_id
 _symmetry_equiv_pos_as_xyz
  1  'x, y, z'
loop_
 _atom_site_type_symbol
 _atom_site_label
 _atom_site_symmetry_multiplicity
 _atom_site_fract_x
 _atom_site_fract_y
 _atom_site_fract_z
 _atom_site_occupancy
  Li  Li0  1  0.00162972  0.77021381  0.58793677  1
  Li  Li1  1  0.00162972  0.72978619  0.08793677  1
  Li  Li2  1  0.49825000  0.34410825  0.82256760  1
  Li  Li3  1  0.49825000  0.15589175  0.32256760  1
  Li  Li4  1  0.50175000  0.84410825  0.67743240  1
  Li  Li5  1  0.50175000  0.65589175  0.17743240  1
  Li  Li6  1  0.99837028  0.27021381  0.91206323  1
  Li  Li7  1  0.99837028  0.22978619  0.41206323  1
  Cu  Cu8  1  0.17613681  0.77511834  0.77427595  1
  Cu  Cu9  1  0.17613681  0.72488166  0.27427595  1
  Cu  Cu10  1  0.36621048  0.25134756  0.51343123  1
  Cu  Cu11  1  0.36621048  0.24865244  0.01343123  1
  Cu  Cu12  1  0.63378952  0.75134756  0.98656877  1
  Cu  Cu13  1  0.63378952  0.74865244  0.48656877  1
  Cu  Cu14  1  0.82386319  0.27511834  0.72572405  1
  Cu  Cu15  1  0.82386319  0.22488166  0.22572405  1
  P  P16  1  0.23589566  0.33409388  0.68108537  1
  P  P17  1  0.23589566  0.16590612  0.18108537  1
  P  P18  1  0.25199482  0.71579379  0.93696542  1
  P  P19  1  0.25199482  0.78420621  0.43696542  1
  P  P20  1  0.74800518  0.21579379  0.56303458  1
  P  P21  1  0.74800518  0.28420621  0.06303458  1
  P  P22  1  0.76410434  0.83409388  0.81891463  1
  P  P23  1  0.76410434  0.66590612  0.31891463  1
  O  O24  1  0.05340182  0.45379559  0.71216235  1
  O  O25  1  0.05340182  0.04620441  0.21216235  1
  O  O26  1  0.17205185  0.60978250  0.01053731  1
  O  O27  1  0.14968721  0.59467443  0.87052596  1
  O  O28  1  0.24355673  0.42047710  0.59796343  1
  O  O29  1  0.25714729  0.02074459  0.69161712  1
  O  O30  1  0.17205185  0.89021750  0.51053731  1
  O  O31  1  0.14968721  0.90532557  0.37052596  1
  O  O32  1  0.24355673  0.07952290  0.09796343  1
  O  O33  1  0.25714729  0.47925541  0.19161712  1
  O  O34  1  0.25776809  0.03632818  0.93146384  1
  O  O35  1  0.25776809  0.46367182  0.43146384  1
  O  O36  1  0.37699908  0.49334433  0.72756327  1
  O  O37  1  0.37699908  0.00665567  0.22756327  1
  O  O38  1  0.44765046  0.58504531  0.92708644  1
  O  O39  1  0.44765046  0.91495469  0.42708644  1
  O  O40  1  0.55234954  0.08504531  0.57291356  1
  O  O41  1  0.55234954  0.41495469  0.07291356  1
  O  O42  1  0.62300092  0.99334433  0.77243673  1
  O  O43  1  0.62300092  0.50665567  0.27243673  1
  O  O44  1  0.74223191  0.53632818  0.56853616  1
  O  O45  1  0.74223191  0.96367182  0.06853616  1
  O  O46  1  0.74285271  0.52074459  0.80838288  1
  O  O47  1  0.75644327  0.92047710  0.90203657  1
  O  O48  1  0.85031279  0.09467443  0.62947404  1
  O  O49  1  0.82794815  0.10978250  0.48946269  1
  O  O50  1  0.74285271  0.97925541  0.30838288  1
  O  O51  1  0.75644327  0.57952290  0.40203657  1
  O  O52  1  0.85031279  0.40532557  0.12947404  1
  O  O53  1  0.82794815  0.39021750  0.98946269  1
  O  O54  1  0.94659818  0.95379559  0.78783765  1
  O  O55  1  0.94659818  0.54620441  0.28783765  1
