# generated using pymatgen
data_Li3AgF4
_symmetry_space_group_name_H-M   'P 1'
_cell_length_a   8.85312825
_cell_length_b   8.91054950
_cell_length_c   11.06890466
_cell_angle_alpha   99.48709868
_cell_angle_beta   82.19575049
_cell_angle_gamma   75.67303637
_symmetry_Int_Tables_number   1
_chemical_formula_structural   Li3AgF4
_chemical_formula_sum   'Li24 Ag8 F32'
_cell_volume   820.08833262
_cell_formula_units_Z   8
loop_
 _symmetry_equiv_pos_site_id
 _symmetry_equiv_pos_as_xyz
  1  'x, y, z'
loop_
 _atom_site_type_symbol
 _atom_site_label
 _atom_site_symmetry_multiplicity
 _atom_site_fract_x
 _atom_site_fract_y
 _atom_site_fract_z
 _atom_site_occupancy
  Li  Li0  1  0.00641831  0.10664500  0.64660815  1
  Li  Li1  1  0.00760548  0.36354922  0.79815663  1
  Li  Li2  1  0.12951524  0.13851968  0.26629889  1
  Li  Li3  1  0.01736507  0.87916077  0.31093989  1
  Li  Li4  1  0.13937451  0.49263605  0.30881404  1
  Li  Li5  1  0.13953148  0.60602824  0.75088832  1
  Li  Li6  1  0.16415616  0.98061977  0.80016244  1
  Li  Li7  1  0.37768947  0.50420135  0.14625619  1
  Li  Li8  1  0.50166533  0.10216629  0.07671496  1
  Li  Li9  1  0.39160639  0.35154583  0.75663659  1
  Li  Li10  1  0.37218437  0.88438417  0.25611121  1
  Li  Li11  1  0.51417545  0.34929295  0.30325646  1
  Li  Li12  1  0.41659209  0.97315291  0.56067203  1
  Li  Li13  1  0.50298238  0.61573184  0.64631537  1
  Li  Li14  1  0.64096404  0.10634941  0.75314396  1
  Li  Li15  1  0.60827191  0.62463261  0.27357458  1
  Li  Li16  1  0.51374415  0.86664286  0.80032298  1
  Li  Li17  1  0.65021635  0.48097784  0.80130502  1
  Li  Li18  1  0.87193071  0.01456054  0.15275971  1
  Li  Li19  1  0.62293037  0.99344839  0.30254414  1
  Li  Li20  1  0.87157523  0.38464717  0.26492530  1
  Li  Li21  1  0.90499818  0.47516213  0.56780825  1
  Li  Li22  1  0.98548921  0.63617080  0.15574961  1
  Li  Li23  1  0.89069798  0.85497546  0.75632491  1
  Ag  Ag24  1  0.16272096  0.25345427  0.00175846  1
  Ag  Ag25  1  0.25736888  0.30813458  0.51495785  1
  Ag  Ag26  1  0.20027822  0.72914119  0.50485130  1
  Ag  Ag27  1  0.26597060  0.80599815  0.99903891  1
  Ag  Ag28  1  0.68863309  0.23172956  0.50712397  1
  Ag  Ag29  1  0.76983652  0.31133651  0.00506724  1
  Ag  Ag30  1  0.68367089  0.73708378  0.00868958  1
  Ag  Ag31  1  0.76941680  0.80888472  0.49983950  1
  F  F32  1  0.02252589  0.30522055  0.62449207  1
  F  F33  1  0.03693001  0.35419838  0.36603181  1
  F  F34  1  0.03189900  0.82448150  0.13367931  1
  F  F35  1  0.17553979  0.47614244  0.13427869  1
  F  F36  1  0.32862860  0.04524507  0.15461622  1
  F  F37  1  0.07765454  0.81788480  0.83033330  1
  F  F38  1  0.17913033  0.43043044  0.83388793  1
  F  F39  1  0.17041602  0.96655142  0.35400150  1
  F  F40  1  0.32616646  0.01503273  0.88222208  1
  F  F41  1  0.33157179  0.52310206  0.33501181  1
  F  F42  1  0.20925448  0.96291674  0.62366383  1
  F  F43  1  0.33908406  0.52033597  0.64030795  1
  F  F44  1  0.47989986  0.18583501  0.37432684  1
  F  F45  1  0.47932391  0.14865857  0.64347863  1
  F  F46  1  0.52993659  0.30619721  0.12525343  1
  F  F47  1  0.46013172  0.67891610  0.15063033  1
  F  F48  1  0.48812089  0.67306607  0.83362500  1
  F  F49  1  0.57160887  0.31723322  0.83813786  1
  F  F50  1  0.53345862  0.84547959  0.36356129  1
  F  F51  1  0.53886716  0.80874928  0.62395176  1
  F  F52  1  0.66579863  0.44297150  0.35159092  1
  F  F53  1  0.81639732  0.02002633  0.33810229  1
  F  F54  1  0.69919455  0.46521491  0.62632139  1
  F  F55  1  0.67599407  0.97529309  0.12881631  1
  F  F56  1  0.84223496  0.01152697  0.64354338  1
  F  F57  1  0.81554821  0.54949180  0.16713086  1
  F  F58  1  0.67841642  0.94058083  0.84798678  1
  F  F59  1  0.96201616  0.18432638  0.15590180  1
  F  F60  1  0.81752726  0.50491348  0.87766055  1
  F  F61  1  0.99403042  0.16796642  0.83476590  1
  F  F62  1  0.99098367  0.69022815  0.34743944  1
  F  F63  1  0.97656890  0.65002695  0.63748129  1
