# generated using pymatgen
data_H8C2BrN
_symmetry_space_group_name_H-M   'P 1'
_cell_length_a   5.56159518
_cell_length_b   7.60338563
_cell_length_c   13.63188323
_cell_angle_alpha   87.19086516
_cell_angle_beta   90.00000000
_cell_angle_gamma   68.54739295
_symmetry_Int_Tables_number   1
_chemical_formula_structural   H8C2BrN
_chemical_formula_sum   'H32 C8 Br4 N4'
_cell_volume   535.77019461
_cell_formula_units_Z   4
loop_
 _symmetry_equiv_pos_site_id
 _symmetry_equiv_pos_as_xyz
  1  'x, y, z'
loop_
 _atom_site_type_symbol
 _atom_site_label
 _atom_site_symmetry_multiplicity
 _atom_site_fract_x
 _atom_site_fract_y
 _atom_site_fract_z
 _atom_site_occupancy
  H  H0  1  0.08783625  0.99678129  0.64053821  1
  H  H1  1  0.91538246  0.99678129  0.14053821  1
  H  H2  1  0.76289089  0.86793616  0.57062854  1
  H  H3  1  0.37467740  0.83111882  0.70026588  1
  H  H4  1  0.33811436  0.83997893  0.56890477  1
  H  H5  1  0.36917294  0.86793616  0.07062854  1
  H  H6  1  0.79420378  0.83111882  0.20026588  1
  H  H7  1  0.82190670  0.83997893  0.06890477  1
  H  H8  1  0.02017378  0.72156326  0.71571259  1
  H  H9  1  0.01559117  0.72031030  0.49649940  1
  H  H10  1  0.25826296  0.72156326  0.21571259  1
  H  H11  1  0.26409853  0.72031030  0.99649940  1
  H  H12  1  0.84509345  0.61641406  0.57762468  1
  H  H13  1  0.25527824  0.57468984  0.64806718  1
  H  H14  1  0.53849249  0.61641406  0.07762468  1
  H  H15  1  0.17003192  0.57468984  0.14806718  1
  H  H16  1  0.82996808  0.42531016  0.85193282  1
  H  H17  1  0.46150751  0.38358594  0.92237532  1
  H  H18  1  0.74472176  0.42531016  0.35193282  1
  H  H19  1  0.15490655  0.38358594  0.42237532  1
  H  H20  1  0.73590147  0.27968970  0.00350060  1
  H  H21  1  0.74173704  0.27843674  0.78428741  1
  H  H22  1  0.98440883  0.27968970  0.50350060  1
  H  H23  1  0.97982622  0.27843674  0.28428741  1
  H  H24  1  0.17809330  0.16002107  0.93109523  1
  H  H25  1  0.20579622  0.16888118  0.79973412  1
  H  H26  1  0.63082706  0.13206384  0.92937146  1
  H  H27  1  0.66188564  0.16002107  0.43109523  1
  H  H28  1  0.62532260  0.16888118  0.29973412  1
  H  H29  1  0.23710911  0.13206384  0.42937146  1
  H  H30  1  0.08461754  0.00321871  0.85946179  1
  H  H31  1  0.91216375  0.00321871  0.35946179  1
  C  C32  1  0.23687454  0.85514823  0.63867132  1
  C  C33  1  0.90797723  0.85514823  0.13867132  1
  C  C34  1  0.92064578  0.73062609  0.56743706  1
  C  C35  1  0.34872813  0.73062609  0.06743706  1
  C  C36  1  0.65127187  0.26937391  0.93256294  1
  C  C37  1  0.07935422  0.26937391  0.43256294  1
  C  C38  1  0.09202277  0.14485177  0.86132868  1
  C  C39  1  0.76312546  0.14485177  0.36132868  1
  Br  Br40  1  0.80635004  0.72972599  0.85978556  1
  Br  Br41  1  0.46392396  0.72972599  0.35978556  1
  Br  Br42  1  0.53607604  0.27027401  0.64021444  1
  Br  Br43  1  0.19364996  0.27027401  0.14021444  1
  N  N44  1  0.11242854  0.71166146  0.64758260  1
  N  N45  1  0.17590999  0.71166146  0.14758260  1
  N  N46  1  0.82409001  0.28833854  0.85241740  1
  N  N47  1  0.88757146  0.28833854  0.35241740  1
