# generated using pymatgen
data_Li3Sb(PO4)2
_symmetry_space_group_name_H-M   'P 1'
_cell_length_a   8.26642737
_cell_length_b   5.71530828
_cell_length_c   6.32637999
_cell_angle_alpha   90.04029565
_cell_angle_beta   38.76196231
_cell_angle_gamma   69.74314360
_symmetry_Int_Tables_number   1
_chemical_formula_structural   Li3Sb(PO4)2
_chemical_formula_sum   'Li3 Sb1 P2 O8'
_cell_volume   155.80479826
_cell_formula_units_Z   1
loop_
 _symmetry_equiv_pos_site_id
 _symmetry_equiv_pos_as_xyz
  1  'x, y, z'
loop_
 _atom_site_type_symbol
 _atom_site_label
 _atom_site_symmetry_multiplicity
 _atom_site_fract_x
 _atom_site_fract_y
 _atom_site_fract_z
 _atom_site_occupancy
  Li  Li0  1  0.17788479  0.65733047  0.11718658  1
  Li  Li1  1  0.50043853  0.00064904  0.99583795  1
  Li  Li2  1  0.82850670  0.33136795  0.88267656  1
  Sb  Sb3  1  0.50221540  0.99619578  0.49777782  1
  P  P4  1  0.20714382  0.64542883  0.55322141  1
  P  P5  1  0.79497511  0.35332096  0.44661926  1
  O  O6  1  0.02799502  0.23902647  0.39075612  1
  O  O7  1  0.96083065  0.27150180  0.05830593  1
  O  O8  1  0.43425549  0.31498317  0.30817903  1
  O  O9  1  0.43050663  0.75284436  0.31388631  1
  O  O10  1  0.57261802  0.24608958  0.68767860  1
  O  O11  1  0.56847278  0.68443998  0.69146144  1
  O  O12  1  0.03814357  0.72946003  0.94402655  1
  O  O13  1  0.97698949  0.76128857  0.60535746  1
