# generated using pymatgen
data_Li2CrSi7O16
_symmetry_space_group_name_H-M   'P 1'
_cell_length_a   7.63669229
_cell_length_b   7.69424721
_cell_length_c   7.31266538
_cell_angle_alpha   76.05190623
_cell_angle_beta   104.19884271
_cell_angle_gamma   62.86323252
_symmetry_Int_Tables_number   1
_chemical_formula_structural   Li2CrSi7O16
_chemical_formula_sum   'Li2 Cr1 Si7 O16'
_cell_volume   338.26501306
_cell_formula_units_Z   1
loop_
 _symmetry_equiv_pos_site_id
 _symmetry_equiv_pos_as_xyz
  1  'x, y, z'
loop_
 _atom_site_type_symbol
 _atom_site_label
 _atom_site_symmetry_multiplicity
 _atom_site_fract_x
 _atom_site_fract_y
 _atom_site_fract_z
 _atom_site_occupancy
  Li  Li0  1  0.41815359  0.73692359  0.67056411  1
  Li  Li1  1  0.75552821  0.33769116  0.35916552  1
  Cr  Cr2  1  0.83837772  0.38839948  0.85954459  1
  Si  Si3  1  0.41753022  0.79990360  0.15614969  1
  Si  Si4  1  0.19167946  0.56858325  0.16074810  1
  Si  Si5  1  0.81579705  0.83244238  0.71412346  1
  Si  Si6  1  0.17870934  0.14838800  0.71334611  1
  Si  Si7  1  0.16583844  0.17699156  0.28991561  1
  Si  Si8  1  0.81263596  0.83637362  0.27762571  1
  Si  Si9  1  0.55083872  0.21333383  0.83017780  1
  O  O10  1  0.05771182  0.69317053  0.91050691  1
  O  O11  1  0.29561619  0.91451512  0.90633025  1
  O  O12  1  0.28668394  0.95984772  0.24988199  1
  O  O13  1  0.04822656  0.67769466  0.28183048  1
  O  O14  1  0.30701755  0.25952624  0.77179863  1
  O  O15  1  0.69507632  0.71004682  0.73471249  1
  O  O16  1  0.41156755  0.58093482  0.22475896  1
  O  O17  1  0.22933082  0.06285537  0.53635239  1
  O  O18  1  0.85092466  0.86791112  0.49466753  1
  O  O19  1  0.53052680  0.43632314  0.76586712  1
  O  O20  1  0.66914332  0.72803342  0.24386325  1
  O  O21  1  0.27649042  0.31474975  0.24431505  1
  O  O22  1  0.92265854  0.30109765  0.63733961  1
  O  O23  1  0.67724597  0.06961592  0.71464310  1
  O  O24  1  0.68842048  0.06659550  0.08423139  1
  O  O25  1  0.90827136  0.31805074  0.16754115  1
