# generated using pymatgen
data_Li2CuSiO4
_symmetry_space_group_name_H-M   'P 1'
_cell_length_a   6.34956164
_cell_length_b   5.03337776
_cell_length_c   10.72181659
_cell_angle_alpha   90.00000000
_cell_angle_beta   92.67181313
_cell_angle_gamma   90.00000000
_symmetry_Int_Tables_number   1
_chemical_formula_structural   Li2CuSiO4
_chemical_formula_sum   'Li8 Cu4 Si4 O16'
_cell_volume   342.29399282
_cell_formula_units_Z   4
loop_
 _symmetry_equiv_pos_site_id
 _symmetry_equiv_pos_as_xyz
  1  'x, y, z'
loop_
 _atom_site_type_symbol
 _atom_site_label
 _atom_site_symmetry_multiplicity
 _atom_site_fract_x
 _atom_site_fract_y
 _atom_site_fract_z
 _atom_site_occupancy
  Li  Li0  1  0.99370770  0.68008888  0.58725059  1
  Li  Li1  1  0.99370770  0.81991112  0.08725059  1
  Li  Li2  1  0.23922711  0.68202523  0.83317965  1
  Li  Li3  1  0.23922711  0.81797477  0.33317965  1
  Li  Li4  1  0.76077289  0.18202523  0.66682035  1
  Li  Li5  1  0.76077289  0.31797477  0.16682035  1
  Li  Li6  1  0.00629230  0.18008888  0.91274941  1
  Li  Li7  1  0.00629230  0.31991112  0.41274941  1
  Cu  Cu8  1  0.48951553  0.72183037  0.58478329  1
  Cu  Cu9  1  0.48951553  0.77816963  0.08478329  1
  Cu  Cu10  1  0.51048447  0.22183037  0.91521671  1
  Cu  Cu11  1  0.51048447  0.27816963  0.41521671  1
  Si  Si12  1  0.24013658  0.18175537  0.66562236  1
  Si  Si13  1  0.24013658  0.31824463  0.16562236  1
  Si  Si14  1  0.75986342  0.68175537  0.83437764  1
  Si  Si15  1  0.75986342  0.81824463  0.33437764  1
  O  O16  1  0.02394379  0.28511646  0.59512755  1
  O  O17  1  0.02394379  0.21488354  0.09512755  1
  O  O18  1  0.25285951  0.29150552  0.81155469  1
  O  O19  1  0.25095320  0.85118778  0.66774810  1
  O  O20  1  0.25285951  0.20849448  0.31155469  1
  O  O21  1  0.25095320  0.64881222  0.16774810  1
  O  O22  1  0.45013097  0.28991887  0.59138462  1
  O  O23  1  0.45013097  0.21008113  0.09138462  1
  O  O24  1  0.54986903  0.78991887  0.90861538  1
  O  O25  1  0.54986903  0.71008113  0.40861538  1
  O  O26  1  0.74904680  0.35118778  0.83225190  1
  O  O27  1  0.74714049  0.79150552  0.68844531  1
  O  O28  1  0.74904680  0.14881222  0.33225190  1
  O  O29  1  0.74714049  0.70849448  0.18844531  1
  O  O30  1  0.97605621  0.78511646  0.90487245  1
  O  O31  1  0.97605621  0.71488354  0.40487245  1
