# generated using pymatgen
data_Li3Ti(PO4)2
_symmetry_space_group_name_H-M   'P 1'
_cell_length_a   4.77125479
_cell_length_b   5.25544422
_cell_length_c   13.17380278
_cell_angle_alpha   82.57437767
_cell_angle_beta   90.16870776
_cell_angle_gamma   63.12877466
_symmetry_Int_Tables_number   1
_chemical_formula_structural   Li3Ti(PO4)2
_chemical_formula_sum   'Li6 Ti2 P4 O16'
_cell_volume   291.49093364
_cell_formula_units_Z   2
loop_
 _symmetry_equiv_pos_site_id
 _symmetry_equiv_pos_as_xyz
  1  'x, y, z'
loop_
 _atom_site_type_symbol
 _atom_site_label
 _atom_site_symmetry_multiplicity
 _atom_site_fract_x
 _atom_site_fract_y
 _atom_site_fract_z
 _atom_site_occupancy
  Li  Li0  1  0.64302811  0.65609070  0.64834177  1
  Li  Li1  1  0.70057322  0.65354228  0.15171661  1
  Li  Li2  1  0.29810247  0.34483219  0.85047665  1
  Li  Li3  1  0.35402787  0.34095464  0.35179026  1
  Li  Li4  1  0.94822654  0.99905960  0.75066197  1
  Li  Li5  1  0.04944958  -0.00017858  0.25010118  1
  Ti  Ti6  1  0.99890567  0.99863664  0.50013734  1
  Ti  Ti7  1  0.00138344  0.99723749  0.00040791  1
  P  P8  1  0.63873958  0.67907782  0.88493144  1
  P  P9  1  0.67798445  0.68069018  0.38565304  1
  P  P10  1  0.31954706  0.31690240  0.61466545  1
  P  P11  1  0.36333970  0.31617276  0.11507880  1
  O  O12  1  0.27714166  0.89436287  0.86819968  1
  O  O13  1  0.82307344  0.89765704  0.36770140  1
  O  O14  1  0.77460604  0.77098251  0.97293031  1
  O  O15  1  0.45216218  0.77327606  0.47310641  1
  O  O16  1  0.81777728  0.68217097  0.78833205  1
  O  O17  1  0.04314766  0.62589799  0.58455400  1
  O  O18  1  0.49571242  0.68042271  0.28923009  1
  O  O19  1  0.33118556  0.62494059  0.08546681  1
  O  O20  1  0.67302476  0.36990998  0.91435373  1
  O  O21  1  0.50151374  0.31704048  0.71088332  1
  O  O22  1  0.95487756  0.37216149  0.41553327  1
  O  O23  1  0.18052990  0.31635582  0.21158554  1
  O  O24  1  0.54603838  0.22489840  0.52682552  1
  O  O25  1  0.22797182  0.22444382  0.02758729  1
  O  O26  1  0.17482368  0.09966480  0.63243621  1
  O  O27  1  0.72435324  0.09846337  0.13299795  1
