# generated using pymatgen
data_Li2Bi3P9O28
_symmetry_space_group_name_H-M   'P 1'
_cell_length_a   7.12975571
_cell_length_b   9.84268548
_cell_length_c   9.89436441
_cell_angle_alpha   66.09266514
_cell_angle_beta   97.30670173
_cell_angle_gamma   72.60091440
_symmetry_Int_Tables_number   1
_chemical_formula_structural   Li2Bi3P9O28
_chemical_formula_sum   'Li2 Bi3 P9 O28'
_cell_volume   580.66208503
_cell_formula_units_Z   1
loop_
 _symmetry_equiv_pos_site_id
 _symmetry_equiv_pos_as_xyz
  1  'x, y, z'
loop_
 _atom_site_type_symbol
 _atom_site_label
 _atom_site_symmetry_multiplicity
 _atom_site_fract_x
 _atom_site_fract_y
 _atom_site_fract_z
 _atom_site_occupancy
  Li  Li0  1  0.07730643  0.47315749  0.05013717  1
  Li  Li1  1  0.42269357  0.02684251  0.94986283  1
  Bi  Bi2  1  0.75000000  0.75000000  0.50000000  1
  Bi  Bi3  1  0.50165704  0.51495987  0.96236657  1
  Bi  Bi4  1  0.99834296  0.98504013  0.03763343  1
  P  P5  1  0.56093224  0.28498074  0.73668741  1
  P  P6  1  0.02464764  0.82128012  0.77051510  1
  P  P7  1  0.96310316  0.31496197  0.70655420  1
  P  P8  1  0.37421882  0.88675974  0.66744579  1
  P  P9  1  0.25000000  0.25000000  0.50000000  1
  P  P10  1  0.53689684  0.18503803  0.29344580  1
  P  P11  1  0.12578118  0.61324026  0.33255321  1
  P  P12  1  0.93906776  0.21501926  0.26331259  1
  P  P13  1  0.47535236  0.67871988  0.22948490  1
  O  O14  1  0.62136174  0.12480097  0.88393900  1
  O  O15  1  0.14939097  0.64158462  0.89292421  1
  O  O16  1  0.50603806  0.76964380  0.83377616  1
  O  O17  1  0.11029466  0.17791159  0.86340401  1
  O  O18  1  0.99692879  0.93463433  0.84034923  1
  O  O19  1  0.48704494  0.43236572  0.75960337  1
  O  O20  1  0.89616627  0.47778702  0.70336940  1
  O  O21  1  0.33925378  0.06004854  0.65257593  1
  O  O22  1  0.82808593  0.84414698  0.67083461  1
  O  O23  1  0.39969797  0.30173882  0.60255477  1
  O  O24  1  0.75947940  0.27833741  0.67127726  1
  O  O25  1  0.15554369  0.87176271  0.65031388  1
  O  O26  1  0.44044665  0.86004034  0.53930610  1
  O  O27  1  0.04895969  0.31205975  0.57006343  1
  O  O28  1  0.05955335  0.63995966  0.46069390  1
  O  O29  1  0.45104031  0.18794025  0.42993657  1
  O  O30  1  0.74052060  0.22166259  0.32872274  1
  O  O31  1  0.34445631  0.62823729  0.34968612  1
  O  O32  1  0.67191407  0.65585302  0.32916539  1
  O  O33  1  0.10030203  0.19826118  0.39744523  1
  O  O34  1  0.60383373  0.02221298  0.29663060  1
  O  O35  1  0.16074622  0.43995146  0.34742407  1
  O  O36  1  0.50307121  0.56536567  0.15965077  1
  O  O37  1  0.01295506  0.06763428  0.24039663  1
  O  O38  1  0.99396194  0.73035620  0.16622384  1
  O  O39  1  0.38970534  0.32208841  0.13659599  1
  O  O40  1  0.87863826  0.37519903  0.11606100  1
  O  O41  1  0.35060903  0.85841538  0.10707579  1
