# generated using pymatgen
data_LiCrPO4
_symmetry_space_group_name_H-M   'P 1'
_cell_length_a   7.78185309
_cell_length_b   14.14579249
_cell_length_c   5.77438294
_cell_angle_alpha   90.00000000
_cell_angle_beta   90.00000000
_cell_angle_gamma   90.00000000
_symmetry_Int_Tables_number   1
_chemical_formula_structural   LiCrPO4
_chemical_formula_sum   'Li8 Cr8 P8 O32'
_cell_volume   635.64683996
_cell_formula_units_Z   8
loop_
 _symmetry_equiv_pos_site_id
 _symmetry_equiv_pos_as_xyz
  1  'x, y, z'
loop_
 _atom_site_type_symbol
 _atom_site_label
 _atom_site_symmetry_multiplicity
 _atom_site_fract_x
 _atom_site_fract_y
 _atom_site_fract_z
 _atom_site_occupancy
  Li  Li0  1  0.17361259  0.52696721  0.42199262  1
  Li  Li1  1  0.17361259  0.97303279  0.92199262  1
  Li  Li2  1  0.32638741  0.02696721  0.42199262  1
  Li  Li3  1  0.32638741  0.47303279  0.92199262  1
  Li  Li4  1  0.67361259  0.52696721  0.07800738  1
  Li  Li5  1  0.67361259  0.97303279  0.57800738  1
  Li  Li6  1  0.82638741  0.02696721  0.07800738  1
  Li  Li7  1  0.82638741  0.47303279  0.57800738  1
  Cr  Cr8  1  0.14047259  0.18848649  0.12918825  1
  Cr  Cr9  1  0.14047259  0.31151351  0.62918825  1
  Cr  Cr10  1  0.35952741  0.81151351  0.62918825  1
  Cr  Cr11  1  0.35952741  0.68848649  0.12918825  1
  Cr  Cr12  1  0.64047259  0.18848649  0.37081175  1
  Cr  Cr13  1  0.64047259  0.31151351  0.87081175  1
  Cr  Cr14  1  0.85952741  0.68848649  0.37081175  1
  Cr  Cr15  1  0.85952741  0.81151351  0.87081175  1
  P  P16  1  0.03196629  0.62723994  0.89198063  1
  P  P17  1  0.03196629  0.87276006  0.39198063  1
  P  P18  1  0.46803371  0.12723994  0.89198063  1
  P  P19  1  0.46803371  0.37276006  0.39198063  1
  P  P20  1  0.53196629  0.62723994  0.60801937  1
  P  P21  1  0.53196629  0.87276006  0.10801937  1
  P  P22  1  0.96803371  0.12723994  0.60801937  1
  P  P23  1  0.96803371  0.37276006  0.10801937  1
  O  O24  1  0.99158884  0.06647510  0.82439101  1
  O  O25  1  0.99158884  0.43352490  0.32439101  1
  O  O26  1  0.07657953  0.76878031  0.32078233  1
  O  O27  1  0.07657953  0.73121969  0.82078233  1
  O  O28  1  0.13824239  0.13386890  0.46364235  1
  O  O29  1  0.13824239  0.36613110  0.96364235  1
  O  O30  1  0.17897089  0.58889974  0.05075051  1
  O  O31  1  0.17897089  0.91110026  0.55075051  1
  O  O32  1  0.32102911  0.08889974  0.05075051  1
  O  O33  1  0.32102911  0.41110026  0.55075051  1
  O  O34  1  0.36175761  0.63386890  0.46364235  1
  O  O35  1  0.36175761  0.86613110  0.96364235  1
  O  O36  1  0.42342047  0.23121969  0.82078233  1
  O  O37  1  0.42342047  0.26878031  0.32078233  1
  O  O38  1  0.50841116  0.56647510  0.82439101  1
  O  O39  1  0.50841116  0.93352490  0.32439101  1
  O  O40  1  0.49158884  0.43352490  0.17560899  1
  O  O41  1  0.49158884  0.06647510  0.67560899  1
  O  O42  1  0.57657953  0.73121969  0.67921767  1
  O  O43  1  0.57657953  0.76878031  0.17921767  1
  O  O44  1  0.63824239  0.13386890  0.03635765  1
  O  O45  1  0.63824239  0.36613110  0.53635765  1
  O  O46  1  0.67897089  0.58889974  0.44924949  1
  O  O47  1  0.67897089  0.91110026  0.94924949  1
  O  O48  1  0.82102911  0.08889974  0.44924949  1
  O  O49  1  0.82102911  0.41110026  0.94924949  1
  O  O50  1  0.86175761  0.63386890  0.03635765  1
  O  O51  1  0.86175761  0.86613110  0.53635765  1
  O  O52  1  0.92342047  0.23121969  0.67921767  1
  O  O53  1  0.92342047  0.26878031  0.17921767  1
  O  O54  1  0.00841116  0.56647510  0.67560899  1
  O  O55  1  0.00841116  0.93352490  0.17560899  1
