# generated using pymatgen
data_LiMn(SiO3)2
_symmetry_space_group_name_H-M   'P 1'
_cell_length_a   18.60781723
_cell_length_b   8.96627540
_cell_length_c   5.15479100
_cell_angle_alpha   90.00000000
_cell_angle_beta   90.00000000
_cell_angle_gamma   90.00000000
_symmetry_Int_Tables_number   1
_chemical_formula_structural   LiMn(SiO3)2
_chemical_formula_sum   'Li8 Mn8 Si16 O48'
_cell_volume   860.03983539
_cell_formula_units_Z   8
loop_
 _symmetry_equiv_pos_site_id
 _symmetry_equiv_pos_as_xyz
  1  'x, y, z'
loop_
 _atom_site_type_symbol
 _atom_site_label
 _atom_site_symmetry_multiplicity
 _atom_site_fract_x
 _atom_site_fract_y
 _atom_site_fract_z
 _atom_site_occupancy
  Li  Li0  1  0.12279988  0.33933502  0.36715856  1
  Li  Li1  1  0.12279988  0.16066498  0.86715856  1
  Li  Li2  1  0.37720012  0.66066498  0.86715856  1
  Li  Li3  1  0.37720012  0.83933502  0.36715856  1
  Li  Li4  1  0.62279988  0.16066498  0.63284144  1
  Li  Li5  1  0.62279988  0.33933502  0.13284144  1
  Li  Li6  1  0.87720012  0.66066498  0.63284144  1
  Li  Li7  1  0.87720012  0.83933502  0.13284144  1
  Mn  Mn8  1  0.12387749  0.99810353  0.36141645  1
  Mn  Mn9  1  0.12387749  0.50189647  0.86141645  1
  Mn  Mn10  1  0.37612251  0.00189647  0.86141645  1
  Mn  Mn11  1  0.37612251  0.49810353  0.36141645  1
  Mn  Mn12  1  0.62387749  0.50189647  0.63858355  1
  Mn  Mn13  1  0.62387749  0.99810353  0.13858355  1
  Mn  Mn14  1  0.87612251  0.00189647  0.63858355  1
  Mn  Mn15  1  0.87612251  0.49810353  0.13858355  1
  Si  Si16  1  0.02727826  0.66179030  0.28970126  1
  Si  Si17  1  0.02727826  0.83820970  0.78970126  1
  Si  Si18  1  0.22814253  0.65692324  0.56288747  1
  Si  Si19  1  0.22814253  0.84307676  0.06288747  1
  Si  Si20  1  0.27185747  0.15692324  0.56288747  1
  Si  Si21  1  0.27185747  0.34307676  0.06288747  1
  Si  Si22  1  0.47272174  0.16179030  0.28970126  1
  Si  Si23  1  0.47272174  0.33820970  0.78970126  1
  Si  Si24  1  0.52727826  0.66179030  0.21029874  1
  Si  Si25  1  0.52727826  0.83820970  0.71029874  1
  Si  Si26  1  0.72814153  0.65692324  0.93711253  1
  Si  Si27  1  0.72814153  0.84307676  0.43711253  1
  Si  Si28  1  0.77185847  0.15692324  0.93711253  1
  Si  Si29  1  0.77185847  0.34307676  0.43711253  1
  Si  Si30  1  0.97272174  0.16179030  0.21029874  1
  Si  Si31  1  0.97272174  0.33820970  0.71029874  1
  O  O32  1  0.05309699  0.80609126  0.09932704  1
  O  O33  1  0.05309699  0.69390874  0.59932704  1
  O  O34  1  0.05964780  0.15034908  0.20105730  1
  O  O35  1  0.05964780  0.34965092  0.70105730  1
  O  O36  1  0.06926621  0.51862814  0.17309292  1
  O  O37  1  0.06926621  0.98137186  0.67309292  1
  O  O38  1  0.18580737  0.14966556  0.54408691  1
  O  O39  1  0.18580737  0.35033444  0.04408691  1
  O  O40  1  0.18629764  0.00297473  0.06599496  1
  O  O41  1  0.18629764  0.49702527  0.56599496  1
  O  O42  1  0.19630302  0.72649699  0.84036868  1
  O  O43  1  0.19630302  0.77350301  0.34036868  1
  O  O44  1  0.30369698  0.22649699  0.84036868  1
  O  O45  1  0.30369698  0.27350301  0.34036868  1
  O  O46  1  0.31370236  0.50297473  0.06599496  1
  O  O47  1  0.31370236  0.99702527  0.56599496  1
  O  O48  1  0.31419263  0.64966556  0.54408691  1
  O  O49  1  0.31419263  0.85033444  0.04408691  1
  O  O50  1  0.43073379  0.01862814  0.17309292  1
  O  O51  1  0.43073379  0.48137186  0.67309292  1
  O  O52  1  0.44035220  0.65034908  0.20105730  1
  O  O53  1  0.44035220  0.84965092  0.70105730  1
  O  O54  1  0.44690301  0.19390874  0.59932704  1
  O  O55  1  0.44690301  0.30609126  0.09932704  1
  O  O56  1  0.55309699  0.69390874  0.90067296  1
  O  O57  1  0.55309699  0.80609126  0.40067296  1
  O  O58  1  0.55964780  0.15034908  0.29894270  1
  O  O59  1  0.55964780  0.34965092  0.79894270  1
  O  O60  1  0.56926621  0.51862814  0.32690708  1
  O  O61  1  0.56926621  0.98137186  0.82690708  1
  O  O62  1  0.68580737  0.14966556  0.95591309  1
  O  O63  1  0.68580737  0.35033444  0.45591309  1
  O  O64  1  0.68629764  0.00297473  0.43400504  1
  O  O65  1  0.68629764  0.49702527  0.93400504  1
  O  O66  1  0.69630302  0.72649699  0.65963132  1
  O  O67  1  0.69630302  0.77350301  0.15963132  1
  O  O68  1  0.80369698  0.22649699  0.65963132  1
  O  O69  1  0.80369698  0.27350301  0.15963132  1
  O  O70  1  0.81370236  0.50297473  0.43400504  1
  O  O71  1  0.81370236  0.99702527  0.93400504  1
  O  O72  1  0.81419263  0.64966556  0.95591309  1
  O  O73  1  0.81419263  0.85033444  0.45591309  1
  O  O74  1  0.93073379  0.01862814  0.32690708  1
  O  O75  1  0.93073379  0.48137186  0.82690708  1
  O  O76  1  0.94035220  0.65034908  0.29894270  1
  O  O77  1  0.94035220  0.84965092  0.79894270  1
  O  O78  1  0.94690301  0.19390874  0.90067296  1
  O  O79  1  0.94690301  0.30609126  0.40067296  1
