# generated using pymatgen
data_Li2MnCo3O8
_symmetry_space_group_name_H-M   'P 1'
_cell_length_a   5.81811902
_cell_length_b   5.81811921
_cell_length_c   5.80633898
_cell_angle_alpha   59.93286143
_cell_angle_beta   120.06713881
_cell_angle_gamma   120.00000353
_symmetry_Int_Tables_number   1
_chemical_formula_structural   Li2MnCo3O8
_chemical_formula_sum   'Li2 Mn1 Co3 O8'
_cell_volume   138.83888745
_cell_formula_units_Z   1
loop_
 _symmetry_equiv_pos_site_id
 _symmetry_equiv_pos_as_xyz
  1  'x, y, z'
loop_
 _atom_site_type_symbol
 _atom_site_label
 _atom_site_symmetry_multiplicity
 _atom_site_fract_x
 _atom_site_fract_y
 _atom_site_fract_z
 _atom_site_occupancy
  Li  Li0  1  0.87467503  0.12532497  0.62402508  1
  Li  Li1  1  0.12532497  0.87467503  0.37597492  1
  Mn  Mn2  1  0.50000000  0.50000000  0.50000000  1
  Co  Co3  1  0.50000000  0.50000000  0.00000000  1
  Co  Co4  1  0.50000000  0.00000000  0.00000000  1
  Co  Co5  1  0.00000000  0.50000000  0.00000000  1
  O  O6  1  0.73430510  0.70973529  0.75887491  1
  O  O7  1  0.73430510  0.26569490  0.75887491  1
  O  O8  1  0.26189545  0.73810455  0.78568635  1
  O  O9  1  0.29026471  0.26569490  0.75887491  1
  O  O10  1  0.70973529  0.73430510  0.24112509  1
  O  O11  1  0.73810455  0.26189545  0.21431365  1
  O  O12  1  0.26569490  0.73430510  0.24112509  1
  O  O13  1  0.26569490  0.29026471  0.24112509  1
