# generated using pymatgen
data_Li4Mn2Fe3Co3O16
_symmetry_space_group_name_H-M   'P 1'
_cell_length_a   5.78383155
_cell_length_b   5.78911051
_cell_length_c   9.37990564
_cell_angle_alpha   89.73461978
_cell_angle_beta   90.71592678
_cell_angle_gamma   119.99930793
_symmetry_Int_Tables_number   1
_chemical_formula_structural   Li4Mn2Fe3Co3O16
_chemical_formula_sum   'Li4 Mn2 Fe3 Co3 O16'
_cell_volume   271.97247027
_cell_formula_units_Z   1
loop_
 _symmetry_equiv_pos_site_id
 _symmetry_equiv_pos_as_xyz
  1  'x, y, z'
loop_
 _atom_site_type_symbol
 _atom_site_label
 _atom_site_symmetry_multiplicity
 _atom_site_fract_x
 _atom_site_fract_y
 _atom_site_fract_z
 _atom_site_occupancy
  Li  Li0  1  0.33295888  0.67163066  0.90129857  1
  Li  Li1  1  0.00849517  0.00196228  0.99541252  1
  Li  Li2  1  0.00927783  0.00314882  0.49444914  1
  Li  Li3  1  0.66235852  0.32937672  0.39788683  1
  Mn  Mn4  1  0.32982204  0.65839692  0.48365423  1
  Mn  Mn5  1  0.66573463  0.33825713  0.98580915  1
  Fe  Fe6  1  0.66367262  0.83489989  0.21089420  1
  Fe  Fe7  1  0.83468630  0.66068525  0.71308576  1
  Fe  Fe8  1  0.83102429  0.16763533  0.71353976  1
  Co  Co9  1  0.17119564  0.83052895  0.21354744  1
  Co  Co10  1  0.17408276  0.34246832  0.21432587  1
  Co  Co11  1  0.34366651  0.17004390  0.71349466  1
  O  O12  1  0.16548663  0.83301581  0.60015531  1
  O  O13  1  0.03863751  0.51845598  0.33584929  1
  O  O14  1  0.31209343  0.65086559  0.11016174  1
  O  O15  1  0.01896220  0.01508033  0.30428762  1
  O  O16  1  0.01113978  -0.00382661  0.80687460  1
  O  O17  1  0.17035471  0.33198353  0.59713550  1
  O  O18  1  0.47222603  0.95716758  0.34452787  1
  O  O19  1  0.46358023  0.50289789  0.34304647  1
  O  O20  1  0.32946326  0.16732287  0.10120901  1
  O  O21  1  0.66794899  0.82540975  0.59604083  1
  O  O22  1  0.51499553  0.47764636  0.83809117  1
  O  O23  1  0.51319916  0.04178212  0.84698667  1
  O  O24  1  0.66135557  0.33962229  0.60617690  1
  O  O25  1  0.83412540  0.66780175  0.09786313  1
  O  O26  1  0.95849599  0.49083632  0.84667285  1
  O  O27  1  0.84095840  0.17520527  0.09535993  1
