# generated using pymatgen
data_LiCoPO4
_symmetry_space_group_name_H-M   'P 1'
_cell_length_a   8.47563142
_cell_length_b   8.48058864
_cell_length_c   7.48655769
_cell_angle_alpha   90.23211593
_cell_angle_beta   89.80174322
_cell_angle_gamma   119.91716242
_symmetry_Int_Tables_number   1
_chemical_formula_structural   LiCoPO4
_chemical_formula_sum   'Li6 Co6 P6 O24'
_cell_volume   466.41081944
_cell_formula_units_Z   6
loop_
 _symmetry_equiv_pos_site_id
 _symmetry_equiv_pos_as_xyz
  1  'x, y, z'
loop_
 _atom_site_type_symbol
 _atom_site_label
 _atom_site_symmetry_multiplicity
 _atom_site_fract_x
 _atom_site_fract_y
 _atom_site_fract_z
 _atom_site_occupancy
  Li  Li0  1  0.01520705  0.68359159  0.40743667  1
  Li  Li1  1  0.31922277  0.33451589  0.40280528  1
  Li  Li2  1  0.66649489  0.98343516  0.40648875  1
  Li  Li3  1  0.33302130  0.01449771  0.90473198  1
  Li  Li4  1  0.68330108  0.66847256  0.90694846  1
  Li  Li5  1  0.98467604  0.31676322  0.90562624  1
  Co  Co6  1  0.33488822  0.66727297  0.29705732  1
  Co  Co7  1  0.33182630  0.66511176  0.69965633  1
  Co  Co8  1  0.00072721  0.00233681  0.13957925  1
  Co  Co9  1  0.99913987  0.00374839  0.63801141  1
  Co  Co10  1  0.66752128  0.33211672  0.79814774  1
  Co  Co11  1  0.66586274  0.33252974  0.19947719  1
  P  P12  1  0.03863451  0.67733582  0.00564771  1
  P  P13  1  0.32315228  0.36134443  0.00275708  1
  P  P14  1  0.63802244  0.96128839  0.00332172  1
  P  P15  1  0.36152356  0.03923341  0.50446974  1
  P  P16  1  0.67690978  0.63758878  0.50526707  1
  P  P17  1  0.96117142  0.32299400  0.50197282  1
  O  O18  1  0.14826664  0.93140025  0.50361152  1
  O  O19  1  0.14599501  0.72346637  0.18270052  1
  O  O20  1  0.17507083  0.74446003  0.84849635  1
  O  O21  1  0.10772293  0.52933072  0.49635030  1
  O  O22  1  0.41965227  0.89115359  0.49444664  1
  O  O23  1  0.07019618  0.21836851  0.49372076  1
  O  O24  1  0.25480463  0.42824531  0.84539207  1
  O  O25  1  0.27747989  0.42438456  0.17986915  1
  O  O26  1  0.21902882  0.14827607  0.00038197  1
  O  O27  1  0.57795561  0.85457034  0.18090728  1
  O  O28  1  0.56688397  0.82453677  0.84668404  1
  O  O29  1  0.47044596  0.57936682  0.49622884  1
  O  O30  1  0.52957837  0.42073107  0.99440838  1
  O  O31  1  0.42940788  0.17442416  0.34712435  1
  O  O32  1  0.42524288  0.14704977  0.68165788  1
  O  O33  1  0.78205252  0.85091858  0.50017319  1
  O  O34  1  0.72450982  0.57766712  0.68202187  1
  O  O35  1  0.74251595  0.56685500  0.34801297  1
  O  O36  1  0.92995681  0.78217376  0.00392731  1
  O  O37  1  0.57980533  0.10929593  0.99611510  1
  O  O38  1  0.89172351  0.47111974  0.99465901  1
  O  O39  1  0.82489154  0.25636386  0.34568316  1
  O  O40  1  0.85391117  0.27370013  0.68018591  1
  O  O41  1  0.85139876  0.06796519  0.99657670  1
