# generated using pymatgen
data_Li4Co(PO4)2
_symmetry_space_group_name_H-M   'P 1'
_cell_length_a   4.74125036
_cell_length_b   5.36097242
_cell_length_c   6.18501803
_cell_angle_alpha   97.67593601
_cell_angle_beta   93.85633071
_cell_angle_gamma   98.87704053
_symmetry_Int_Tables_number   1
_chemical_formula_structural   Li4Co(PO4)2
_chemical_formula_sum   'Li4 Co1 P2 O8'
_cell_volume   153.31307676
_cell_formula_units_Z   1
loop_
 _symmetry_equiv_pos_site_id
 _symmetry_equiv_pos_as_xyz
  1  'x, y, z'
loop_
 _atom_site_type_symbol
 _atom_site_label
 _atom_site_symmetry_multiplicity
 _atom_site_fract_x
 _atom_site_fract_y
 _atom_site_fract_z
 _atom_site_occupancy
  Li  Li0  1  0.16228232  0.29786211  0.56408578  1
  Li  Li1  1  0.29739731  0.56627943  0.17312080  1
  Li  Li2  1  0.70260269  0.43372057  0.82687920  1
  Li  Li3  1  0.83771768  0.70213789  0.43591422  1
  Co  Co4  1  0.00000000  0.00000000  0.00000000  1
  P  P5  1  0.37262377  0.80429803  0.71864909  1
  P  P6  1  0.62737623  0.19570197  0.28135091  1
  O  O7  1  0.22807950  0.62692590  0.87361844  1
  O  O8  1  0.26089651  0.68940331  0.48078879  1
  O  O9  1  0.29522613  0.18646242  0.25366216  1
  O  O10  1  0.28941565  0.07490487  0.77883039  1
  O  O11  1  0.71058435  0.92509513  0.22116961  1
  O  O12  1  0.70477387  0.81353758  0.74633784  1
  O  O13  1  0.73910349  0.31059669  0.51921121  1
  O  O14  1  0.77192050  0.37307410  0.12638256  1
