# generated using pymatgen
data_LiCrPO4
_symmetry_space_group_name_H-M   'P 1'
_cell_length_a   9.24846783
_cell_length_b   6.44284590
_cell_length_c   5.11325262
_cell_angle_alpha   90.00000000
_cell_angle_beta   90.00000000
_cell_angle_gamma   90.00000000
_symmetry_Int_Tables_number   1
_chemical_formula_structural   LiCrPO4
_chemical_formula_sum   'Li4 Cr4 P4 O16'
_cell_volume   304.68058712
_cell_formula_units_Z   4
loop_
 _symmetry_equiv_pos_site_id
 _symmetry_equiv_pos_as_xyz
  1  'x, y, z'
loop_
 _atom_site_type_symbol
 _atom_site_label
 _atom_site_symmetry_multiplicity
 _atom_site_fract_x
 _atom_site_fract_y
 _atom_site_fract_z
 _atom_site_occupancy
  Li  Li0  1  0.00000000  0.00000000  0.00000000  1
  Li  Li1  1  0.00000000  0.50000000  0.00000000  1
  Li  Li2  1  0.50000000  0.00000000  0.50000000  1
  Li  Li3  1  0.50000000  0.50000000  0.50000000  1
  Cr  Cr4  1  0.13781927  0.75000000  0.44809548  1
  Cr  Cr5  1  0.36218073  0.25000000  0.94809548  1
  Cr  Cr6  1  0.63781927  0.75000000  0.05190452  1
  Cr  Cr7  1  0.86218073  0.25000000  0.55190452  1
  P  P8  1  0.18835426  0.25000000  0.46300143  1
  P  P9  1  0.31164574  0.75000000  0.96300143  1
  P  P10  1  0.68835426  0.25000000  0.03699857  1
  P  P11  1  0.81164574  0.75000000  0.53699857  1
  O  O12  1  0.15961571  0.25000000  0.76348480  1
  O  O13  1  0.11408913  0.05717019  0.34003563  1
  O  O14  1  0.11408913  0.44282981  0.34003563  1
  O  O15  1  0.14664210  0.75000000  0.90239067  1
  O  O16  1  0.35335790  0.25000000  0.40239067  1
  O  O17  1  0.38591087  0.94282981  0.84003563  1
  O  O18  1  0.38591087  0.55717019  0.84003563  1
  O  O19  1  0.34038429  0.75000000  0.26348480  1
  O  O20  1  0.65961571  0.25000000  0.73651520  1
  O  O21  1  0.61408913  0.05717019  0.15996437  1
  O  O22  1  0.61408913  0.44282981  0.15996437  1
  O  O23  1  0.64664210  0.75000000  0.59760933  1
  O  O24  1  0.85335790  0.25000000  0.09760933  1
  O  O25  1  0.88591087  0.55717019  0.65996437  1
  O  O26  1  0.88591087  0.94282981  0.65996437  1
  O  O27  1  0.84038429  0.75000000  0.23651520  1
