# generated using pymatgen
data_LiFePO4
_symmetry_space_group_name_H-M   'P 1'
_cell_length_a   10.12487930
_cell_length_b   10.12487940
_cell_length_c   22.91587417
_cell_angle_alpha   90.00000000
_cell_angle_beta   90.00000000
_cell_angle_gamma   119.99999725
_symmetry_Int_Tables_number   1
_chemical_formula_structural   LiFePO4
_chemical_formula_sum   'Li24 Fe24 P24 O96'
_cell_volume   2034.44890123
_cell_formula_units_Z   24
loop_
 _symmetry_equiv_pos_site_id
 _symmetry_equiv_pos_as_xyz
  1  'x, y, z'
loop_
 _atom_site_type_symbol
 _atom_site_label
 _atom_site_symmetry_multiplicity
 _atom_site_fract_x
 _atom_site_fract_y
 _atom_site_fract_z
 _atom_site_occupancy
  Li  Li0  1  0.00207077  0.94332184  0.41892028  1
  Li  Li1  1  0.06359087  0.56312829  0.91644182  1
  Li  Li2  1  0.06123590  0.51597991  0.25610622  1
  Li  Li3  1  0.01886276  0.47788144  0.58699753  1
  Li  Li4  1  0.45901868  0.98113724  0.92033053  1
  Li  Li5  1  0.45474400  0.93876410  0.58943922  1
  Li  Li6  1  0.05667816  0.05874792  0.08558628  1
  Li  Li7  1  0.49953742  0.93640913  0.24977482  1
  Li  Li8  1  0.05874792  0.00207077  0.25225328  1
  Li  Li9  1  0.43687171  0.50046258  0.58310882  1
  Li  Li10  1  0.48402009  0.54525600  0.92277322  1
  Li  Li11  1  0.52211856  0.54098132  0.25366353  1
  Li  Li12  1  0.47788144  0.45901868  0.75366353  1
  Li  Li13  1  0.51597991  0.45474400  0.42277322  1
  Li  Li14  1  0.56312829  0.49953742  0.08310882  1
  Li  Li15  1  0.94125208  0.99792923  0.75225328  1
  Li  Li16  1  0.50046258  0.06359087  0.74977482  1
  Li  Li17  1  0.94332184  0.94125208  0.58558628  1
  Li  Li18  1  0.54525600  0.06123590  0.08943922  1
  Li  Li19  1  0.54098132  0.01886276  0.42033053  1
  Li  Li20  1  0.98113724  0.52211856  0.08699753  1
  Li  Li21  1  0.93876410  0.48402009  0.75610622  1
  Li  Li22  1  0.93640913  0.43687171  0.41644182  1
  Li  Li23  1  0.99792923  0.05667816  0.91892028  1
  Fe  Fe24  1  0.14385519  0.83269443  0.67904564  1
  Fe  Fe25  1  0.18714580  0.88343326  0.00964041  1
  Fe  Fe26  1  0.17377352  0.78701179  0.37677030  1
  Fe  Fe27  1  0.11656674  0.30371255  0.67630641  1
  Fe  Fe28  1  0.33117467  0.67615043  0.81836068  1
  Fe  Fe29  1  0.32384957  0.65502524  0.48502668  1
  Fe  Fe30  1  0.34497476  0.66882533  0.15169368  1
  Fe  Fe31  1  0.16730557  0.31116076  0.34571164  1
  Fe  Fe32  1  0.21298821  0.38676173  0.04343730  1
  Fe  Fe33  1  0.61323827  0.82622648  0.71010430  1
  Fe  Fe34  1  0.30371255  0.18714580  0.84297341  1
  Fe  Fe35  1  0.31116076  0.14385519  0.51237864  1
  Fe  Fe36  1  0.68883924  0.85614481  0.01237864  1
  Fe  Fe37  1  0.69628745  0.81285420  0.34297341  1
  Fe  Fe38  1  0.38676173  0.17377352  0.21010430  1
  Fe  Fe39  1  0.78701179  0.61323827  0.54343730  1
  Fe  Fe40  1  0.83269443  0.68883924  0.84571164  1
  Fe  Fe41  1  0.65502524  0.33117467  0.65169368  1
  Fe  Fe42  1  0.67615043  0.34497476  0.98502668  1
  Fe  Fe43  1  0.66882533  0.32384957  0.31836068  1
  Fe  Fe44  1  0.88343326  0.69628745  0.17630641  1
  Fe  Fe45  1  0.82622648  0.21298821  0.87677030  1
  Fe  Fe46  1  0.81285420  0.11656674  0.50964041  1
  Fe  Fe47  1  0.85614481  0.16730557  0.17904564  1
  P  P48  1  0.17234520  0.85489398  0.81343335  1
  P  P49  1  0.12907367  0.77760349  0.50891484  1
  P  P50  1  0.21750487  0.88051872  0.14682727  1
  P  P51  1  0.11948128  0.33698615  0.81349327  1
  P  P52  1  0.32743533  0.68860472  0.00904459  1
  P  P53  1  0.14510602  0.31745122  0.48010035  1
  P  P54  1  0.31139528  0.63883061  0.67571159  1
  P  P55  1  0.36116939  0.67256467  0.34237759  1
  P  P56  1  0.22239651  0.35147018  0.17558184  1
  P  P57  1  0.64852982  0.87092633  0.84224784  1
  P  P58  1  0.33698615  0.21750487  0.98016027  1
  P  P59  1  0.31745122  0.17234520  0.64676735  1
  P  P60  1  0.68254878  0.82765480  0.14676735  1
  P  P61  1  0.66301385  0.78249513  0.48016027  1
  P  P62  1  0.35147018  0.12907367  0.34224784  1
  P  P63  1  0.77760349  0.64852982  0.67558184  1
  P  P64  1  0.63883061  0.32743533  0.84237759  1
  P  P65  1  0.68860472  0.36116939  0.17571159  1
  P  P66  1  0.85489398  0.68254878  0.98010035  1
  P  P67  1  0.67256467  0.31139528  0.50904459  1
  P  P68  1  0.88051872  0.66301385  0.31349327  1
  P  P69  1  0.78249513  0.11948128  0.64682727  1
  P  P70  1  0.87092633  0.22239651  0.00891484  1
  P  P71  1  0.82765480  0.14510602  0.31343335  1
  O  O72  1  0.01743659  0.70717446  0.79902903  1
  O  O73  1  0.13282232  0.96965604  0.84312424  1
  O  O74  1  0.01215302  0.68087433  0.55715312  1
  O  O75  1  0.12872716  0.92881972  0.49631059  1
  O  O76  1  0.17686277  0.98336068  0.18517240  1
  O  O77  1  0.07046411  0.72627109  0.13321594  1
  O  O78  1  0.07993582  0.67591017  0.45235482  1
  O  O79  1  0.26119287  0.92058159  0.75538669  1
  O  O80  1  0.28683651  0.96387615  0.08822033  1
  O  O81  1  0.15807057  0.63853668  0.67767644  1
  O  O82  1  0.21111035  0.71316645  0.97318812  1
  O  O83  1  0.27454808  0.82260391  0.85506116  1
  O  O84  1  0.21200278  0.65573824  0.31627950  1
  O  O85  1  0.29048166  0.81267005  0.52773209  1
  O  O86  1  0.03612385  0.32296036  0.75488733  1
  O  O87  1  0.33855403  0.85709151  0.17988295  1
  O  O88  1  0.14290849  0.48146251  0.84654895  1
  O  O89  1  0.01663832  0.19350209  0.85183940  1
  O  O90  1  0.07941841  0.34061127  0.42205269  1
  O  O91  1  0.03034396  0.16316628  0.50979124  1
  O  O92  1  0.25519840  0.63031551  0.07095165  1
  O  O93  1  0.07118028  0.19990644  0.16297759  1
  O  O94  1  0.17739609  0.45194417  0.52172816  1
  O  O95  1  0.18732995  0.47781161  0.19439909  1
  O  O96  1  0.37511711  0.74480160  0.40428465  1
  O  O97  1  0.28683355  0.49794390  0.63985512  1
  O  O98  1  0.36968449  0.62488289  0.73761765  1
  O  O99  1  0.34426176  0.55626454  0.98294650  1
  O  O100  1  0.44373546  0.78799722  0.64961350  1
  O  O101  1  0.48046612  0.84192943  0.01100944  1
  O  O102  1  0.36146332  0.51953388  0.34434244  1
  O  O103  1  0.16316628  0.13282232  0.67645724  1
  O  O104  1  0.19350209  0.17686277  0.01850540  1
  O  O105  1  0.27372891  0.34419303  0.79988194  1
  O  O106  1  0.32408983  0.40402564  0.11902182  1
  O  O107  1  0.50205610  0.78888965  0.30652212  1
  O  O108  1  0.19990644  0.12872716  0.32964459  1
  O  O109  1  0.29282554  0.31026213  0.46569603  1
  O  O110  1  0.31912567  0.33127869  0.22381912  1
  O  O111  1  0.52218839  0.70951834  0.86106509  1
  O  O112  1  0.59597436  0.92006418  0.78568782  1
  O  O113  1  0.54805583  0.72545192  0.18839516  1
  O  O114  1  0.32296036  0.28683651  0.92155433  1
  O  O115  1  0.66872131  0.98784698  0.89048612  1
  O  O116  1  0.51853749  0.66144597  0.51321595  1
  O  O117  1  0.34061127  0.26119287  0.58871969  1
  O  O118  1  0.65580697  0.92953589  0.46654894  1
  O  O119  1  0.68973787  0.98256341  0.13236303  1
  O  O120  1  0.31026213  0.01743659  0.63236303  1
  O  O121  1  0.34419303  0.07046411  0.96654894  1
  O  O122  1  0.65938873  0.73880713  0.08871969  1
  O  O123  1  0.48146251  0.33855403  0.01321595  1
  O  O124  1  0.33127869  0.01215302  0.39048612  1
  O  O125  1  0.67703964  0.71316349  0.42155433  1
  O  O126  1  0.45194417  0.27454808  0.68839516  1
  O  O127  1  0.40402564  0.07993582  0.28568782  1
  O  O128  1  0.47781161  0.29048166  0.36106509  1
  O  O129  1  0.68087433  0.66872131  0.72381912  1
  O  O130  1  0.70717446  0.68973787  0.96569603  1
  O  O131  1  0.80009356  0.87127284  0.82964459  1
  O  O132  1  0.49794390  0.21111035  0.80652212  1
  O  O133  1  0.67591017  0.59597436  0.61902182  1
  O  O134  1  0.72627109  0.65580697  0.29988194  1
  O  O135  1  0.80649791  0.82313723  0.51850540  1
  O  O136  1  0.83683372  0.86717768  0.17645724  1
  O  O137  1  0.63853668  0.48046612  0.84434244  1
  O  O138  1  0.51953388  0.15807057  0.51100944  1
  O  O139  1  0.55626454  0.21200278  0.14961350  1
  O  O140  1  0.65573824  0.44373546  0.48294650  1
  O  O141  1  0.63031551  0.37511711  0.23761765  1
  O  O142  1  0.71316645  0.50205610  0.13985512  1
  O  O143  1  0.62488289  0.25519840  0.90428465  1
  O  O144  1  0.81267005  0.52218839  0.69439909  1
  O  O145  1  0.82260391  0.54805583  0.02172816  1
  O  O146  1  0.92881972  0.80009356  0.66297759  1
  O  O147  1  0.74480160  0.36968449  0.57095165  1
  O  O148  1  0.96965604  0.83683372  0.00979124  1
  O  O149  1  0.92058159  0.65938873  0.92205269  1
  O  O150  1  0.98336068  0.80649791  0.35183940  1
  O  O151  1  0.85709151  0.51853749  0.34654895  1
  O  O152  1  0.66144597  0.14290849  0.67988295  1
  O  O153  1  0.96387615  0.67703964  0.25488733  1
  O  O154  1  0.70951834  0.18732995  0.02773209  1
  O  O155  1  0.78799722  0.34426176  0.81627950  1
  O  O156  1  0.72545192  0.17739609  0.35506116  1
  O  O157  1  0.78888965  0.28683355  0.47318812  1
  O  O158  1  0.84192943  0.36146332  0.17767644  1
  O  O159  1  0.71316349  0.03612385  0.58822033  1
  O  O160  1  0.73880713  0.07941841  0.25538669  1
  O  O161  1  0.92006418  0.32408983  0.95235482  1
  O  O162  1  0.92953589  0.27372891  0.63321594  1
  O  O163  1  0.82313723  0.01663832  0.68517240  1
  O  O164  1  0.87127284  0.07118028  0.99631059  1
  O  O165  1  0.98784698  0.31912567  0.05715312  1
  O  O166  1  0.86717768  0.03034396  0.34312424  1
  O  O167  1  0.98256341  0.29282554  0.29902903  1
