# generated using pymatgen
data_LiMnPO4
_symmetry_space_group_name_H-M   'P 1'
_cell_length_a   19.84523911
_cell_length_b   5.67375841
_cell_length_c   8.41879741
_cell_angle_alpha   90.00000000
_cell_angle_beta   90.00000000
_cell_angle_gamma   90.00000000
_symmetry_Int_Tables_number   1
_chemical_formula_structural   LiMnPO4
_chemical_formula_sum   'Li12 Mn12 P12 O48'
_cell_volume   947.93210902
_cell_formula_units_Z   12
loop_
 _symmetry_equiv_pos_site_id
 _symmetry_equiv_pos_as_xyz
  1  'x, y, z'
loop_
 _atom_site_type_symbol
 _atom_site_label
 _atom_site_symmetry_multiplicity
 _atom_site_fract_x
 _atom_site_fract_y
 _atom_site_fract_z
 _atom_site_occupancy
  Li  Li0  1  0.98895653  0.19114298  0.72537748  1
  Li  Li1  1  0.17458090  0.80778149  0.24235240  1
  Li  Li2  1  0.15411453  0.23054989  0.75857721  1
  Li  Li3  1  0.34588547  0.73054989  0.25857721  1
  Li  Li4  1  0.32541910  0.30778149  0.74235240  1
  Li  Li5  1  0.51104347  0.69114298  0.22537748  1
  Li  Li6  1  0.48895653  0.19114298  0.77462252  1
  Li  Li7  1  0.67458090  0.80778149  0.25764760  1
  Li  Li8  1  0.65411453  0.23054989  0.74142279  1
  Li  Li9  1  0.84588547  0.73054989  0.24142279  1
  Li  Li10  1  0.82541910  0.30778149  0.75764760  1
  Li  Li11  1  0.01104347  0.69114298  0.27462252  1
  Mn  Mn12  1  0.06620892  0.25406161  0.03556366  1
  Mn  Mn13  1  0.10158824  0.70786780  0.56867443  1
  Mn  Mn14  1  0.23301331  0.24581635  0.43939796  1
  Mn  Mn15  1  0.26698669  0.74581635  0.93939796  1
  Mn  Mn16  1  0.39841176  0.20786780  0.06867443  1
  Mn  Mn17  1  0.43379108  0.75406161  0.53556366  1
  Mn  Mn18  1  0.56620892  0.25406161  0.46443634  1
  Mn  Mn19  1  0.60158824  0.70786780  0.93132557  1
  Mn  Mn20  1  0.73301331  0.24581635  0.06060204  1
  Mn  Mn21  1  0.76698669  0.74581635  0.56060204  1
  Mn  Mn22  1  0.89841176  0.20786780  0.43132557  1
  Mn  Mn23  1  0.93379108  0.75406161  0.96443634  1
  P  P24  1  0.07048984  0.20796276  0.41522592  1
  P  P25  1  0.09506401  0.76123736  0.91579550  1
  P  P26  1  0.24175233  0.23326212  0.06666315  1
  P  P27  1  0.25824767  0.73326212  0.56666315  1
  P  P28  1  0.40493599  0.26123736  0.41579550  1
  P  P29  1  0.42951016  0.70796176  0.91522592  1
  P  P30  1  0.57048984  0.20796276  0.08477408  1
  P  P31  1  0.59506401  0.76123736  0.58420450  1
  P  P32  1  0.74175233  0.23326212  0.43333685  1
  P  P33  1  0.75824767  0.73326212  0.93333685  1
  P  P34  1  0.90493599  0.26123736  0.08420450  1
  P  P35  1  0.92951016  0.70796176  0.58477408  1
  O  O36  1  0.00117294  0.17614914  0.49435664  1
  O  O37  1  0.03676942  0.82943963  0.03532305  1
  O  O38  1  0.09355494  0.94939963  0.77951031  1
  O  O39  1  0.08067667  0.51888543  0.83570517  1
  O  O40  1  0.06514620  0.37410763  0.26762659  1
  O  O41  1  0.10027727  0.96273046  0.36719972  1
  O  O42  1  0.12047051  0.32466765  0.53585424  1
  O  O43  1  0.16154603  0.76127441  0.00946191  1
  O  O44  1  0.17017260  0.25496587  0.00135315  1
  O  O45  1  0.21307324  0.61905067  0.43438122  1
  O  O46  1  0.22524205  0.97333379  0.61014219  1
  O  O47  1  0.25578144  0.57015335  0.71764072  1
  O  O48  1  0.24421856  0.07015335  0.21764072  1
  O  O49  1  0.27475795  0.47333379  0.11014219  1
  O  O50  1  0.28692676  0.11905067  0.93438122  1
  O  O51  1  0.32982740  0.75496587  0.50135315  1
  O  O52  1  0.33845397  0.26127441  0.50946191  1
  O  O53  1  0.37952949  0.82466765  0.03585424  1
  O  O54  1  0.39972273  0.46273046  0.86719972  1
  O  O55  1  0.43485380  0.87410763  0.76762659  1
  O  O56  1  0.41932333  0.01888543  0.33570517  1
  O  O57  1  0.40644506  0.44939963  0.27951031  1
  O  O58  1  0.46323058  0.32943963  0.53532305  1
  O  O59  1  0.49882706  0.67614914  0.99435664  1
  O  O60  1  0.50117294  0.17614914  0.00564336  1
  O  O61  1  0.53676942  0.82943963  0.46467695  1
  O  O62  1  0.59355494  0.94939963  0.72048969  1
  O  O63  1  0.58067667  0.51888543  0.66429483  1
  O  O64  1  0.56514620  0.37410763  0.23237341  1
  O  O65  1  0.60027727  0.96273046  0.13280028  1
  O  O66  1  0.62047051  0.32466765  0.96414576  1
  O  O67  1  0.66154603  0.76127441  0.49053809  1
  O  O68  1  0.67017260  0.25496587  0.49864685  1
  O  O69  1  0.71307324  0.61905067  0.06561878  1
  O  O70  1  0.72524205  0.97333379  0.88985781  1
  O  O71  1  0.75578144  0.57015335  0.78235928  1
  O  O72  1  0.74421856  0.07015335  0.28235928  1
  O  O73  1  0.77475795  0.47333379  0.38985781  1
  O  O74  1  0.78692676  0.11905067  0.56561878  1
  O  O75  1  0.82982740  0.75496587  0.99864685  1
  O  O76  1  0.83845397  0.26127441  0.99053809  1
  O  O77  1  0.87952949  0.82466765  0.46414576  1
  O  O78  1  0.89972273  0.46273046  0.63280028  1
  O  O79  1  0.93485380  0.87410763  0.73237341  1
  O  O80  1  0.91932333  0.01888543  0.16429483  1
  O  O81  1  0.90644506  0.44939963  0.22048969  1
  O  O82  1  0.96323058  0.32943963  0.96467695  1
  O  O83  1  0.99882706  0.67614914  0.50564336  1
