# generated using pymatgen
data_Li2Cr2P2O9
_symmetry_space_group_name_H-M   'P 1'
_cell_length_a   8.38666069
_cell_length_b   5.59482224
_cell_length_c   14.38111981
_cell_angle_alpha   89.99995931
_cell_angle_beta   90.00009668
_cell_angle_gamma   89.99996735
_symmetry_Int_Tables_number   1
_chemical_formula_structural   Li2Cr2P2O9
_chemical_formula_sum   'Li8 Cr8 P8 O36'
_cell_volume   674.78911684
_cell_formula_units_Z   4
loop_
 _symmetry_equiv_pos_site_id
 _symmetry_equiv_pos_as_xyz
  1  'x, y, z'
loop_
 _atom_site_type_symbol
 _atom_site_label
 _atom_site_symmetry_multiplicity
 _atom_site_fract_x
 _atom_site_fract_y
 _atom_site_fract_z
 _atom_site_occupancy
  Li  Li0  1  0.02855118  0.25000014  0.74227305  1
  Li  Li1  1  0.01718278  0.25000055  0.12599165  1
  Li  Li2  1  0.48281562  0.75000000  0.62599178  1
  Li  Li3  1  0.47144796  0.75000063  0.24227298  1
  Li  Li4  1  0.52855217  0.25000026  0.75772795  1
  Li  Li5  1  0.51718745  0.24999944  0.37400799  1
  Li  Li6  1  0.98281940  0.74999924  0.87401033  1
  Li  Li7  1  0.97144639  0.74999989  0.25772760  1
  Cr  Cr8  1  0.99999632  -0.00000477  0.50000339  1
  Cr  Cr9  1  0.00000237  0.49999895  0.50000932  1
  Cr  Cr10  1  0.21046480  0.24999282  0.93602926  1
  Cr  Cr11  1  0.28955080  0.74999786  0.43604450  1
  Cr  Cr12  1  0.50000463  0.00001003  0.00000216  1
  Cr  Cr13  1  0.49998615  0.50000828  -0.00000042  1
  Cr  Cr14  1  0.71045380  0.25000060  0.56395091  1
  Cr  Cr15  1  0.78954008  0.75000242  0.06395961  1
  P  P16  1  0.17079383  0.74999959  0.06884819  1
  P  P17  1  0.20474469  0.24999906  0.32939607  1
  P  P18  1  0.29525497  0.74999742  0.82939527  1
  P  P19  1  0.32920476  0.24999937  0.56884843  1
  P  P20  1  0.67079595  0.74999942  0.43115271  1
  P  P21  1  0.70474764  0.25000294  0.17060294  1
  P  P22  1  0.79525319  0.74999878  0.67060441  1
  P  P23  1  0.82920621  0.25000264  0.93115184  1
  O  O24  1  0.98826545  0.24999972  0.98556225  1
  O  O25  1  0.06343457  0.25000001  0.40541171  1
  O  O26  1  0.06005126  0.75000183  0.41256054  1
  O  O27  1  0.12977664  0.24999783  0.23587003  1
  O  O28  1  0.15026345  0.75000147  0.17225460  1
  O  O29  1  0.18351389  0.52700942  0.84714945  1
  O  O30  1  0.18351245  0.97298605  0.84714708  1
  O  O31  1  0.23459269  0.01645857  0.53647630  1
  O  O32  1  0.23459002  0.48353898  0.53647521  1
  O  O33  1  0.26540978  0.51645898  0.03647314  1
  O  O34  1  0.26540929  0.98353685  0.03647182  1
  O  O35  1  0.31648783  0.02700641  0.34714953  1
  O  O36  1  0.31648731  0.47298960  0.34714860  1
  O  O37  1  0.34973669  0.25000054  0.67225526  1
  O  O38  1  0.37022242  0.74999719  0.73587103  1
  O  O39  1  0.43994983  0.24999880  0.91255455  1
  O  O40  1  0.43656313  0.75000287  0.90541086  1
  O  O41  1  0.51173903  0.75000127  0.48556311  1
  O  O42  1  0.48826147  0.25000195  0.51443578  1
  O  O43  1  0.56343657  0.25000157  0.09458779  1
  O  O44  1  0.56004747  0.75000069  0.08744328  1
  O  O45  1  0.62977905  0.24999982  0.26412766  1
  O  O46  1  0.65026558  0.74999987  0.32774513  1
  O  O47  1  0.68351304  0.52700988  0.65284936  1
  O  O48  1  0.68351221  0.97298970  0.65285102  1
  O  O49  1  0.73458819  0.01646298  0.96352654  1
  O  O50  1  0.73458927  0.48354203  0.96352463  1
  O  O51  1  0.76541067  0.51646228  0.46352800  1
  O  O52  1  0.76540849  0.98354018  0.46352612  1
  O  O53  1  0.81648595  0.02701225  0.15284983  1
  O  O54  1  0.81648652  0.47299250  0.15285026  1
  O  O55  1  0.84973490  0.25000000  0.82774469  1
  O  O56  1  0.87022207  0.74999743  0.76412941  1
  O  O57  1  0.93994637  0.24999964  0.58744627  1
  O  O58  1  0.93656664  0.74999870  0.59459094  1
  O  O59  1  0.01173664  0.74999658  0.01443630  1
