# generated using pymatgen
data_Mg2Si4O11
_symmetry_space_group_name_H-M   'P 1'
_cell_length_a   5.34281447
_cell_length_b   11.27818374
_cell_length_c   11.27818374
_cell_angle_alpha   103.95494358
_cell_angle_beta   82.96707038
_cell_angle_gamma   82.96707038
_symmetry_Int_Tables_number   1
_chemical_formula_structural   Mg2Si4O11
_chemical_formula_sum   'Mg4 Si8 O22'
_cell_volume   646.37362089
_cell_formula_units_Z   2
loop_
 _symmetry_equiv_pos_site_id
 _symmetry_equiv_pos_as_xyz
  1  'x, y, z'
loop_
 _atom_site_type_symbol
 _atom_site_label
 _atom_site_symmetry_multiplicity
 _atom_site_fract_x
 _atom_site_fract_y
 _atom_site_fract_z
 _atom_site_occupancy
  Mg  Mg0  1  0.50000000  0.84539316  0.15460684  1
  Mg  Mg1  1  0.50000000  0.15460684  0.84539316  1
  Mg  Mg2  1  -0.00000000  0.89712949  0.10287051  1
  Mg  Mg3  1  -0.00000000  0.10287051  0.89712949  1
  Si  Si4  1  0.40086498  0.70272817  0.87732081  1
  Si  Si5  1  0.59913502  0.29727183  0.12267919  1
  Si  Si6  1  0.59913502  0.12267919  0.29727183  1
  Si  Si7  1  0.40086498  0.87732081  0.70272817  1
  Si  Si8  1  0.90241226  0.62230408  0.95592382  1
  Si  Si9  1  0.09758774  0.37769592  0.04407618  1
  Si  Si10  1  0.09758774  0.04407618  0.37769592  1
  Si  Si11  1  0.90241226  0.95592382  0.62230408  1
  O  O12  1  0.82988834  0.74010435  0.07784064  1
  O  O13  1  0.17011166  0.25989565  0.92215936  1
  O  O14  1  0.17011166  0.92215936  0.25989565  1
  O  O15  1  0.82988834  0.07784064  0.74010435  1
  O  O16  1  0.65034975  0.60389682  0.88541022  1
  O  O17  1  0.34965025  0.39610318  0.11458978  1
  O  O18  1  0.34965025  0.11458978  0.39610318  1
  O  O19  1  0.65034975  0.88541022  0.60389682  1
  O  O20  1  0.85557883  0.36280608  0.14200617  1
  O  O21  1  0.14442117  0.63719392  0.85799383  1
  O  O22  1  0.14442117  0.85799383  0.63719392  1
  O  O23  1  0.85557883  0.14200617  0.36280608  1
  O  O24  1  0.47078129  0.75874468  0.75874468  1
  O  O25  1  0.52921871  0.24125532  0.24125532  1
  O  O26  1  0.90306593  0.93953079  0.93953079  1
  O  O27  1  0.09693407  0.06046921  0.06046921  1
  O  O28  1  -0.00000000  0.50000000  -0.00000000  1
  O  O29  1  -0.00000000  -0.00000000  0.50000000  1
  O  O30  1  0.33619466  0.80837007  0.00770471  1
  O  O31  1  0.66380534  0.19162993  0.99229529  1
  O  O32  1  0.66380534  0.99229529  0.19162993  1
  O  O33  1  0.33619466  0.00770471  0.80837007  1
