# generated using pymatgen
data_Li2CoSiO4
_symmetry_space_group_name_H-M   'P 1'
_cell_length_a   5.03916821
_cell_length_b   5.03786642
_cell_length_c   11.51964699
_cell_angle_alpha   90.00114106
_cell_angle_beta   90.00717880
_cell_angle_gamma   120.00718202
_symmetry_Int_Tables_number   1
_chemical_formula_structural   Li2CoSiO4
_chemical_formula_sum   'Li6 Co3 Si3 O12'
_cell_volume   253.24674117
_cell_formula_units_Z   3
loop_
 _symmetry_equiv_pos_site_id
 _symmetry_equiv_pos_as_xyz
  1  'x, y, z'
loop_
 _atom_site_type_symbol
 _atom_site_label
 _atom_site_symmetry_multiplicity
 _atom_site_fract_x
 _atom_site_fract_y
 _atom_site_fract_z
 _atom_site_occupancy
  Li  Li0  1  0.33223782  0.88736251  0.58582559  1
  Li  Li1  1  0.11254040  0.44479938  0.91920601  1
  Li  Li2  1  0.55510412  0.66776072  0.25247640  1
  Li  Li3  1  0.44487441  0.11254841  0.08084523  1
  Li  Li4  1  0.66782097  0.55517494  0.74749250  1
  Li  Li5  1  0.88744648  0.33235042  0.41415314  1
  Co  Co6  1  0.00004207  0.45638142  0.16667813  1
  Co  Co7  1  0.54351890  0.54342864  0.49996305  1
  Co  Co8  1  0.45654899  0.99988427  0.83326289  1
  Si  Si9  1  0.00011985  0.19175384  0.66654454  1
  Si  Si10  1  0.19149858  0.00011474  0.33334150  1
  Si  Si11  1  0.80847951  0.80840655  0.00010863  1
  O  O12  1  0.14501933  0.85596774  0.96073801  1
  O  O13  1  0.11916572  0.43906212  0.55819560  1
  O  O14  1  0.31994776  0.88078194  0.22478645  1
  O  O15  1  0.14419541  0.28922161  0.29413969  1
  O  O16  1  0.28911342  0.14407425  0.70588413  1
  O  O17  1  0.71075336  0.85489381  0.62747332  1
  O  O18  1  0.56061390  0.67988324  0.89145181  1
  O  O19  1  0.68014042  0.56087710  0.10850329  1
  O  O20  1  0.43924908  0.11925746  0.44187918  1
  O  O21  1  0.85493523  0.71099786  0.37255222  1
  O  O22  1  0.85588393  0.14496336  0.03923492  1
  O  O23  1  0.88074833  0.32005466  0.77523178  1
