# generated using pymatgen
data_RbHoHS2O9
_symmetry_space_group_name_H-M   'P 1'
_cell_length_a   10.26530633
_cell_length_b   8.38557812
_cell_length_c   10.54482555
_cell_angle_alpha   90.00000000
_cell_angle_beta   60.65724080
_cell_angle_gamma   90.00000000
_symmetry_Int_Tables_number   1
_chemical_formula_structural   RbHoHS2O9
_chemical_formula_sum   'Rb4 Ho4 H4 S8 O36'
_cell_volume   791.24916664
_cell_formula_units_Z   4
loop_
 _symmetry_equiv_pos_site_id
 _symmetry_equiv_pos_as_xyz
  1  'x, y, z'
loop_
 _atom_site_type_symbol
 _atom_site_label
 _atom_site_symmetry_multiplicity
 _atom_site_fract_x
 _atom_site_fract_y
 _atom_site_fract_z
 _atom_site_occupancy
  Rb  Rb0  1  0.03373219  0.65674179  0.18007249  1
  Rb  Rb1  1  0.46626781  0.15674179  0.31992751  1
  Rb  Rb2  1  0.53373219  0.84325821  0.68007249  1
  Rb  Rb3  1  0.96626781  0.34325821  0.81992751  1
  Ho  Ho4  1  0.22013515  0.14294368  0.03733073  1
  Ho  Ho5  1  0.27986485  0.64294368  0.46266927  1
  Ho  Ho6  1  0.72013515  0.35705632  0.53733073  1
  Ho  Ho7  1  0.77986485  0.85705632  0.96266927  1
  H  H8  1  0.13960320  0.96729928  0.53832666  1
  H  H9  1  0.63960320  0.53270072  0.03832666  1
  H  H10  1  0.36039680  0.46729928  0.96167334  1
  H  H11  1  0.86039680  0.03270072  0.46167334  1
  S  S12  1  0.10293625  0.29862548  0.39703599  1
  S  S13  1  0.39706375  0.79862548  0.10296401  1
  S  S14  1  0.12371030  0.86412766  0.81903928  1
  S  S15  1  0.37628970  0.36412766  0.68096072  1
  S  S16  1  0.62371030  0.63587234  0.31903928  1
  S  S17  1  0.87628970  0.13587234  0.18096072  1
  S  S18  1  0.60293625  0.20137452  0.89703599  1
  S  S19  1  0.89706375  0.70137452  0.60296401  1
  O  O20  1  0.27644846  0.40580812  0.03661332  1
  O  O21  1  0.17307345  0.18740917  0.27068327  1
  O  O22  1  0.04922303  0.21035021  0.53424375  1
  O  O23  1  0.02357288  0.61646223  0.60624081  1
  O  O24  1  0.27940241  0.91402962  0.12028258  1
  O  O25  1  0.22059759  0.41402962  0.37971742  1
  O  O26  1  0.03524589  0.98534809  0.79111095  1
  O  O27  1  0.32692655  0.68740917  0.22931673  1
  O  O28  1  0.22355154  0.90580812  0.46338668  1
  O  O29  1  0.01236664  0.74253410  0.91755607  1
  O  O30  1  0.54922303  0.28964979  0.03424375  1
  O  O31  1  0.52357288  0.88353777  0.10624081  1
  O  O32  1  0.23783137  0.78553274  0.68261294  1
  O  O33  1  0.29655545  0.43607146  0.60912624  1
  O  O34  1  0.20344455  0.93607146  0.89087376  1
  O  O35  1  0.26216863  0.28553274  0.81738706  1
  O  O36  1  0.53524589  0.51465191  0.29111095  1
  O  O37  1  0.51236664  0.75746590  0.41755607  1
  O  O38  1  0.48763336  0.24253410  0.58244393  1
  O  O39  1  0.46475411  0.48534809  0.70888905  1
  O  O40  1  0.73783137  0.71446726  0.18261294  1
  O  O41  1  0.79655545  0.06392854  0.10912624  1
  O  O42  1  0.70344455  0.56392854  0.39087376  1
  O  O43  1  0.76216863  0.21446726  0.31738706  1
  O  O44  1  0.47642712  0.11646223  0.89375919  1
  O  O45  1  0.45077697  0.71035021  0.96575625  1
  O  O46  1  0.98763336  0.25746590  0.08244393  1
  O  O47  1  0.77644846  0.09419188  0.53661332  1
  O  O48  1  0.67307345  0.31259083  0.77068327  1
  O  O49  1  0.96475411  0.01465191  0.20888905  1
  O  O50  1  0.77940241  0.58597038  0.62028258  1
  O  O51  1  0.72059759  0.08597038  0.87971742  1
  O  O52  1  0.97642712  0.38353777  0.39375919  1
  O  O53  1  0.95077697  0.78964979  0.46575625  1
  O  O54  1  0.82692655  0.81259083  0.72931673  1
  O  O55  1  0.72355154  0.59419188  0.96338668  1
