# generated using pymatgen
data_Mn2Cr3Co3O16
_symmetry_space_group_name_H-M   'P 1'
_cell_length_a   5.74063580
_cell_length_b   5.75752171
_cell_length_c   8.84158744
_cell_angle_alpha   90.04628908
_cell_angle_beta   89.80301963
_cell_angle_gamma   120.23947446
_symmetry_Int_Tables_number   1
_chemical_formula_structural   Mn2Cr3Co3O16
_chemical_formula_sum   'Mn2 Cr3 Co3 O16'
_cell_volume   252.46465146
_cell_formula_units_Z   1
loop_
 _symmetry_equiv_pos_site_id
 _symmetry_equiv_pos_as_xyz
  1  'x, y, z'
loop_
 _atom_site_type_symbol
 _atom_site_label
 _atom_site_symmetry_multiplicity
 _atom_site_fract_x
 _atom_site_fract_y
 _atom_site_fract_z
 _atom_site_occupancy
  Mn  Mn0  1  0.33549873  0.66825297  0.48467562  1
  Mn  Mn1  1  0.66941306  0.33483917  0.98021877  1
  Cr  Cr2  1  0.15852389  0.83070006  0.20489713  1
  Cr  Cr3  1  0.15927793  0.32773361  0.20387285  1
  Cr  Cr4  1  0.32528211  0.16229832  0.70207990  1
  Co  Co5  1  0.65592138  0.82849276  0.21465002  1
  Co  Co6  1  0.82893964  0.66046776  0.71267045  1
  Co  Co7  1  0.82654327  0.16239902  0.71020524  1
  O  O8  1  0.16972496  0.83209672  0.60469901  1
  O  O9  1  0.04844932  0.52316071  0.33974021  1
  O  O10  1  0.34594402  0.67367956  0.09702966  1
  O  O11  1  0.98416185  0.99220417  0.31786214  1
  O  O12  1  0.98567562  0.98853354  0.81712917  1
  O  O13  1  0.16722033  0.33520965  0.60646773  1
  O  O14  1  0.48230820  0.95917147  0.34173819  1
  O  O15  1  0.48205660  0.52389278  0.34142444  1
  O  O16  1  0.34652162  0.17317504  0.10824511  1
  O  O17  1  0.67552229  0.84141238  0.60539140  1
  O  O18  1  0.52367727  0.48245058  0.84020549  1
  O  O19  1  0.52220835  0.04474892  0.83716523  1
  O  O20  1  0.67830137  0.34208312  0.60094438  1
  O  O21  1  0.83415830  0.66517789  0.10408322  1
  O  O22  1  0.96045171  0.47756562  0.83687042  1
  O  O23  1  0.83421820  0.17045719  0.10345522  1
