# generated using pymatgen
data_LiCoPO4
_symmetry_space_group_name_H-M   'P 1'
_cell_length_a   6.52194249
_cell_length_b   9.50579158
_cell_length_c   5.86194483
_cell_angle_alpha   96.33742728
_cell_angle_beta   99.47684297
_cell_angle_gamma   72.70592639
_symmetry_Int_Tables_number   1
_chemical_formula_structural   LiCoPO4
_chemical_formula_sum   'Li4 Co4 P4 O16'
_cell_volume   341.52418579
_cell_formula_units_Z   4
loop_
 _symmetry_equiv_pos_site_id
 _symmetry_equiv_pos_as_xyz
  1  'x, y, z'
loop_
 _atom_site_type_symbol
 _atom_site_label
 _atom_site_symmetry_multiplicity
 _atom_site_fract_x
 _atom_site_fract_y
 _atom_site_fract_z
 _atom_site_occupancy
  Li  Li0  1  0.18695948  0.27495917  0.57238423  1
  Li  Li1  1  0.34178345  0.67817671  0.43277110  1
  Li  Li2  1  0.65821655  0.32182329  0.56722890  1
  Li  Li3  1  0.81304052  0.72504083  0.42761577  1
  Co  Co4  1  0.10564304  0.71271444  0.97495174  1
  Co  Co5  1  0.36920536  0.93243099  0.80071075  1
  Co  Co6  1  0.63079464  0.06756901  0.19928925  1
  Co  Co7  1  0.89435696  0.28728556  0.02504826  1
  P  P8  1  0.29472202  0.38113234  0.13364850  1
  P  P9  1  0.17615788  0.00642302  0.28250816  1
  P  P10  1  0.82384212  0.99357698  0.71749184  1
  P  P11  1  0.70527798  0.61886766  0.86635150  1
  O  O12  1  0.25794870  0.05833400  0.53121179  1
  O  O13  1  0.11853862  0.35140593  0.26113715  1
  O  O14  1  0.25807329  0.33316090  0.87779431  1
  O  O15  1  0.05584892  0.89196145  0.79216614  1
  O  O16  1  0.33253854  0.02516101  0.11930781  1
  O  O17  1  0.28174684  0.54827666  0.17579528  1
  O  O18  1  0.17841504  0.84301207  0.26853128  1
  O  O19  1  0.47499128  0.70621419  0.74289214  1
  O  O20  1  0.52500872  0.29378581  0.25710786  1
  O  O21  1  0.82158496  0.15698793  0.73146872  1
  O  O22  1  0.71825316  0.45172334  0.82420472  1
  O  O23  1  0.66746146  0.97483899  0.88069219  1
  O  O24  1  0.94415108  0.10803855  0.20783386  1
  O  O25  1  0.74192671  0.66683910  0.12220569  1
  O  O26  1  0.88146138  0.64859407  0.73886285  1
  O  O27  1  0.74205130  0.94166600  0.46878821  1
