# generated using pymatgen
data_LiCuPO4
_symmetry_space_group_name_H-M   'P 1'
_cell_length_a   7.58994743
_cell_length_b   15.41801461
_cell_length_c   5.47127709
_cell_angle_alpha   90.00000000
_cell_angle_beta   90.00000000
_cell_angle_gamma   90.00000000
_symmetry_Int_Tables_number   1
_chemical_formula_structural   LiCuPO4
_chemical_formula_sum   'Li8 Cu8 P8 O32'
_cell_volume   640.25935192
_cell_formula_units_Z   8
loop_
 _symmetry_equiv_pos_site_id
 _symmetry_equiv_pos_as_xyz
  1  'x, y, z'
loop_
 _atom_site_type_symbol
 _atom_site_label
 _atom_site_symmetry_multiplicity
 _atom_site_fract_x
 _atom_site_fract_y
 _atom_site_fract_z
 _atom_site_occupancy
  Li  Li0  1  0.19404541  0.48748893  0.36332518  1
  Li  Li1  1  0.19404541  0.01251107  0.86332518  1
  Li  Li2  1  0.30595459  0.98748893  0.36332518  1
  Li  Li3  1  0.30595459  0.51251107  0.86332518  1
  Li  Li4  1  0.69404541  0.48748893  0.13667482  1
  Li  Li5  1  0.69404541  0.01251107  0.63667482  1
  Li  Li6  1  0.80595459  0.51251107  0.63667482  1
  Li  Li7  1  0.80595459  0.98748893  0.13667482  1
  Cu  Cu8  1  0.12935463  0.18961246  0.89856247  1
  Cu  Cu9  1  0.12935463  0.31038754  0.39856247  1
  Cu  Cu10  1  0.37064537  0.68961246  0.89856247  1
  Cu  Cu11  1  0.37064537  0.81038754  0.39856247  1
  Cu  Cu12  1  0.62935463  0.18961246  0.60143753  1
  Cu  Cu13  1  0.62935463  0.31038754  0.10143753  1
  Cu  Cu14  1  0.87064537  0.68961246  0.60143753  1
  Cu  Cu15  1  0.87064537  0.81038754  0.10143753  1
  P  P16  1  0.99129839  0.62071046  0.11101669  1
  P  P17  1  0.99129839  0.87928954  0.61101669  1
  P  P18  1  0.50870161  0.12071046  0.11101669  1
  P  P19  1  0.50870161  0.37928954  0.61101669  1
  P  P20  1  0.49129839  0.62071046  0.38898331  1
  P  P21  1  0.49129839  0.87928954  0.88898331  1
  P  P22  1  0.00870161  0.12071046  0.38898331  1
  P  P23  1  0.00870161  0.37928954  0.88898331  1
  O  O24  1  0.03879437  0.04278641  0.22142337  1
  O  O25  1  0.03879437  0.45721359  0.72142337  1
  O  O26  1  0.97219868  0.79105307  0.76423577  1
  O  O27  1  0.97219868  0.70894693  0.26423577  1
  O  O28  1  0.14923753  0.12051447  0.59624579  1
  O  O29  1  0.14923753  0.37948553  0.09624579  1
  O  O30  1  0.18039508  0.61625410  0.00832845  1
  O  O31  1  0.18039508  0.88374590  0.50832845  1
  O  O32  1  0.31960492  0.11625410  0.00832845  1
  O  O33  1  0.31960492  0.38374590  0.50832845  1
  O  O34  1  0.35076247  0.62051447  0.59624579  1
  O  O35  1  0.35076247  0.87948553  0.09624579  1
  O  O36  1  0.52780132  0.29105307  0.76423577  1
  O  O37  1  0.52780132  0.20894693  0.26423577  1
  O  O38  1  0.46120563  0.54278641  0.22142337  1
  O  O39  1  0.46120563  0.95721359  0.72142337  1
  O  O40  1  0.53879437  0.45721359  0.77857663  1
  O  O41  1  0.53879437  0.04278641  0.27857663  1
  O  O42  1  0.47219868  0.79105307  0.73576423  1
  O  O43  1  0.47219868  0.70894693  0.23576423  1
  O  O44  1  0.64923753  0.12051447  0.90375421  1
  O  O45  1  0.64923753  0.37948553  0.40375421  1
  O  O46  1  0.68039508  0.61625410  0.49167155  1
  O  O47  1  0.68039508  0.88374590  0.99167155  1
  O  O48  1  0.81960492  0.11625410  0.49167155  1
  O  O49  1  0.81960492  0.38374590  0.99167155  1
  O  O50  1  0.85076247  0.62051447  0.90375421  1
  O  O51  1  0.85076247  0.87948553  0.40375421  1
  O  O52  1  0.02780132  0.29105307  0.73576423  1
  O  O53  1  0.02780132  0.20894693  0.23576423  1
  O  O54  1  0.96120563  0.54278641  0.27857663  1
  O  O55  1  0.96120563  0.95721359  0.77857663  1
