# generated using pymatgen
data_LiCoPO4
_symmetry_space_group_name_H-M   'P 1'
_cell_length_a   8.63519329
_cell_length_b   7.61744103
_cell_length_c   15.00089532
_cell_angle_alpha   90.00000000
_cell_angle_beta   90.69110990
_cell_angle_gamma   90.00000000
_symmetry_Int_Tables_number   1
_chemical_formula_structural   LiCoPO4
_chemical_formula_sum   'Li12 Co12 P12 O48'
_cell_volume   986.65824631
_cell_formula_units_Z   12
loop_
 _symmetry_equiv_pos_site_id
 _symmetry_equiv_pos_as_xyz
  1  'x, y, z'
loop_
 _atom_site_type_symbol
 _atom_site_label
 _atom_site_symmetry_multiplicity
 _atom_site_fract_x
 _atom_site_fract_y
 _atom_site_fract_z
 _atom_site_occupancy
  Li  Li0  1  0.22456987  0.98157839  0.93061006  1
  Li  Li1  1  0.23021015  0.02319683  0.58597361  1
  Li  Li2  1  0.24174593  0.04278019  0.24307492  1
  Li  Li3  1  0.25825407  0.54278019  0.25692508  1
  Li  Li4  1  0.26978985  0.52319683  0.91402639  1
  Li  Li5  1  0.27543013  0.48157839  0.56938994  1
  Li  Li6  1  0.72456987  0.51842161  0.43061006  1
  Li  Li7  1  0.73021015  0.47680317  0.08597361  1
  Li  Li8  1  0.74174593  0.45721981  0.74307492  1
  Li  Li9  1  0.75825407  0.95721981  0.75692508  1
  Li  Li10  1  0.76978985  0.97680317  0.41402639  1
  Li  Li11  1  0.77543013  0.01842161  0.06938994  1
  Co  Co12  1  0.05826088  0.67753535  0.41000941  1
  Co  Co13  1  0.08541374  0.81678122  0.76337296  1
  Co  Co14  1  0.09587431  0.67675561  0.07946715  1
  Co  Co15  1  0.40412569  0.17675561  0.42053285  1
  Co  Co16  1  0.41458626  0.31678122  0.73662704  1
  Co  Co17  1  0.44173912  0.17753535  0.08999059  1
  Co  Co18  1  0.55826088  0.82246465  0.91000941  1
  Co  Co19  1  0.58541374  0.68321878  0.26337296  1
  Co  Co20  1  0.59587431  0.82324439  0.57946715  1
  Co  Co21  1  0.90412569  0.32324439  0.92053285  1
  Co  Co22  1  0.91458626  0.18321878  0.23662704  1
  Co  Co23  1  0.94173912  0.32246465  0.58999059  1
  P  P24  1  0.05977795  0.26526426  0.40739625  1
  P  P25  1  0.07825818  0.21996513  0.76840070  1
  P  P26  1  0.11003487  0.26467452  0.07630071  1
  P  P27  1  0.38996513  0.76467452  0.42369929  1
  P  P28  1  0.42174182  0.71996513  0.73159930  1
  P  P29  1  0.44022205  0.76526426  0.09260375  1
  P  P30  1  0.55977795  0.23473574  0.90739625  1
  P  P31  1  0.57825818  0.28003487  0.26840070  1
  P  P32  1  0.61003487  0.23532548  0.57630071  1
  P  P33  1  0.88996513  0.73532548  0.92369929  1
  P  P34  1  0.92174182  0.78003487  0.23159930  1
  P  P35  1  0.94022205  0.73473574  0.59260375  1
  O  O36  1  0.96860085  0.44050594  0.39713887  1
  O  O37  1  0.04496386  0.87880572  0.63583959  1
  O  O38  1  0.08254450  0.37154898  0.83778714  1
  O  O39  1  0.09311598  0.22250950  0.50735420  1
  O  O40  1  0.05595240  0.77700363  0.95981708  1
  O  O41  1  0.07506819  0.77171477  0.28731090  1
  O  O42  1  0.10671894  0.26675607  0.18016776  1
  O  O43  1  0.08586863  0.04779143  0.82397216  1
  O  O44  1  0.16788574  0.44368441  0.04002725  1
  O  O45  1  0.21362056  0.22544305  0.70086936  1
  O  O46  1  0.22744983  0.12474803  0.04397984  1
  O  O47  1  0.21771899  0.27490352  0.35842305  1
  O  O48  1  0.28228101  0.77490352  0.14157695  1
  O  O49  1  0.27255017  0.62474803  0.45602016  1
  O  O50  1  0.28637944  0.72544305  0.79913064  1
  O  O51  1  0.33211426  0.94368441  0.45997275  1
  O  O52  1  0.41413137  0.54779143  0.67602784  1
  O  O53  1  0.39328106  0.76675607  0.31983224  1
  O  O54  1  0.42493181  0.27171477  0.21268910  1
  O  O55  1  0.44404760  0.27700363  0.54018292  1
  O  O56  1  0.40688402  0.72250950  0.99264580  1
  O  O57  1  0.41745550  0.87154898  0.66221286  1
  O  O58  1  0.45503614  0.37880572  0.86416041  1
  O  O59  1  0.53139915  0.94050594  0.10286113  1
  O  O60  1  0.46860085  0.05949406  0.89713887  1
  O  O61  1  0.54496386  0.62119428  0.13583959  1
  O  O62  1  0.58254450  0.12845102  0.33778714  1
  O  O63  1  0.59311598  0.27749050  0.00735420  1
  O  O64  1  0.55595240  0.72299637  0.45981708  1
  O  O65  1  0.57506819  0.72828523  0.78731090  1
  O  O66  1  0.60671894  0.23324393  0.68016776  1
  O  O67  1  0.58586863  0.45220857  0.32397216  1
  O  O68  1  0.66788574  0.05631559  0.54002725  1
  O  O69  1  0.71362056  0.27455695  0.20086936  1
  O  O70  1  0.72744983  0.37525197  0.54397984  1
  O  O71  1  0.71771899  0.22509648  0.85842305  1
  O  O72  1  0.78228101  0.72509648  0.64157695  1
  O  O73  1  0.78637944  0.77455695  0.29913064  1
  O  O74  1  0.77255017  0.87525197  0.95602016  1
  O  O75  1  0.83211426  0.55631559  0.95997275  1
  O  O76  1  0.91413137  0.95220857  0.17602784  1
  O  O77  1  0.89328106  0.73324393  0.81983224  1
  O  O78  1  0.92493181  0.22828523  0.71268910  1
  O  O79  1  0.94404760  0.22299637  0.04018292  1
  O  O80  1  0.90688402  0.77749050  0.49264580  1
  O  O81  1  0.91745550  0.62845102  0.16221286  1
  O  O82  1  0.95503614  0.12119428  0.36416041  1
  O  O83  1  0.03139915  0.55949406  0.60286113  1
