# generated using pymatgen
data_Li2FeCO4
_symmetry_space_group_name_H-M   'P 1'
_cell_length_a   7.01202573
_cell_length_b   5.02248359
_cell_length_c   11.00293112
_cell_angle_alpha   90.00000000
_cell_angle_beta   98.50756593
_cell_angle_gamma   90.00000000
_symmetry_Int_Tables_number   1
_chemical_formula_structural   Li2FeCO4
_chemical_formula_sum   'Li8 Fe4 C4 O16'
_cell_volume   383.23494647
_cell_formula_units_Z   4
loop_
 _symmetry_equiv_pos_site_id
 _symmetry_equiv_pos_as_xyz
  1  'x, y, z'
loop_
 _atom_site_type_symbol
 _atom_site_label
 _atom_site_symmetry_multiplicity
 _atom_site_fract_x
 _atom_site_fract_y
 _atom_site_fract_z
 _atom_site_occupancy
  Li  Li0  1  0.11501425  0.34423596  0.78842886  1
  Li  Li1  1  0.11501425  0.15576404  0.28842886  1
  Li  Li2  1  0.21432109  0.17695145  0.56925407  1
  Li  Li3  1  0.21432109  0.32304855  0.06925407  1
  Li  Li4  1  0.78567891  0.67695145  0.93074593  1
  Li  Li5  1  0.78567891  0.82304855  0.43074593  1
  Li  Li6  1  0.88498575  0.84423596  0.71157114  1
  Li  Li7  1  0.88498575  0.65576404  0.21157114  1
  Fe  Fe8  1  0.51347090  0.14146876  0.83434629  1
  Fe  Fe9  1  0.48652910  0.64146876  0.66565371  1
  Fe  Fe10  1  0.51347090  0.35853124  0.33434629  1
  Fe  Fe11  1  0.48652910  0.85853124  0.16565371  1
  C  C12  1  0.19067064  0.82258777  0.93702763  1
  C  C13  1  0.19067064  0.67741223  0.43702763  1
  C  C14  1  0.80932936  0.32258777  0.56297237  1
  C  C15  1  0.80932936  0.17741223  0.06297237  1
  O  O16  1  0.05769031  0.70079685  0.86259576  1
  O  O17  1  0.05769031  0.79920315  0.36259576  1
  O  O18  1  0.22253849  0.07718355  0.92500383  1
  O  O19  1  0.22253849  0.42281645  0.42500383  1
  O  O20  1  0.29188320  0.81229055  0.52484699  1
  O  O21  1  0.34524932  0.34126722  0.71413419  1
  O  O22  1  0.29188320  0.68770945  0.02484699  1
  O  O23  1  0.34524932  0.15873278  0.21413419  1
  O  O24  1  0.65475068  0.84126722  0.78586581  1
  O  O25  1  0.70811680  0.31229055  0.97515301  1
  O  O26  1  0.65475068  0.65873278  0.28586581  1
  O  O27  1  0.70811680  0.18770945  0.47515301  1
  O  O28  1  0.77746151  0.57718355  0.57499617  1
  O  O29  1  0.77746151  0.92281645  0.07499617  1
  O  O30  1  0.94230969  0.20079685  0.63740424  1
  O  O31  1  0.94230969  0.29920315  0.13740424  1
