# generated using pymatgen
data_LiCu(PO3)3
_symmetry_space_group_name_H-M   'P 1'
_cell_length_a   7.12124446
_cell_length_b   12.11078570
_cell_length_c   9.05129770
_cell_angle_alpha   90.00000000
_cell_angle_beta   90.00000000
_cell_angle_gamma   90.00000000
_symmetry_Int_Tables_number   1
_chemical_formula_structural   LiCu(PO3)3
_chemical_formula_sum   'Li4 Cu4 P12 O36'
_cell_volume   780.61890209
_cell_formula_units_Z   4
loop_
 _symmetry_equiv_pos_site_id
 _symmetry_equiv_pos_as_xyz
  1  'x, y, z'
loop_
 _atom_site_type_symbol
 _atom_site_label
 _atom_site_symmetry_multiplicity
 _atom_site_fract_x
 _atom_site_fract_y
 _atom_site_fract_z
 _atom_site_occupancy
  Li  Li0  1  0.25000000  0.46227481  0.52990955  1
  Li  Li1  1  0.25000000  0.03772519  0.02990955  1
  Li  Li2  1  0.75000000  0.53772519  0.47009045  1
  Li  Li3  1  0.75000000  0.96227481  0.97009045  1
  Cu  Cu4  1  0.25000000  0.70985642  0.48791097  1
  Cu  Cu5  1  0.25000000  0.79014358  0.98791097  1
  Cu  Cu6  1  0.75000000  0.20985642  0.01208903  1
  Cu  Cu7  1  0.75000000  0.29014358  0.51208903  1
  P  P8  1  0.04024617  0.33916485  0.24372196  1
  P  P9  1  0.04024617  0.16083515  0.74372196  1
  P  P10  1  0.25000000  0.96781279  0.68959297  1
  P  P11  1  0.25000000  0.53218721  0.18959297  1
  P  P12  1  0.45975383  0.16083515  0.74372196  1
  P  P13  1  0.45975383  0.33916485  0.24372196  1
  P  P14  1  0.54024617  0.66083515  0.75627804  1
  P  P15  1  0.54024617  0.83916485  0.25627804  1
  P  P16  1  0.75000000  0.46781279  0.81040703  1
  P  P17  1  0.75000000  0.03218721  0.31040703  1
  P  P18  1  0.95975383  0.66083515  0.75627804  1
  P  P19  1  0.95975383  0.83916485  0.25627804  1
  O  O20  1  0.03645104  0.75014808  0.35299333  1
  O  O21  1  0.03645104  0.74985192  0.85299333  1
  O  O22  1  0.05907455  0.87290294  0.11489870  1
  O  O23  1  0.05907455  0.62709706  0.61489870  1
  O  O24  1  0.07524035  0.05048614  0.64834441  1
  O  O25  1  0.07524035  0.44951386  0.14834441  1
  O  O26  1  0.25000000  0.30100318  0.29357801  1
  O  O27  1  0.25000000  0.87222166  0.58879912  1
  O  O28  1  0.25000000  0.62777834  0.08879912  1
  O  O29  1  0.25000000  0.95495932  0.85513872  1
  O  O30  1  0.25000000  0.19899682  0.79357801  1
  O  O31  1  0.25000000  0.54504068  0.35513872  1
  O  O32  1  0.42475965  0.05048614  0.64834441  1
  O  O33  1  0.42475965  0.44951386  0.14834441  1
  O  O34  1  0.44092545  0.87290294  0.11489870  1
  O  O35  1  0.44092545  0.62709706  0.61489870  1
  O  O36  1  0.46354896  0.75014808  0.35299333  1
  O  O37  1  0.46354896  0.74985192  0.85299333  1
  O  O38  1  0.53645104  0.25014808  0.14700667  1
  O  O39  1  0.53645104  0.24985192  0.64700667  1
  O  O40  1  0.55907455  0.12709706  0.88510130  1
  O  O41  1  0.55907455  0.37290294  0.38510130  1
  O  O42  1  0.57524035  0.55048614  0.85165559  1
  O  O43  1  0.57524035  0.94951386  0.35165559  1
  O  O44  1  0.75000000  0.04504068  0.14486128  1
  O  O45  1  0.75000000  0.12777834  0.41120088  1
  O  O46  1  0.75000000  0.45495932  0.64486128  1
  O  O47  1  0.75000000  0.37222166  0.91120088  1
  O  O48  1  0.75000000  0.69899682  0.70642199  1
  O  O49  1  0.75000000  0.80100318  0.20642199  1
  O  O50  1  0.92475965  0.55048614  0.85165559  1
  O  O51  1  0.92475965  0.94951386  0.35165559  1
  O  O52  1  0.94092545  0.37290294  0.38510130  1
  O  O53  1  0.94092545  0.12709706  0.88510130  1
  O  O54  1  0.96354896  0.24985192  0.64700667  1
  O  O55  1  0.96354896  0.25014808  0.14700667  1
