# generated using pymatgen
data_Li2Cr(SiO3)2
_symmetry_space_group_name_H-M   'P 1'
_cell_length_a   10.28575130
_cell_length_b   10.12839031
_cell_length_c   7.02806618
_cell_angle_alpha   90.00000000
_cell_angle_beta   90.00000000
_cell_angle_gamma   90.00000000
_symmetry_Int_Tables_number   1
_chemical_formula_structural   Li2Cr(SiO3)2
_chemical_formula_sum   'Li12 Cr6 Si12 O36'
_cell_volume   732.17060800
_cell_formula_units_Z   6
loop_
 _symmetry_equiv_pos_site_id
 _symmetry_equiv_pos_as_xyz
  1  'x, y, z'
loop_
 _atom_site_type_symbol
 _atom_site_label
 _atom_site_symmetry_multiplicity
 _atom_site_fract_x
 _atom_site_fract_y
 _atom_site_fract_z
 _atom_site_occupancy
  Li  Li0  1  0.00000000  0.50305607  0.49486130  1
  Li  Li1  1  0.00000000  0.73575401  0.73329161  1
  Li  Li2  1  0.20746429  0.45695298  0.29904751  1
  Li  Li3  1  0.23249581  0.50742152  0.76968064  1
  Li  Li4  1  0.26750419  0.00742152  0.23031936  1
  Li  Li5  1  0.29253571  0.95695298  0.70095249  1
  Li  Li6  1  0.50000000  0.23575401  0.26670839  1
  Li  Li7  1  0.50000000  0.00305607  0.50513870  1
  Li  Li8  1  0.70746429  0.95695298  0.70095249  1
  Li  Li9  1  0.73249581  0.00742152  0.23031936  1
  Li  Li10  1  0.76750419  0.50742152  0.76968064  1
  Li  Li11  1  0.79253571  0.45695298  0.29904751  1
  Cr  Cr12  1  0.00000000  0.99964008  0.98543376  1
  Cr  Cr13  1  0.00000000  0.24444469  0.24844838  1
  Cr  Cr14  1  0.00000000  0.25274688  0.73899708  1
  Cr  Cr15  1  0.50000000  0.49964008  0.01456624  1
  Cr  Cr16  1  0.50000000  0.75274688  0.26100292  1
  Cr  Cr17  1  0.50000000  0.74444469  0.75155162  1
  Si  Si18  1  0.00000000  0.54526690  0.98879922  1
  Si  Si19  1  0.00000000  0.94914402  0.51042551  1
  Si  Si20  1  0.22936783  0.76085720  0.01709923  1
  Si  Si21  1  0.22530429  0.73682458  0.47412010  1
  Si  Si22  1  0.27469571  0.23682458  0.52587990  1
  Si  Si23  1  0.27063217  0.26085720  0.98290077  1
  Si  Si24  1  0.50000000  0.44914402  0.48957449  1
  Si  Si25  1  0.50000000  0.04526690  0.01120078  1
  Si  Si26  1  0.72936783  0.26085720  0.98290077  1
  Si  Si27  1  0.72530329  0.23682458  0.52587990  1
  Si  Si28  1  0.77469671  0.73682458  0.47412010  1
  Si  Si29  1  0.77063217  0.76085720  0.01709923  1
  O  O30  1  0.00000000  0.00003323  0.29337360  1
  O  O31  1  0.00000000  0.48901477  0.20131718  1
  O  O32  1  0.00000000  0.05396095  0.68839633  1
  O  O33  1  0.00000000  0.44712626  0.80575126  1
  O  O34  1  0.12190908  0.84661850  0.56671046  1
  O  O35  1  0.12372056  0.64873934  0.93536177  1
  O  O36  1  0.12747951  0.20283911  0.02988735  1
  O  O37  1  0.13227852  0.28895790  0.45864598  1
  O  O38  1  0.18145406  0.58855048  0.52324556  1
  O  O39  1  0.19469703  0.90846623  0.94473410  1
  O  O40  1  0.21698226  0.76967924  0.24754446  1
  O  O41  1  0.28301774  0.26967924  0.75245554  1
  O  O42  1  0.30530297  0.40846623  0.05526590  1
  O  O43  1  0.31854594  0.08855048  0.47675444  1
  O  O44  1  0.36772148  0.78895790  0.54135402  1
  O  O45  1  0.37252049  0.70283911  0.97011265  1
  O  O46  1  0.37627944  0.14873934  0.06463823  1
  O  O47  1  0.37809092  0.34661850  0.43328954  1
  O  O48  1  0.50000000  0.50003323  0.70662640  1
  O  O49  1  0.50000000  0.55396095  0.31160367  1
  O  O50  1  0.50000000  0.98901477  0.79868282  1
  O  O51  1  0.50000000  0.94712626  0.19424874  1
  O  O52  1  0.62190908  0.34661850  0.43328954  1
  O  O53  1  0.62372056  0.14873934  0.06463823  1
  O  O54  1  0.62747951  0.70283911  0.97011265  1
  O  O55  1  0.63227852  0.78895790  0.54135402  1
  O  O56  1  0.68145406  0.08855048  0.47675444  1
  O  O57  1  0.69469703  0.40846623  0.05526590  1
  O  O58  1  0.71698226  0.26967924  0.75245554  1
  O  O59  1  0.78301774  0.76967924  0.24754446  1
  O  O60  1  0.80530297  0.90846623  0.94473410  1
  O  O61  1  0.81854594  0.58855048  0.52324556  1
  O  O62  1  0.86772148  0.28895790  0.45864598  1
  O  O63  1  0.87252049  0.20283911  0.02988735  1
  O  O64  1  0.87627944  0.64873934  0.93536177  1
  O  O65  1  0.87809092  0.84661850  0.56671046  1
