# generated using pymatgen
data_LiV5O10
_symmetry_space_group_name_H-M   'P 1'
_cell_length_a   5.14822302
_cell_length_b   5.11187735
_cell_length_c   8.14526276
_cell_angle_alpha   112.16278700
_cell_angle_beta   98.13628422
_cell_angle_gamma   101.03187423
_symmetry_Int_Tables_number   1
_chemical_formula_structural   LiV5O10
_chemical_formula_sum   'Li1 V5 O10'
_cell_volume   189.39133103
_cell_formula_units_Z   1
loop_
 _symmetry_equiv_pos_site_id
 _symmetry_equiv_pos_as_xyz
  1  'x, y, z'
loop_
 _atom_site_type_symbol
 _atom_site_label
 _atom_site_symmetry_multiplicity
 _atom_site_fract_x
 _atom_site_fract_y
 _atom_site_fract_z
 _atom_site_occupancy
  Li  Li0  1  0.70575451  0.04753232  0.55165434  1
  V  V1  1  0.10281448  0.71942985  0.68181814  1
  V  V2  1  0.00847386  0.49776271  0.99886450  1
  V  V3  1  0.68448512  0.87220132  0.88680061  1
  V  V4  1  0.34623312  0.11869260  0.14026856  1
  V  V5  1  0.92273350  0.31877375  0.31879996  1
  O  O6  1  0.01937054  0.08079408  0.85001434  1
  O  O7  1  0.08327763  0.30648527  0.51804583  1
  O  O8  1  0.33877598  0.73632658  0.94793210  1
  O  O9  1  0.20555678  0.46085773  0.21456175  1
  O  O10  1  0.46652496  0.87775058  0.69203746  1
  O  O11  1  0.54740780  0.12721860  0.33073721  1
  O  O12  1  0.81322126  0.53170829  0.77827184  1
  O  O13  1  0.67610703  0.26887977  0.06719759  1
  O  O14  1  0.90075342  0.70672299  0.47857546  1
  O  O15  1  0.96515799  0.91647455  0.12649431  1
