# generated using pymatgen
data_Li2Mn2P2O9
_symmetry_space_group_name_H-M   'P 1'
_cell_length_a   8.43213156
_cell_length_b   5.63647614
_cell_length_c   15.34502381
_cell_angle_alpha   90.00000000
_cell_angle_beta   90.00000000
_cell_angle_gamma   90.00000000
_symmetry_Int_Tables_number   1
_chemical_formula_structural   Li2Mn2P2O9
_chemical_formula_sum   'Li8 Mn8 P8 O36'
_cell_volume   729.31074722
_cell_formula_units_Z   4
loop_
 _symmetry_equiv_pos_site_id
 _symmetry_equiv_pos_as_xyz
  1  'x, y, z'
loop_
 _atom_site_type_symbol
 _atom_site_label
 _atom_site_symmetry_multiplicity
 _atom_site_fract_x
 _atom_site_fract_y
 _atom_site_fract_z
 _atom_site_occupancy
  Li  Li0  1  0.03798218  0.25000000  0.75988423  1
  Li  Li1  1  0.18906775  0.25000000  0.13496866  1
  Li  Li2  1  0.31093225  0.75000000  0.63496866  1
  Li  Li3  1  0.46201782  0.75000000  0.25988423  1
  Li  Li4  1  0.53798218  0.25000000  0.74011577  1
  Li  Li5  1  0.68906775  0.25000000  0.36503134  1
  Li  Li6  1  0.81093225  0.75000000  0.86503134  1
  Li  Li7  1  0.96201782  0.75000000  0.24011577  1
  Mn  Mn8  1  0.00000000  0.50000000  0.50000000  1
  Mn  Mn9  1  0.00000000  0.00000000  0.50000000  1
  Mn  Mn10  1  0.20480713  0.25000000  0.93247214  1
  Mn  Mn11  1  0.29519287  0.75000000  0.43247214  1
  Mn  Mn12  1  0.50000000  0.00000000  0.00000000  1
  Mn  Mn13  1  0.50000000  0.50000000  0.00000000  1
  Mn  Mn14  1  0.70480713  0.25000000  0.56752786  1
  Mn  Mn15  1  0.79519287  0.75000000  0.06752786  1
  P  P16  1  0.17305209  0.75000000  0.08183552  1
  P  P17  1  0.20201741  0.25000000  0.33585313  1
  P  P18  1  0.29798259  0.75000000  0.83585313  1
  P  P19  1  0.32694791  0.25000000  0.58183552  1
  P  P20  1  0.67305209  0.75000000  0.41816448  1
  P  P21  1  0.70201741  0.25000000  0.16414687  1
  P  P22  1  0.79798259  0.75000000  0.66414687  1
  P  P23  1  0.82694791  0.25000000  0.91816448  1
  O  O24  1  0.99084027  0.25000000  0.96379609  1
  O  O25  1  0.06725957  0.25000000  0.41126346  1
  O  O26  1  0.06813480  0.75000000  0.42711648  1
  O  O27  1  0.11680586  0.25000000  0.24971605  1
  O  O28  1  0.16463415  0.75000000  0.18015352  1
  O  O29  1  0.19401796  0.52415450  0.84936477  1
  O  O30  1  0.19401796  0.97584550  0.84936477  1
  O  O31  1  0.23989227  0.01680605  0.54948409  1
  O  O32  1  0.23989227  0.48319395  0.54948409  1
  O  O33  1  0.26010773  0.51680605  0.04948409  1
  O  O34  1  0.26010773  0.98319395  0.04948409  1
  O  O35  1  0.30598204  0.02415450  0.34936477  1
  O  O36  1  0.30598204  0.47584550  0.34936477  1
  O  O37  1  0.33536585  0.25000000  0.68015352  1
  O  O38  1  0.38319414  0.75000000  0.74971605  1
  O  O39  1  0.43186520  0.25000000  0.92711648  1
  O  O40  1  0.43274043  0.75000000  0.91126346  1
  O  O41  1  0.50915973  0.75000000  0.46379609  1
  O  O42  1  0.49084027  0.25000000  0.53620391  1
  O  O43  1  0.56725957  0.25000000  0.08873654  1
  O  O44  1  0.56813480  0.75000000  0.07288352  1
  O  O45  1  0.61680586  0.25000000  0.25028395  1
  O  O46  1  0.66463415  0.75000000  0.31984648  1
  O  O47  1  0.69401796  0.52415450  0.65063523  1
  O  O48  1  0.69401796  0.97584550  0.65063523  1
  O  O49  1  0.73989227  0.01680605  0.95051591  1
  O  O50  1  0.73989227  0.48319395  0.95051591  1
  O  O51  1  0.76010773  0.51680605  0.45051591  1
  O  O52  1  0.76010773  0.98319395  0.45051591  1
  O  O53  1  0.80598204  0.02415450  0.15063523  1
  O  O54  1  0.80598204  0.47584550  0.15063523  1
  O  O55  1  0.83536585  0.25000000  0.81984648  1
  O  O56  1  0.88319414  0.75000000  0.75028395  1
  O  O57  1  0.93186520  0.25000000  0.57288352  1
  O  O58  1  0.93274043  0.75000000  0.58873654  1
  O  O59  1  0.00915973  0.75000000  0.03620391  1
