# generated using pymatgen
data_Na3Li4Mn5O9
_symmetry_space_group_name_H-M   'P 1'
_cell_length_a   8.97702440
_cell_length_b   5.90071019
_cell_length_c   5.96493742
_cell_angle_alpha   119.45981740
_cell_angle_beta   82.72733430
_cell_angle_gamma   84.79421901
_symmetry_Int_Tables_number   1
_chemical_formula_structural   Na3Li4Mn5O9
_chemical_formula_sum   'Na3 Li4 Mn5 O9'
_cell_volume   268.58439455
_cell_formula_units_Z   1
loop_
 _symmetry_equiv_pos_site_id
 _symmetry_equiv_pos_as_xyz
  1  'x, y, z'
loop_
 _atom_site_type_symbol
 _atom_site_label
 _atom_site_symmetry_multiplicity
 _atom_site_fract_x
 _atom_site_fract_y
 _atom_site_fract_z
 _atom_site_occupancy
  Na  Na0  1  0.48927510  0.83200121  0.14649190  1
  Na  Na1  1  0.49215204  0.14294304  0.83048402  1
  Na  Na2  1  0.48638276  0.53162084  0.53372350  1
  Li  Li3  1  0.05298241  0.26818776  0.31498685  1
  Li  Li4  1  0.06468455  0.71127343  0.97590066  1
  Li  Li5  1  0.04647442  0.94313676  0.64627035  1
  Li  Li6  1  0.95163870  0.36025154  0.01730858  1
  Mn  Mn7  1  0.24257349  0.56767741  0.24344548  1
  Mn  Mn8  1  0.24448608  0.24217449  0.59559195  1
  Mn  Mn9  1  0.75949604  0.07819072  0.08722765  1
  Mn  Mn10  1  0.77349631  0.41882337  0.72787495  1
  Mn  Mn11  1  0.77319349  0.76901130  0.42464967  1
  O  O12  1  0.00947905  0.64866044  0.30948704  1
  O  O13  1  0.01022688  0.32951172  0.68069328  1
  O  O14  1  0.30903510  0.26464386  0.28042549  1
  O  O15  1  0.31004252  0.87893518  0.51238121  1
  O  O16  1  0.31303369  0.52217093  0.89612189  1
  O  O17  1  0.67078275  0.12022886  0.45446815  1
  O  O18  1  0.70576815  0.45036392  0.10069499  1
  O  O19  1  0.67028632  0.78117217  0.77396341  1
  O  O20  1  0.98736415  0.03194005  0.00295498  1
