# generated using pymatgen
data_Li4TiO4
_symmetry_space_group_name_H-M   'P 1'
_cell_length_a   9.20675571
_cell_length_b   9.54164582
_cell_length_c   9.31037710
_cell_angle_alpha   90.00000000
_cell_angle_beta   90.64750512
_cell_angle_gamma   90.00000000
_symmetry_Int_Tables_number   1
_chemical_formula_structural   Li4TiO4
_chemical_formula_sum   'Li32 Ti8 O32'
_cell_volume   817.84207573
_cell_formula_units_Z   8
loop_
 _symmetry_equiv_pos_site_id
 _symmetry_equiv_pos_as_xyz
  1  'x, y, z'
loop_
 _atom_site_type_symbol
 _atom_site_label
 _atom_site_symmetry_multiplicity
 _atom_site_fract_x
 _atom_site_fract_y
 _atom_site_fract_z
 _atom_site_occupancy
  Li  Li0  1  0.15715937  0.11071475  0.39115051  1
  Li  Li1  1  0.15715937  0.38928525  0.89115051  1
  Li  Li2  1  0.21107233  0.85227827  0.91882548  1
  Li  Li3  1  0.21107233  0.64772173  0.41882548  1
  Li  Li4  1  0.36605603  0.36118178  0.09645164  1
  Li  Li5  1  0.36605603  0.13881822  0.59645164  1
  Li  Li6  1  0.35196395  0.13134534  0.85394729  1
  Li  Li7  1  0.35196395  0.36865466  0.35394729  1
  Li  Li8  1  0.35420060  0.89901275  0.32067618  1
  Li  Li9  1  0.35420060  0.60098725  0.82067618  1
  Li  Li10  1  0.40304238  0.10700141  0.12721917  1
  Li  Li11  1  0.40304238  0.39299859  0.62721917  1
  Li  Li12  1  0.55182443  0.60938707  0.38163035  1
  Li  Li13  1  0.55182443  0.89061293  0.88163035  1
  Li  Li14  1  0.64465715  0.08972606  0.68152643  1
  Li  Li15  1  0.64465715  0.41027394  0.18152643  1
  Li  Li16  1  0.63058061  0.64987640  0.63371764  1
  Li  Li17  1  0.63058061  0.85012360  0.13371764  1
  Li  Li18  1  0.64273697  0.62705265  0.90574822  1
  Li  Li19  1  0.64273697  0.87294735  0.40574822  1
  Li  Li20  1  0.66415787  0.11680468  0.10295410  1
  Li  Li21  1  0.66415787  0.38319532  0.60295410  1
  Li  Li22  1  0.90712374  0.60532485  0.08031323  1
  Li  Li23  1  0.90712374  0.89467515  0.58031323  1
  Li  Li24  1  0.86980198  0.37073153  0.39907275  1
  Li  Li25  1  0.86980198  0.12926847  0.89907275  1
  Li  Li26  1  0.89775491  0.15042818  0.63846619  1
  Li  Li27  1  0.89775491  0.34957182  0.13846619  1
  Li  Li28  1  0.94566489  0.63390135  0.68186788  1
  Li  Li29  1  0.94566489  0.86609865  0.18186788  1
  Li  Li30  1  0.90011075  0.12034840  0.35964297  1
  Li  Li31  1  0.90011075  0.37965160  0.85964297  1
  Ti  Ti32  1  0.12806277  0.13990012  0.10615244  1
  Ti  Ti33  1  0.12806277  0.36009988  0.60615244  1
  Ti  Ti34  1  0.37827603  0.62825970  0.11953152  1
  Ti  Ti35  1  0.37827603  0.87174030  0.61953152  1
  Ti  Ti36  1  0.62067837  0.14748587  0.38405287  1
  Ti  Ti37  1  0.62067837  0.35251413  0.88405287  1
  Ti  Ti38  1  0.85473019  0.63686296  0.38048183  1
  Ti  Ti39  1  0.85473019  0.86313704  0.88048183  1
  O  O40  1  0.00763386  0.24077433  0.49560130  1
  O  O41  1  0.00763386  0.25922567  0.99560130  1
  O  O42  1  0.02378513  0.04021332  0.23489061  1
  O  O43  1  0.02378513  0.45978668  0.73489061  1
  O  O44  1  0.25379204  0.03460331  0.00123413  1
  O  O45  1  0.25379204  0.46539669  0.50123413  1
  O  O46  1  0.26296829  0.23048813  0.22018272  1
  O  O47  1  0.26296829  0.26951187  0.72018272  1
  O  O48  1  0.28063791  0.73375618  0.24443374  1
  O  O49  1  0.28063791  0.76624382  0.74443374  1
  O  O50  1  0.28152676  0.51344726  0.99164649  1
  O  O51  1  0.28152676  0.98655274  0.49164749  1
  O  O52  1  0.47389538  0.49145421  0.23109031  1
  O  O53  1  0.47389538  0.00854579  0.73109031  1
  O  O54  1  0.50567961  0.76446370  0.50963274  1
  O  O55  1  0.50567961  0.73553630  0.00963274  1
  O  O56  1  0.51386433  0.24147858  0.00342828  1
  O  O57  1  0.51386433  0.25852142  0.50342828  1
  O  O58  1  0.53816386  0.01739268  0.26066606  1
  O  O59  1  0.53816386  0.48260732  0.76066606  1
  O  O60  1  0.74664934  0.04548622  0.49591350  1
  O  O61  1  0.74664934  0.45451378  0.99591350  1
  O  O62  1  0.74497388  0.24608645  0.26829950  1
  O  O63  1  0.74497388  0.25391355  0.76829950  1
  O  O64  1  0.75363517  0.76561226  0.27343854  1
  O  O65  1  0.75363517  0.73438774  0.77343854  1
  O  O66  1  0.72998883  0.52768609  0.48782215  1
  O  O67  1  0.72998883  0.97231391  0.98782215  1
  O  O68  1  0.93095779  0.50643695  0.25898758  1
  O  O69  1  0.93095779  0.99356305  0.75898758  1
  O  O70  1  0.97919150  0.77368180  0.00277865  1
  O  O71  1  0.97919150  0.72631820  0.50277865  1
