# generated using pymatgen
data_LiSb(PO3)4
_symmetry_space_group_name_H-M   'P 1'
_cell_length_a   10.08406720
_cell_length_b   9.28542375
_cell_length_c   10.70068637
_cell_angle_alpha   90.00000000
_cell_angle_beta   73.37514962
_cell_angle_gamma   90.00000000
_symmetry_Int_Tables_number   1
_chemical_formula_structural   LiSb(PO3)4
_chemical_formula_sum   'Li4 Sb4 P16 O48'
_cell_volume   960.07379393
_cell_formula_units_Z   4
loop_
 _symmetry_equiv_pos_site_id
 _symmetry_equiv_pos_as_xyz
  1  'x, y, z'
loop_
 _atom_site_type_symbol
 _atom_site_label
 _atom_site_symmetry_multiplicity
 _atom_site_fract_x
 _atom_site_fract_y
 _atom_site_fract_z
 _atom_site_occupancy
  Li  Li0  1  0.22327565  0.18056838  0.01801261  1
  Li  Li1  1  0.27672435  0.68056838  0.48198739  1
  Li  Li2  1  0.72327565  0.31943162  0.51801261  1
  Li  Li3  1  0.77672435  0.81943162  0.98198739  1
  Sb  Sb4  1  0.04739251  0.40712491  0.75375724  1
  Sb  Sb5  1  0.54739251  0.09287509  0.25375724  1
  Sb  Sb6  1  0.45260749  0.90712491  0.74624276  1
  Sb  Sb7  1  0.95260749  0.59287509  0.24624276  1
  P  P8  1  0.17946092  0.81716108  0.04967137  1
  P  P9  1  0.00812609  0.87616406  0.70089335  1
  P  P10  1  0.26758156  0.99417395  0.23872860  1
  P  P11  1  0.23241844  0.49417395  0.26127140  1
  P  P12  1  0.22997379  0.11681621  0.66070015  1
  P  P13  1  0.27002621  0.61681621  0.83929985  1
  P  P14  1  0.32053908  0.31716108  0.45032863  1
  P  P15  1  0.50812609  0.62383594  0.20089335  1
  P  P16  1  0.49187391  0.37616406  0.79910665  1
  P  P17  1  0.67946092  0.68283892  0.54967137  1
  P  P18  1  0.72997379  0.38318379  0.16070015  1
  P  P19  1  0.77002621  0.88318379  0.33929985  1
  P  P20  1  0.76758156  0.50582605  0.73872860  1
  P  P21  1  0.73241844  0.00582605  0.76127140  1
  P  P22  1  0.99187391  0.12383594  0.29910665  1
  P  P23  1  0.82053908  0.18283892  0.95032863  1
  O  O24  1  0.03913110  0.73967881  0.10068125  1
  O  O25  1  0.04408446  0.17736166  0.16355546  1
  O  O26  1  0.12125318  0.03687512  0.33402287  1
  O  O27  1  0.23864853  0.84150640  0.17317482  1
  O  O28  1  0.14082515  0.46263551  0.17151593  1
  O  O29  1  0.08269123  0.78817591  0.58619429  1
  O  O30  1  0.09683659  0.02506848  0.70565109  1
  O  O31  1  0.16615535  0.59962962  0.36614429  1
  O  O32  1  0.33384465  0.09962962  0.13385571  1
  O  O33  1  0.21758546  0.19010836  0.52719322  1
  O  O34  1  0.35917485  0.96263551  0.32848407  1
  O  O35  1  0.13904900  0.52214335  0.87259251  1
  O  O36  1  0.26135147  0.34150640  0.32682518  1
  O  O37  1  0.18782632  0.94746406  0.96791569  1
  O  O38  1  0.37874682  0.53687512  0.16597713  1
  O  O39  1  0.27742795  0.73561594  0.74172320  1
  O  O40  1  0.22257205  0.23561594  0.75827680  1
  O  O41  1  0.31217368  0.44746406  0.53208431  1
  O  O42  1  0.36095100  0.02214335  0.62740749  1
  O  O43  1  0.28241454  0.69010836  0.97280678  1
  O  O44  1  0.45591554  0.67736166  0.33644454  1
  O  O45  1  0.46086890  0.23967881  0.39931875  1
  O  O46  1  0.58269123  0.71182409  0.08619429  1
  O  O47  1  0.40316341  0.52506848  0.79434891  1
  O  O48  1  0.59683659  0.47493152  0.20565109  1
  O  O49  1  0.41730877  0.28817591  0.91380571  1
  O  O50  1  0.53913110  0.76032119  0.60068125  1
  O  O51  1  0.54408446  0.32263834  0.66355546  1
  O  O52  1  0.71758546  0.30989164  0.02719322  1
  O  O53  1  0.63904900  0.97785665  0.37259251  1
  O  O54  1  0.68782632  0.55253594  0.46791569  1
  O  O55  1  0.77742795  0.76438406  0.24172320  1
  O  O56  1  0.72257205  0.26438406  0.25827680  1
  O  O57  1  0.62125318  0.46312488  0.83402287  1
  O  O58  1  0.81217368  0.05253594  0.03208431  1
  O  O59  1  0.73864853  0.65849360  0.67317482  1
  O  O60  1  0.86095100  0.47785665  0.12740749  1
  O  O61  1  0.64082515  0.03736449  0.67151593  1
  O  O62  1  0.78241454  0.80989164  0.47280678  1
  O  O63  1  0.66615535  0.90037038  0.86614429  1
  O  O64  1  0.83384465  0.40037038  0.63385571  1
  O  O65  1  0.90316341  0.97493152  0.29434891  1
  O  O66  1  0.91730877  0.21182409  0.41380571  1
  O  O67  1  0.85917485  0.53736449  0.82848407  1
  O  O68  1  0.76135147  0.15849360  0.82682518  1
  O  O69  1  0.87874682  0.96312488  0.66597713  1
  O  O70  1  0.95591554  0.82263834  0.83644454  1
  O  O71  1  0.96086890  0.26032119  0.89931875  1
