# generated using pymatgen
data_NaMn(HO)3
_symmetry_space_group_name_H-M   'P 1'
_cell_length_a   11.51348224
_cell_length_b   11.51348224
_cell_length_c   6.05686358
_cell_angle_alpha   90.00000000
_cell_angle_beta   90.00000000
_cell_angle_gamma   90.00000000
_symmetry_Int_Tables_number   1
_chemical_formula_structural   NaMn(HO)3
_chemical_formula_sum   'Na8 Mn8 H24 O24'
_cell_volume   802.89949145
_cell_formula_units_Z   8
loop_
 _symmetry_equiv_pos_site_id
 _symmetry_equiv_pos_as_xyz
  1  'x, y, z'
loop_
 _atom_site_type_symbol
 _atom_site_label
 _atom_site_symmetry_multiplicity
 _atom_site_fract_x
 _atom_site_fract_y
 _atom_site_fract_z
 _atom_site_occupancy
  Na  Na0  1  0.06382929  0.11759009  0.55510928  1
  Na  Na1  1  0.11759009  0.93617071  0.05510928  1
  Na  Na2  1  0.38240991  0.43617071  0.05510928  1
  Na  Na3  1  0.43617071  0.61759009  0.55510928  1
  Na  Na4  1  0.56382929  0.38240991  0.55510928  1
  Na  Na5  1  0.61759009  0.56382929  0.05510928  1
  Na  Na6  1  0.88240991  0.06382929  0.05510928  1
  Na  Na7  1  0.93617071  0.88240991  0.55510928  1
  Mn  Mn8  1  0.07112117  0.28962984  0.02570530  1
  Mn  Mn9  1  0.21037016  0.42887883  0.52570530  1
  Mn  Mn10  1  0.28962984  0.92887883  0.52570530  1
  Mn  Mn11  1  0.42887883  0.78962984  0.02570530  1
  Mn  Mn12  1  0.57112117  0.21037016  0.02570530  1
  Mn  Mn13  1  0.71037016  0.07112117  0.52570530  1
  Mn  Mn14  1  0.78962984  0.57112117  0.52570530  1
  Mn  Mn15  1  0.92887883  0.71037016  0.02570530  1
  H  H16  1  0.78537389  0.75810551  0.70062759  1
  H  H17  1  0.15224897  0.62335703  0.34640737  1
  H  H18  1  0.12313035  0.83868120  0.73607242  1
  H  H19  1  0.74189449  0.71462611  0.20062759  1
  H  H20  1  0.12335703  0.65224897  0.84640737  1
  H  H21  1  0.16131880  0.12313035  0.23607242  1
  H  H22  1  0.33868120  0.62313035  0.23607242  1
  H  H23  1  0.37664297  0.15224897  0.84640737  1
  H  H24  1  0.75810551  0.21462611  0.20062759  1
  H  H25  1  0.37686965  0.33868120  0.73607242  1
  H  H26  1  0.34775103  0.12335703  0.34640737  1
  H  H27  1  0.71462611  0.25810551  0.70062759  1
  H  H28  1  0.28537389  0.74189449  0.70062759  1
  H  H29  1  0.65224897  0.87664297  0.34640737  1
  H  H30  1  0.62313035  0.66131880  0.73607242  1
  H  H31  1  0.24189449  0.78537389  0.20062759  1
  H  H32  1  0.62335703  0.84775103  0.84640737  1
  H  H33  1  0.66131880  0.37686965  0.23607242  1
  H  H34  1  0.83868120  0.87686965  0.23607242  1
  H  H35  1  0.87664297  0.34775103  0.84640737  1
  H  H36  1  0.25810551  0.28537389  0.20062759  1
  H  H37  1  0.87686965  0.16131880  0.73607242  1
  H  H38  1  0.84775103  0.37664297  0.34640737  1
  H  H39  1  0.21462611  0.24189449  0.70062759  1
  O  O40  1  0.28767547  0.85772045  0.20350008  1
  O  O41  1  0.08359753  0.12444692  0.16769848  1
  O  O42  1  0.10174696  0.70863741  0.95903848  1
  O  O43  1  0.12444692  0.91640247  0.66769848  1
  O  O44  1  0.64227955  0.21232453  0.70350008  1
  O  O45  1  0.20863741  0.60174696  0.45903848  1
  O  O46  1  0.29136259  0.10174696  0.45903848  1
  O  O47  1  0.85772045  0.71232453  0.70350008  1
  O  O48  1  0.37555308  0.41640247  0.66769848  1
  O  O49  1  0.39825304  0.20863741  0.95903848  1
  O  O50  1  0.41640247  0.62444692  0.16769848  1
  O  O51  1  0.21232453  0.35772045  0.20350008  1
  O  O52  1  0.78767547  0.64227955  0.20350008  1
  O  O53  1  0.58359753  0.37555308  0.16769848  1
  O  O54  1  0.60174696  0.79136259  0.95903848  1
  O  O55  1  0.62444692  0.58359753  0.66769848  1
  O  O56  1  0.14227955  0.28767547  0.70350008  1
  O  O57  1  0.70863741  0.89825304  0.45903848  1
  O  O58  1  0.79136259  0.39825304  0.45903848  1
  O  O59  1  0.35772045  0.78767547  0.70350008  1
  O  O60  1  0.87555308  0.08359753  0.66769848  1
  O  O61  1  0.89825304  0.29136259  0.95903848  1
  O  O62  1  0.91640247  0.87555308  0.16769848  1
  O  O63  1  0.71232453  0.14227955  0.20350008  1
