# generated using pymatgen
data_Li2Cr3O6
_symmetry_space_group_name_H-M   'P 1'
_cell_length_a   5.35886766
_cell_length_b   5.35863873
_cell_length_c   8.80075988
_cell_angle_alpha   99.67014205
_cell_angle_beta   80.32893464
_cell_angle_gamma   63.36892432
_symmetry_Int_Tables_number   1
_chemical_formula_structural   Li2Cr3O6
_chemical_formula_sum   'Li4 Cr6 O12'
_cell_volume   214.04793827
_cell_formula_units_Z   2
loop_
 _symmetry_equiv_pos_site_id
 _symmetry_equiv_pos_as_xyz
  1  'x, y, z'
loop_
 _atom_site_type_symbol
 _atom_site_label
 _atom_site_symmetry_multiplicity
 _atom_site_fract_x
 _atom_site_fract_y
 _atom_site_fract_z
 _atom_site_occupancy
  Li  Li0  1  0.16983368  0.83013173  0.66032448  1
  Li  Li1  1  0.83016071  0.16981473  0.33963701  1
  Li  Li2  1  0.58017629  0.91986134  0.83967353  1
  Li  Li3  1  0.91983908  0.58019159  0.16036292  1
  Cr  Cr4  1  0.00000328  -0.00020769  -0.00019991  1
  Cr  Cr5  1  0.08521016  0.41477777  0.82958544  1
  Cr  Cr6  1  0.41479376  0.08519518  0.17038780  1
  Cr  Cr7  1  0.33520099  0.66480723  0.32962009  1
  Cr  Cr8  1  0.66479733  0.33521789  0.67041640  1
  Cr  Cr9  1  0.74997169  0.75019792  0.50018775  1
  O  O10  1  0.21747176  0.21748725  0.00000240  1
  O  O11  1  0.10057630  0.45802277  0.33175405  1
  O  O12  1  0.18230224  0.87628300  0.16826411  1
  O  O13  1  0.45804312  0.10055276  0.66825427  1
  O  O14  1  0.29194809  0.64943957  0.83174782  1
  O  O15  1  0.64941399  0.29196988  0.16824441  1
  O  O16  1  0.53252058  0.53250268  0.49999946  1
  O  O17  1  0.56771680  0.87372740  0.33173779  1
  O  O18  1  0.78249887  0.78248424  0.00000303  1
  O  O19  1  0.87631704  0.18225970  0.83172688  1
  O  O20  1  0.87369593  0.56775738  0.66827240  1
  O  O21  1  0.96750830  0.96752568  0.49999787  1
