# generated using pymatgen
data_Li4Ti3(FeO4)3
_symmetry_space_group_name_H-M   'P 1'
_cell_length_a   6.01384959
_cell_length_b   6.04490544
_cell_length_c   6.70375326
_cell_angle_alpha   103.35015974
_cell_angle_beta   102.47564529
_cell_angle_gamma   91.10120032
_symmetry_Int_Tables_number   1
_chemical_formula_structural   Li4Ti3(FeO4)3
_chemical_formula_sum   'Li4 Ti3 Fe3 O12'
_cell_volume   230.90495935
_cell_formula_units_Z   1
loop_
 _symmetry_equiv_pos_site_id
 _symmetry_equiv_pos_as_xyz
  1  'x, y, z'
loop_
 _atom_site_type_symbol
 _atom_site_label
 _atom_site_symmetry_multiplicity
 _atom_site_fract_x
 _atom_site_fract_y
 _atom_site_fract_z
 _atom_site_occupancy
  Li  Li0  1  0.83333300  0.33333300  0.33333300  1
  Li  Li1  1  0.50721634  0.99861328  0.99855690  1
  Li  Li2  1  0.33333300  0.33333300  0.33333300  1
  Li  Li3  1  0.15945066  0.66805372  0.66811010  1
  Ti  Ti4  1  0.16140520  0.15931887  0.68581214  1
  Ti  Ti5  1  0.83333300  0.83333300  0.33333300  1
  Ti  Ti6  1  0.50526080  0.50734713  0.98085386  1
  Fe  Fe7  1  0.66952488  0.15679571  0.67102053  1
  Fe  Fe8  1  0.33333300  0.83333300  0.33333300  1
  Fe  Fe9  1  0.99714212  0.50987129  0.99564647  1
  O  O10  1  0.73286647  0.28232332  0.99501671  1
  O  O11  1  0.26243956  0.26802061  0.98665576  1
  O  O12  1  0.93379953  0.38434368  0.67164929  1
  O  O13  1  0.59374572  0.06364919  0.34004732  1
  O  O14  1  0.40422744  0.39864639  0.68001124  1
  O  O15  1  0.08496849  0.06645935  0.35563455  1
  O  O16  1  0.92303573  0.92482073  0.64316615  1
  O  O17  1  0.58169851  0.60020765  0.31103245  1
  O  O18  1  0.39806617  0.93843287  0.65588149  1
  O  O19  1  0.07292128  0.60301781  0.32661868  1
  O  O20  1  0.74363027  0.74184627  0.02349985  1
  O  O21  1  0.26859983  0.72823413  0.01078551  1
