# generated using pymatgen
data_Li5Ni9O16
_symmetry_space_group_name_H-M   'P 1'
_cell_length_a   4.97177020
_cell_length_b   11.27573384
_cell_length_c   10.33402592
_cell_angle_alpha   99.42863998
_cell_angle_beta   77.39486837
_cell_angle_gamma   80.10967852
_symmetry_Int_Tables_number   1
_chemical_formula_structural   Li5Ni9O16
_chemical_formula_sum   'Li10 Ni18 O32'
_cell_volume   544.61723380
_cell_formula_units_Z   2
loop_
 _symmetry_equiv_pos_site_id
 _symmetry_equiv_pos_as_xyz
  1  'x, y, z'
loop_
 _atom_site_type_symbol
 _atom_site_label
 _atom_site_symmetry_multiplicity
 _atom_site_fract_x
 _atom_site_fract_y
 _atom_site_fract_z
 _atom_site_occupancy
  Li  Li0  1  0.94135248  0.05783798  0.75865607  1
  Li  Li1  1  0.47778715  0.50227980  0.00452840  1
  Li  Li2  1  0.87701471  0.12392487  0.49666927  1
  Li  Li3  1  0.69061138  0.31196369  0.74915174  1
  Li  Li4  1  0.62188862  0.37553631  0.50084826  1
  Li  Li5  1  0.43548529  0.56357513  0.75333073  1
  Li  Li6  1  0.83471285  0.18522020  0.24547160  1
  Li  Li7  1  0.37114752  0.62966202  0.49134393  1
  Li  Li8  1  0.19311997  0.81989015  0.74772458  1
  Li  Li9  1  0.11938003  0.86760985  0.50227542  1
  Ni  Ni10  1  0.84992994  0.65036462  0.86835798  1
  Ni  Ni11  1  0.61063045  0.90478722  0.87977103  1
  Ni  Ni12  1  0.96031919  0.53318015  0.37882499  1
  Ni  Ni13  1  0.77716564  0.71722949  0.62539326  1
  Ni  Ni14  1  0.88941328  0.59468757  0.12618582  1
  Ni  Ni15  1  0.53533436  0.97027051  0.62460674  1
  Ni  Ni16  1  0.70186955  0.78271278  0.37022897  1
  Ni  Ni17  1  0.75316833  0.24959936  0.00443573  1
  Ni  Ni18  1  0.55933167  0.43790064  0.24556427  1
  Ni  Ni19  1  0.35218081  0.15431985  0.87117501  1
  Ni  Ni20  1  0.09141547  0.40463664  0.88436035  1
  Ni  Ni21  1  0.46257006  0.03713538  0.38164202  1
  Ni  Ni22  1  0.28057770  0.22174277  0.62697089  1
  Ni  Ni23  1  0.23752462  0.75431412  0.00839068  1
  Ni  Ni24  1  0.07497538  0.93318588  0.24160932  1
  Ni  Ni25  1  0.42308672  0.09281243  0.12381418  1
  Ni  Ni26  1  0.03192230  0.46575723  0.62302911  1
  Ni  Ni27  1  0.22108453  0.28286336  0.36563965  1
  O  O28  1  0.94053632  0.79957446  0.91361370  1
  O  O29  1  0.84804069  0.89223051  0.68334349  1
  O  O30  1  0.78871421  0.48924819  0.80173228  1
  O  O31  1  0.97953746  0.30373816  0.56963214  1
  O  O32  1  0.98900481  0.76665343  0.19044766  1
  O  O33  1  0.75929636  0.95903682  0.44501591  1
  O  O34  1  0.73627644  0.53944315  0.55709983  1
  O  O35  1  0.55320364  0.72846318  0.80498409  1
  O  O36  1  0.88149476  0.37861473  0.32559731  1
  O  O37  1  0.65052263  0.08341955  0.93236905  1
  O  O38  1  0.30814173  0.99271000  0.80058603  1
  O  O39  1  0.46445931  0.79526949  0.56665651  1
  O  O40  1  0.66197737  0.60408045  0.31763095  1
  O  O41  1  0.79746627  0.42539222  0.06077914  1
  O  O42  1  0.43100524  0.30888527  0.92440269  1
  O  O43  1  0.57622356  0.14805685  0.69290017  1
  O  O44  1  0.60486015  0.66270140  0.03135775  1
  O  O45  1  0.37196368  0.88792554  0.33638630  1
  O  O46  1  0.70763985  0.02479860  0.21864225  1
  O  O47  1  0.14951213  0.57986165  0.93561753  1
  O  O48  1  0.33296254  0.38376184  0.68036786  1
  O  O49  1  0.52378579  0.19825181  0.44826772  1
  O  O50  1  0.51503373  0.26210778  0.18922086  1
  O  O51  1  0.32349519  0.92084657  0.05955234  1
  O  O52  1  0.26692997  0.45789061  0.44138553  1
  O  O53  1  0.08682881  0.62510761  0.68646191  1
  O  O54  1  0.22567119  0.06239239  0.56353809  1
  O  O55  1  0.04557003  0.22960939  0.80861447  1
  O  O56  1  0.19801605  0.52661700  0.21230539  1
  O  O57  1  0.00435827  0.69479000  0.44941397  1
  O  O58  1  0.16298787  0.10763835  0.31438247  1
  O  O59  1  0.11448395  0.16088300  0.03769461  1
