# generated using pymatgen
data_Li6VNi3(PO4)6
_symmetry_space_group_name_H-M   'P 1'
_cell_length_a   8.61594675
_cell_length_b   8.66542763
_cell_length_c   8.67128886
_cell_angle_alpha   60.82254272
_cell_angle_beta   60.61360974
_cell_angle_gamma   60.98532853
_symmetry_Int_Tables_number   1
_chemical_formula_structural   Li6VNi3(PO4)6
_chemical_formula_sum   'Li6 V1 Ni3 P6 O24'
_cell_volume   466.10936159
_cell_formula_units_Z   1
loop_
 _symmetry_equiv_pos_site_id
 _symmetry_equiv_pos_as_xyz
  1  'x, y, z'
loop_
 _atom_site_type_symbol
 _atom_site_label
 _atom_site_symmetry_multiplicity
 _atom_site_fract_x
 _atom_site_fract_y
 _atom_site_fract_z
 _atom_site_occupancy
  Li  Li0  1  0.02846963  0.01888676  0.00578059  1
  Li  Li1  1  0.74755745  0.15818553  0.35172348  1
  Li  Li2  1  0.47907091  0.50391676  0.48947596  1
  Li  Li3  1  0.29729007  0.85121785  0.64144042  1
  Li  Li4  1  0.64592684  0.30215746  0.84427956  1
  Li  Li5  1  0.84831927  0.64374770  0.29894706  1
  V  V6  1  0.85105724  0.85046442  0.85291820  1
  Ni  Ni7  1  0.14296350  0.14669535  0.14175564  1
  Ni  Ni8  1  0.35737919  0.36155991  0.35394213  1
  Ni  Ni9  1  0.64493038  0.64776643  0.64653459  1
  P  P10  1  0.04530981  0.74868626  0.44941693  1
  P  P11  1  0.45149165  0.04402320  0.74730061  1
  P  P12  1  0.74818405  0.45170515  0.04207431  1
  P  P13  1  0.24226657  0.54461715  0.95842889  1
  P  P14  1  0.54612623  0.96258702  0.24570916  1
  P  P15  1  0.95641743  0.24248234  0.53808228  1
  O  O16  1  0.13604337  0.25893398  0.51093253  1
  O  O17  1  0.26661665  0.52801836  0.12827242  1
  O  O18  1  0.04768669  0.92133607  0.27078026  1
  O  O19  1  0.55159347  0.12121007  0.27354097  1
  O  O20  1  0.23282790  0.59330733  0.44961517  1
  O  O21  1  0.97923385  0.81502371  0.62184961  1
  O  O22  1  0.26579480  0.07420714  0.90545885  1
  O  O23  1  0.48199096  0.21960276  0.57746106  1
  O  O24  1  0.59290002  0.45100432  0.23343718  1
  O  O25  1  0.18573556  0.38868333  0.98906934  1
  O  O26  1  0.08919345  0.74502472  0.90321721  1
  O  O27  1  0.37972076  0.00943343  0.19707590  1
  O  O28  1  0.62198543  0.97153784  0.82087400  1
  O  O29  1  0.90504622  0.26212369  0.06797133  1
  O  O30  1  0.81990130  0.61867234  0.97941865  1
  O  O31  1  0.41557212  0.55388295  0.77322148  1
  O  O32  1  0.55566141  0.77515824  0.41491750  1
  O  O33  1  0.74308412  0.90479064  0.08613593  1
  O  O34  1  0.96499476  0.19560351  0.38473260  1
  O  O35  1  0.77502060  0.41634499  0.55712636  1
  O  O36  1  0.47411839  0.88887498  0.69266103  1
  O  O37  1  0.90546269  0.08722289  0.73896758  1
  O  O38  1  0.68683398  0.48172796  0.88918740  1
  O  O39  1  0.89022230  0.68857145  0.47726782  1
