# generated using pymatgen
data_Fe4O5F3
_symmetry_space_group_name_H-M   'P 1'
_cell_length_a   4.74591114
_cell_length_b   7.70351924
_cell_length_c   7.69720876
_cell_angle_alpha   76.15084797
_cell_angle_beta   92.36115480
_cell_angle_gamma   87.48149437
_symmetry_Int_Tables_number   1
_chemical_formula_structural   Fe4O5F3
_chemical_formula_sum   'Fe8 O10 F6'
_cell_volume   272.57862466
_cell_formula_units_Z   2
loop_
 _symmetry_equiv_pos_site_id
 _symmetry_equiv_pos_as_xyz
  1  'x, y, z'
loop_
 _atom_site_type_symbol
 _atom_site_label
 _atom_site_symmetry_multiplicity
 _atom_site_fract_x
 _atom_site_fract_y
 _atom_site_fract_z
 _atom_site_occupancy
  Fe  Fe0  1  0.53612154  0.38757580  0.86262858  1
  Fe  Fe1  1  0.44537470  0.12049857  0.64031391  1
  Fe  Fe2  1  0.51630944  0.89422877  0.34385852  1
  Fe  Fe3  1  0.49826912  0.61677426  0.13309619  1
  Fe  Fe4  1  0.02420136  0.74216448  0.75831609  1
  Fe  Fe5  1  0.98370930  0.50196337  0.51199891  1
  Fe  Fe6  1  0.99170294  0.23504395  0.25398176  1
  Fe  Fe7  1  0.99682481  0.00244284  0.99349627  1
  O  O8  1  0.81693795  0.54092212  0.72141821  1
  O  O9  1  0.81583629  0.02638770  0.21120997  1
  O  O10  1  0.69449463  0.15772007  0.84538610  1
  O  O11  1  0.69094250  0.64915580  0.34307427  1
  O  O12  1  0.69610289  0.40290977  0.10235544  1
  O  O13  1  0.31855296  0.59218623  0.91209462  1
  O  O14  1  0.30472222  0.35767110  0.65654696  1
  O  O15  1  0.29893474  0.83702726  0.14361839  1
  O  O16  1  0.30845671  0.09782389  0.40273114  1
  O  O17  1  0.17767673  0.96703528  0.78167822  1
  F  F18  1  0.80819580  0.27533606  0.47606676  1
  F  F19  1  0.79642146  0.77638669  0.96844381  1
  F  F20  1  0.69861351  0.90314922  0.59705092  1
  F  F21  1  0.19919976  0.22151737  0.02982304  1
  F  F22  1  0.19699193  0.72862321  0.52418699  1
  F  F23  1  0.18540772  0.46545617  0.28662594  1
