# generated using pymatgen
data_LiVF5
_symmetry_space_group_name_H-M   'P 1'
_cell_length_a   5.26554553
_cell_length_b   8.94225201
_cell_length_c   8.09356748
_cell_angle_alpha   90.00000000
_cell_angle_beta   87.94153330
_cell_angle_gamma   90.00000000
_symmetry_Int_Tables_number   1
_chemical_formula_structural   LiVF5
_chemical_formula_sum   'Li4 V4 F20'
_cell_volume   380.84646259
_cell_formula_units_Z   4
loop_
 _symmetry_equiv_pos_site_id
 _symmetry_equiv_pos_as_xyz
  1  'x, y, z'
loop_
 _atom_site_type_symbol
 _atom_site_label
 _atom_site_symmetry_multiplicity
 _atom_site_fract_x
 _atom_site_fract_y
 _atom_site_fract_z
 _atom_site_occupancy
  Li  Li0  1  0.88037628  0.40717545  0.28918466  1
  Li  Li1  1  0.61962372  0.90717545  0.21081534  1
  Li  Li2  1  0.38037628  0.09282455  0.78918466  1
  Li  Li3  1  0.11962372  0.59282455  0.71081534  1
  V  V4  1  0.86756091  0.87095444  0.62423684  1
  V  V5  1  0.63243909  0.37095444  0.87576316  1
  V  V6  1  0.36756091  0.62904556  0.12423684  1
  V  V7  1  0.13243909  0.12904556  0.37576316  1
  F  F8  1  0.93362484  0.28642337  0.87823409  1
  F  F9  1  0.96117676  0.28156331  0.49165018  1
  F  F10  1  0.96035291  0.19993328  0.19933383  1
  F  F11  1  0.82563660  0.98088627  0.40735995  1
  F  F12  1  0.77931009  0.52391419  0.74618853  1
  F  F13  1  0.72068991  0.02391419  0.75381147  1
  F  F14  1  0.67436340  0.48088627  0.09264005  1
  F  F15  1  0.56637516  0.78642337  0.62176591  1
  F  F16  1  0.46117676  0.21843669  0.99165018  1
  F  F17  1  0.53964709  0.69993328  0.30066617  1
  F  F18  1  0.46035291  0.30006672  0.69933383  1
  F  F19  1  0.53882324  0.78156331  0.00834982  1
  F  F20  1  0.43362484  0.21357663  0.37823309  1
  F  F21  1  0.32563660  0.51911373  0.90735995  1
  F  F22  1  0.27931009  0.97608581  0.24618853  1
  F  F23  1  0.22068991  0.47608581  0.25381147  1
  F  F24  1  0.17436340  0.01911373  0.59264005  1
  F  F25  1  0.03964709  0.80006672  0.80066617  1
  F  F26  1  0.03882324  0.71843669  0.50834982  1
  F  F27  1  0.06637516  0.71357663  0.12176691  1
