# generated using pymatgen
data_Li2Cr3(CoO4)3
_symmetry_space_group_name_H-M   'P 1'
_cell_length_a   6.65628587
_cell_length_b   5.94050570
_cell_length_c   5.78639721
_cell_angle_alpha   91.16646003
_cell_angle_beta   102.78554116
_cell_angle_gamma   74.77242681
_symmetry_Int_Tables_number   1
_chemical_formula_structural   Li2Cr3(CoO4)3
_chemical_formula_sum   'Li2 Cr3 Co3 O12'
_cell_volume   215.12328593
_cell_formula_units_Z   1
loop_
 _symmetry_equiv_pos_site_id
 _symmetry_equiv_pos_as_xyz
  1  'x, y, z'
loop_
 _atom_site_type_symbol
 _atom_site_label
 _atom_site_symmetry_multiplicity
 _atom_site_fract_x
 _atom_site_fract_y
 _atom_site_fract_z
 _atom_site_occupancy
  Li  Li0  1  0.67789956  0.31952012  0.68688857  1
  Li  Li1  1  0.32210044  0.68047988  0.31311143  1
  Cr  Cr2  1  0.32581075  0.16004114  0.83195916  1
  Cr  Cr3  1  0.00000000  0.50000000  0.50000000  1
  Cr  Cr4  1  0.67418925  0.83995886  0.16804084  1
  Co  Co5  1  0.33232146  0.16466759  0.33390995  1
  Co  Co6  1  0.00000000  0.50000000  0.00000000  1
  Co  Co7  1  0.66767854  0.83533241  0.66609005  1
  O  O8  1  0.02722911  0.28037853  0.25224847  1
  O  O9  1  0.00720824  0.28424389  0.75195465  1
  O  O10  1  0.63722548  0.06631788  0.42690484  1
  O  O11  1  0.30131825  0.39219025  0.08796993  1
  O  O12  1  0.64334684  0.05775897  0.89797763  1
  O  O13  1  0.31479912  0.38845888  0.57243627  1
  O  O14  1  0.68520088  0.61154112  0.42756373  1
  O  O15  1  0.35665316  0.94224103  0.10202237  1
  O  O16  1  0.69868175  0.60780975  0.91203007  1
  O  O17  1  0.36277452  0.93368212  0.57309516  1
  O  O18  1  0.99279176  0.71575611  0.24804535  1
  O  O19  1  0.97277089  0.71962147  0.74775153  1
