# generated using pymatgen
data_Mn6O5F7
_symmetry_space_group_name_H-M   'P 1'
_cell_length_a   5.69664321
_cell_length_b   5.09247295
_cell_length_c   14.79817369
_cell_angle_alpha   95.11505814
_cell_angle_beta   92.40111423
_cell_angle_gamma   89.88440103
_symmetry_Int_Tables_number   1
_chemical_formula_structural   Mn6O5F7
_chemical_formula_sum   'Mn12 O10 F14'
_cell_volume   427.20939486
_cell_formula_units_Z   2
loop_
 _symmetry_equiv_pos_site_id
 _symmetry_equiv_pos_as_xyz
  1  'x, y, z'
loop_
 _atom_site_type_symbol
 _atom_site_label
 _atom_site_symmetry_multiplicity
 _atom_site_fract_x
 _atom_site_fract_y
 _atom_site_fract_z
 _atom_site_occupancy
  Mn  Mn0  1  0.09281250  0.95697142  0.00104085  1
  Mn  Mn1  1  0.85493146  0.49157362  0.16764204  1
  Mn  Mn2  1  0.09066229  0.03538358  0.34030394  1
  Mn  Mn3  1  0.08394832  0.53513898  0.49640654  1
  Mn  Mn4  1  0.01817684  0.96275990  0.67187758  1
  Mn  Mn5  1  0.11246749  0.50762269  0.84104889  1
  Mn  Mn6  1  0.56556181  0.99453987  0.16229903  1
  Mn  Mn7  1  0.39594516  0.44306634  0.01165189  1
  Mn  Mn8  1  0.42374351  0.51677963  0.66435326  1
  Mn  Mn9  1  0.52870817  0.00758124  0.49887736  1
  Mn  Mn10  1  0.41894333  0.51387531  0.32743522  1
  Mn  Mn11  1  0.51829137  0.95057316  0.84036162  1
  O  O12  1  0.17820966  0.71683545  0.39705514  1
  O  O13  1  0.15871236  0.26701405  0.93036580  1
  O  O14  1  0.22939697  0.73365298  0.75182710  1
  O  O15  1  0.34776703  0.13079535  0.07702813  1
  O  O16  1  0.30604763  0.75129604  0.57279321  1
  O  O17  1  0.31665855  0.73521243  0.93172543  1
  O  O18  1  0.34655206  0.22710346  0.41026690  1
  O  O19  1  0.58263277  0.27307061  0.58855478  1
  O  O20  1  0.61903752  0.32896862  0.23649364  1
  O  O21  1  0.61044917  0.65090218  0.09699538  1
  F  F22  1  0.10486211  0.33588853  0.25150833  1
  F  F23  1  0.09198631  0.63221359  0.08852781  1
  F  F24  1  0.08731559  0.29368660  0.59240656  1
  F  F25  1  0.35399214  0.82950782  0.25152721  1
  F  F26  1  0.39466377  0.25270505  0.75502639  1
  F  F27  1  0.62904830  0.26329045  0.92640475  1
  F  F28  1  0.64735139  0.76816978  0.39956790  1
  F  F29  1  0.70146925  0.76441397  0.73071671  1
  F  F30  1  0.87577113  0.28315156  0.42222500  1
  F  F31  1  0.86157191  0.12753159  0.08460327  1
  F  F32  1  0.91496676  0.26524207  0.76451556  1
  F  F33  1  0.82211011  0.80195910  0.55707027  1
  F  F34  1  0.85800060  0.78655374  0.91273705  1
  F  F35  1  0.85723365  0.86496626  0.24676447  1
