# generated using pymatgen
data_Li4CrP6(H4O11)2
_symmetry_space_group_name_H-M   'P 1'
_cell_length_a   7.48544941
_cell_length_b   15.38047022
_cell_length_c   8.15866173
_cell_angle_alpha   90.00000000
_cell_angle_beta   85.83253558
_cell_angle_gamma   90.00000000
_symmetry_Int_Tables_number   1
_chemical_formula_structural   Li4CrP6(H4O11)2
_chemical_formula_sum   'Li8 Cr2 P12 H16 O44'
_cell_volume   936.82092641
_cell_formula_units_Z   2
loop_
 _symmetry_equiv_pos_site_id
 _symmetry_equiv_pos_as_xyz
  1  'x, y, z'
loop_
 _atom_site_type_symbol
 _atom_site_label
 _atom_site_symmetry_multiplicity
 _atom_site_fract_x
 _atom_site_fract_y
 _atom_site_fract_z
 _atom_site_occupancy
  Li  Li0  1  0.03263252  0.22427485  0.34249141  1
  Li  Li1  1  0.14057283  0.11322068  0.88963751  1
  Li  Li2  1  0.35942717  0.61322068  0.11036249  1
  Li  Li3  1  0.46736748  0.72427485  0.65750859  1
  Li  Li4  1  0.53263252  0.27572515  0.34249141  1
  Li  Li5  1  0.64057283  0.38677932  0.88963751  1
  Li  Li6  1  0.85942717  0.88677932  0.11036249  1
  Li  Li7  1  0.96736748  0.77572515  0.65750859  1
  Cr  Cr8  1  0.00000000  0.00000000  0.50000000  1
  Cr  Cr9  1  0.50000000  0.50000000  0.50000000  1
  P  P10  1  0.06373818  0.43670399  0.80827942  1
  P  P11  1  0.23988035  0.82225447  0.97256458  1
  P  P12  1  0.16398164  0.81664805  0.31850213  1
  P  P13  1  0.33601836  0.31664805  0.68149787  1
  P  P14  1  0.26011965  0.32225447  0.02743542  1
  P  P15  1  0.43626182  0.93670399  0.19172058  1
  P  P16  1  0.56373818  0.06329601  0.80827942  1
  P  P17  1  0.73988035  0.67774553  0.97256458  1
  P  P18  1  0.66398164  0.68335195  0.31850213  1
  P  P19  1  0.83601836  0.18335195  0.68149787  1
  P  P20  1  0.76011965  0.17774553  0.02743542  1
  P  P21  1  0.93626182  0.56329601  0.19172058  1
  H  H22  1  0.12892325  0.92089205  0.75177909  1
  H  H23  1  0.23215678  0.14464038  0.49012632  1
  H  H24  1  0.24980079  0.08559123  0.32380799  1
  H  H25  1  0.27077645  0.99129007  0.69047654  1
  H  H26  1  0.22922355  0.49129007  0.30952346  1
  H  H27  1  0.25019921  0.58559123  0.67619201  1
  H  H28  1  0.26784322  0.64464038  0.50987368  1
  H  H29  1  0.37107675  0.42089205  0.24822091  1
  H  H30  1  0.62892325  0.57910795  0.75177909  1
  H  H31  1  0.73215678  0.35535962  0.49012632  1
  H  H32  1  0.74980079  0.41440877  0.32380799  1
  H  H33  1  0.77077645  0.50870993  0.69047654  1
  H  H34  1  0.72922355  0.00870993  0.30952346  1
  H  H35  1  0.75019921  0.91440877  0.67619201  1
  H  H36  1  0.76784322  0.85535962  0.50987368  1
  H  H37  1  0.87107675  0.07910795  0.24822091  1
  O  O38  1  0.10378932  0.38729183  0.97661393  1
  O  O39  1  0.07267186  0.87327983  0.94104523  1
  O  O40  1  0.01579591  0.88086058  0.29426546  1
  O  O41  1  0.15736053  0.52233407  0.79788975  1
  O  O42  1  0.14945532  0.36887266  0.66981763  1
  O  O43  1  0.13557734  0.56528923  0.20480500  1
  O  O44  1  0.18238049  0.94864433  0.64894762  1
  O  O45  1  0.16266610  0.11260517  0.41125930  1
  O  O46  1  0.14404059  0.75353620  0.45827681  1
  O  O47  1  0.20481170  0.76472432  0.14301302  1
  O  O48  1  0.31619394  0.76422759  0.83993909  1
  O  O49  1  0.18380606  0.26422759  0.16006091  1
  O  O50  1  0.29518830  0.26472432  0.85698698  1
  O  O51  1  0.35595941  0.25353620  0.54172319  1
  O  O52  1  0.33733390  0.61260517  0.58874070  1
  O  O53  1  0.31761951  0.44864433  0.35105238  1
  O  O54  1  0.36442266  0.06528923  0.79519500  1
  O  O55  1  0.35054468  0.86887266  0.33018237  1
  O  O56  1  0.34263947  0.02233407  0.20211025  1
  O  O57  1  0.48420409  0.38086058  0.70573454  1
  O  O58  1  0.42732814  0.37327983  0.05895477  1
  O  O59  1  0.39621068  0.88729183  0.02338607  1
  O  O60  1  0.60378932  0.11270817  0.97661393  1
  O  O61  1  0.57267186  0.62672017  0.94104523  1
  O  O62  1  0.51579591  0.61913942  0.29426546  1
  O  O63  1  0.65736053  0.97766593  0.79788975  1
  O  O64  1  0.64945532  0.13112734  0.66981763  1
  O  O65  1  0.63557734  0.93471077  0.20480500  1
  O  O66  1  0.68238049  0.55135567  0.64894762  1
  O  O67  1  0.66266610  0.38739483  0.41125930  1
  O  O68  1  0.64404059  0.74646380  0.45827681  1
  O  O69  1  0.70481170  0.73527568  0.14301302  1
  O  O70  1  0.81619394  0.73577241  0.83993909  1
  O  O71  1  0.68380606  0.23577241  0.16006091  1
  O  O72  1  0.79518830  0.23527568  0.85698698  1
  O  O73  1  0.85595941  0.24646380  0.54172319  1
  O  O74  1  0.83733390  0.88739483  0.58874070  1
  O  O75  1  0.81761951  0.05135567  0.35105238  1
  O  O76  1  0.86442266  0.43471077  0.79519500  1
  O  O77  1  0.85054468  0.63112734  0.33018237  1
  O  O78  1  0.84263947  0.47766593  0.20211025  1
  O  O79  1  0.98420409  0.11913942  0.70573454  1
  O  O80  1  0.92732814  0.12672017  0.05895477  1
  O  O81  1  0.89621068  0.61270817  0.02338607  1
