# generated using pymatgen
data_Li4Ti3Mn2Cu3O16
_symmetry_space_group_name_H-M   'P 1'
_cell_length_a   5.89489732
_cell_length_b   5.89327373
_cell_length_c   9.54627745
_cell_angle_alpha   89.91143473
_cell_angle_beta   91.98155491
_cell_angle_gamma   119.89101210
_symmetry_Int_Tables_number   1
_chemical_formula_structural   Li4Ti3Mn2Cu3O16
_chemical_formula_sum   'Li4 Ti3 Mn2 Cu3 O16'
_cell_volume   287.30454114
_cell_formula_units_Z   1
loop_
 _symmetry_equiv_pos_site_id
 _symmetry_equiv_pos_as_xyz
  1  'x, y, z'
loop_
 _atom_site_type_symbol
 _atom_site_label
 _atom_site_symmetry_multiplicity
 _atom_site_fract_x
 _atom_site_fract_y
 _atom_site_fract_z
 _atom_site_occupancy
  Li  Li0  1  0.33538250  0.66842292  0.89710189  1
  Li  Li1  1  0.97937005  0.98986773  0.98716270  1
  Li  Li2  1  0.98683661  0.99409636  0.49476091  1
  Li  Li3  1  0.67187127  0.33560741  0.40090316  1
  Ti  Ti4  1  0.17429532  0.83442897  0.21346854  1
  Ti  Ti5  1  0.17566022  0.34002779  0.21336510  1
  Ti  Ti6  1  0.34118456  0.16952413  0.71404696  1
  Mn  Mn7  1  0.33947129  0.66929819  0.48553527  1
  Mn  Mn8  1  0.67184507  0.33529281  0.98242158  1
  Cu  Cu9  1  0.66113971  0.83101317  0.20827027  1
  Cu  Cu10  1  0.82905103  0.65777156  0.71072232  1
  Cu  Cu11  1  0.82889346  0.17016605  0.70830936  1
  O  O12  1  0.18678061  0.84312222  0.59720267  1
  O  O13  1  0.04027742  0.51989020  0.33734384  1
  O  O14  1  0.32703782  0.66375769  0.10529923  1
  O  O15  1  0.00076118  0.00052900  0.30440602  1
  O  O16  1  0.99176211  -0.00002428  0.79738461  1
  O  O17  1  0.19597784  0.34645044  0.59522717  1
  O  O18  1  0.46510495  0.95738381  0.35267672  1
  O  O19  1  0.46627418  0.50850672  0.35216119  1
  O  O20  1  0.34230405  0.17163408  0.10753771  1
  O  O21  1  0.66535378  0.83287681  0.59634295  1
  O  O22  1  0.50528755  0.46612086  0.85185244  1
  O  O23  1  0.49667629  0.03898969  0.85480865  1
  O  O24  1  0.66595588  0.32941519  0.60751840  1
  O  O25  1  0.85245746  0.66443075  0.09234691  1
  O  O26  1  0.95067601  0.47391794  0.84734178  1
  O  O27  1  0.85231274  0.18778277  0.09232263  1
