# generated using pymatgen
data_FeOF
_symmetry_space_group_name_H-M   'P 1'
_cell_length_a   9.46672965
_cell_length_b   14.25578009
_cell_length_c   3.11601599
_cell_angle_alpha   90.00000000
_cell_angle_beta   90.00000000
_cell_angle_gamma   90.20119892
_symmetry_Int_Tables_number   1
_chemical_formula_structural   FeOF
_chemical_formula_sum   'Fe12 O12 F12'
_cell_volume   420.52126457
_cell_formula_units_Z   12
loop_
 _symmetry_equiv_pos_site_id
 _symmetry_equiv_pos_as_xyz
  1  'x, y, z'
loop_
 _atom_site_type_symbol
 _atom_site_label
 _atom_site_symmetry_multiplicity
 _atom_site_fract_x
 _atom_site_fract_y
 _atom_site_fract_z
 _atom_site_occupancy
  Fe  Fe0  1  0.01506371  0.99992663  0.00000000  1
  Fe  Fe1  1  0.02174662  0.32486735  0.00000000  1
  Fe  Fe2  1  0.00274851  0.67335664  0.00000000  1
  Fe  Fe3  1  0.23294950  0.16246727  0.50000000  1
  Fe  Fe4  1  0.21489988  0.50114649  0.50000000  1
  Fe  Fe5  1  0.22033672  0.83382000  0.50000000  1
  Fe  Fe6  1  0.51302491  0.33030237  0.00000000  1
  Fe  Fe7  1  0.52326097  0.98926264  0.00000000  1
  Fe  Fe8  1  0.50391721  0.67363700  0.00000000  1
  Fe  Fe9  1  0.76154615  0.18675816  0.50000000  1
  Fe  Fe10  1  0.74225984  0.48786750  0.50000000  1
  Fe  Fe11  1  0.74987785  0.82239407  0.50000000  1
  O  O12  1  0.10609229  0.26783198  0.50000000  1
  O  O13  1  0.08904053  0.60370920  0.50000000  1
  O  O14  1  0.09329488  0.93839179  0.50000000  1
  O  O15  1  0.15393785  0.10088421  0.00000000  1
  O  O16  1  0.15677449  0.76990498  0.00000000  1
  O  O17  1  0.14890282  0.43466657  0.00000000  1
  O  O18  1  0.59436512  0.26793310  0.50000000  1
  O  O19  1  0.60523104  0.93136249  0.50000000  1
  O  O20  1  0.64975977  0.43635872  0.00000000  1
  O  O21  1  0.64691061  0.76282350  0.00000000  1
  O  O22  1  0.85526812  0.23635253  0.00000000  1
  O  O23  1  0.89813465  0.73337529  0.50000000  1
  F  F24  1  0.35034279  0.23066166  0.00000000  1
  F  F25  1  0.35263365  0.57018026  0.00000000  1
  F  F26  1  0.35072420  0.90016969  0.00000000  1
  F  F27  1  0.41191317  0.06335783  0.50000000  1
  F  F28  1  0.39932361  0.39902505  0.50000000  1
  F  F29  1  0.40044366  0.73288660  0.50000000  1
  F  F30  1  0.59349194  0.60058230  0.50000000  1
  F  F31  1  0.65695276  0.10303415  0.00000000  1
  F  F32  1  0.84831459  0.90113285  0.00000000  1
  F  F33  1  0.83711477  0.56255590  0.00000000  1
  F  F34  1  0.89532324  0.06603699  0.50000000  1
  F  F35  1  0.90408058  0.40097727  0.50000000  1
