# generated using pymatgen
data_Li4Fe3Co5O16
_symmetry_space_group_name_H-M   'P 1'
_cell_length_a   5.16082989
_cell_length_b   2.93106988
_cell_length_c   19.18296588
_cell_angle_alpha   90.00000000
_cell_angle_beta   86.02151128
_cell_angle_gamma   90.00000000
_symmetry_Int_Tables_number   1
_chemical_formula_structural   Li4Fe3Co5O16
_chemical_formula_sum   'Li4 Fe3 Co5 O16'
_cell_volume   289.47671262
_cell_formula_units_Z   1
loop_
 _symmetry_equiv_pos_site_id
 _symmetry_equiv_pos_as_xyz
  1  'x, y, z'
loop_
 _atom_site_type_symbol
 _atom_site_label
 _atom_site_symmetry_multiplicity
 _atom_site_fract_x
 _atom_site_fract_y
 _atom_site_fract_z
 _atom_site_occupancy
  Li  Li0  1  0.99979433  0.00000000  0.99648651  1
  Li  Li1  1  0.25000000  0.00000000  0.25000000  1
  Li  Li2  1  0.50020567  0.00000000  0.50351349  1
  Li  Li3  1  0.75000000  0.00000000  0.75000000  1
  Fe  Fe4  1  0.62646404  0.00000000  0.12128931  1
  Fe  Fe5  1  0.75000000  0.50000000  0.25000000  1
  Fe  Fe6  1  0.87353596  0.00000000  0.37871069  1
  Co  Co7  1  0.00261455  0.50000000  0.50434125  1
  Co  Co8  1  0.12458152  0.00000000  0.62718617  1
  Co  Co9  1  0.25000000  0.50000000  0.75000000  1
  Co  Co10  1  0.37541748  0.00000000  0.87281383  1
  Co  Co11  1  0.49738545  0.50000000  0.99565875  1
  O  O12  1  0.02927159  0.50000000  0.31412524  1
  O  O13  1  0.14946716  0.00000000  0.45159560  1
  O  O14  1  0.10405599  0.00000000  0.80329287  1
  O  O15  1  0.35053284  0.00000000  0.04840440  1
  O  O16  1  0.27385250  0.50000000  0.56398585  1
  O  O17  1  0.22614750  0.50000000  0.93601415  1
  O  O18  1  0.47072841  0.50000000  0.18587476  1
  O  O19  1  0.39594401  0.00000000  0.69670713  1
  O  O20  1  0.59130690  0.00000000  0.30840103  1
  O  O21  1  0.52432599  0.50000000  0.80869256  1
  O  O22  1  0.77116540  0.50000000  0.05539358  1
  O  O23  1  0.72883460  0.50000000  0.44460642  1
  O  O24  1  0.64375843  0.00000000  0.94204175  1
  O  O25  1  0.90869310  0.00000000  0.19159897  1
  O  O26  1  0.85624157  0.00000000  0.55795825  1
  O  O27  1  0.97567401  0.50000000  0.69130744  1
