# generated using pymatgen
data_Li4Mn2Cr3Co3O16
_symmetry_space_group_name_H-M   'P 1'
_cell_length_a   5.74775932
_cell_length_b   5.77401056
_cell_length_c   9.28373362
_cell_angle_alpha   90.04531300
_cell_angle_beta   89.83617355
_cell_angle_gamma   120.19027786
_symmetry_Int_Tables_number   1
_chemical_formula_structural   Li4Mn2Cr3Co3O16
_chemical_formula_sum   'Li4 Mn2 Cr3 Co3 O16'
_cell_volume   266.31256355
_cell_formula_units_Z   1
loop_
 _symmetry_equiv_pos_site_id
 _symmetry_equiv_pos_as_xyz
  1  'x, y, z'
loop_
 _atom_site_type_symbol
 _atom_site_label
 _atom_site_symmetry_multiplicity
 _atom_site_fract_x
 _atom_site_fract_y
 _atom_site_fract_z
 _atom_site_occupancy
  Li  Li0  1  0.33836057  0.66863039  0.89453307  1
  Li  Li1  1  0.98364963  0.99236733  0.99507738  1
  Li  Li2  1  0.98553112  0.99209804  0.49702359  1
  Li  Li3  1  0.67040983  0.33495050  0.40034258  1
  Mn  Mn4  1  0.33975164  0.67024687  0.48608746  1
  Mn  Mn5  1  0.67043645  0.33612883  0.98254899  1
  Cr  Cr6  1  0.16940160  0.82918053  0.21138153  1
  Cr  Cr7  1  0.16983458  0.34028361  0.21058012  1
  Cr  Cr8  1  0.33862027  0.16907760  0.70860352  1
  Co  Co9  1  0.65886976  0.82920163  0.21303532  1
  Co  Co10  1  0.82816767  0.65910077  0.71370401  1
  Co  Co11  1  0.82818041  0.16873185  0.71367245  1
  O  O12  1  0.16887730  0.83868163  0.60214813  1
  O  O13  1  0.04205978  0.51968081  0.34566397  1
  O  O14  1  0.34034576  0.66961515  0.10196640  1
  O  O15  1  0.99279244  0.99727023  0.30868743  1
  O  O16  1  0.99288030  0.99644094  0.80738615  1
  O  O17  1  0.16905307  0.32975088  0.60237867  1
  O  O18  1  0.48654619  0.96098108  0.34255187  1
  O  O19  1  0.48558059  0.52487971  0.34242581  1
  O  O20  1  0.33139308  0.16781499  0.09856736  1
  O  O21  1  0.66691671  0.83324315  0.60273611  1
  O  O22  1  0.52251218  0.47924843  0.84111885  1
  O  O23  1  0.52237568  0.04274729  0.84122462  1
  O  O24  1  0.67503458  0.33728500  0.60688282  1
  O  O25  1  0.82982736  0.66609427  0.09937471  1
  O  O26  1  0.96116628  0.48047256  0.83712490  1
  O  O27  1  0.83142316  0.16609496  0.10101216  1
