# generated using pymatgen
data_Li4FeOF5
_symmetry_space_group_name_H-M   'P 1'
_cell_length_a   5.83014872
_cell_length_b   5.81824322
_cell_length_c   13.27038757
_cell_angle_alpha   89.95855645
_cell_angle_beta   90.02067825
_cell_angle_gamma   119.93247063
_symmetry_Int_Tables_number   1
_chemical_formula_structural   Li4FeOF5
_chemical_formula_sum   'Li12 Fe3 O3 F15'
_cell_volume   390.10431376
_cell_formula_units_Z   3
loop_
 _symmetry_equiv_pos_site_id
 _symmetry_equiv_pos_as_xyz
  1  'x, y, z'
loop_
 _atom_site_type_symbol
 _atom_site_label
 _atom_site_symmetry_multiplicity
 _atom_site_fract_x
 _atom_site_fract_y
 _atom_site_fract_z
 _atom_site_occupancy
  Li  Li0  1  0.67778216  0.01149118  0.65412813  1
  Li  Li1  1  0.67292240  0.00673765  0.94993682  1
  Li  Li2  1  0.99996700  0.31791275  0.49688910  1
  Li  Li3  1  0.32215084  0.33367601  0.65412813  1
  Li  Li4  1  0.32701060  0.33378225  0.94993682  1
  Li  Li5  1  0.99996700  0.66598942  0.34314362  1
  Li  Li6  1  0.99996700  0.65495398  0.66029455  1
  Li  Li7  1  0.99996700  0.66100605  0.95415055  1
  Li  Li8  1  0.65400614  0.66575410  0.49784839  1
  Li  Li9  1  0.66686747  0.66702271  0.79268860  1
  Li  Li10  1  0.34592786  0.01171396  0.49784839  1
  Li  Li11  1  0.33306553  0.00012224  0.79268860  1
  Fe  Fe12  1  0.99996700  0.33419675  0.14885325  1
  Fe  Fe13  1  0.66664416  0.66725523  0.14909213  1
  Fe  Fe14  1  0.33328984  0.00057807  0.14909213  1
  O  O15  1  0.66687406  0.00114447  0.13690605  1
  O  O16  1  0.33305894  0.33423641  0.13690605  1
  O  O17  1  0.99996700  0.66781424  0.12645159  1
  F  F18  1  0.66432853  0.99731324  0.49595276  1
  F  F19  1  0.62565671  0.95972166  0.81364576  1
  F  F20  1  0.99996700  0.36506756  0.28897059  1
  F  F21  1  0.99996700  0.33748170  0.64336203  1
  F  F22  1  0.99996700  0.32694687  0.99021333  1
  F  F23  1  0.33560447  0.33295172  0.49595276  1
  F  F24  1  0.37427629  0.33403094  0.81364576  1
  F  F25  1  0.99996700  0.66860117  0.48052658  1
  F  F26  1  0.99996700  0.70851586  0.81705215  1
  F  F27  1  0.69884342  0.66556058  0.28921882  1
  F  F28  1  0.67250829  0.66653307  0.64962018  1
  F  F29  1  0.65866807  0.66649514  0.99040767  1
  F  F30  1  0.30108958  0.96668316  0.28921882  1
  F  F31  1  0.32742471  0.99399078  0.64962018  1
  F  F32  1  0.34126493  0.00779407  0.99040767  1
