# generated using pymatgen
data_LiP3(WO6)2
_symmetry_space_group_name_H-M   'P 1'
_cell_length_a   8.87626291
_cell_length_b   8.87626291
_cell_length_c   8.87626272
_cell_angle_alpha   59.79763092
_cell_angle_beta   59.79763092
_cell_angle_gamma   59.79762793
_symmetry_Int_Tables_number   1
_chemical_formula_structural   LiP3(WO6)2
_chemical_formula_sum   'Li2 P6 W4 O24'
_cell_volume   492.23863864
_cell_formula_units_Z   2
loop_
 _symmetry_equiv_pos_site_id
 _symmetry_equiv_pos_as_xyz
  1  'x, y, z'
loop_
 _atom_site_type_symbol
 _atom_site_label
 _atom_site_symmetry_multiplicity
 _atom_site_fract_x
 _atom_site_fract_y
 _atom_site_fract_z
 _atom_site_occupancy
  Li  Li0  1  0.00000000  0.00000000  0.00000000  1
  Li  Li1  1  0.50000000  0.50000000  0.50000000  1
  P  P2  1  0.04093883  0.75000000  0.45906117  1
  P  P3  1  0.54093883  0.95906117  0.25000000  1
  P  P4  1  0.25000000  0.54093883  0.95906117  1
  P  P5  1  0.75000000  0.45906117  0.04093883  1
  P  P6  1  0.45906117  0.04093883  0.75000000  1
  P  P7  1  0.95906117  0.25000000  0.54093883  1
  W  W8  1  0.14133485  0.14133485  0.14133485  1
  W  W9  1  0.35866515  0.35866515  0.35866515  1
  W  W10  1  0.64133485  0.64133485  0.64133485  1
  W  W11  1  0.85866515  0.85866515  0.85866515  1
  O  O12  1  0.05880463  0.91169364  0.27162276  1
  O  O13  1  0.08830636  0.72837724  0.94119537  1
  O  O14  1  0.61615268  0.00554586  0.80356894  1
  O  O15  1  0.49445414  0.88384732  0.69643106  1
  O  O16  1  0.22837724  0.58830636  0.44119537  1
  O  O17  1  0.55880463  0.77162276  0.41169364  1
  O  O18  1  0.72837724  0.94119537  0.08830636  1
  O  O19  1  0.99445414  0.19643106  0.38384732  1
  O  O20  1  0.30356894  0.50554586  0.11615268  1
  O  O21  1  0.11615268  0.30356894  0.50554586  1
  O  O22  1  0.19643106  0.38384732  0.99445414  1
  O  O23  1  0.41169364  0.55880463  0.77162276  1
  O  O24  1  0.58830636  0.44119537  0.22837724  1
  O  O25  1  0.80356894  0.61615268  0.00554586  1
  O  O26  1  0.88384732  0.69643106  0.49445414  1
  O  O27  1  0.00554586  0.80356894  0.61615268  1
  O  O28  1  0.69643106  0.49445414  0.88384732  1
  O  O29  1  0.27162276  0.05880463  0.91169364  1
  O  O30  1  0.44119537  0.22837724  0.58830636  1
  O  O31  1  0.77162276  0.41169364  0.55880463  1
  O  O32  1  0.38384732  0.99445414  0.19643106  1
  O  O33  1  0.50554586  0.11615268  0.30356894  1
  O  O34  1  0.91169364  0.27162276  0.05880463  1
  O  O35  1  0.94119537  0.08830636  0.72837724  1
