# generated using pymatgen
data_LiMn2(BO3)2
_symmetry_space_group_name_H-M   'P 1'
_cell_length_a   5.33812630
_cell_length_b   5.33812579
_cell_length_c   10.03879247
_cell_angle_alpha   89.10632535
_cell_angle_beta   90.89367522
_cell_angle_gamma   60.68005912
_symmetry_Int_Tables_number   1
_chemical_formula_structural   LiMn2(BO3)2
_chemical_formula_sum   'Li2 Mn4 B4 O12'
_cell_volume   249.29761777
_cell_formula_units_Z   2
loop_
 _symmetry_equiv_pos_site_id
 _symmetry_equiv_pos_as_xyz
  1  'x, y, z'
loop_
 _atom_site_type_symbol
 _atom_site_label
 _atom_site_symmetry_multiplicity
 _atom_site_fract_x
 _atom_site_fract_y
 _atom_site_fract_z
 _atom_site_occupancy
  Li  Li0  1  0.13219346  0.83425429  0.66589361  1
  Li  Li1  1  0.16574571  0.86780654  0.16589361  1
  Mn  Mn2  1  0.16970263  0.48080977  0.37796893  1
  Mn  Mn3  1  0.51338552  0.18507857  0.12767875  1
  Mn  Mn4  1  0.51919023  0.83029737  0.87796893  1
  Mn  Mn5  1  0.81492143  0.48661448  0.62767875  1
  B  B6  1  0.16108120  0.49375659  0.87308560  1
  B  B7  1  0.49305751  0.15768965  0.62852970  1
  B  B8  1  0.50624341  0.83891880  0.37308560  1
  B  B9  1  0.84231035  0.50694249  0.12852970  1
  O  O10  1  0.06728044  0.54971602  0.18056028  1
  O  O11  1  0.24494614  0.40423707  0.57499871  1
  O  O12  1  0.20345067  0.72154794  0.85605278  1
  O  O13  1  0.37274524  0.23519204  0.92992346  1
  O  O14  1  0.49360453  0.09743392  0.33169603  1
  O  O15  1  0.27845206  0.79654933  0.35605278  1
  O  O16  1  0.75254721  0.13975170  0.63209015  1
  O  O17  1  0.45028398  0.93271956  0.68056028  1
  O  O18  1  0.59576293  0.75505386  0.07499871  1
  O  O19  1  0.86024830  0.24745279  0.13209015  1
  O  O20  1  0.76480796  0.62725476  0.42992346  1
  O  O21  1  0.90256608  0.50639547  0.83169603  1
