# generated using pymatgen
data_FeOF
_symmetry_space_group_name_H-M   'P 1'
_cell_length_a   9.50399488
_cell_length_b   14.29663556
_cell_length_c   3.10840744
_cell_angle_alpha   90.00000000
_cell_angle_beta   90.00000000
_cell_angle_gamma   89.68155694
_symmetry_Int_Tables_number   1
_chemical_formula_structural   FeOF
_chemical_formula_sum   'Fe12 O12 F12'
_cell_volume   422.34880745
_cell_formula_units_Z   12
loop_
 _symmetry_equiv_pos_site_id
 _symmetry_equiv_pos_as_xyz
  1  'x, y, z'
loop_
 _atom_site_type_symbol
 _atom_site_label
 _atom_site_symmetry_multiplicity
 _atom_site_fract_x
 _atom_site_fract_y
 _atom_site_fract_z
 _atom_site_occupancy
  Fe  Fe0  1  0.00848762  0.00523398  0.00000000  1
  Fe  Fe1  1  0.01848508  0.33156437  0.00000000  1
  Fe  Fe2  1  0.00239986  0.66867138  0.00000000  1
  Fe  Fe3  1  0.23151710  0.16440105  0.50000000  1
  Fe  Fe4  1  0.24760593  0.48557882  0.50000000  1
  Fe  Fe5  1  0.25679485  0.85430707  0.50000000  1
  Fe  Fe6  1  0.49794825  0.34251084  0.00000000  1
  Fe  Fe7  1  0.51213060  0.99619463  0.00000000  1
  Fe  Fe8  1  0.51625412  0.66493697  0.00000000  1
  Fe  Fe9  1  0.74829737  0.14990761  0.50000000  1
  Fe  Fe10  1  0.72671811  0.49497744  0.50000000  1
  Fe  Fe11  1  0.72732273  0.83217045  0.50000000  1
  O  O12  1  0.09719224  0.26978032  0.50000000  1
  O  O13  1  0.09322604  0.93719864  0.50000000  1
  O  O14  1  0.15675852  0.10194816  0.00000000  1
  O  O15  1  0.14753493  0.43903597  0.00000000  1
  O  O16  1  0.34857638  0.90599848  0.00000000  1
  O  O17  1  0.40279344  0.39652740  0.50000000  1
  O  O18  1  0.59855623  0.93660096  0.50000000  1
  O  O19  1  0.59448780  0.60025824  0.50000000  1
  O  O20  1  0.65248650  0.10116006  0.00000000  1
  O  O21  1  0.65672564  0.42955778  0.00000000  1
  O  O22  1  0.64871185  0.76763078  0.00000000  1
  O  O23  1  0.90447852  0.06026408  0.50000000  1
  F  F24  1  0.10556243  0.60423484  0.50000000  1
  F  F25  1  0.15828782  0.77263107  0.00000000  1
  F  F26  1  0.35354978  0.23048101  0.00000000  1
  F  F27  1  0.34490171  0.56715515  0.00000000  1
  F  F28  1  0.40536350  0.07148013  0.50000000  1
  F  F29  1  0.39620015  0.73191770  0.50000000  1
  F  F30  1  0.59876736  0.26446421  0.50000000  1
  F  F31  1  0.84552925  0.23214821  0.00000000  1
  F  F32  1  0.84603813  0.89311207  0.00000000  1
  F  F33  1  0.84761460  0.56260200  0.00000000  1
  F  F34  1  0.90028332  0.39848610  0.50000000  1
  F  F35  1  0.90241128  0.73487103  0.50000000  1
