# generated using pymatgen
data_LiV3P3O11
_symmetry_space_group_name_H-M   'P 1'
_cell_length_a   10.00644403
_cell_length_b   9.75894422
_cell_length_c   10.09906282
_cell_angle_alpha   90.00000000
_cell_angle_beta   62.25913700
_cell_angle_gamma   90.00000000
_symmetry_Int_Tables_number   1
_chemical_formula_structural   LiV3P3O11
_chemical_formula_sum   'Li4 V12 P12 O44'
_cell_volume   872.84537497
_cell_formula_units_Z   4
loop_
 _symmetry_equiv_pos_site_id
 _symmetry_equiv_pos_as_xyz
  1  'x, y, z'
loop_
 _atom_site_type_symbol
 _atom_site_label
 _atom_site_symmetry_multiplicity
 _atom_site_fract_x
 _atom_site_fract_y
 _atom_site_fract_z
 _atom_site_occupancy
  Li  Li0  1  0.01889015  0.72661601  0.62108420  1
  Li  Li1  1  0.51889015  0.77338399  0.12108420  1
  Li  Li2  1  0.48110985  0.22661601  0.87891580  1
  Li  Li3  1  0.98110985  0.27338399  0.37891580  1
  V  V4  1  0.13763941  0.63356871  0.13685200  1
  V  V5  1  0.00529491  0.86828319  0.90029381  1
  V  V6  1  0.19209033  0.13789827  0.73499658  1
  V  V7  1  0.36236059  0.13356871  0.36314800  1
  V  V8  1  0.30790967  0.63789827  0.76500342  1
  V  V9  1  0.50529491  0.63171681  0.40029381  1
  V  V10  1  0.49470509  0.36828319  0.59970619  1
  V  V11  1  0.69209033  0.36210173  0.23499658  1
  V  V12  1  0.63763941  0.86643129  0.63685200  1
  V  V13  1  0.80790967  0.86210173  0.26500342  1
  V  V14  1  0.99470509  0.13171681  0.09970619  1
  V  V15  1  0.86236059  0.36643129  0.86314800  1
  P  P16  1  0.13659348  0.94272786  0.26527886  1
  P  P17  1  0.36340652  0.44272786  0.23472114  1
  P  P18  1  0.19525734  0.42928946  0.56338060  1
  P  P19  1  0.32204625  0.84344212  0.55784532  1
  P  P20  1  0.17795375  0.34344212  0.94215468  1
  P  P21  1  0.69525734  0.07071054  0.06338060  1
  P  P22  1  0.30474266  0.92928946  0.93661940  1
  P  P23  1  0.82204625  0.65655788  0.05784532  1
  P  P24  1  0.67795375  0.15655788  0.44215468  1
  P  P25  1  0.80474266  0.57071054  0.43661940  1
  P  P26  1  0.63659348  0.55727214  0.76527886  1
  P  P27  1  0.86340652  0.05727214  0.73472114  1
  O  O28  1  0.15299344  0.28091377  0.09060279  1
  O  O29  1  0.13464869  0.79011139  0.29394924  1
  O  O30  1  0.28377823  0.97365517  0.09747922  1
  O  O31  1  0.16285442  0.04443548  0.36334860  1
  O  O32  1  0.00340084  0.01906256  0.75514667  1
  O  O33  1  0.04304024  0.48295200  0.67730364  1
  O  O34  1  0.33714558  0.54443548  0.13665140  1
  O  O35  1  0.21622177  0.47365517  0.40252078  1
  O  O36  1  0.36535131  0.29011139  0.20605076  1
  O  O37  1  0.04820882  0.28045199  0.90961326  1
  O  O38  1  0.21908476  0.27320746  0.55732777  1
  O  O39  1  0.17417857  0.78048592  0.69121994  1
  O  O40  1  0.34700656  0.78091377  0.40939721  1
  O  O41  1  0.32346958  0.00033338  0.55671645  1
  O  O42  1  0.17252232  0.00162557  0.91764957  1
  O  O43  1  0.32747768  0.50162557  0.58235043  1
  O  O44  1  0.50340084  0.48093744  0.25514667  1
  O  O45  1  0.17653042  0.50033338  0.94328355  1
  O  O46  1  0.54304024  0.01704800  0.17730364  1
  O  O47  1  0.32582143  0.28048592  0.80878006  1
  O  O48  1  0.54820882  0.21954801  0.40961326  1
  O  O49  1  0.71908476  0.22679254  0.05732777  1
  O  O50  1  0.28091524  0.77320746  0.94267223  1
  O  O51  1  0.45179118  0.78045199  0.59038674  1
  O  O52  1  0.67417857  0.71951408  0.19121994  1
  O  O53  1  0.45695976  0.98295200  0.82269636  1
  O  O54  1  0.82346958  0.49966662  0.05671645  1
  O  O55  1  0.49659916  0.51906256  0.74485333  1
  O  O56  1  0.67252232  0.49837443  0.41764957  1
  O  O57  1  0.82747768  0.99837443  0.08235043  1
  O  O58  1  0.67653042  0.99966662  0.44328355  1
  O  O59  1  0.65299344  0.21908623  0.59060279  1
  O  O60  1  0.82582143  0.21951408  0.30878006  1
  O  O61  1  0.78091524  0.72679254  0.44267223  1
  O  O62  1  0.95179118  0.71954801  0.09038674  1
  O  O63  1  0.63464869  0.70988861  0.79394924  1
  O  O64  1  0.78377823  0.52634483  0.59747922  1
  O  O65  1  0.66285442  0.45556452  0.86334860  1
  O  O66  1  0.95695976  0.51704800  0.32269636  1
  O  O67  1  0.99659916  0.98093744  0.24485333  1
  O  O68  1  0.83714558  0.95556452  0.63665140  1
  O  O69  1  0.71622177  0.02634483  0.90252078  1
  O  O70  1  0.86535131  0.20988861  0.70605076  1
  O  O71  1  0.84700656  0.71908623  0.90939721  1
