# generated using pymatgen
data_Li2Co2C2O7
_symmetry_space_group_name_H-M   'P 1'
_cell_length_a   6.24694436
_cell_length_b   8.91478813
_cell_length_c   10.60852580
_cell_angle_alpha   112.92826889
_cell_angle_beta   90.00000000
_cell_angle_gamma   90.00000000
_symmetry_Int_Tables_number   1
_chemical_formula_structural   Li2Co2C2O7
_chemical_formula_sum   'Li8 Co8 C8 O28'
_cell_volume   544.11434303
_cell_formula_units_Z   4
loop_
 _symmetry_equiv_pos_site_id
 _symmetry_equiv_pos_as_xyz
  1  'x, y, z'
loop_
 _atom_site_type_symbol
 _atom_site_label
 _atom_site_symmetry_multiplicity
 _atom_site_fract_x
 _atom_site_fract_y
 _atom_site_fract_z
 _atom_site_occupancy
  Li  Li0  1  0.09441961  0.06454920  0.62495403  1
  Li  Li1  1  0.40558039  0.56454920  0.62495403  1
  Li  Li2  1  0.79561989  0.29132654  0.52729047  1
  Li  Li3  1  0.29561889  0.20867246  0.47270853  1
  Li  Li4  1  0.70438011  0.79132654  0.52729047  1
  Li  Li5  1  0.20438111  0.70867246  0.47270853  1
  Li  Li6  1  0.59441961  0.43545180  0.37504497  1
  Li  Li7  1  0.90558039  0.93545180  0.37504497  1
  Co  Co8  1  0.60286134  0.16713224  0.98849590  1
  Co  Co9  1  0.89713866  0.66713224  0.98849590  1
  Co  Co10  1  0.54799708  0.44861977  0.85406365  1
  Co  Co11  1  0.95200292  0.94861977  0.85406365  1
  Co  Co12  1  0.04799708  0.05138023  0.14593635  1
  Co  Co13  1  0.45200292  0.55138023  0.14593635  1
  Co  Co14  1  0.10286134  0.33286776  0.01150410  1
  Co  Co15  1  0.39713866  0.83286776  0.01150410  1
  C  C16  1  0.70695802  0.13085244  0.67274842  1
  C  C17  1  0.12871657  0.40859571  0.75483993  1
  C  C18  1  0.79304198  0.63085244  0.67274842  1
  C  C19  1  0.37128343  0.90859571  0.75483993  1
  C  C20  1  0.62871657  0.09140429  0.24516007  1
  C  C21  1  0.20695802  0.36914756  0.32725158  1
  C  C22  1  0.87128343  0.59140429  0.24516007  1
  C  C23  1  0.29304198  0.86914756  0.32725158  1
  O  O24  1  0.42619395  0.34431567  0.97524717  1
  O  O25  1  0.22032260  0.01166143  0.76498082  1
  O  O26  1  0.74948087  0.11120434  0.78358112  1
  O  O27  1  0.01820068  0.42380044  0.86442840  1
  O  O28  1  0.07380605  0.84431567  0.97524717  1
  O  O29  1  0.27967740  0.51166143  0.76498082  1
  O  O30  1  0.60189138  0.25703559  0.67285745  1
  O  O31  1  0.75051913  0.61120434  0.78358112  1
  O  O32  1  0.48179932  0.92380044  0.86442840  1
  O  O33  1  0.08733470  0.29180913  0.63845197  1
  O  O34  1  0.77847308  0.02519574  0.55606577  1
  O  O35  1  0.89810862  0.75703559  0.67285745  1
  O  O36  1  0.41266530  0.79180913  0.63845197  1
  O  O37  1  0.72152692  0.52519574  0.55606577  1
  O  O38  1  0.27847308  0.47480426  0.44393423  1
  O  O39  1  0.58733470  0.20819087  0.36154803  1
  O  O40  1  0.10189138  0.24296441  0.32714255  1
  O  O41  1  0.22152692  0.97480426  0.44393423  1
  O  O42  1  0.91266530  0.70819087  0.36154803  1
  O  O43  1  0.51820068  0.07619956  0.13557160  1
  O  O44  1  0.24948087  0.38879566  0.21641888  1
  O  O45  1  0.39810862  0.74296441  0.32714255  1
  O  O46  1  0.72032260  0.48833857  0.23501918  1
  O  O47  1  0.92619395  0.15568433  0.02475283  1
  O  O48  1  0.98179932  0.57619956  0.13557160  1
  O  O49  1  0.25051913  0.88879566  0.21641888  1
  O  O50  1  0.77967740  0.98833857  0.23501918  1
  O  O51  1  0.57380605  0.65568433  0.02475283  1
