# generated using pymatgen
data_Mn2VNi3(PO4)6
_symmetry_space_group_name_H-M   'P 1'
_cell_length_a   8.55840765
_cell_length_b   8.64547718
_cell_length_c   8.64547741
_cell_angle_alpha   59.99999908
_cell_angle_beta   59.66288523
_cell_angle_gamma   59.66288780
_symmetry_Int_Tables_number   1
_chemical_formula_structural   Mn2VNi3(PO4)6
_chemical_formula_sum   'Mn2 V1 Ni3 P6 O24'
_cell_volume   450.01199201
_cell_formula_units_Z   1
loop_
 _symmetry_equiv_pos_site_id
 _symmetry_equiv_pos_as_xyz
  1  'x, y, z'
loop_
 _atom_site_type_symbol
 _atom_site_label
 _atom_site_symmetry_multiplicity
 _atom_site_fract_x
 _atom_site_fract_y
 _atom_site_fract_z
 _atom_site_occupancy
  Mn  Mn0  1  0.00749766  0.99750045  0.99750045  1
  Mn  Mn1  1  0.50317203  0.49894299  0.49894299  1
  V  V2  1  0.56587822  0.14470759  0.14470759  1
  Ni  Ni3  1  0.07329552  0.64223516  0.64223516  1
  Ni  Ni4  1  0.43178452  0.85607149  0.85607149  1
  Ni  Ni5  1  0.92884790  0.35705070  0.35705070  1
  P  P6  1  0.24903615  0.25145498  0.54359301  1
  P  P7  1  0.24903615  0.95591586  0.25145498  1
  P  P8  1  0.24903615  0.54359301  0.95591586  1
  P  P9  1  0.74802370  0.45687931  0.04451673  1
  P  P10  1  0.74802370  0.04451673  0.75058026  1
  P  P11  1  0.74802370  0.75058026  0.45687931  1
  O  O12  1  0.06654651  0.10729491  0.31957517  1
  O  O13  1  0.06654651  0.50658342  0.10729491  1
  O  O14  1  0.06654651  0.31957517  0.50658342  1
  O  O15  1  0.23312771  0.08896850  0.73535940  1
  O  O16  1  0.42989423  0.17998667  0.37596523  1
  O  O17  1  0.28760897  0.40755021  0.54342489  1
  O  O18  1  0.23312771  0.94254338  0.08896850  1
  O  O19  1  0.28760897  0.76141593  0.40755021  1
  O  O20  1  0.56348183  0.61112133  0.01345482  1
  O  O21  1  0.28760897  0.54342489  0.76141593  1
  O  O22  1  0.75812251  0.25586008  0.06944515  1
  O  O23  1  0.56348183  0.01345482  0.81194202  1
  O  O24  1  0.42989423  0.01415387  0.17998667  1
  O  O25  1  0.23312771  0.73535940  0.94254338  1
  O  O26  1  0.72685177  0.43702879  0.24367332  1
  O  O27  1  0.42989423  0.37596523  0.01415387  1
  O  O28  1  0.72685177  0.24367332  0.59244612  1
  O  O29  1  0.75812251  0.06944515  0.91657226  1
  O  O30  1  0.72685177  0.59244612  0.43702879  1
  O  O31  1  0.56348183  0.81194202  0.61112133  1
  O  O32  1  0.75812251  0.91657226  0.25586008  1
  O  O33  1  0.93381400  0.69557769  0.48137609  1
  O  O34  1  0.93381400  0.48137609  0.88923222  1
  O  O35  1  0.93381400  0.88923222  0.69557769  1
