# generated using pymatgen
data_Li2V(PO3)4
_symmetry_space_group_name_H-M   'P 1'
_cell_length_a   7.57059970
_cell_length_b   11.22816816
_cell_length_c   13.07328834
_cell_angle_alpha   90.00000000
_cell_angle_beta   72.58590409
_cell_angle_gamma   90.00000000
_symmetry_Int_Tables_number   1
_chemical_formula_structural   Li2V(PO3)4
_chemical_formula_sum   'Li8 V4 P16 O48'
_cell_volume   1060.34770406
_cell_formula_units_Z   4
loop_
 _symmetry_equiv_pos_site_id
 _symmetry_equiv_pos_as_xyz
  1  'x, y, z'
loop_
 _atom_site_type_symbol
 _atom_site_label
 _atom_site_symmetry_multiplicity
 _atom_site_fract_x
 _atom_site_fract_y
 _atom_site_fract_z
 _atom_site_occupancy
  Li  Li0  1  0.10577338  0.09597978  0.25426541  1
  Li  Li1  1  0.39422662  0.59597978  0.24573459  1
  Li  Li2  1  0.18209214  0.96480956  0.48789604  1
  Li  Li3  1  0.31790786  0.46480956  0.01210396  1
  Li  Li4  1  0.68209214  0.53519044  0.98789604  1
  Li  Li5  1  0.81790786  0.03519044  0.51210396  1
  Li  Li6  1  0.60577338  0.40402022  0.75426541  1
  Li  Li7  1  0.89422662  0.90402022  0.74573459  1
  V  V8  1  0.31679035  0.25442221  0.66701437  1
  V  V9  1  0.18320965  0.75442221  0.83298563  1
  V  V10  1  0.81679035  0.24557779  0.16701437  1
  V  V11  1  0.68320965  0.74557779  0.33298563  1
  P  P12  1  0.96290752  0.72804288  0.08638068  1
  P  P13  1  0.06400004  0.38688075  0.29859260  1
  P  P14  1  0.37078937  0.74353658  0.02817676  1
  P  P15  1  0.12921063  0.24353658  0.47182324  1
  P  P16  1  0.03709248  0.27195712  0.91361932  1
  P  P17  1  0.43599996  0.88688075  0.20140740  1
  P  P18  1  0.17931217  0.04180364  0.82099003  1
  P  P19  1  0.32068783  0.54180364  0.67900997  1
  P  P20  1  0.53709248  0.22804288  0.41361932  1
  P  P21  1  0.46290752  0.77195712  0.58638068  1
  P  P22  1  0.67931217  0.45819636  0.32099003  1
  P  P23  1  0.82068783  0.95819636  0.17900997  1
  P  P24  1  0.56400004  0.11311925  0.79859260  1
  P  P25  1  0.87078937  0.75646342  0.52817676  1
  P  P26  1  0.62921063  0.25646342  0.97182324  1
  P  P27  1  0.93599996  0.61311925  0.70140740  1
  O  O28  1  0.16105367  0.74887720  0.10718084  1
  O  O29  1  0.03867501  0.34981851  0.42273914  1
  O  O30  1  0.23497294  0.45777416  0.24881053  1
  O  O31  1  0.05420990  0.12178203  0.45086610  1
  O  O32  1  0.11299556  0.27635764  0.58454587  1
  O  O33  1  0.44579010  0.62178203  0.04913390  1
  O  O34  1  0.96502036  0.72679123  0.75751765  1
  O  O35  1  0.10904909  0.52357128  0.68010768  1
  O  O36  1  0.26502706  0.95777416  0.25118847  1
  O  O37  1  0.15944474  0.33500060  0.81757847  1
  O  O38  1  0.99097101  0.67119546  0.97811242  1
  O  O39  1  0.46132499  0.84981851  0.07726086  1
  O  O40  1  0.33894633  0.24887720  0.39281916  1
  O  O41  1  0.06935332  0.92960038  0.85779197  1
  O  O42  1  0.10933026  0.13754780  0.91793217  1
  O  O43  1  0.17325578  0.09048685  0.71525125  1
  O  O44  1  0.32674422  0.59048685  0.78474875  1
  O  O45  1  0.61299556  0.22364236  0.08454587  1
  O  O46  1  0.39066974  0.63754780  0.58206783  1
  O  O47  1  0.43064668  0.42960038  0.64220803  1
  O  O48  1  0.46502036  0.77320877  0.25751765  1
  O  O49  1  0.60904909  0.97642872  0.18010768  1
  O  O50  1  0.50902899  0.17119546  0.52188758  1
  O  O51  1  0.34055526  0.83500060  0.68242153  1
  O  O52  1  0.65944474  0.16499940  0.31757847  1
  O  O53  1  0.49097101  0.82880454  0.47811242  1
  O  O54  1  0.39095091  0.02357128  0.81989232  1
  O  O55  1  0.53497964  0.22679123  0.74248235  1
  O  O56  1  0.56935332  0.57039962  0.35779197  1
  O  O57  1  0.60933026  0.36245220  0.41793217  1
  O  O58  1  0.38700444  0.77635764  0.91545413  1
  O  O59  1  0.67325578  0.40951315  0.21525025  1
  O  O60  1  0.82674422  0.90951315  0.28474975  1
  O  O61  1  0.89066974  0.86245220  0.08206783  1
  O  O62  1  0.93064668  0.07039962  0.14220803  1
  O  O63  1  0.66105367  0.75112280  0.60718084  1
  O  O64  1  0.53867501  0.15018149  0.92273914  1
  O  O65  1  0.00902899  0.32880454  0.02188758  1
  O  O66  1  0.84055526  0.66499940  0.18242153  1
  O  O67  1  0.73497294  0.04222584  0.74881153  1
  O  O68  1  0.89095091  0.47642872  0.31989232  1
  O  O69  1  0.03497964  0.27320877  0.24248235  1
  O  O70  1  0.55420990  0.37821797  0.95086610  1
  O  O71  1  0.88700444  0.72364236  0.41545413  1
  O  O72  1  0.94579010  0.87821797  0.54913390  1
  O  O73  1  0.76502706  0.54222584  0.75118847  1
  O  O74  1  0.96132499  0.65018149  0.57726086  1
  O  O75  1  0.83894633  0.25112280  0.89281916  1
