# generated using pymatgen
data_Li4Fe3Co2Cu3O16
_symmetry_space_group_name_H-M   'P 1'
_cell_length_a   5.82924813
_cell_length_b   5.83946900
_cell_length_c   9.28002048
_cell_angle_alpha   89.99366737
_cell_angle_beta   89.59278930
_cell_angle_gamma   120.08532913
_symmetry_Int_Tables_number   1
_chemical_formula_structural   Li4Fe3Co2Cu3O16
_chemical_formula_sum   'Li4 Fe3 Co2 Cu3 O16'
_cell_volume   273.32321489
_cell_formula_units_Z   1
loop_
 _symmetry_equiv_pos_site_id
 _symmetry_equiv_pos_as_xyz
  1  'x, y, z'
loop_
 _atom_site_type_symbol
 _atom_site_label
 _atom_site_symmetry_multiplicity
 _atom_site_fract_x
 _atom_site_fract_y
 _atom_site_fract_z
 _atom_site_occupancy
  Li  Li0  1  0.32217777  0.66056151  0.89751387  1
  Li  Li1  1  0.00595653  0.00294657  0.99500824  1
  Li  Li2  1  0.01290125  0.00686057  0.48963253  1
  Li  Li3  1  0.66374480  0.33203660  0.39522803  1
  Fe  Fe4  1  0.66052657  0.83006995  0.21252631  1
  Fe  Fe5  1  0.82788855  0.65920387  0.71330146  1
  Fe  Fe6  1  0.82797234  0.16898102  0.71334538  1
  Co  Co7  1  0.33541271  0.66792292  0.48484460  1
  Co  Co8  1  0.66038937  0.33001645  0.98657302  1
  Cu  Cu9  1  0.17030983  0.82534500  0.21104940  1
  Cu  Cu10  1  0.17030288  0.34487599  0.21102375  1
  Cu  Cu11  1  0.34397303  0.17163597  0.71038724  1
  O  O12  1  0.16718764  0.82364444  0.59309767  1
  O  O13  1  0.04537280  0.52295987  0.35381757  1
  O  O14  1  0.32705385  0.66320996  0.10750120  1
  O  O15  1  0.01464651  0.00769935  0.29634218  1
  O  O16  1  0.01510480  0.00780121  0.80230883  1
  O  O17  1  0.16694403  0.34465918  0.59310905  1
  O  O18  1  0.48053231  0.95582219  0.35197611  1
  O  O19  1  0.48029182  0.52467094  0.35235063  1
  O  O20  1  0.34636251  0.17289456  0.09219015  1
  O  O21  1  0.66048081  0.83036088  0.59834671  1
  O  O22  1  0.52003192  0.47838447  0.85220017  1
  O  O23  1  0.52086989  0.04081627  0.85263407  1
  O  O24  1  0.65813552  0.32894844  0.60411159  1
  O  O25  1  0.82179633  0.65539805  0.09458464  1
  O  O26  1  0.95173041  0.47608962  0.84843717  1
  O  O27  1  0.82190424  0.16648517  0.09439742  1
