# generated using pymatgen
data_Li3Mn2P2O8F3
_symmetry_space_group_name_H-M   'P 1'
_cell_length_a   6.43666724
_cell_length_b   6.43666724
_cell_length_c   6.89534583
_cell_angle_alpha   61.92258858
_cell_angle_beta   61.92258858
_cell_angle_gamma   89.51829268
_symmetry_Int_Tables_number   1
_chemical_formula_structural   Li3Mn2P2O8F3
_chemical_formula_sum   'Li3 Mn2 P2 O8 F3'
_cell_volume   213.89793088
_cell_formula_units_Z   1
loop_
 _symmetry_equiv_pos_site_id
 _symmetry_equiv_pos_as_xyz
  1  'x, y, z'
loop_
 _atom_site_type_symbol
 _atom_site_label
 _atom_site_symmetry_multiplicity
 _atom_site_fract_x
 _atom_site_fract_y
 _atom_site_fract_z
 _atom_site_occupancy
  Li  Li0  1  0.26447545  0.25250549  1.00000000  1
  Li  Li1  1  0.25502449  0.74497551  0.00000000  1
  Li  Li2  1  0.74749451  0.73552455  0.00000000  1
  Mn  Mn3  1  0.18915200  0.19426140  0.61658660  1
  Mn  Mn4  1  0.80573860  0.81084800  0.38341340  1
  P  P5  1  0.75656157  0.24343843  0.50000000  1
  P  P6  1  0.25656157  0.74343843  0.50000000  1
  O  O7  1  0.85880552  0.15404244  0.30929101  1
  O  O8  1  0.47338127  0.15401205  0.68089888  1
  O  O9  1  0.84595756  0.14119448  0.69070899  1
  O  O10  1  0.84598795  0.52661873  0.31910112  1
  O  O11  1  0.16809652  0.46333345  0.69070899  1
  O  O12  1  0.53666655  0.83190348  0.30929101  1
  O  O13  1  0.15428015  0.83491093  0.31910112  1
  O  O14  1  0.16508907  0.84571985  0.68089888  1
  F  F15  1  0.01598635  0.98401365  0.00000000  1
  F  F16  1  0.34625713  0.41054426  0.24319961  1
  F  F17  1  0.58945574  0.65374287  0.75680039  1
