# generated using pymatgen
data_Li2Fe(SiO3)2
_symmetry_space_group_name_H-M   'P 1'
_cell_length_a   10.23340476
_cell_length_b   9.98869196
_cell_length_c   7.16775445
_cell_angle_alpha   90.00000000
_cell_angle_beta   90.00000000
_cell_angle_gamma   90.00000000
_symmetry_Int_Tables_number   1
_chemical_formula_structural   Li2Fe(SiO3)2
_chemical_formula_sum   'Li12 Fe6 Si12 O36'
_cell_volume   732.67587432
_cell_formula_units_Z   6
loop_
 _symmetry_equiv_pos_site_id
 _symmetry_equiv_pos_as_xyz
  1  'x, y, z'
loop_
 _atom_site_type_symbol
 _atom_site_label
 _atom_site_symmetry_multiplicity
 _atom_site_fract_x
 _atom_site_fract_y
 _atom_site_fract_z
 _atom_site_occupancy
  Li  Li0  1  0.00000000  0.48891041  0.49646881  1
  Li  Li1  1  0.00000000  0.74653768  0.74365583  1
  Li  Li2  1  0.21405019  0.45333670  0.29946492  1
  Li  Li3  1  0.23137448  0.50744760  0.75548647  1
  Li  Li4  1  0.26862552  0.00744760  0.24451353  1
  Li  Li5  1  0.28594981  0.95333670  0.70053508  1
  Li  Li6  1  0.50000000  0.24653768  0.25634417  1
  Li  Li7  1  0.50000000  0.98891041  0.50353119  1
  Li  Li8  1  0.71405019  0.95333670  0.70053508  1
  Li  Li9  1  0.73137448  0.00744760  0.24451353  1
  Li  Li10  1  0.76862552  0.50744760  0.75548647  1
  Li  Li11  1  0.78594981  0.45333670  0.29946492  1
  Fe  Fe12  1  0.00000000  0.01757584  0.98322544  1
  Fe  Fe13  1  0.00000000  0.24236114  0.24972674  1
  Fe  Fe14  1  0.00000000  0.25302194  0.72863202  1
  Fe  Fe15  1  0.50000000  0.51757584  0.01677456  1
  Fe  Fe16  1  0.50000000  0.75302194  0.27136798  1
  Fe  Fe17  1  0.50000000  0.74236114  0.75027326  1
  Si  Si18  1  0.00000000  0.53245869  0.98846457  1
  Si  Si19  1  0.00000000  0.95902003  0.51056288  1
  Si  Si20  1  0.22451071  0.75749321  0.01958920  1
  Si  Si21  1  0.22279055  0.74101736  0.46618174  1
  Si  Si22  1  0.27720945  0.24101736  0.53381826  1
  Si  Si23  1  0.27548929  0.25749321  0.98041080  1
  Si  Si24  1  0.50000000  0.45902003  0.48943712  1
  Si  Si25  1  0.50000000  0.03245869  0.01153543  1
  Si  Si26  1  0.72451071  0.25749321  0.98041080  1
  Si  Si27  1  0.72279055  0.24101736  0.53381826  1
  Si  Si28  1  0.77720945  0.74101736  0.46618174  1
  Si  Si29  1  0.77548929  0.75749321  0.01958920  1
  O  O30  1  0.00000000  0.02357189  0.30349623  1
  O  O31  1  0.00000000  0.46368855  0.19193991  1
  O  O32  1  0.00000000  0.06166504  0.68714632  1
  O  O33  1  0.00000000  0.44145080  0.80002163  1
  O  O34  1  0.12195793  0.85381657  0.55992731  1
  O  O35  1  0.12507113  0.63581172  0.94592696  1
  O  O36  1  0.13001216  0.20302309  0.02594860  1
  O  O37  1  0.13305672  0.29069284  0.46818263  1
  O  O38  1  0.17728290  0.59098215  0.51637946  1
  O  O39  1  0.17672459  0.89953008  0.93354740  1
  O  O40  1  0.20858770  0.77772068  0.24450273  1
  O  O41  1  0.29141230  0.27772068  0.75549727  1
  O  O42  1  0.32327541  0.39953008  0.06645260  1
  O  O43  1  0.32271710  0.09098215  0.48362054  1
  O  O44  1  0.36694328  0.79069284  0.53181737  1
  O  O45  1  0.36998784  0.70302309  0.97405140  1
  O  O46  1  0.37492887  0.13581172  0.05407304  1
  O  O47  1  0.37804207  0.35381657  0.44007269  1
  O  O48  1  0.50000000  0.52357189  0.69650377  1
  O  O49  1  0.50000000  0.56166504  0.31285368  1
  O  O50  1  0.50000000  0.96368855  0.80806009  1
  O  O51  1  0.50000000  0.94145080  0.19997837  1
  O  O52  1  0.62195793  0.35381657  0.44007269  1
  O  O53  1  0.62507113  0.13581172  0.05407304  1
  O  O54  1  0.63001216  0.70302309  0.97405140  1
  O  O55  1  0.63305672  0.79069284  0.53181737  1
  O  O56  1  0.67728290  0.09098215  0.48362054  1
  O  O57  1  0.67672459  0.39953008  0.06645260  1
  O  O58  1  0.70858770  0.27772068  0.75549727  1
  O  O59  1  0.79141230  0.77772068  0.24450273  1
  O  O60  1  0.82327541  0.89953008  0.93354740  1
  O  O61  1  0.82271710  0.59098215  0.51637946  1
  O  O62  1  0.86694328  0.29069284  0.46818263  1
  O  O63  1  0.86998784  0.20302309  0.02594860  1
  O  O64  1  0.87492887  0.63581172  0.94592696  1
  O  O65  1  0.87804207  0.85381657  0.55992731  1
