# generated using pymatgen
data_Co2OF3
_symmetry_space_group_name_H-M   'P 1'
_cell_length_a   5.60036570
_cell_length_b   5.60036570
_cell_length_c   5.60036570
_cell_angle_alpha   70.99421459
_cell_angle_beta   105.87802793
_cell_angle_gamma   66.37517788
_symmetry_Int_Tables_number   1
_chemical_formula_structural   Co2OF3
_chemical_formula_sum   'Co4 O2 F6'
_cell_volume   134.58563838
_cell_formula_units_Z   2
loop_
 _symmetry_equiv_pos_site_id
 _symmetry_equiv_pos_as_xyz
  1  'x, y, z'
loop_
 _atom_site_type_symbol
 _atom_site_label
 _atom_site_symmetry_multiplicity
 _atom_site_fract_x
 _atom_site_fract_y
 _atom_site_fract_z
 _atom_site_occupancy
  Co  Co0  1  0.25000000  0.25000000  0.50000000  1
  Co  Co1  1  0.75000000  0.75000000  0.50000000  1
  Co  Co2  1  0.00000000  0.96314498  0.03685502  1
  Co  Co3  1  0.50000000  0.53685502  0.96314498  1
  O  O4  1  0.50000000  0.83045819  0.66954181  1
  O  O5  1  0.00000000  0.66954181  0.33045819  1
  F  F6  1  0.04684440  0.75000000  0.79684440  1
  F  F7  1  0.54684440  0.25000000  0.79684440  1
  F  F8  1  0.00000000  0.28263045  0.71736955  1
  F  F9  1  0.50000000  0.21736955  0.28263045  1
  F  F10  1  0.95315560  0.25000000  0.20315560  1
  F  F11  1  0.45315560  0.75000000  0.20315560  1
