# generated using pymatgen
data_Li3V(PO4)2
_symmetry_space_group_name_H-M   'P 1'
_cell_length_a   8.76497370
_cell_length_b   9.19945475
_cell_length_c   8.72930221
_cell_angle_alpha   87.20347998
_cell_angle_beta   112.63823100
_cell_angle_gamma   93.17351038
_symmetry_Int_Tables_number   1
_chemical_formula_structural   Li3V(PO4)2
_chemical_formula_sum   'Li12 V4 P8 O32'
_cell_volume   648.35430142
_cell_formula_units_Z   4
loop_
 _symmetry_equiv_pos_site_id
 _symmetry_equiv_pos_as_xyz
  1  'x, y, z'
loop_
 _atom_site_type_symbol
 _atom_site_label
 _atom_site_symmetry_multiplicity
 _atom_site_fract_x
 _atom_site_fract_y
 _atom_site_fract_z
 _atom_site_occupancy
  Li  Li0  1  0.35145092  0.79196827  0.87287389  1
  Li  Li1  1  0.12804383  0.29711210  0.63244476  1
  Li  Li2  1  0.03960878  0.45542242  0.15429163  1
  Li  Li3  1  0.07141732  0.76844123  0.10640598  1
  Li  Li4  1  0.56461153  0.76244073  0.58994744  1
  Li  Li5  1  0.90260715  0.22849701  0.88950432  1
  Li  Li6  1  0.43659359  0.24516577  0.43154795  1
  Li  Li7  1  0.96376013  0.53743775  0.84069976  1
  Li  Li8  1  0.14720772  0.03218595  0.04020557  1
  Li  Li9  1  0.87319205  0.67122878  0.39090464  1
  Li  Li10  1  0.62715756  0.22405964  0.13517699  1
  Li  Li11  1  0.72374061  0.89355931  0.10608095  1
  V  V12  1  0.22896205  0.90868398  0.48537476  1
  V  V13  1  0.51014565  0.40941080  0.76726688  1
  V  V14  1  0.49207160  0.59318724  0.23146752  1
  V  V15  1  0.77116152  0.09073144  0.51196481  1
  P  P16  1  0.01725997  0.93079719  0.71701357  1
  P  P17  1  0.28828671  0.43159230  0.98511330  1
  P  P18  1  0.23996272  0.56943842  0.42810219  1
  P  P19  1  0.57593593  0.06986536  0.76389034  1
  P  P20  1  0.43140312  0.92758538  0.24179461  1
  P  P21  1  0.76518727  0.42851383  0.56739657  1
  P  P22  1  0.71609484  0.57756077  0.00788521  1
  P  P23  1  0.98717580  0.07948374  0.27844703  1
  O  O24  1  0.03088430  0.87600645  0.88884951  1
  O  O25  1  0.11406247  0.38793607  0.97826558  1
  O  O26  1  0.15971694  0.86760572  0.67784805  1
  O  O27  1  0.31622242  0.36642332  0.83808379  1
  O  O28  1  0.05198332  0.55688814  0.36786540  1
  O  O29  1  0.62865506  0.05552986  0.95196781  1
  O  O30  1  0.96967773  0.90731078  0.27819589  1
  O  O31  1  0.68682997  0.40955956  0.02219519  1
  O  O32  1  0.57865566  0.62133842  0.83530050  1
  O  O33  1  0.15330043  0.11276121  0.43188456  1
  O  O34  1  0.47199661  0.93700255  0.66704281  1
  O  O35  1  0.32784571  0.43460356  0.53035439  1
  O  O36  1  0.31697850  0.70817372  0.52806421  1
  O  O37  1  0.47388441  0.20762653  0.68694918  1
  O  O38  1  0.27610598  0.58028852  0.26494086  1
  O  O39  1  0.73602622  0.08973338  0.72566040  1
  O  O40  1  0.26109108  0.91561093  0.26436983  1
  O  O41  1  0.72787547  0.42025605  0.72951015  1
  O  O42  1  0.53211163  0.79236883  0.32849729  1
  O  O43  1  0.68420732  0.29185089  0.46599757  1
  O  O44  1  0.68297565  0.56350356  0.45897244  1
  O  O45  1  0.52775108  0.06403313  0.33480193  1
  O  O46  1  0.84735320  0.88521887  0.57382446  1
  O  O47  1  0.42859854  0.38283276  0.15471506  1
  O  O48  1  0.31801761  0.60128307  0.98304639  1
  O  O49  1  0.02110489  0.10184078  0.69888174  1
  O  O50  1  0.38884139  0.93625931  0.05591779  1
  O  O51  1  0.95272833  0.44316476  0.62593170  1
  O  O52  1  0.68645972  0.66056869  0.14709789  1
  O  O53  1  0.83767867  0.13539298  0.31048286  1
  O  O54  1  0.89175267  0.61554728  0.01507622  1
  O  O55  1  0.99821269  0.14587889  0.11942587  1
