# generated using pymatgen
data_Li6NbCr3(PO4)6
_symmetry_space_group_name_H-M   'P 1'
_cell_length_a   8.63295613
_cell_length_b   8.62630840
_cell_length_c   8.74706369
_cell_angle_alpha   62.15235176
_cell_angle_beta   61.29163090
_cell_angle_gamma   62.02203806
_symmetry_Int_Tables_number   1
_chemical_formula_structural   Li6NbCr3(PO4)6
_chemical_formula_sum   'Li6 Nb1 Cr3 P6 O24'
_cell_volume   479.34474364
_cell_formula_units_Z   1
loop_
 _symmetry_equiv_pos_site_id
 _symmetry_equiv_pos_as_xyz
  1  'x, y, z'
loop_
 _atom_site_type_symbol
 _atom_site_label
 _atom_site_symmetry_multiplicity
 _atom_site_fract_x
 _atom_site_fract_y
 _atom_site_fract_z
 _atom_site_occupancy
  Li  Li0  1  0.02815453  0.00837664  0.00324102  1
  Li  Li1  1  0.74541913  0.14764794  0.35896135  1
  Li  Li2  1  0.47552553  0.50939512  0.48978320  1
  Li  Li3  1  0.30145876  0.83863245  0.64602533  1
  Li  Li4  1  0.64959455  0.29411334  0.83732651  1
  Li  Li5  1  0.83023336  0.65138540  0.30124764  1
  Nb  Nb6  1  0.85408984  0.85085268  0.85095946  1
  Cr  Cr7  1  0.14209888  0.14753975  0.13866791  1
  Cr  Cr8  1  0.35852979  0.36026460  0.35375490  1
  Cr  Cr9  1  0.65135539  0.64849553  0.65534164  1
  P  P10  1  0.05571651  0.74905794  0.43661706  1
  P  P11  1  0.43909341  0.05894218  0.74466820  1
  P  P12  1  0.74835575  0.43562801  0.05596821  1
  P  P13  1  0.25229329  0.53861384  0.96208806  1
  P  P14  1  0.53626631  0.96485080  0.24844068  1
  P  P15  1  0.95825953  0.25077996  0.53177497  1
  O  O16  1  0.13053782  0.28745752  0.49468337  1
  O  O17  1  0.29264853  0.51346866  0.12511193  1
  O  O18  1  0.06568869  0.91551350  0.25848585  1
  O  O19  1  0.52912608  0.12014417  0.29598449  1
  O  O20  1  0.24082739  0.59076211  0.42802930  1
  O  O21  1  0.01041751  0.80722060  0.60356419  1
  O  O22  1  0.25344051  0.08504132  0.90308451  1
  O  O23  1  0.44917743  0.23819635  0.57803890  1
  O  O24  1  0.59331921  0.42831899  0.24718977  1
  O  O25  1  0.19121295  0.38487130  0.99186773  1
  O  O26  1  0.09619179  0.73475981  0.92499798  1
  O  O27  1  0.37547458  0.01663329  0.18927863  1
  O  O28  1  0.60693915  0.00919724  0.80446655  1
  O  O29  1  0.90437679  0.24694167  0.08704866  1
  O  O30  1  0.81054022  0.60228426  0.00487571  1
  O  O31  1  0.41801694  0.55676985  0.77659164  1
  O  O32  1  0.54678096  0.77783941  0.40521944  1
  O  O33  1  0.73114869  0.92830649  0.08900419  1
  O  O34  1  0.97312302  0.19434703  0.38114749  1
  O  O35  1  0.77444921  0.41476779  0.55732410  1
  O  O36  1  0.46543805  0.90189461  0.68874993  1
  O  O37  1  0.92860417  0.09360122  0.72470597  1
  O  O38  1  0.69190010  0.45029385  0.90967188  1
  O  O39  1  0.89417664  0.69579576  0.46701267  1
