# generated using pymatgen
data_LiMn3OF8
_symmetry_space_group_name_H-M   'P 1'
_cell_length_a   5.73532582
_cell_length_b   22.87370256
_cell_length_c   5.13787327
_cell_angle_alpha   86.74271902
_cell_angle_beta   90.00000000
_cell_angle_gamma   90.00000000
_symmetry_Int_Tables_number   1
_chemical_formula_structural   LiMn3OF8
_chemical_formula_sum   'Li4 Mn12 O4 F32'
_cell_volume   672.93910167
_cell_formula_units_Z   4
loop_
 _symmetry_equiv_pos_site_id
 _symmetry_equiv_pos_as_xyz
  1  'x, y, z'
loop_
 _atom_site_type_symbol
 _atom_site_label
 _atom_site_symmetry_multiplicity
 _atom_site_fract_x
 _atom_site_fract_y
 _atom_site_fract_z
 _atom_site_occupancy
  Li  Li0  1  0.23428217  0.53366814  0.56650652  1
  Li  Li1  1  0.26571783  0.03366814  0.06650652  1
  Li  Li2  1  0.73710654  0.96450175  0.91727433  1
  Li  Li3  1  0.76289346  0.46450175  0.41727433  1
  Mn  Mn4  1  0.10474367  0.24322227  0.52692856  1
  Mn  Mn5  1  0.20896602  0.61861693  0.00462312  1
  Mn  Mn6  1  0.22166641  0.88048615  0.98788203  1
  Mn  Mn7  1  0.29103398  0.11861693  0.50462312  1
  Mn  Mn8  1  0.27833359  0.38048615  0.48788203  1
  Mn  Mn9  1  0.39525633  0.74322227  0.02692856  1
  Mn  Mn10  1  0.51051584  0.25418276  0.12345829  1
  Mn  Mn11  1  0.71773751  0.88308444  0.47704795  1
  Mn  Mn12  1  0.72153108  0.61644336  0.49697984  1
  Mn  Mn13  1  0.77846892  0.11644336  0.99697984  1
  Mn  Mn14  1  0.78226249  0.38308444  0.97704795  1
  Mn  Mn15  1  0.98948416  0.75418276  0.62345829  1
  O  O16  1  0.20406488  0.69532291  0.83716342  1
  O  O17  1  0.22040049  0.80377782  0.84748044  1
  O  O18  1  0.29593512  0.19532291  0.33716342  1
  O  O19  1  0.27959951  0.30377782  0.34748044  1
  F  F20  1  0.96330867  0.64677433  0.27973745  1
  F  F21  1  0.97094526  0.85109668  0.29435427  1
  F  F22  1  0.03161934  0.08795676  0.20982833  1
  F  F23  1  0.99699279  0.41530943  0.21938279  1
  F  F24  1  0.23644887  0.95404237  0.13078778  1
  F  F25  1  0.23541165  0.54794027  0.19825228  1
  F  F26  1  0.23798775  0.74936245  0.34400581  1
  F  F27  1  0.26201225  0.24936245  0.84400581  1
  F  F28  1  0.26458835  0.04794027  0.69825228  1
  F  F29  1  0.26355113  0.45404237  0.63078778  1
  F  F30  1  0.46838066  0.58795676  0.70982833  1
  F  F31  1  0.50300721  0.91530943  0.71938279  1
  F  F32  1  0.53669133  0.14677433  0.77973745  1
  F  F33  1  0.52905474  0.35109668  0.79435427  1
  F  F34  1  0.46513172  0.65277974  0.19725896  1
  F  F35  1  0.46693734  0.85436508  0.21387611  1
  F  F36  1  0.53434864  0.40986415  0.27386602  1
  F  F37  1  0.49870500  0.08454755  0.25641397  1
  F  F38  1  0.72667341  0.68900166  0.66201125  1
  F  F39  1  0.71181936  0.80898607  0.66425655  1
  F  F40  1  0.69304120  0.75368373  0.14043187  1
  F  F41  1  0.73647279  0.54542733  0.34127436  1
  F  F42  1  0.73783089  0.95384686  0.28710170  1
  F  F43  1  0.76352721  0.04542733  0.84127436  1
  F  F44  1  0.76216911  0.45384686  0.78710170  1
  F  F45  1  0.80695880  0.25368373  0.64043187  1
  F  F46  1  0.77332659  0.18900166  0.16201125  1
  F  F47  1  0.78818064  0.30898607  0.16425655  1
  F  F48  1  0.00129500  0.58454755  0.75641397  1
  F  F49  1  0.96565136  0.90986415  0.77386602  1
  F  F50  1  0.03486828  0.15277974  0.69725896  1
  F  F51  1  0.03306266  0.35436508  0.71387611  1
