# generated using pymatgen
data_Li2Nb6NiO18
_symmetry_space_group_name_H-M   'P 1'
_cell_length_a   11.15711878
_cell_length_b   8.96978465
_cell_length_c   7.67183064
_cell_angle_alpha   112.94822422
_cell_angle_beta   96.14544752
_cell_angle_gamma   105.55483187
_symmetry_Int_Tables_number   1
_chemical_formula_structural   Li2Nb6NiO18
_chemical_formula_sum   'Li4 Nb12 Ni2 O36'
_cell_volume   661.45471328
_cell_formula_units_Z   2
loop_
 _symmetry_equiv_pos_site_id
 _symmetry_equiv_pos_as_xyz
  1  'x, y, z'
loop_
 _atom_site_type_symbol
 _atom_site_label
 _atom_site_symmetry_multiplicity
 _atom_site_fract_x
 _atom_site_fract_y
 _atom_site_fract_z
 _atom_site_occupancy
  Li  Li0  1  0.05232152  0.33575554  0.44824465  1
  Li  Li1  1  0.38663474  0.67468092  0.12443945  1
  Li  Li2  1  0.55229190  0.33211492  0.45591987  1
  Li  Li3  1  0.87830708  0.66012930  0.11065094  1
  Nb  Nb4  1  0.00697595  0.01403022  0.49143718  1
  Nb  Nb5  1  0.17388520  0.65408345  0.82304164  1
  Nb  Nb6  1  0.15556308  0.66894979  0.33342477  1
  Nb  Nb7  1  0.34186470  0.34070837  0.67879150  1
  Nb  Nb8  1  0.34187495  0.34329495  0.17975418  1
  Nb  Nb9  1  0.49800723  0.99704140  0.50603753  1
  Nb  Nb10  1  0.66966581  0.66884709  0.83972116  1
  Nb  Nb11  1  0.49503783  0.98774298  0.96975103  1
  Nb  Nb12  1  0.68056310  0.65750520  0.34460146  1
  Nb  Nb13  1  0.84173923  0.35258151  0.67377618  1
  Nb  Nb14  1  0.82619948  0.31872176  0.14805596  1
  Nb  Nb15  1  0.99619200  0.00130133  0.00389712  1
  Ni  Ni16  1  0.19423988  0.99890984  0.80192526  1
  Ni  Ni17  1  0.69567261  0.00034047  0.30198376  1
  O  O18  1  0.04455340  0.78774697  0.30915823  1
  O  O19  1  0.14853796  0.88480265  0.95204057  1
  O  O20  1  0.03302429  0.46188647  0.29056162  1
  O  O21  1  0.04840743  0.09339053  0.28497221  1
  O  O22  1  0.20363412  0.78158521  0.62365479  1
  O  O23  1  0.16030063  0.61138161  0.03727978  1
  O  O24  1  0.22179575  0.45626240  0.64486873  1
  O  O25  1  0.16999454  0.18195582  0.99615024  1
  O  O26  1  0.33626515  0.85440975  0.35583523  1
  O  O27  1  0.37105117  0.78334667  0.94033449  1
  O  O28  1  0.20784253  0.11323978  0.63051874  1
  O  O29  1  0.28972276  0.53034182  0.29005344  1
  O  O30  1  0.37250627  0.42568253  0.94673203  1
  O  O31  1  0.50721246  0.91577714  0.70308902  1
  O  O32  1  0.33803571  0.26492773  0.37039873  1
  O  O33  1  0.37232456  0.10348115  0.95734780  1
  O  O34  1  0.49781856  0.53522684  0.70086994  1
  O  O35  1  0.57521897  0.81041600  0.30729221  1
  O  O36  1  0.47218023  0.20626927  0.63103249  1
  O  O37  1  0.65021591  0.88999442  0.01963963  1
  O  O38  1  0.53495724  0.45649118  0.27311757  1
  O  O39  1  0.55547573  0.07601374  0.27559036  1
  O  O40  1  0.70507828  0.74380316  0.61062251  1
  O  O41  1  0.67768832  0.59804904  0.03448388  1
  O  O42  1  0.72142195  0.46005786  0.65272095  1
  O  O43  1  0.65494546  0.20470434  0.03193303  1
  O  O44  1  0.82154240  0.88999068  0.35274731  1
  O  O45  1  0.70827226  0.11156461  0.56663740  1
  O  O46  1  0.87572884  0.78973812  0.94624579  1
  O  O47  1  0.80861765  0.54295682  0.30298106  1
  O  O48  1  0.86416860  0.41027561  0.94036633  1
  O  O49  1  0.01891486  0.93114126  0.70300551  1
  O  O50  1  0.81761859  0.22156081  0.34444841  1
  O  O51  1  0.89500399  0.13265192  0.99034916  1
  O  O52  1  0.99637796  0.52243104  0.67564754  1
  O  O53  1  0.97407619  0.20971101  0.63396461  1
