# generated using pymatgen
data_LiMn2(PO3)5
_symmetry_space_group_name_H-M   'P 1'
_cell_length_a   7.29628030
_cell_length_b   7.29628030
_cell_length_c   12.92298923
_cell_angle_alpha   86.31920289
_cell_angle_beta   93.68079711
_cell_angle_gamma   65.53144883
_symmetry_Int_Tables_number   1
_chemical_formula_structural   LiMn2(PO3)5
_chemical_formula_sum   'Li2 Mn4 P10 O30'
_cell_volume   621.75651537
_cell_formula_units_Z   2
loop_
 _symmetry_equiv_pos_site_id
 _symmetry_equiv_pos_as_xyz
  1  'x, y, z'
loop_
 _atom_site_type_symbol
 _atom_site_label
 _atom_site_symmetry_multiplicity
 _atom_site_fract_x
 _atom_site_fract_y
 _atom_site_fract_z
 _atom_site_occupancy
  Li  Li0  1  0.87704632  0.95572265  0.78780454  1
  Li  Li1  1  0.04427735  0.12295368  0.28780454  1
  Mn  Mn2  1  0.22040422  0.31124359  0.76332940  1
  Mn  Mn3  1  0.68875641  0.77959578  0.26332940  1
  Mn  Mn4  1  0.78767006  0.27849769  0.59051144  1
  Mn  Mn5  1  0.72150231  0.21232994  0.09051144  1
  P  P6  1  0.64330103  0.97946107  0.50329801  1
  P  P7  1  0.31394820  0.60013077  0.56156595  1
  P  P8  1  0.38072605  0.84035992  0.83986431  1
  P  P9  1  0.02053893  0.35669897  0.00329801  1
  P  P10  1  0.39986923  0.68605180  0.06156595  1
  P  P11  1  0.15964008  0.61927395  0.33986431  1
  P  P12  1  0.19464977  0.06646384  0.53416612  1
  P  P13  1  0.93353616  0.80535023  0.03416612  1
  P  P14  1  0.76124632  0.45416307  0.80631115  1
  P  P15  1  0.54583693  0.23875368  0.30631115  1
  O  O16  1  0.17541144  0.85015850  0.81556672  1
  O  O17  1  0.14984150  0.82458856  0.31556672  1
  O  O18  1  0.26557773  0.51154695  0.65767441  1
  O  O19  1  0.48845305  0.73442227  0.15767441  1
  O  O20  1  0.21880653  0.84086431  0.56142119  1
  O  O21  1  0.15913569  0.78119347  0.06142119  1
  O  O22  1  0.44278343  0.80864293  0.96494423  1
  O  O23  1  0.19135707  0.55721657  0.46494423  1
  O  O24  1  0.43374777  0.00770641  0.79714997  1
  O  O25  1  0.99229359  0.56625223  0.29714997  1
  O  O26  1  0.19938440  0.29651955  0.94214056  1
  O  O27  1  0.70348045  0.80061560  0.44214156  1
  O  O28  1  0.83816363  0.93321248  0.93427069  1
  O  O29  1  0.53252805  0.53234022  0.54213359  1
  O  O30  1  0.06678752  0.16183637  0.43427069  1
  O  O31  1  0.54209360  0.63037094  0.80128809  1
  O  O32  1  0.46765978  0.46747195  0.04213359  1
  O  O33  1  0.36962906  0.45790640  0.30128809  1
  O  O34  1  0.10314094  0.18220354  0.62647681  1
  O  O35  1  0.81779646  0.89685906  0.12647681  1
  O  O36  1  0.41734534  0.05289298  0.53702490  1
  O  O37  1  0.94710702  0.58265466  0.03702490  1
  O  O38  1  0.91091696  0.52838669  0.76702514  1
  O  O39  1  0.47161331  0.08908304  0.26702514  1
  O  O40  1  0.81992372  0.37793544  0.92929716  1
  O  O41  1  0.62206456  0.18007628  0.42929716  1
  O  O42  1  0.74523366  0.28026391  0.75407246  1
  O  O43  1  0.71973609  0.25476634  0.25407246  1
  O  O44  1  0.76925645  0.98900017  0.59846318  1
  O  O45  1  0.01099983  0.23074355  0.09846318  1
