# generated using pymatgen
data_Cr2OF2
_symmetry_space_group_name_H-M   'P 1'
_cell_length_a   6.05581255
_cell_length_b   6.90461779
_cell_length_c   6.05581255
_cell_angle_alpha   63.98964458
_cell_angle_beta   90.00000000
_cell_angle_gamma   116.01035542
_symmetry_Int_Tables_number   1
_chemical_formula_structural   Cr2OF2
_chemical_formula_sum   'Cr4 O2 F4'
_cell_volume   198.63463478
_cell_formula_units_Z   2
loop_
 _symmetry_equiv_pos_site_id
 _symmetry_equiv_pos_as_xyz
  1  'x, y, z'
loop_
 _atom_site_type_symbol
 _atom_site_label
 _atom_site_symmetry_multiplicity
 _atom_site_fract_x
 _atom_site_fract_y
 _atom_site_fract_z
 _atom_site_occupancy
  Cr  Cr0  1  0.00000000  0.00000000  0.00000000  1
  Cr  Cr1  1  0.50000000  0.00000000  0.00000000  1
  Cr  Cr2  1  0.00000000  0.50000000  0.00000000  1
  Cr  Cr3  1  0.00000000  0.50000000  0.50000000  1
  O  O4  1  0.12500000  0.75000000  0.12500000  1
  O  O5  1  0.87500000  0.25000000  0.87500000  1
  F  F6  1  0.62748464  0.75496928  0.12251536  1
  F  F7  1  0.87748464  0.25496928  0.37251536  1
  F  F8  1  0.37251536  0.24503072  0.87748464  1
  F  F9  1  0.12251536  0.74503072  0.62748464  1
