# generated using pymatgen
data_LiV3(OF2)4
_symmetry_space_group_name_H-M   'P 1'
_cell_length_a   5.43989708
_cell_length_b   6.97933557
_cell_length_c   5.83861701
_cell_angle_alpha   103.19034854
_cell_angle_beta   92.78115088
_cell_angle_gamma   103.62793838
_symmetry_Int_Tables_number   1
_chemical_formula_structural   LiV3(OF2)4
_chemical_formula_sum   'Li1 V3 O4 F8'
_cell_volume   208.52019957
_cell_formula_units_Z   1
loop_
 _symmetry_equiv_pos_site_id
 _symmetry_equiv_pos_as_xyz
  1  'x, y, z'
loop_
 _atom_site_type_symbol
 _atom_site_label
 _atom_site_symmetry_multiplicity
 _atom_site_fract_x
 _atom_site_fract_y
 _atom_site_fract_z
 _atom_site_occupancy
  Li  Li0  1  0.79233292  0.38004084  0.54483392  1
  V  V1  1  0.38189268  0.66149754  0.82941620  1
  V  V2  1  0.69252219  0.83753368  0.36175882  1
  V  V3  1  0.01945318  0.02895772  0.98462527  1
  O  O4  1  0.16601030  0.79702216  0.93526648  1
  O  O5  1  0.46535408  0.76652865  0.59918752  1
  O  O6  1  0.68889203  0.84897696  0.04807416  1
  O  O7  1  0.90403682  0.98286548  0.70439437  1
  F  F8  1  0.03579593  0.98823657  0.32720066  1
  F  F9  1  0.13365081  0.42807407  0.69078603  1
  F  F10  1  0.33632224  0.17885520  0.01134555  1
  F  F11  1  0.40466390  0.62478623  0.19281915  1
  F  F12  1  0.60549882  0.48989315  0.78728426  1
  F  F13  1  0.60738053  0.08041944  0.43354472  1
  F  F14  1  0.84172700  0.63806706  0.39472798  1
  F  F15  1  0.90762556  0.24799525  0.11555591  1
