# generated using pymatgen
data_Co3(OF2)2
_symmetry_space_group_name_H-M   'P 1'
_cell_length_a   4.67976574
_cell_length_b   4.67976574
_cell_length_c   9.38380474
_cell_angle_alpha   89.72566814
_cell_angle_beta   89.72566814
_cell_angle_gamma   89.82001880
_symmetry_Int_Tables_number   1
_chemical_formula_structural   Co3(OF2)2
_chemical_formula_sum   'Co6 O4 F8'
_cell_volume   205.50155942
_cell_formula_units_Z   2
loop_
 _symmetry_equiv_pos_site_id
 _symmetry_equiv_pos_as_xyz
  1  'x, y, z'
loop_
 _atom_site_type_symbol
 _atom_site_label
 _atom_site_symmetry_multiplicity
 _atom_site_fract_x
 _atom_site_fract_y
 _atom_site_fract_z
 _atom_site_occupancy
  Co  Co0  1  0.97001477  0.95604497  0.99366888  1
  Co  Co1  1  0.04395503  0.02998523  0.33966512  1
  Co  Co2  1  0.01718725  0.98281275  0.66666700  1
  Co  Co3  1  0.50811495  0.49188505  0.16666700  1
  Co  Co4  1  0.47389995  0.52471750  0.83888437  1
  Co  Co5  1  0.47528250  0.52610005  0.49444963  1
  O  O6  1  0.19561827  0.79469738  0.83252970  1
  O  O7  1  0.20530262  0.80438173  0.50080430  1
  O  O8  1  0.31129106  0.30422551  0.33360922  1
  O  O9  1  0.69577449  0.68870894  0.99972378  1
  F  F10  1  0.19819122  0.80180878  0.16666700  1
  F  F11  1  0.28697676  0.28031116  0.99637297  1
  F  F12  1  0.30616648  0.31007891  0.66600174  1
  F  F13  1  0.68992109  0.69383352  0.66733126  1
  F  F14  1  0.71968884  0.71302324  0.33696103  1
  F  F15  1  0.81475040  0.18524960  0.16666700  1
  F  F16  1  0.78807927  0.20021596  0.83244092  1
  F  F17  1  0.79978404  0.21192073  0.50089208  1
