# generated using pymatgen
data_Li2Mn4OF8
_symmetry_space_group_name_H-M   'P 1'
_cell_length_a   7.06504637
_cell_length_b   8.08225716
_cell_length_c   8.78728375
_cell_angle_alpha   101.97256698
_cell_angle_beta   114.07909440
_cell_angle_gamma   100.47982497
_symmetry_Int_Tables_number   1
_chemical_formula_structural   Li2Mn4OF8
_chemical_formula_sum   'Li4 Mn8 O2 F16'
_cell_volume   427.72027196
_cell_formula_units_Z   2
loop_
 _symmetry_equiv_pos_site_id
 _symmetry_equiv_pos_as_xyz
  1  'x, y, z'
loop_
 _atom_site_type_symbol
 _atom_site_label
 _atom_site_symmetry_multiplicity
 _atom_site_fract_x
 _atom_site_fract_y
 _atom_site_fract_z
 _atom_site_occupancy
  Li  Li0  1  0.12953221  0.23474468  0.36821603  1
  Li  Li1  1  0.51754376  0.73343490  0.91018572  1
  Li  Li2  1  0.48245624  0.26656510  0.08981428  1
  Li  Li3  1  0.87046779  0.76525532  0.63178397  1
  Mn  Mn4  1  0.07889657  0.40564198  0.75134663  1
  Mn  Mn5  1  0.33721938  0.90052585  0.54639962  1
  Mn  Mn6  1  0.14275731  0.87463671  0.08111863  1
  Mn  Mn7  1  0.37047927  0.59688561  0.23439507  1
  Mn  Mn8  1  0.62952073  0.40311439  0.76560493  1
  Mn  Mn9  1  0.85724269  0.12536329  0.91888137  1
  Mn  Mn10  1  0.66278062  0.09947415  0.45360038  1
  Mn  Mn11  1  0.92110343  0.59435802  0.24865337  1
  O  O12  1  0.20317651  0.77293544  0.28285227  1
  O  O13  1  0.79682349  0.22706456  0.71714773  1
  F  F14  1  0.01799682  0.94010980  0.85173581  1
  F  F15  1  0.04278637  0.76152113  0.51952743  1
  F  F16  1  0.22554704  0.34411633  0.99686185  1
  F  F17  1  0.36358555  0.50026772  0.73090112  1
  F  F18  1  0.14829921  0.43928298  0.29807813  1
  F  F19  1  0.53981365  0.91343571  0.80012859  1
  F  F20  1  0.36698250  0.16157387  0.51888500  1
  F  F21  1  0.67664427  0.30222407  0.98948822  1
  F  F22  1  0.32335573  0.69777593  0.01051178  1
  F  F23  1  0.63301750  0.83842613  0.48111500  1
  F  F24  1  0.46018635  0.08656429  0.19987141  1
  F  F25  1  0.85170079  0.56071702  0.70192187  1
  F  F26  1  0.63641445  0.49973228  0.26909888  1
  F  F27  1  0.77445296  0.65588367  0.00313815  1
  F  F28  1  0.95721363  0.23847887  0.48047257  1
  F  F29  1  0.98200318  0.05989020  0.14826419  1
