# generated using pymatgen
data_Li3V2(O2F)2
_symmetry_space_group_name_H-M   'P 1'
_cell_length_a   5.15235586
_cell_length_b   5.13273775
_cell_length_c   14.85375366
_cell_angle_alpha   90.69773641
_cell_angle_beta   90.34754038
_cell_angle_gamma   60.12588114
_symmetry_Int_Tables_number   1
_chemical_formula_structural   Li3V2(O2F)2
_chemical_formula_sum   'Li9 V6 O12 F6'
_cell_volume   340.59562184
_cell_formula_units_Z   3
loop_
 _symmetry_equiv_pos_site_id
 _symmetry_equiv_pos_as_xyz
  1  'x, y, z'
loop_
 _atom_site_type_symbol
 _atom_site_label
 _atom_site_symmetry_multiplicity
 _atom_site_fract_x
 _atom_site_fract_y
 _atom_site_fract_z
 _atom_site_occupancy
  Li  Li0  1  0.31397812  0.00967794  0.16666700  1
  Li  Li1  1  0.33324549  0.00004325  0.66666700  1
  Li  Li2  1  0.00000000  0.66666700  0.16666700  1
  Li  Li3  1  0.33441877  0.32910422  0.02600399  1
  Li  Li4  1  0.66558123  0.00422878  0.30733001  1
  Li  Li5  1  0.66675451  0.33328975  0.66666700  1
  Li  Li6  1  0.68602188  0.32365506  0.16666700  1
  Li  Li7  1  0.33441877  0.66981001  0.30733001  1
  Li  Li8  1  0.66558123  0.66352299  0.02600399  1
  V  V9  1  1.00000000  -0.00029705  0.49788478  1
  V  V10  1  0.00000000  0.33363005  0.83544922  1
  V  V11  1  0.32682622  0.33680168  0.49936270  1
  V  V12  1  0.67317378  0.99653132  0.83397030  1
  V  V13  1  0.32682622  0.66970510  0.83397030  1
  V  V14  1  0.67317378  0.66362790  0.49936270  1
  O  O15  1  0.00000000  0.02104994  0.76014598  1
  O  O16  1  0.33528978  0.99190522  0.43165353  1
  O  O17  1  0.33528978  0.00613799  0.90168047  1
  O  O18  1  1.00000000  0.31228406  0.57318702  1
  O  O19  1  0.00000000  0.68704574  0.43016627  1
  O  O20  1  1.00000000  0.64628826  0.90316773  1
  O  O21  1  0.34102081  0.31992514  0.76106982  1
  O  O22  1  0.65897919  0.01340786  0.57226318  1
  O  O23  1  0.66471022  0.34142778  0.90168047  1
  O  O24  1  0.66471022  0.32719601  0.43165353  1
  O  O25  1  0.34102081  0.67238705  0.57226318  1
  O  O26  1  0.65897919  0.66094695  0.76106982  1
  F  F27  1  0.00000000  0.97957697  0.24320341  1
  F  F28  1  1.00000000  0.35375603  0.09013059  1
  F  F29  1  0.35659407  0.33532989  0.24629084  1
  F  F30  1  0.64340593  0.99800411  0.08704216  1
  F  F31  1  0.35659407  0.64141003  0.08704216  1
  F  F32  1  0.64340593  0.69192297  0.24629084  1
