# generated using pymatgen
data_Li6Mn5Ni3O16
_symmetry_space_group_name_H-M   'P 1'
_cell_length_a   5.82165695
_cell_length_b   5.82161343
_cell_length_c   9.43879433
_cell_angle_alpha   91.11412694
_cell_angle_beta   88.88492331
_cell_angle_gamma   120.40620499
_symmetry_Int_Tables_number   1
_chemical_formula_structural   Li6Mn5Ni3O16
_chemical_formula_sum   'Li6 Mn5 Ni3 O16'
_cell_volume   275.82634814
_cell_formula_units_Z   1
loop_
 _symmetry_equiv_pos_site_id
 _symmetry_equiv_pos_as_xyz
  1  'x, y, z'
loop_
 _atom_site_type_symbol
 _atom_site_label
 _atom_site_symmetry_multiplicity
 _atom_site_fract_x
 _atom_site_fract_y
 _atom_site_fract_z
 _atom_site_occupancy
  Li  Li0  1  0.82566427  0.17430861  0.45053514  1
  Li  Li1  1  0.34768363  0.16617899  0.45311872  1
  Li  Li2  1  0.83379635  0.65230623  0.45312677  1
  Li  Li3  1  0.17313142  0.33535201  0.94016857  1
  Li  Li4  1  0.66463206  0.82684244  0.94015913  1
  Li  Li5  1  0.16430565  0.83568215  0.94073438  1
  Mn  Mn6  1  0.82790101  0.17207625  0.71472050  1
  Mn  Mn7  1  0.65991836  0.34006636  0.98478234  1
  Mn  Mn8  1  0.16838794  0.33637275  0.21458921  1
  Mn  Mn9  1  0.66362420  0.83161447  0.21458195  1
  Mn  Mn10  1  0.32942374  0.67055356  0.48965162  1
  Ni  Ni11  1  0.33492208  0.16768936  0.71236572  1
  Ni  Ni12  1  0.83229498  0.66505893  0.71236720  1
  Ni  Ni13  1  0.16817524  0.83181437  0.21288597  1
  O  O14  1  0.83808219  0.16193076  0.10316924  1
  O  O15  1  0.52738746  0.03501108  0.85192784  1
  O  O16  1  0.32466978  0.17191155  0.09226058  1
  O  O17  1  0.67468048  0.32528758  0.59677434  1
  O  O18  1  0.96496864  0.47260022  0.85192039  1
  O  O19  1  0.52131355  0.47865681  0.85573087  1
  O  O20  1  0.15563689  0.33583968  0.59334911  1
  O  O21  1  0.82808113  0.67532418  0.09225343  1
  O  O22  1  0.48518533  0.51479907  0.33826090  1
  O  O23  1  0.66413032  0.84433202  0.59335638  1
  O  O24  1  0.34347539  0.65652488  0.10331261  1
  O  O25  1  0.03900354  0.50580341  0.34581579  1
  O  O26  1  0.49418266  0.96098594  0.34581154  1
  O  O27  1  0.16463677  0.83534721  0.58072334  1
  O  O28  1  0.99155557  0.00841646  0.32104991  1
  O  O29  1  0.98863436  0.01136264  0.82050849  1
