# generated using pymatgen
data_Co6O5F7
_symmetry_space_group_name_H-M   'P 1'
_cell_length_a   7.02024905
_cell_length_b   5.57117533
_cell_length_c   5.57144876
_cell_angle_alpha   73.66050621
_cell_angle_beta   73.43250336
_cell_angle_gamma   73.15607803
_symmetry_Int_Tables_number   1
_chemical_formula_structural   Co6O5F7
_chemical_formula_sum   'Co6 O5 F7'
_cell_volume   195.15256966
_cell_formula_units_Z   1
loop_
 _symmetry_equiv_pos_site_id
 _symmetry_equiv_pos_as_xyz
  1  'x, y, z'
loop_
 _atom_site_type_symbol
 _atom_site_label
 _atom_site_symmetry_multiplicity
 _atom_site_fract_x
 _atom_site_fract_y
 _atom_site_fract_z
 _atom_site_occupancy
  Co  Co0  1  0.84167682  0.67345593  0.70635279  1
  Co  Co1  1  0.32053467  0.68509137  0.60958709  1
  Co  Co2  1  0.66228969  0.36321448  0.31758506  1
  Co  Co3  1  0.16498710  0.31268682  0.32931977  1
  Co  Co4  1  0.50052737  0.98888211  0.00592159  1
  Co  Co5  1  0.00433578  0.99302540  0.01306372  1
  O  O6  1  0.94762262  0.24782546  0.24810210  1
  O  O7  1  0.37779050  0.41707081  0.41967613  1
  O  O8  1  0.04473303  0.76033750  0.77126756  1
  O  O9  1  0.33972047  0.95935106  0.33753252  1
  O  O10  1  0.65957229  0.66073311  0.03211015  1
  F  F11  1  0.33961399  0.34486890  0.95753665  1
  F  F12  1  0.66037071  0.03741151  0.65505193  1
  F  F13  1  0.63578619  0.57376293  0.57640005  1
  F  F14  1  0.31300547  0.88902268  0.89107824  1
  F  F15  1  0.69023273  0.10134375  0.10432058  1
  F  F16  1  0.99819992  0.30066613  0.70635807  1
  F  F17  1  0.99899965  0.69125004  0.31873803  1
