# generated using pymatgen
data_K2Li2NiO4
_symmetry_space_group_name_H-M   'P 1'
_cell_length_a   5.46513884
_cell_length_b   9.04552430
_cell_length_c   10.34223548
_cell_angle_alpha   90.00000000
_cell_angle_beta   82.78031937
_cell_angle_gamma   90.00000000
_symmetry_Int_Tables_number   1
_chemical_formula_structural   K2Li2NiO4
_chemical_formula_sum   'K8 Li8 Ni4 O16'
_cell_volume   507.21534045
_cell_formula_units_Z   4
loop_
 _symmetry_equiv_pos_site_id
 _symmetry_equiv_pos_as_xyz
  1  'x, y, z'
loop_
 _atom_site_type_symbol
 _atom_site_label
 _atom_site_symmetry_multiplicity
 _atom_site_fract_x
 _atom_site_fract_y
 _atom_site_fract_z
 _atom_site_occupancy
  K  K0  1  0.15806763  0.99966709  0.14369333  1
  K  K1  1  0.14247923  0.25194152  0.63744153  1
  K  K2  1  0.34193237  0.49966709  0.35630667  1
  K  K3  1  0.35752077  0.75194152  0.86255847  1
  K  K4  1  0.64247923  0.24805848  0.13744153  1
  K  K5  1  0.65806763  0.50033291  0.64369333  1
  K  K6  1  0.85752077  0.74805848  0.36255847  1
  K  K7  1  0.84193237  0.00033291  0.85630667  1
  Li  Li8  1  0.07425496  0.25338067  0.31106732  1
  Li  Li9  1  0.27830170  0.51301700  0.06731444  1
  Li  Li10  1  0.22169830  0.01301700  0.43268556  1
  Li  Li11  1  0.42574504  0.75338067  0.18893268  1
  Li  Li12  1  0.57425496  0.24661933  0.81106732  1
  Li  Li13  1  0.77830170  0.98698300  0.56731444  1
  Li  Li14  1  0.72169830  0.48698300  0.93268556  1
  Li  Li15  1  0.92574504  0.74661933  0.68893268  1
  Ni  Ni16  1  0.17013669  0.28530029  0.94979005  1
  Ni  Ni17  1  0.32986331  0.78530029  0.55020995  1
  Ni  Ni18  1  0.67013669  0.21469971  0.44979005  1
  Ni  Ni19  1  0.82986331  0.71469971  0.05020995  1
  O  O20  1  0.14723560  0.31156090  0.12656032  1
  O  O21  1  0.12156359  0.70363824  0.11327444  1
  O  O22  1  0.11056780  0.92789007  0.61581312  1
  O  O23  1  0.17483168  0.61423633  0.59264763  1
  O  O24  1  0.37843641  0.20363824  0.38672556  1
  O  O25  1  0.35276440  0.81156090  0.37343968  1
  O  O26  1  0.32516832  0.11423633  0.90735237  1
  O  O27  1  0.38943220  0.42789007  0.88418688  1
  O  O28  1  0.61056780  0.57210993  0.11581312  1
  O  O29  1  0.67483168  0.88576367  0.09264763  1
  O  O30  1  0.64723560  0.18843910  0.62656032  1
  O  O31  1  0.62156359  0.79636176  0.61327444  1
  O  O32  1  0.82516832  0.38576367  0.40735237  1
  O  O33  1  0.88943220  0.07210993  0.38418688  1
  O  O34  1  0.87843641  0.29636176  0.88672556  1
  O  O35  1  0.85276440  0.68843910  0.87343968  1
