# generated using pymatgen
data_Li2Mn3OF6
_symmetry_space_group_name_H-M   'P 1'
_cell_length_a   6.69551699
_cell_length_b   6.22777334
_cell_length_c   8.51220458
_cell_angle_alpha   102.22263434
_cell_angle_beta   114.90216968
_cell_angle_gamma   97.97990604
_symmetry_Int_Tables_number   1
_chemical_formula_structural   Li2Mn3OF6
_chemical_formula_sum   'Li4 Mn6 O2 F12'
_cell_volume   304.06326405
_cell_formula_units_Z   2
loop_
 _symmetry_equiv_pos_site_id
 _symmetry_equiv_pos_as_xyz
  1  'x, y, z'
loop_
 _atom_site_type_symbol
 _atom_site_label
 _atom_site_symmetry_multiplicity
 _atom_site_fract_x
 _atom_site_fract_y
 _atom_site_fract_z
 _atom_site_occupancy
  Li  Li0  1  0.33450265  0.69441258  0.48076206  1
  Li  Li1  1  0.38004203  0.89254908  0.07122707  1
  Li  Li2  1  0.61995797  0.10745092  0.92877293  1
  Li  Li3  1  0.66549735  0.30558742  0.51923794  1
  Mn  Mn4  1  0.22866467  0.23063206  0.65991019  1
  Mn  Mn5  1  0.04816981  0.09154086  0.22735136  1
  Mn  Mn6  1  0.67327778  0.64020646  0.93208590  1
  Mn  Mn7  1  0.32672222  0.35979354  0.06791410  1
  Mn  Mn8  1  0.95183019  0.90845914  0.77264864  1
  Mn  Mn9  1  0.77133533  0.76936794  0.34008981  1
  O  O10  1  0.28646301  0.07836642  0.86605677  1
  O  O11  1  0.71353699  0.92163358  0.13394323  1
  F  F12  1  0.14620047  0.90955306  0.43931579  1
  F  F13  1  0.30640668  0.54987207  0.87217648  1
  F  F14  1  0.17317295  0.39003423  0.45295973  1
  F  F15  1  0.96887835  0.21664481  0.99624834  1
  F  F16  1  0.60058139  0.82984176  0.73022951  1
  F  F17  1  0.41518871  0.66511732  0.27634463  1
  F  F18  1  0.58481129  0.33488268  0.72365537  1
  F  F19  1  0.39941861  0.17015824  0.26977049  1
  F  F20  1  0.03112165  0.78335519  0.00375166  1
  F  F21  1  0.82682705  0.60996577  0.54704027  1
  F  F22  1  0.69359332  0.45012793  0.12782352  1
  F  F23  1  0.85379953  0.09044694  0.56068421  1
