# generated using pymatgen
data_Mn6O7F5
_symmetry_space_group_name_H-M   'P 1'
_cell_length_a   4.59940557
_cell_length_b   5.63985048
_cell_length_c   15.30761558
_cell_angle_alpha   90.01825204
_cell_angle_beta   89.97300907
_cell_angle_gamma   88.88203058
_symmetry_Int_Tables_number   1
_chemical_formula_structural   Mn6O7F5
_chemical_formula_sum   'Mn12 O14 F10'
_cell_volume   397.00327900
_cell_formula_units_Z   2
loop_
 _symmetry_equiv_pos_site_id
 _symmetry_equiv_pos_as_xyz
  1  'x, y, z'
loop_
 _atom_site_type_symbol
 _atom_site_label
 _atom_site_symmetry_multiplicity
 _atom_site_fract_x
 _atom_site_fract_y
 _atom_site_fract_z
 _atom_site_occupancy
  Mn  Mn0  1  0.02127118  0.16430761  0.41542633  1
  Mn  Mn1  1  0.01493395  0.81866233  0.24295968  1
  Mn  Mn2  1  0.99876465  0.15323767  0.07860894  1
  Mn  Mn3  1  0.01995135  0.16705311  0.74439449  1
  Mn  Mn4  1  0.99257613  0.84596014  0.57629637  1
  Mn  Mn5  1  0.05044646  0.85409125  0.91236263  1
  Mn  Mn6  1  0.49109377  0.34989880  0.58640935  1
  Mn  Mn7  1  0.48806458  0.35111809  0.92320322  1
  Mn  Mn8  1  0.52093828  0.37907197  0.25731873  1
  Mn  Mn9  1  0.49490491  0.65229630  0.08236061  1
  Mn  Mn10  1  0.49312863  0.63720348  0.42378296  1
  Mn  Mn11  1  0.49574514  0.63456997  0.75491847  1
  O  O12  1  0.20914376  0.11100393  0.63455945  1
  O  O13  1  0.22976535  0.11194978  0.97046596  1
  O  O14  1  0.21393513  0.88449343  0.13307346  1
  O  O15  1  0.22323740  0.88548178  0.46999246  1
  O  O16  1  0.23868958  0.88697686  0.80457928  1
  O  O17  1  0.28629279  0.60458998  0.31401805  1
  O  O18  1  0.27498966  0.39398477  0.47777438  1
  O  O19  1  0.28846313  0.39269670  0.81439778  1
  O  O20  1  0.27759270  0.61653596  0.97412180  1
  O  O21  1  0.71295149  0.37684928  0.02974965  1
  O  O22  1  0.71789315  0.61946007  0.19199706  1
  O  O23  1  0.73758000  0.39308161  0.36372932  1
  O  O24  1  0.71414479  0.61750625  0.52947625  1
  O  O25  1  0.71672088  0.37956245  0.69360999  1
  F  F26  1  0.24819823  0.10912315  0.29896530  1
  F  F27  1  0.25438615  0.38085158  0.15366662  1
  F  F28  1  0.23504500  0.61094363  0.64426112  1
  F  F29  1  0.76720689  0.61942258  0.86568504  1
  F  F30  1  0.75869993  0.13149049  0.19500036  1
  F  F31  1  0.74655953  0.11233346  0.52256090  1
  F  F32  1  0.76566613  0.88314735  0.35912229  1
  F  F33  1  0.77627801  0.87909042  0.01285150  1
  F  F34  1  0.77534477  0.12297929  0.85739390  1
  F  F35  1  0.74939652  0.86897350  0.69090531  1
