# generated using pymatgen
data_Mn6O7F5
_symmetry_space_group_name_H-M   'P 1'
_cell_length_a   4.60104038
_cell_length_b   5.64094226
_cell_length_c   15.32511100
_cell_angle_alpha   89.87130627
_cell_angle_beta   89.68164794
_cell_angle_gamma   89.28746010
_symmetry_Int_Tables_number   1
_chemical_formula_structural   Mn6O7F5
_chemical_formula_sum   'Mn12 O14 F10'
_cell_volume   397.71320441
_cell_formula_units_Z   2
loop_
 _symmetry_equiv_pos_site_id
 _symmetry_equiv_pos_as_xyz
  1  'x, y, z'
loop_
 _atom_site_type_symbol
 _atom_site_label
 _atom_site_symmetry_multiplicity
 _atom_site_fract_x
 _atom_site_fract_y
 _atom_site_fract_z
 _atom_site_occupancy
  Mn  Mn0  1  0.00576852  0.14947885  0.40718117  1
  Mn  Mn1  1  0.02351262  0.83511547  0.24244992  1
  Mn  Mn2  1  0.99732881  0.15752995  0.07918619  1
  Mn  Mn3  1  0.05122127  0.15387704  0.74897272  1
  Mn  Mn4  1  0.01294548  0.83501253  0.57786285  1
  Mn  Mn5  1  0.04213720  0.84757791  0.91718892  1
  Mn  Mn6  1  0.48920277  0.35590915  0.58593104  1
  Mn  Mn7  1  0.48778708  0.35299677  0.92494475  1
  Mn  Mn8  1  0.50103755  0.36570303  0.25988474  1
  Mn  Mn9  1  0.50046872  0.64824777  0.08692221  1
  Mn  Mn10  1  0.49802904  0.65465644  0.41976314  1
  Mn  Mn11  1  0.47839059  0.64622436  0.75212753  1
  O  O12  1  0.23433134  0.11265442  0.30077509  1
  O  O13  1  0.22928546  0.10842843  0.63572359  1
  O  O14  1  0.22727943  0.11600742  0.97163361  1
  O  O15  1  0.21441982  0.88320527  0.13314594  1
  O  O16  1  0.21723160  0.89090624  0.46806385  1
  O  O17  1  0.23648174  0.88594703  0.80500563  1
  O  O18  1  0.27981135  0.60963625  0.31192019  1
  O  O19  1  0.27413610  0.60321951  0.64693893  1
  O  O20  1  0.29082584  0.39249197  0.81231686  1
  O  O21  1  0.27595241  0.60908856  0.97845903  1
  O  O22  1  0.72028585  0.38250337  0.02886431  1
  O  O23  1  0.72524994  0.61197569  0.19487496  1
  O  O24  1  0.72257293  0.38032433  0.36262087  1
  O  O25  1  0.71692932  0.61621547  0.52818787  1
  F  F26  1  0.25539818  0.38126843  0.15365234  1
  F  F27  1  0.23445465  0.39013142  0.47557091  1
  F  F28  1  0.74172565  0.62887615  0.85922904  1
  F  F29  1  0.75908213  0.38510534  0.70102598  1
  F  F30  1  0.74668449  0.12663553  0.19069003  1
  F  F31  1  0.74706573  0.12333970  0.52188981  1
  F  F32  1  0.77181053  0.87673912  0.34901003  1
  F  F33  1  0.75957288  0.88140739  0.01683069  1
  F  F34  1  0.77135677  0.12608206  0.85872034  1
  F  F35  1  0.76022618  0.87548263  0.69243589  1
