# generated using pymatgen
data_Li3V2(O2F)2
_symmetry_space_group_name_H-M   'P 1'
_cell_length_a   5.13181993
_cell_length_b   5.16864011
_cell_length_c   15.19859292
_cell_angle_alpha   79.65989274
_cell_angle_beta   79.40787081
_cell_angle_gamma   59.83267336
_symmetry_Int_Tables_number   1
_chemical_formula_structural   Li3V2(O2F)2
_chemical_formula_sum   'Li9 V6 O12 F6'
_cell_volume   340.79174147
_cell_formula_units_Z   3
loop_
 _symmetry_equiv_pos_site_id
 _symmetry_equiv_pos_as_xyz
  1  'x, y, z'
loop_
 _atom_site_type_symbol
 _atom_site_label
 _atom_site_symmetry_multiplicity
 _atom_site_fract_x
 _atom_site_fract_y
 _atom_site_fract_z
 _atom_site_occupancy
  Li  Li0  1  0.32884092  0.32376598  0.02622384  1
  Li  Li1  1  0.62927607  0.26856283  0.16647679  1
  Li  Li2  1  0.22852638  0.56324239  0.30725520  1
  Li  Li3  1  0.25961293  0.95365917  0.16685721  1
  Li  Li4  1  0.11259066  0.77730626  0.66658823  1
  Li  Li5  1  0.66036262  0.65897961  0.02607780  1
  Li  Li6  1  0.77629834  0.44491574  0.66674577  1
  Li  Li7  1  0.94444400  0.61111100  0.16666700  1
  Li  Li8  1  0.56004808  0.89845702  0.30710916  1
  V  V9  1  0.16784693  0.16742442  0.49793763  1
  V  V10  1  0.05749614  0.38244970  0.83386519  1
  V  V11  1  0.50194068  0.49466782  0.49934875  1
  V  V12  1  0.72104207  0.05479858  0.83539537  1
  V  V13  1  0.38694832  0.72755518  0.83398525  1
  V  V14  1  0.83139286  0.83977230  0.49946881  1
  O  O15  1  0.06076536  0.07695542  0.76016454  1
  O  O16  1  0.50441944  0.18981171  0.43071843  1
  O  O17  1  0.38446956  0.03241029  0.90261457  1
  O  O18  1  0.12852812  0.48319687  0.57242419  1
  O  O19  1  0.19993271  0.85444779  0.43179782  1
  O  O20  1  0.02587109  0.69675975  0.90140971  1
  O  O21  1  0.41922291  0.42088090  0.76113450  1
  O  O22  1  0.82812364  0.14526658  0.57316846  1
  O  O23  1  0.86301791  0.52546225  0.43192329  1
  O  O24  1  0.68895629  0.36777421  0.90153518  1
  O  O25  1  0.46966609  0.80134110  0.57219850  1
  O  O26  1  0.76036088  0.73902613  0.76090881  1
  F  F27  1  0.27339716  0.25276937  0.24588720  1
  F  F28  1  0.32795045  0.61350566  0.08700867  1
  F  F29  1  0.56093855  0.60871634  0.24632433  1
  F  F30  1  0.97057520  0.32486321  0.08990460  1
  F  F31  1  0.61549184  0.96945263  0.08744680  1
  F  F32  1  0.91831380  0.89735879  0.24342940  1
