# generated using pymatgen
data_V3(OF3)2
_symmetry_space_group_name_H-M   'P 1'
_cell_length_a   7.63119102
_cell_length_b   7.19950996
_cell_length_c   5.19876087
_cell_angle_alpha   89.67259660
_cell_angle_beta   90.89760718
_cell_angle_gamma   78.66360991
_symmetry_Int_Tables_number   1
_chemical_formula_structural   V3(OF3)2
_chemical_formula_sum   'V6 O4 F12'
_cell_volume   280.00610985
_cell_formula_units_Z   2
loop_
 _symmetry_equiv_pos_site_id
 _symmetry_equiv_pos_as_xyz
  1  'x, y, z'
loop_
 _atom_site_type_symbol
 _atom_site_label
 _atom_site_symmetry_multiplicity
 _atom_site_fract_x
 _atom_site_fract_y
 _atom_site_fract_z
 _atom_site_occupancy
  V  V0  1  0.18248543  0.66084145  0.72026241  1
  V  V1  1  0.31215824  0.32362539  0.25926791  1
  V  V2  1  0.32406771  0.82885208  0.23675521  1
  V  V3  1  0.67593229  0.17114792  0.76324479  1
  V  V4  1  0.68784176  0.67637461  0.74073209  1
  V  V5  1  0.81751457  0.33915855  0.27973759  1
  O  O6  1  0.32564584  0.05830112  0.15108226  1
  O  O7  1  0.29993040  0.57709677  0.39703990  1
  O  O8  1  0.70006960  0.42290323  0.60296010  1
  O  O9  1  0.67435416  0.94169888  0.84891774  1
  F  F10  1  0.06837837  0.32222440  0.39398266  1
  F  F11  1  0.10828839  0.80668837  0.03675497  1
  F  F12  1  0.19985658  0.42746740  0.92392855  1
  F  F13  1  0.19157387  0.90826180  0.55318472  1
  F  F14  1  0.44224611  0.21337998  0.58200567  1
  F  F15  1  0.43289152  0.68976804  0.90972831  1
  F  F16  1  0.56710848  0.31023196  0.09027169  1
  F  F17  1  0.55775389  0.78662002  0.41799433  1
  F  F18  1  0.80842613  0.09173820  0.44681528  1
  F  F19  1  0.80014342  0.57253260  0.07607145  1
  F  F20  1  0.89171161  0.19331163  0.96324503  1
  F  F21  1  0.93162163  0.67777560  0.60601734  1
