# generated using pymatgen
data_Na5WO5
_symmetry_space_group_name_H-M   'P 1'
_cell_length_a   5.87407491
_cell_length_b   5.87407491
_cell_length_c   10.31083329
_cell_angle_alpha   80.24689057
_cell_angle_beta   99.75310943
_cell_angle_gamma   66.54127398
_symmetry_Int_Tables_number   1
_chemical_formula_structural   Na5WO5
_chemical_formula_sum   'Na10 W2 O10'
_cell_volume   310.41715880
_cell_formula_units_Z   2
loop_
 _symmetry_equiv_pos_site_id
 _symmetry_equiv_pos_as_xyz
  1  'x, y, z'
loop_
 _atom_site_type_symbol
 _atom_site_label
 _atom_site_symmetry_multiplicity
 _atom_site_fract_x
 _atom_site_fract_y
 _atom_site_fract_z
 _atom_site_occupancy
  Na  Na0  1  0.27707638  0.95124793  0.58232537  1
  Na  Na1  1  0.47717544  0.77898183  0.93534807  1
  Na  Na2  1  0.40297975  0.40297975  0.75000000  1
  Na  Na3  1  0.04875207  0.72292362  0.08232537  1
  Na  Na4  1  0.22101817  0.52282456  0.43534807  1
  Na  Na5  1  0.77898183  0.47717544  0.56465193  1
  Na  Na6  1  0.95124793  0.27707638  0.91767463  1
  Na  Na7  1  0.59702025  0.59702025  0.25000000  1
  Na  Na8  1  0.52282456  0.22101817  0.06465193  1
  Na  Na9  1  0.72292362  0.04875207  0.41767463  1
  W  W10  1  0.85624373  0.85624373  0.75000000  1
  W  W11  1  0.14375627  0.14375627  0.25000000  1
  O  O12  1  0.16845847  0.61390773  0.88803751  1
  O  O13  1  0.01603407  0.72439639  0.60987584  1
  O  O14  1  0.38609227  0.83154153  0.38803751  1
  O  O15  1  0.27560361  0.98396593  0.10987584  1
  O  O16  1  0.66162349  0.66162349  0.75000000  1
  O  O17  1  0.33837651  0.33837651  0.25000000  1
  O  O18  1  0.72439639  0.01603407  0.89012416  1
  O  O19  1  0.61390773  0.16845847  0.61196249  1
  O  O20  1  0.98396593  0.27560361  0.39012416  1
  O  O21  1  0.83154153  0.38609227  0.11196249  1
