# generated using pymatgen
data_Li6FeO5F
_symmetry_space_group_name_H-M   'P 1'
_cell_length_a   5.70363737
_cell_length_b   5.49969585
_cell_length_c   5.74187684
_cell_angle_alpha   90.89862329
_cell_angle_beta   61.40730118
_cell_angle_gamma   58.90633439
_symmetry_Int_Tables_number   1
_chemical_formula_structural   Li6FeO5F
_chemical_formula_sum   'Li6 Fe1 O5 F1'
_cell_volume   126.88094568
_cell_formula_units_Z   1
loop_
 _symmetry_equiv_pos_site_id
 _symmetry_equiv_pos_as_xyz
  1  'x, y, z'
loop_
 _atom_site_type_symbol
 _atom_site_label
 _atom_site_symmetry_multiplicity
 _atom_site_fract_x
 _atom_site_fract_y
 _atom_site_fract_z
 _atom_site_occupancy
  Li  Li0  1  0.45937272  0.25166628  0.06317445  1
  Li  Li1  1  0.16808928  0.33739537  0.74992211  1
  Li  Li2  1  0.19337245  0.72337731  0.50463046  1
  Li  Li3  1  0.81354069  0.26010273  0.47681431  1
  Li  Li4  1  0.80642937  0.71243805  0.27036915  1
  Li  Li5  1  0.58360223  0.69053522  0.92601403  1
  Fe  Fe6  1  0.04687712  0.98029762  0.96316213  1
  O  O7  1  0.10357735  0.24690699  0.09471244  1
  O  O8  1  0.13829185  0.77484643  0.19982623  1
  O  O9  1  0.46727801  0.74055827  0.63956289  1
  O  O10  1  0.86741589  0.23776518  0.79287257  1
  O  O11  1  0.87635862  0.78515986  0.91083287  1
  F  F12  1  0.49299341  0.27674968  0.39054637  1
