# generated using pymatgen
data_Mn6O7F5
_symmetry_space_group_name_H-M   'P 1'
_cell_length_a   4.60070396
_cell_length_b   5.60435161
_cell_length_c   15.38665204
_cell_angle_alpha   90.00000000
_cell_angle_beta   90.16366599
_cell_angle_gamma   90.00000000
_symmetry_Int_Tables_number   1
_chemical_formula_structural   Mn6O7F5
_chemical_formula_sum   'Mn12 O14 F10'
_cell_volume   396.72724242
_cell_formula_units_Z   2
loop_
 _symmetry_equiv_pos_site_id
 _symmetry_equiv_pos_as_xyz
  1  'x, y, z'
loop_
 _atom_site_type_symbol
 _atom_site_label
 _atom_site_symmetry_multiplicity
 _atom_site_fract_x
 _atom_site_fract_y
 _atom_site_fract_z
 _atom_site_occupancy
  Mn  Mn0  1  0.05482688  0.14588035  0.41139078  1
  Mn  Mn1  1  0.01419319  0.83198602  0.24547523  1
  Mn  Mn2  1  0.98593453  0.14786616  0.07912793  1
  Mn  Mn3  1  0.01419319  0.16801398  0.74547523  1
  Mn  Mn4  1  0.98593453  0.85213384  0.57912793  1
  Mn  Mn5  1  0.05482688  0.85411965  0.91139078  1
  Mn  Mn6  1  0.49734821  0.35058257  0.58563439  1
  Mn  Mn7  1  0.48881907  0.35280055  0.92433785  1
  Mn  Mn8  1  0.48945940  0.36252063  0.25435959  1
  Mn  Mn9  1  0.49734821  0.64941743  0.08563439  1
  Mn  Mn10  1  0.48881907  0.64719945  0.42433785  1
  Mn  Mn11  1  0.48945940  0.63747937  0.75435959  1
  O  O12  1  0.23132976  0.10741368  0.30216186  1
  O  O13  1  0.20621440  0.10871737  0.63493897  1
  O  O14  1  0.23910809  0.11425586  0.96881580  1
  O  O15  1  0.20621440  0.89128263  0.13493897  1
  O  O16  1  0.23910809  0.88574414  0.46881580  1
  O  O17  1  0.23132976  0.89258632  0.80216186  1
  O  O18  1  0.28680154  0.60172379  0.31656007  1
  O  O19  1  0.29342461  0.38634247  0.47589530  1
  O  O20  1  0.28680154  0.39827621  0.81656007  1
  O  O21  1  0.29342461  0.61365753  0.97589530  1
  O  O22  1  0.71824126  0.37629481  0.02985536  1
  O  O23  1  0.71408763  0.61660763  0.19468546  1
  O  O24  1  0.71824126  0.62370519  0.52985536  1
  O  O25  1  0.71408763  0.38339237  0.69468546  1
  F  F26  1  0.22754719  0.38457699  0.14191583  1
  F  F27  1  0.22754719  0.61542301  0.64191583  1
  F  F28  1  0.76530607  0.38184207  0.36791100  1
  F  F29  1  0.76530607  0.61815793  0.86791100  1
  F  F30  1  0.73689907  0.12380537  0.19328232  1
  F  F31  1  0.78111508  0.11641053  0.51496602  1
  F  F32  1  0.76934401  0.87096536  0.35868524  1
  F  F33  1  0.78111508  0.88358947  0.01496602  1
  F  F34  1  0.76934401  0.12903464  0.85868524  1
  F  F35  1  0.73689907  0.87619463  0.69328232  1
