# generated using pymatgen
data_LiVOF3
_symmetry_space_group_name_H-M   'P 1'
_cell_length_a   5.26514210
_cell_length_b   7.84581091
_cell_length_c   9.16754400
_cell_angle_alpha   90.00000000
_cell_angle_beta   107.07019164
_cell_angle_gamma   90.00000000
_symmetry_Int_Tables_number   1
_chemical_formula_structural   LiVOF3
_chemical_formula_sum   'Li4 V4 O4 F12'
_cell_volume   362.02139182
_cell_formula_units_Z   4
loop_
 _symmetry_equiv_pos_site_id
 _symmetry_equiv_pos_as_xyz
  1  'x, y, z'
loop_
 _atom_site_type_symbol
 _atom_site_label
 _atom_site_symmetry_multiplicity
 _atom_site_fract_x
 _atom_site_fract_y
 _atom_site_fract_z
 _atom_site_occupancy
  Li  Li0  1  0.34026258  0.54138068  0.86329197  1
  Li  Li1  1  0.34026258  0.95861932  0.36329197  1
  Li  Li2  1  0.65973742  0.04138068  0.63670803  1
  Li  Li3  1  0.65973742  0.45861932  0.13670803  1
  V  V4  1  0.12370775  0.34089672  0.54756325  1
  V  V5  1  0.12370775  0.15910328  0.04756325  1
  V  V6  1  0.87629225  0.84089672  0.95243675  1
  V  V7  1  0.87629225  0.65910328  0.45243675  1
  O  O8  1  0.04954045  0.04915872  0.87925603  1
  O  O9  1  0.04954045  0.45084128  0.37925603  1
  O  O10  1  0.95045955  0.54915872  0.62074397  1
  O  O11  1  0.95045955  0.95084128  0.12074397  1
  F  F12  1  0.15129723  0.71269125  0.92622773  1
  F  F13  1  0.15129723  0.78730875  0.42622773  1
  F  F14  1  0.41752584  0.39626319  0.71179257  1
  F  F15  1  0.30591046  0.13887268  0.51150754  1
  F  F16  1  0.69408954  0.63887268  0.98849246  1
  F  F17  1  0.58247416  0.89626319  0.78820743  1
  F  F18  1  0.41752584  0.10373681  0.21179257  1
  F  F19  1  0.30591046  0.36112732  0.01150754  1
  F  F20  1  0.69408954  0.86112732  0.48849246  1
  F  F21  1  0.58247416  0.60373681  0.28820743  1
  F  F22  1  0.84870277  0.21269125  0.57377227  1
  F  F23  1  0.84870277  0.28730875  0.07377227  1
