# generated using pymatgen
data_Fe4O5F3
_symmetry_space_group_name_H-M   'P 1'
_cell_length_a   4.69851692
_cell_length_b   7.69933005
_cell_length_c   7.70600774
_cell_angle_alpha   75.24109733
_cell_angle_beta   91.20723249
_cell_angle_gamma   89.13960919
_symmetry_Int_Tables_number   1
_chemical_formula_structural   Fe4O5F3
_chemical_formula_sum   'Fe8 O10 F6'
_cell_volume   269.45084514
_cell_formula_units_Z   2
loop_
 _symmetry_equiv_pos_site_id
 _symmetry_equiv_pos_as_xyz
  1  'x, y, z'
loop_
 _atom_site_type_symbol
 _atom_site_label
 _atom_site_symmetry_multiplicity
 _atom_site_fract_x
 _atom_site_fract_y
 _atom_site_fract_z
 _atom_site_occupancy
  Fe  Fe0  1  0.50346522  0.40810075  0.85826298  1
  Fe  Fe1  1  0.49219419  0.12234978  0.62858176  1
  Fe  Fe2  1  0.54819316  0.86662710  0.36695582  1
  Fe  Fe3  1  0.49228118  0.62036225  0.12905917  1
  Fe  Fe4  1  0.00434759  0.76338833  0.74184385  1
  Fe  Fe5  1  0.97605808  0.47844057  0.51741836  1
  Fe  Fe6  1  0.94047319  0.24434164  0.25457950  1
  Fe  Fe7  1  0.03740962  0.99440724  0.00685358  1
  O  O8  1  0.79149182  0.26522547  0.48128255  1
  O  O9  1  0.81289641  0.54438862  0.72064179  1
  O  O10  1  0.81863084  0.02232302  0.21359114  1
  O  O11  1  0.69529156  0.90696282  0.59597465  1
  O  O12  1  0.69864064  0.63579946  0.34136836  1
  O  O13  1  0.67851327  0.41177232  0.09512398  1
  O  O14  1  0.29577177  0.61126118  0.90846810  1
  O  O15  1  0.30758678  0.34419088  0.65756066  1
  O  O16  1  0.31695766  0.83454424  0.15394953  1
  O  O17  1  0.19555236  0.97717625  0.77566782  1
  F  F18  1  0.80199131  0.78670701  0.96908381  1
  F  F19  1  0.70424202  0.15728717  0.85619527  1
  F  F20  1  0.30095582  0.09619784  0.39299500  1
  F  F21  1  0.19691831  0.22876168  0.02947488  1
  F  F22  1  0.20384906  0.72289892  0.52079683  1
  F  F23  1  0.18628812  0.45648547  0.28427461  1
