# generated using pymatgen
data_Li2Mn2OF6
_symmetry_space_group_name_H-M   'P 1'
_cell_length_a   8.82344143
_cell_length_b   6.44725384
_cell_length_c   5.48119873
_cell_angle_alpha   95.17585606
_cell_angle_beta   76.04151441
_cell_angle_gamma   108.16036087
_symmetry_Int_Tables_number   1
_chemical_formula_structural   Li2Mn2OF6
_chemical_formula_sum   'Li4 Mn4 O2 F12'
_cell_volume   287.48989163
_cell_formula_units_Z   2
loop_
 _symmetry_equiv_pos_site_id
 _symmetry_equiv_pos_as_xyz
  1  'x, y, z'
loop_
 _atom_site_type_symbol
 _atom_site_label
 _atom_site_symmetry_multiplicity
 _atom_site_fract_x
 _atom_site_fract_y
 _atom_site_fract_z
 _atom_site_occupancy
  Li  Li0  1  0.26500274  0.60134783  0.08782411  1
  Li  Li1  1  0.35949392  0.75862856  0.55210385  1
  Li  Li2  1  0.64050608  0.24137144  0.44789615  1
  Li  Li3  1  0.73499726  0.39865217  0.91217589  1
  Mn  Mn4  1  0.17783705  0.00201196  0.32981340  1
  Mn  Mn5  1  0.30472409  0.20424239  0.78842865  1
  Mn  Mn6  1  0.69527591  0.79575761  0.21157135  1
  Mn  Mn7  1  0.82216295  0.99798804  0.67018660  1
  O  O8  1  0.36302643  0.10604479  0.46165335  1
  O  O9  1  0.63697357  0.89395521  0.53834665  1
  F  F10  1  0.15424515  0.71281255  0.40579937  1
  F  F11  1  0.26265405  0.91065479  0.92897312  1
  F  F12  1  0.04961963  0.08495173  0.71054176  1
  F  F13  1  0.22140666  0.27386776  0.14711005  1
  F  F14  1  0.29671814  0.49456460  0.73844116  1
  F  F15  1  0.45893798  0.70343157  0.19944515  1
  F  F16  1  0.54106202  0.29656843  0.80055485  1
  F  F17  1  0.70328186  0.50543540  0.26155884  1
  F  F18  1  0.77859334  0.72613224  0.85288995  1
  F  F19  1  0.95038037  0.91504827  0.28945824  1
  F  F20  1  0.73734595  0.08934521  0.07102688  1
  F  F21  1  0.84575485  0.28718745  0.59420063  1
