# generated using pymatgen
data_LiSn4(PO4)3
_symmetry_space_group_name_H-M   'P 1'
_cell_length_a   8.00524023
_cell_length_b   8.65205083
_cell_length_c   12.09387354
_cell_angle_alpha   122.01574816
_cell_angle_beta   108.13175267
_cell_angle_gamma   96.73127369
_symmetry_Int_Tables_number   1
_chemical_formula_structural   LiSn4(PO4)3
_chemical_formula_sum   'Li2 Sn8 P6 O24'
_cell_volume   632.22641222
_cell_formula_units_Z   2
loop_
 _symmetry_equiv_pos_site_id
 _symmetry_equiv_pos_as_xyz
  1  'x, y, z'
loop_
 _atom_site_type_symbol
 _atom_site_label
 _atom_site_symmetry_multiplicity
 _atom_site_fract_x
 _atom_site_fract_y
 _atom_site_fract_z
 _atom_site_occupancy
  Li  Li0  1  0.34389494  0.16610826  0.27705144  1
  Li  Li1  1  0.65610506  0.83389174  0.72294856  1
  Sn  Sn2  1  0.04732888  0.78600836  0.48445746  1
  Sn  Sn3  1  0.22259007  0.90241406  0.89980924  1
  Sn  Sn4  1  0.23476516  0.44014466  0.88384533  1
  Sn  Sn5  1  0.33334909  0.65301314  0.27610878  1
  Sn  Sn6  1  0.66665091  0.34698686  0.72389122  1
  Sn  Sn7  1  0.76523484  0.55985534  0.11615467  1
  Sn  Sn8  1  0.77740993  0.09758594  0.10019076  1
  Sn  Sn9  1  0.95267112  0.21399164  0.51554254  1
  P  P10  1  0.98001107  0.22530062  0.94239230  1
  P  P11  1  0.28557330  0.55125353  0.60187506  1
  P  P12  1  0.43850765  0.09925223  0.76817482  1
  P  P13  1  0.56149235  0.90074777  0.23182518  1
  P  P14  1  0.71442670  0.44874647  0.39812494  1
  P  P15  1  0.01998893  0.77469938  0.05760770  1
  O  O16  1  0.07805433  0.69012824  0.92945203  1
  O  O17  1  0.92685369  0.00388354  0.85761026  1
  O  O18  1  0.22140190  0.03740964  0.72137382  1
  O  O19  1  0.20836864  0.62126361  0.72001227  1
  O  O20  1  0.17898142  0.32390686  0.48955573  1
  O  O21  1  0.10698786  0.71225560  0.15582441  1
  O  O22  1  0.52253074  0.33297211  0.87639996  1
  O  O23  1  0.22788947  0.64260084  0.52019750  1
  O  O24  1  0.53211603  0.01461628  0.84376671  1
  O  O25  1  0.19827958  0.33341387  0.01287547  1
  O  O26  1  0.49707803  0.59867607  0.66658383  1
  O  O27  1  0.47731147  0.04937137  0.63712402  1
  O  O28  1  0.52268853  0.95062863  0.36287598  1
  O  O29  1  0.50292197  0.40132393  0.33341617  1
  O  O30  1  0.80172042  0.66658613  0.98712453  1
  O  O31  1  0.46788397  0.98538372  0.15623329  1
  O  O32  1  0.77211053  0.35739916  0.47980250  1
  O  O33  1  0.47746926  0.66702789  0.12360004  1
  O  O34  1  0.89301214  0.28774440  0.84417559  1
  O  O35  1  0.82101858  0.67609314  0.51044427  1
  O  O36  1  0.79163136  0.37873639  0.27998773  1
  O  O37  1  0.77859810  0.96259036  0.27862618  1
  O  O38  1  0.07314631  0.99611646  0.14238974  1
  O  O39  1  0.92194567  0.30987176  0.07054797  1
