# generated using pymatgen
data_LiMnOF2
_symmetry_space_group_name_H-M   'P 1'
_cell_length_a   5.39575078
_cell_length_b   5.39575078
_cell_length_c   9.00594248
_cell_angle_alpha   83.89096480
_cell_angle_beta   78.19846605
_cell_angle_gamma   118.75144515
_symmetry_Int_Tables_number   1
_chemical_formula_structural   LiMnOF2
_chemical_formula_sum   'Li4 Mn4 O4 F8'
_cell_volume   218.51436210
_cell_formula_units_Z   4
loop_
 _symmetry_equiv_pos_site_id
 _symmetry_equiv_pos_as_xyz
  1  'x, y, z'
loop_
 _atom_site_type_symbol
 _atom_site_label
 _atom_site_symmetry_multiplicity
 _atom_site_fract_x
 _atom_site_fract_y
 _atom_site_fract_z
 _atom_site_occupancy
  Li  Li0  1  0.22539571  0.56057479  0.65172596  1
  Li  Li1  1  0.71230075  0.87712066  0.84827404  1
  Li  Li2  1  0.28769925  0.12287934  0.15172596  1
  Li  Li3  1  0.77460429  0.43942521  0.34827404  1
  Mn  Mn4  1  0.00000000  0.50000000  0.00000000  1
  Mn  Mn5  1  0.57633508  0.82633508  0.25000000  1
  Mn  Mn6  1  0.00000000  0.00000000  0.50000000  1
  Mn  Mn7  1  0.42366492  0.17366492  0.75000000  1
  O  O8  1  0.29814946  0.78418987  0.82189986  1
  O  O9  1  0.89391027  0.87995068  0.32189986  1
  O  O10  1  0.10608973  0.12004932  0.67810014  1
  O  O11  1  0.70185054  0.21581013  0.17810014  1
  F  F12  1  0.23647704  0.80690704  0.47363587  1
  F  F13  1  0.25463128  0.72623970  0.15181482  1
  F  F14  1  0.37805452  0.40644610  0.34818518  1
  F  F15  1  0.21945709  0.28988709  0.97363587  1
  F  F16  1  0.78054291  0.71011291  0.02636413  1
  F  F17  1  0.62194548  0.59355390  0.65181482  1
  F  F18  1  0.74536872  0.27376030  0.84818518  1
  F  F19  1  0.76352296  0.19309296  0.52636413  1
