# generated using pymatgen
data_LiVOF2
_symmetry_space_group_name_H-M   'P 1'
_cell_length_a   5.27548697
_cell_length_b   8.82417828
_cell_length_c   9.56357799
_cell_angle_alpha   93.40074402
_cell_angle_beta   90.00000000
_cell_angle_gamma   90.00000000
_symmetry_Int_Tables_number   1
_chemical_formula_structural   LiVOF2
_chemical_formula_sum   'Li8 V8 O8 F16'
_cell_volume   444.41815351
_cell_formula_units_Z   8
loop_
 _symmetry_equiv_pos_site_id
 _symmetry_equiv_pos_as_xyz
  1  'x, y, z'
loop_
 _atom_site_type_symbol
 _atom_site_label
 _atom_site_symmetry_multiplicity
 _atom_site_fract_x
 _atom_site_fract_y
 _atom_site_fract_z
 _atom_site_occupancy
  Li  Li0  1  0.17775545  0.16853237  0.99880082  1
  Li  Li1  1  0.15709141  0.83273163  0.78554884  1
  Li  Li2  1  0.34290859  0.33273163  0.28554884  1
  Li  Li3  1  0.32224455  0.66853237  0.49880082  1
  Li  Li4  1  0.67694745  0.35941681  0.99404025  1
  Li  Li5  1  0.66217066  0.64958184  0.80352022  1
  Li  Li6  1  0.83782934  0.14958184  0.30352022  1
  Li  Li7  1  0.82305255  0.85941581  0.49404025  1
  V  V8  1  0.17251243  0.48707994  0.80904286  1
  V  V9  1  0.20857146  0.14231932  0.57973019  1
  V  V10  1  0.29142854  0.64231932  0.07973019  1
  V  V11  1  0.32748757  0.98707994  0.30904286  1
  V  V12  1  0.64566849  0.01408147  0.80431102  1
  V  V13  1  0.63965553  0.32696169  0.56559242  1
  V  V14  1  0.86034447  0.82696169  0.06559242  1
  V  V15  1  0.85433151  0.51408147  0.30431102  1
  O  O16  1  0.04569328  0.02025482  0.43702104  1
  O  O17  1  0.01213863  0.67247118  0.93194411  1
  O  O18  1  0.17415104  0.83656835  0.17312109  1
  O  O19  1  0.15620006  0.50474773  0.20408377  1
  O  O20  1  0.34379994  0.00474773  0.70408377  1
  O  O21  1  0.32584896  0.33656835  0.67312109  1
  O  O22  1  0.48786137  0.17247118  0.43194411  1
  O  O23  1  0.45430672  0.52025482  0.93702104  1
  F  F24  1  0.00958610  0.33277138  0.92599731  1
  F  F25  1  0.16989180  0.15712183  0.19596572  1
  F  F26  1  0.33010820  0.65712183  0.69596572  1
  F  F27  1  0.49041390  0.83277138  0.42599731  1
  F  F28  1  0.52505345  0.16946001  0.94280819  1
  F  F29  1  0.52750535  0.49372283  0.43313929  1
  F  F30  1  0.53869429  0.83897641  0.93636274  1
  F  F31  1  0.67067201  0.66438328  0.17798678  1
  F  F32  1  0.67872562  0.34420069  0.19703350  1
  F  F33  1  0.67093632  0.98461443  0.19272884  1
  F  F34  1  0.82906368  0.48461443  0.69272884  1
  F  F35  1  0.82127438  0.84420069  0.69703350  1
  F  F36  1  0.82932799  0.16438328  0.67798678  1
  F  F37  1  0.96130571  0.33897641  0.43636274  1
  F  F38  1  0.97249465  0.99372283  0.93313929  1
  F  F39  1  0.97494655  0.66946001  0.44280819  1
