# generated using pymatgen
data_Li2V(CO3)2
_symmetry_space_group_name_H-M   'P 1'
_cell_length_a   7.87448820
_cell_length_b   7.87817956
_cell_length_c   8.48053423
_cell_angle_alpha   68.81162533
_cell_angle_beta   111.17950641
_cell_angle_gamma   103.10269854
_symmetry_Int_Tables_number   1
_chemical_formula_structural   Li2V(CO3)2
_chemical_formula_sum   'Li8 V4 C8 O24'
_cell_volume   454.59975194
_cell_formula_units_Z   4
loop_
 _symmetry_equiv_pos_site_id
 _symmetry_equiv_pos_as_xyz
  1  'x, y, z'
loop_
 _atom_site_type_symbol
 _atom_site_label
 _atom_site_symmetry_multiplicity
 _atom_site_fract_x
 _atom_site_fract_y
 _atom_site_fract_z
 _atom_site_occupancy
  Li  Li0  1  0.90765677  0.48541603  0.22873775  1
  Li  Li1  1  0.70206936  0.13188868  0.20162438  1
  Li  Li2  1  0.32314907  0.67553566  0.21537011  1
  Li  Li3  1  0.43079711  0.00661134  0.39960237  1
  Li  Li4  1  0.79793539  0.36811921  0.79837004  1
  Li  Li5  1  0.59234207  0.01457879  0.77125650  1
  Li  Li6  1  0.06919838  0.49339179  0.60039402  1
  Li  Li7  1  0.17683406  0.82447153  0.78461518  1
  V  V8  1  0.49420652  0.49587268  0.99576861  1
  V  V9  1  0.74999202  0.74999889  0.49999344  1
  V  V10  1  0.00581569  0.00413658  0.00422858  1
  V  V11  1  0.24999839  0.25001258  0.49998869  1
  C  C12  1  0.63070295  0.85921211  0.08956630  1
  C  C13  1  0.87987451  0.12072791  0.58659645  1
  C  C14  1  0.62012866  0.37927368  0.41339889  1
  C  C15  1  0.13058299  0.37112243  0.08889402  1
  C  C16  1  0.86928938  0.64077637  0.91042848  1
  C  C17  1  0.38587036  0.62061770  0.58510161  1
  C  C18  1  0.11413059  0.87938798  0.41490512  1
  C  C19  1  0.36942642  0.12887935  0.91111365  1
  O  O20  1  0.94650323  0.71335515  0.03751098  1
  O  O21  1  0.75849552  0.99637901  0.07230149  1
  O  O22  1  0.44779099  0.20113074  0.03920465  1
  O  O23  1  0.98778872  0.74247810  0.43159214  1
  O  O24  1  0.67092820  0.43019641  0.27179464  1
  O  O25  1  0.57406994  0.80738786  0.22756150  1
  O  O26  1  0.26633495  0.49988928  0.07911493  1
  O  O27  1  0.79775370  0.04206478  0.46351745  1
  O  O28  1  0.70224465  0.45793937  0.53647551  1
  O  O29  1  0.49032539  0.24642845  0.43402036  1
  O  O30  1  0.92590729  0.69260601  0.77242522  1
  O  O31  1  0.17274200  0.93868995  0.27779804  1
  O  O32  1  0.82907496  0.06980054  0.72819845  1
  O  O33  1  0.06969868  0.32023285  0.22475769  1
  O  O34  1  0.51221077  0.75752628  0.56842441  1
  O  O35  1  0.30692898  0.54507347  0.45855210  1
  O  O36  1  0.19307245  0.95494278  0.54144849  1
  O  O37  1  0.74149395  0.50361230  0.92770001  1
  O  O38  1  0.43030722  0.17977201  0.77524980  1
  O  O39  1  0.32726372  0.56129837  0.72221626  1
  O  O40  1  0.00967732  0.25357689  0.56597369  1
  O  O41  1  0.55350595  0.78661952  0.96248960  1
  O  O42  1  0.23367564  0.00010797  0.92088654  1
  O  O43  1  0.05221410  0.29887161  0.96080585  1
