# generated using pymatgen
data_LiSn3(P3O10)2
_symmetry_space_group_name_H-M   'P 1'
_cell_length_a   8.76783150
_cell_length_b   8.76783150
_cell_length_c   12.51792444
_cell_angle_alpha   90.00000000
_cell_angle_beta   90.00000000
_cell_angle_gamma   74.46110296
_symmetry_Int_Tables_number   1
_chemical_formula_structural   LiSn3(P3O10)2
_chemical_formula_sum   'Li2 Sn6 P12 O40'
_cell_volume   927.14008723
_cell_formula_units_Z   2
loop_
 _symmetry_equiv_pos_site_id
 _symmetry_equiv_pos_as_xyz
  1  'x, y, z'
loop_
 _atom_site_type_symbol
 _atom_site_label
 _atom_site_symmetry_multiplicity
 _atom_site_fract_x
 _atom_site_fract_y
 _atom_site_fract_z
 _atom_site_occupancy
  Li  Li0  1  0.58274083  0.41725917  0.50000000  1
  Li  Li1  1  0.41725917  0.58274083  0.00000000  1
  Sn  Sn2  1  0.12638104  0.87361896  0.00000000  1
  Sn  Sn3  1  0.29710403  0.29710403  0.25000000  1
  Sn  Sn4  1  0.22364490  0.22364490  0.75000000  1
  Sn  Sn5  1  0.70289597  0.70289597  0.75000000  1
  Sn  Sn6  1  0.77635510  0.77635510  0.25000000  1
  Sn  Sn7  1  0.87361896  0.12638104  0.50000000  1
  P  P8  1  0.37797720  0.90732209  0.31799123  1
  P  P9  1  0.09267791  0.62202280  0.68200877  1
  P  P10  1  0.31717357  0.78065714  0.77745008  1
  P  P11  1  0.21934286  0.68282643  0.22254992  1
  P  P12  1  0.14513128  0.28542154  0.01640366  1
  P  P13  1  0.71457846  0.85486872  0.98359634  1
  P  P14  1  0.28542154  0.14513128  0.48359634  1
  P  P15  1  0.85486872  0.71457846  0.51640366  1
  P  P16  1  0.78065714  0.31717357  0.72254992  1
  P  P17  1  0.68282643  0.21934286  0.27745008  1
  P  P18  1  0.62202280  0.09267791  0.81799123  1
  P  P19  1  0.90732209  0.37797720  0.18200877  1
  O  O20  1  0.18335217  0.75699308  0.69131416  1
  O  O21  1  0.24300692  0.81664783  0.30868584  1
  O  O22  1  0.03590237  0.63580232  0.56070809  1
  O  O23  1  0.36419768  0.96409763  0.43929191  1
  O  O24  1  0.32634924  0.68374816  0.12652753  1
  O  O25  1  0.31625184  0.67365076  0.87347247  1
  O  O26  1  0.66586849  0.95053895  0.74288415  1
  O  O27  1  0.04946105  0.33413151  0.25711585  1
  O  O28  1  0.26582010  0.53074461  0.29033728  1
  O  O29  1  0.46925539  0.73417990  0.70966272  1
  O  O30  1  0.73692285  0.04468971  0.30962170  1
  O  O31  1  0.95531029  0.26307715  0.69037830  1
  O  O32  1  0.53692500  0.78889029  0.30477990  1
  O  O33  1  0.21110971  0.46307500  0.69522010  1
  O  O34  1  0.65125813  0.85654923  0.09637737  1
  O  O35  1  0.14345077  0.34874187  0.90362263  1
  O  O36  1  0.82385013  0.89155435  0.52991403  1
  O  O37  1  0.10844565  0.17614987  0.47008597  1
  O  O38  1  0.64623675  0.74490142  0.91054661  1
  O  O39  1  0.25509858  0.35376325  0.08945339  1
  O  O40  1  0.35376325  0.25509858  0.41054661  1
  O  O41  1  0.74490142  0.64623675  0.58945339  1
  O  O42  1  0.17614987  0.10844565  0.02991403  1
  O  O43  1  0.89155435  0.82385013  0.97008597  1
  O  O44  1  0.34874187  0.14345077  0.59637737  1
  O  O45  1  0.85654923  0.65125813  0.40362263  1
  O  O46  1  0.46307500  0.21110971  0.80477990  1
  O  O47  1  0.78889029  0.53692500  0.19522010  1
  O  O48  1  0.26307715  0.95531029  0.80962170  1
  O  O49  1  0.04468971  0.73692285  0.19037830  1
  O  O50  1  0.73417990  0.46925539  0.79033728  1
  O  O51  1  0.53074461  0.26582010  0.20966272  1
  O  O52  1  0.33413151  0.04946105  0.24288415  1
  O  O53  1  0.95053895  0.66586849  0.75711585  1
  O  O54  1  0.67365076  0.31625184  0.62652753  1
  O  O55  1  0.68374816  0.32634924  0.37347247  1
  O  O56  1  0.63580232  0.03590237  0.93929191  1
  O  O57  1  0.96409763  0.36419768  0.06070809  1
  O  O58  1  0.75699308  0.18335217  0.80868584  1
  O  O59  1  0.81664783  0.24300692  0.19131416  1
