# generated using pymatgen
data_LiV2O2F3
_symmetry_space_group_name_H-M   'P 1'
_cell_length_a   5.30695727
_cell_length_b   5.85105852
_cell_length_c   7.20521486
_cell_angle_alpha   70.03051578
_cell_angle_beta   90.06102288
_cell_angle_gamma   63.03182654
_symmetry_Int_Tables_number   1
_chemical_formula_structural   LiV2O2F3
_chemical_formula_sum   'Li2 V4 O4 F6'
_cell_volume   184.13722699
_cell_formula_units_Z   2
loop_
 _symmetry_equiv_pos_site_id
 _symmetry_equiv_pos_as_xyz
  1  'x, y, z'
loop_
 _atom_site_type_symbol
 _atom_site_label
 _atom_site_symmetry_multiplicity
 _atom_site_fract_x
 _atom_site_fract_y
 _atom_site_fract_z
 _atom_site_occupancy
  Li  Li0  1  0.00129630  0.99992132  0.49859779  1
  Li  Li1  1  0.99962361  0.00269858  0.99985900  1
  V  V2  1  0.62270766  0.76918775  0.70486725  1
  V  V3  1  0.60965930  0.76880652  0.20472790  1
  V  V4  1  0.38987740  0.23456767  0.79335040  1
  V  V5  1  0.37639509  0.23477806  0.29308133  1
  O  O6  1  0.72317469  0.84165882  0.93850788  1
  O  O7  1  0.43746390  0.84140793  0.43827138  1
  O  O8  1  0.56153983  0.16234617  0.55966942  1
  O  O9  1  0.27648706  0.16189210  0.05956068  1
  F  F10  1  0.04361121  0.60925846  0.66014538  1
  F  F11  1  0.65101399  0.39457908  0.83778340  1
  F  F12  1  0.34710665  0.60986426  0.16106221  1
  F  F13  1  0.95511597  0.39356684  0.33671021  1
  F  F14  1  0.19900897  0.00140159  0.74920983  1
  F  F15  1  0.80066437  0.00198186  0.24914595  1
