# generated using pymatgen
data_Li4Ti5VO12
_symmetry_space_group_name_H-M   'P 1'
_cell_length_a   8.89447578
_cell_length_b   8.91468227
_cell_length_c   10.43406963
_cell_angle_alpha   91.13987321
_cell_angle_beta   91.61267400
_cell_angle_gamma   60.31598077
_symmetry_Int_Tables_number   1
_chemical_formula_structural   Li4Ti5VO12
_chemical_formula_sum   'Li12 Ti15 V3 O36'
_cell_volume   718.45958084
_cell_formula_units_Z   3
loop_
 _symmetry_equiv_pos_site_id
 _symmetry_equiv_pos_as_xyz
  1  'x, y, z'
loop_
 _atom_site_type_symbol
 _atom_site_label
 _atom_site_symmetry_multiplicity
 _atom_site_fract_x
 _atom_site_fract_y
 _atom_site_fract_z
 _atom_site_occupancy
  Li  Li0  1  0.94174657  0.61525115  0.73122015  1
  Li  Li1  1  0.88294288  0.57753165  0.22683740  1
  Li  Li2  1  0.95721978  0.27030859  0.72933175  1
  Li  Li3  1  0.45022635  0.75593807  0.77311636  1
  Li  Li4  1  0.91326628  0.22102009  0.22357707  1
  Li  Li5  1  0.39139240  0.71792383  0.26863573  1
  Li  Li6  1  0.05172808  0.87918542  0.75325004  1
  Li  Li7  1  0.60727572  0.29855681  0.73487627  1
  Li  Li8  1  0.72593898  0.03498895  0.26528871  1
  Li  Li9  1  0.28157446  0.45415834  0.24674516  1
  Li  Li10  1  0.41994338  0.11221827  0.77640144  1
  Li  Li11  1  0.37619025  0.06285069  0.27066583  1
  Ti  Ti12  1  0.82858993  0.83404692  0.50068576  1
  Ti  Ti13  1  0.32800821  0.99721593  0.00693375  1
  Ti  Ti14  1  0.00513533  0.33644177  0.99304453  1
  Ti  Ti15  1  0.50871625  0.83296284  0.49993933  1
  Ti  Ti16  1  0.82446345  0.50000076  0.49997781  1
  Ti  Ti17  1  0.32968743  0.66113113  0.99293194  1
  Ti  Ti18  1  0.66578361  0.33818023  0.00857128  1
  Ti  Ti19  1  0.16304494  0.83172297  0.49178326  1
  Ti  Ti20  1  0.50549303  0.49890792  0.49921916  1
  Ti  Ti21  1  0.83245578  0.16344622  0.50037273  1
  Ti  Ti22  1  0.00356867  0.67245210  0.00706200  1
  Ti  Ti23  1  0.66744514  0.99532106  0.99147902  1
  Ti  Ti24  1  0.17031039  0.50132541  0.50822800  1
  Ti  Ti25  1  0.50109664  0.16977859  0.49977588  1
  Ti  Ti26  1  0.16664660  0.16664227  0.49998352  1
  V  V27  1  0.66658586  0.66678830  0.99998615  1
  V  V28  1  0.33098816  0.33321302  0.99808768  1
  V  V29  1  0.00223606  0.00033001  0.00194239  1
  O  O30  1  0.93529048  0.94828640  0.39380399  1
  O  O31  1  0.88373312  0.88088351  0.89576319  1
  O  O32  1  0.60296749  0.95319764  0.38869956  1
  O  O33  1  0.94310610  0.60764491  0.40266385  1
  O  O34  1  0.78673299  0.78700031  0.10392206  1
  O  O35  1  0.72954081  0.71599841  0.60713652  1
  O  O36  1  0.54011333  0.90235521  0.89237045  1
  O  O37  1  0.90287561  0.54731081  0.89772006  1
  O  O38  1  0.43026671  0.78630152  0.10225180  1
  O  O39  1  0.79308894  0.43120352  0.10762614  1
  O  O40  1  0.28058523  0.94406367  0.39220812  1
  O  O41  1  0.94207390  0.27540267  0.39872892  1
  O  O42  1  0.60367682  0.61736804  0.39251846  1
  O  O43  1  0.54646076  0.54649550  0.89605700  1
  O  O44  1  0.39042570  0.72554024  0.59727680  1
  O  O45  1  0.73056536  0.37985383  0.61164217  1
  O  O46  1  0.23278135  0.87727519  0.89026102  1
  O  O47  1  0.87867162  0.23733428  0.89802067  1
  O  O48  1  0.12635609  0.76272814  0.10348575  1
  O  O49  1  0.76907405  0.12086529  0.10548511  1
  O  O50  1  0.27861804  0.60721339  0.39092363  1
  O  O51  1  0.61187526  0.27149755  0.39497682  1
  O  O52  1  0.44948609  0.45269858  0.10427921  1
  O  O53  1  0.39819542  0.38491898  0.60613256  1
  O  O54  1  0.05487628  0.72589628  0.60916963  1
  O  O55  1  0.72166120  0.06148786  0.60508559  1
  O  O56  1  0.20688149  0.57081084  0.89654271  1
  O  O57  1  0.56416684  0.21264466  0.89460291  1
  O  O58  1  0.10040314  0.45630967  0.10972293  1
  O  O59  1  0.45456155  0.09619555  0.10202114  1
  O  O60  1  0.27712662  0.27691273  0.39441399  1
  O  O61  1  0.21357884  0.21137826  0.89399779  1
  O  O62  1  0.05283758  0.38910969  0.60781660  1
  O  O63  1  0.39147846  0.05763400  0.60113937  1
  O  O64  1  0.11961962  0.12222727  0.10596719  1
  O  O65  1  0.05652053  0.05612930  0.60561821  1
