# generated using pymatgen
data_Li9Fe4(BO3)8
_symmetry_space_group_name_H-M   'P 1'
_cell_length_a   8.30033498
_cell_length_b   8.26558839
_cell_length_c   8.88062092
_cell_angle_alpha   68.33524626
_cell_angle_beta   67.78116459
_cell_angle_gamma   74.82267546
_symmetry_Int_Tables_number   1
_chemical_formula_structural   Li9Fe4(BO3)8
_chemical_formula_sum   'Li9 Fe4 B8 O24'
_cell_volume   518.87497200
_cell_formula_units_Z   1
loop_
 _symmetry_equiv_pos_site_id
 _symmetry_equiv_pos_as_xyz
  1  'x, y, z'
loop_
 _atom_site_type_symbol
 _atom_site_label
 _atom_site_symmetry_multiplicity
 _atom_site_fract_x
 _atom_site_fract_y
 _atom_site_fract_z
 _atom_site_occupancy
  Li  Li0  1  0.99450220  0.33225723  0.73272858  1
  Li  Li1  1  0.68374163  0.51302793  0.91247032  1
  Li  Li2  1  0.82267774  0.00849881  0.07904974  1
  Li  Li3  1  0.50853626  0.84126323  0.39472415  1
  Li  Li4  1  0.51090288  0.11884027  0.50709267  1
  Li  Li5  1  0.19755657  0.00117552  0.91559927  1
  Li  Li6  1  0.33288096  0.50492892  0.07815880  1
  Li  Li7  1  0.01185475  0.68251741  0.27777847  1
  Li  Li8  1  0.01531418  0.33957272  0.38641882  1
  Fe  Fe9  1  0.66176526  0.50860404  0.27482512  1
  Fe  Fe10  1  0.16092707  0.00821999  0.27295555  1
  Fe  Fe11  1  0.83580365  0.98887980  0.72370885  1
  Fe  Fe12  1  0.33507545  0.48809589  0.72177813  1
  B  B13  1  0.79946462  0.95095373  0.42225980  1
  B  B14  1  0.70722972  0.53759581  0.56443231  1
  B  B15  1  0.95406312  0.28549741  0.08701004  1
  B  B16  1  0.55392505  0.21484099  0.90926655  1
  B  B17  1  0.45553932  0.78454493  0.09544189  1
  B  B18  1  0.29006014  0.44772053  0.43331332  1
  B  B19  1  0.05381326  0.71565077  0.91917276  1
  B  B20  1  0.19614139  0.04939560  0.57008625  1
  O  O21  1  0.95534666  0.76840053  0.80917582  1
  O  O22  1  0.97489873  0.87246889  0.37718506  1
  O  O23  1  0.72867743  0.01042114  0.56525676  1
  O  O24  1  0.78510386  0.48844877  0.68364990  1
  O  O25  1  0.80352115  0.51632758  0.40062026  1
  O  O26  1  0.49431935  0.68388749  0.99288656  1
  O  O27  1  0.68885493  0.07613814  0.90796968  1
  O  O28  1  0.69450789  0.97417016  0.32911930  1
  O  O29  1  0.81376232  0.42379728  0.09238645  1
  O  O30  1  0.52998961  0.61270841  0.58528327  1
  O  O31  1  0.45193500  0.26065331  0.80418917  1
  O  O32  1  0.54378734  0.74189906  0.21346076  1
  O  O33  1  0.47013477  0.37784650  0.39745087  1
  O  O34  1  0.27552381  0.98779780  0.42854093  1
  O  O35  1  0.19175205  0.57685201  0.90591433  1
  O  O36  1  0.51558609  0.31629939  0.01272752  1
  O  O37  1  0.20473434  0.47209319  0.59421791  1
  O  O38  1  0.28997176  0.03575724  0.66917411  1
  O  O39  1  0.32082738  0.92560159  0.09189528  1
  O  O40  1  0.99673374  0.19771171  0.97140130  1
  O  O41  1  0.20087521  0.48319477  0.32247324  1
  O  O42  1  0.02118382  0.13629740  0.59992445  1
  O  O43  1  0.02022174  0.79964639  0.03617758  1
  O  O44  1  0.04080681  0.23942672  0.20850910  1
