# generated using pymatgen
data_Li4Co3(OF3)2
_symmetry_space_group_name_H-M   'P 1'
_cell_length_a   5.25122714
_cell_length_b   5.93681394
_cell_length_c   5.20280656
_cell_angle_alpha   89.31232212
_cell_angle_beta   80.01491225
_cell_angle_gamma   72.47969858
_symmetry_Int_Tables_number   1
_chemical_formula_structural   Li4Co3(OF3)2
_chemical_formula_sum   'Li4 Co3 O2 F6'
_cell_volume   152.19349822
_cell_formula_units_Z   1
loop_
 _symmetry_equiv_pos_site_id
 _symmetry_equiv_pos_as_xyz
  1  'x, y, z'
loop_
 _atom_site_type_symbol
 _atom_site_label
 _atom_site_symmetry_multiplicity
 _atom_site_fract_x
 _atom_site_fract_y
 _atom_site_fract_z
 _atom_site_occupancy
  Li  Li0  1  0.97869223  0.00286130  0.99008612  1
  Li  Li1  1  0.00194743  0.23880260  0.48658925  1
  Li  Li2  1  0.99805257  0.51119740  0.01341075  1
  Li  Li3  1  0.02130777  0.74713870  0.50991388  1
  Co  Co4  1  0.49613658  0.10843695  0.74784946  1
  Co  Co5  1  0.50386342  0.64156305  0.75215054  1
  Co  Co6  1  0.50000000  0.87500000  0.25000000  1
  O  O7  1  0.26994117  0.93321341  0.60449964  1
  O  O8  1  0.73005883  0.81678659  0.89550036  1
  F  F9  1  0.21029342  0.18478678  0.11292993  1
  F  F10  1  0.76795414  0.04656686  0.38060845  1
  F  F11  1  0.74841489  0.30876084  0.84147635  1
  F  F12  1  0.25158511  0.44123916  0.65852365  1
  F  F13  1  0.78970658  0.56521322  0.38707007  1
  F  F14  1  0.23204586  0.70343314  0.11939155  1
