# generated using pymatgen
data_LiCoPO4
_symmetry_space_group_name_H-M   'P 1'
_cell_length_a   7.69786162
_cell_length_b   4.89130456
_cell_length_c   18.45770473
_cell_angle_alpha   90.00000000
_cell_angle_beta   89.72582356
_cell_angle_gamma   90.00000000
_symmetry_Int_Tables_number   1
_chemical_formula_structural   LiCoPO4
_chemical_formula_sum   'Li8 Co8 P8 O32'
_cell_volume   694.97235132
_cell_formula_units_Z   8
loop_
 _symmetry_equiv_pos_site_id
 _symmetry_equiv_pos_as_xyz
  1  'x, y, z'
loop_
 _atom_site_type_symbol
 _atom_site_label
 _atom_site_symmetry_multiplicity
 _atom_site_fract_x
 _atom_site_fract_y
 _atom_site_fract_z
 _atom_site_occupancy
  Li  Li0  1  0.02783478  0.75831998  0.58365237  1
  Li  Li1  1  0.02783478  0.74168002  0.08365237  1
  Li  Li2  1  0.50867625  0.33735023  0.81220972  1
  Li  Li3  1  0.50867625  0.16264977  0.31220972  1
  Li  Li4  1  0.49132375  0.83735023  0.68779028  1
  Li  Li5  1  0.49132375  0.66264977  0.18779028  1
  Li  Li6  1  0.97216522  0.25831998  0.91634763  1
  Li  Li7  1  0.97216522  0.24168002  0.41634763  1
  Co  Co8  1  0.15823247  0.77503597  0.77072692  1
  Co  Co9  1  0.15823247  0.72496403  0.27072692  1
  Co  Co10  1  0.32940054  0.22103903  0.52078412  1
  Co  Co11  1  0.32940054  0.27896097  0.02078412  1
  Co  Co12  1  0.67059946  0.72103903  0.97921588  1
  Co  Co13  1  0.67059946  0.77896097  0.47921588  1
  Co  Co14  1  0.84176753  0.27503597  0.72927308  1
  Co  Co15  1  0.84176753  0.22496403  0.22927308  1
  P  P16  1  0.24494334  0.32895519  0.68296148  1
  P  P17  1  0.24494334  0.17104481  0.18296148  1
  P  P18  1  0.25896077  0.73163646  0.93522075  1
  P  P19  1  0.25896077  0.76836354  0.43522075  1
  P  P20  1  0.74103923  0.23163646  0.56477925  1
  P  P21  1  0.74103923  0.26836354  0.06477925  1
  P  P22  1  0.75505666  0.82895519  0.81703852  1
  P  P23  1  0.75505666  0.67104481  0.31703852  1
  O  O24  1  0.07738622  0.43536755  0.72293623  1
  O  O25  1  0.07738622  0.06463245  0.22293623  1
  O  O26  1  0.17671362  0.60649480  0.00503114  1
  O  O27  1  0.16266726  0.61674348  0.86838579  1
  O  O28  1  0.22253894  0.41713152  0.60347512  1
  O  O29  1  0.25937049  0.01270987  0.69163347  1
  O  O30  1  0.17671362  0.89350520  0.50503114  1
  O  O31  1  0.16266726  0.88325652  0.36838579  1
  O  O32  1  0.22253894  0.08286848  0.10347512  1
  O  O33  1  0.25937049  0.48729013  0.19163347  1
  O  O34  1  0.24720117  0.04870480  0.93680606  1
  O  O35  1  0.24720117  0.45129520  0.43680606  1
  O  O36  1  0.39745563  0.47543116  0.72135454  1
  O  O37  1  0.39745563  0.02456884  0.22135454  1
  O  O38  1  0.44944052  0.62181474  0.93124396  1
  O  O39  1  0.44944052  0.87818526  0.43124396  1
  O  O40  1  0.55055948  0.12181474  0.56875604  1
  O  O41  1  0.55055948  0.37818526  0.06875604  1
  O  O42  1  0.60254437  0.97543116  0.77864546  1
  O  O43  1  0.60254437  0.52456884  0.27864546  1
  O  O44  1  0.75279883  0.54870480  0.56319394  1
  O  O45  1  0.75279883  0.95129520  0.06319394  1
  O  O46  1  0.74062951  0.51270987  0.80836653  1
  O  O47  1  0.77746106  0.91713152  0.89652488  1
  O  O48  1  0.83733274  0.11674348  0.63161421  1
  O  O49  1  0.82328638  0.10649480  0.49496886  1
  O  O50  1  0.74062951  0.98729013  0.30836653  1
  O  O51  1  0.77746106  0.58286848  0.39652488  1
  O  O52  1  0.83733274  0.38325652  0.13161421  1
  O  O53  1  0.82328638  0.39350520  0.99496886  1
  O  O54  1  0.92261378  0.93536755  0.77706377  1
  O  O55  1  0.92261378  0.56463245  0.27706377  1
