# generated using pymatgen
data_LiVF4
_symmetry_space_group_name_H-M   'P 1'
_cell_length_a   4.96898288
_cell_length_b   6.09777343
_cell_length_c   4.96898297
_cell_angle_alpha   65.95572880
_cell_angle_beta   90.00000001
_cell_angle_gamma   114.04427651
_symmetry_Int_Tables_number   1
_chemical_formula_structural   LiVF4
_chemical_formula_sum   'Li2 V2 F8'
_cell_volume   123.05193550
_cell_formula_units_Z   2
loop_
 _symmetry_equiv_pos_site_id
 _symmetry_equiv_pos_as_xyz
  1  'x, y, z'
loop_
 _atom_site_type_symbol
 _atom_site_label
 _atom_site_symmetry_multiplicity
 _atom_site_fract_x
 _atom_site_fract_y
 _atom_site_fract_z
 _atom_site_occupancy
  Li  Li0  1  0.87500000  0.25000000  0.87500000  1
  Li  Li1  1  0.12500000  0.75000000  0.12500000  1
  V  V2  1  0.62500000  0.75000000  0.62500000  1
  V  V3  1  0.37500000  0.25000000  0.37500000  1
  F  F4  1  0.98778480  0.05726714  0.69770582  1
  F  F5  1  0.56948334  0.05726714  0.24502704  1
  F  F6  1  0.69770582  0.44273286  0.56948334  1
  F  F7  1  0.75497296  0.55726714  0.01221520  1
  F  F8  1  0.30229418  0.55726714  0.43051666  1
  F  F9  1  0.24502704  0.44273286  0.98778480  1
  F  F10  1  0.43051666  0.94273286  0.75497296  1
  F  F11  1  0.01221520  0.94273286  0.30229418  1
