# generated using pymatgen
data_Li5VO3F2
_symmetry_space_group_name_H-M   'P 1'
_cell_length_a   4.02386828
_cell_length_b   5.24462453
_cell_length_c   5.97826522
_cell_angle_alpha   70.45766944
_cell_angle_beta   90.01559142
_cell_angle_gamma   67.44346228
_symmetry_Int_Tables_number   1
_chemical_formula_structural   Li5VO3F2
_chemical_formula_sum   'Li5 V1 O3 F2'
_cell_volume   108.59528761
_cell_formula_units_Z   1
loop_
 _symmetry_equiv_pos_site_id
 _symmetry_equiv_pos_as_xyz
  1  'x, y, z'
loop_
 _atom_site_type_symbol
 _atom_site_label
 _atom_site_symmetry_multiplicity
 _atom_site_fract_x
 _atom_site_fract_y
 _atom_site_fract_z
 _atom_site_occupancy
  Li  Li0  1  0.67216969  0.65793729  0.87969207  1
  Li  Li1  1  0.70478458  0.59363415  0.30756793  1
  Li  Li2  1  0.29624049  0.41013166  0.69192248  1
  Li  Li3  1  0.32816751  0.34632849  0.11895679  1
  Li  Li4  1  0.99992746  0.99878662  0.49808040  1
  V  V5  1  0.00016120  0.00262923  0.99893396  1
  O  O6  1  0.14051714  0.72104333  0.81938439  1
  O  O7  1  0.85925746  0.28406600  0.17967096  1
  O  O8  1  0.50002832  0.00258445  0.99937192  1
  F  F9  1  0.17462378  0.65343512  0.34201721  1
  F  F10  1  0.82417335  0.35408768  0.65780689  1
