# generated using pymatgen
data_Li2Cr3CuO8
_symmetry_space_group_name_H-M   'P 1'
_cell_length_a   5.90868712
_cell_length_b   5.90868694
_cell_length_c   5.90868677
_cell_angle_alpha   59.47817218
_cell_angle_beta   59.47816974
_cell_angle_gamma   59.47816969
_symmetry_Int_Tables_number   1
_chemical_formula_structural   Li2Cr3CuO8
_chemical_formula_sum   'Li2 Cr3 Cu1 O8'
_cell_volume   144.13594636
_cell_formula_units_Z   1
loop_
 _symmetry_equiv_pos_site_id
 _symmetry_equiv_pos_as_xyz
  1  'x, y, z'
loop_
 _atom_site_type_symbol
 _atom_site_label
 _atom_site_symmetry_multiplicity
 _atom_site_fract_x
 _atom_site_fract_y
 _atom_site_fract_z
 _atom_site_occupancy
  Li  Li0  1  0.12383099  0.12383099  0.12383099  1
  Li  Li1  1  0.49979922  0.49979922  0.49979922  1
  Cr  Cr2  1  0.00703569  0.49847962  0.49847962  1
  Cr  Cr3  1  0.49847962  0.00703569  0.49847962  1
  Cr  Cr4  1  0.49847962  0.49847962  0.00703569  1
  Cu  Cu5  1  0.87900135  0.87900135  0.87900135  1
  O  O6  1  0.25999593  0.25999593  0.25999593  1
  O  O7  1  0.24825201  0.24825201  0.71050500  1
  O  O8  1  0.24825201  0.71050500  0.24825201  1
  O  O9  1  0.71050500  0.24825201  0.24825201  1
  O  O10  1  0.28824337  0.74821586  0.74821586  1
  O  O11  1  0.74821586  0.28824337  0.74821586  1
  O  O12  1  0.74821586  0.74821586  0.28824337  1
  O  O13  1  0.74169348  0.74169348  0.74169348  1
