# generated using pymatgen
data_Li2VF4
_symmetry_space_group_name_H-M   'P 1'
_cell_length_a   12.24803046
_cell_length_b   6.01107300
_cell_length_c   9.03566379
_cell_angle_alpha   89.99997537
_cell_angle_beta   90.00000236
_cell_angle_gamma   90.00000576
_symmetry_Int_Tables_number   1
_chemical_formula_structural   Li2VF4
_chemical_formula_sum   'Li16 V8 F32'
_cell_volume   665.23995074
_cell_formula_units_Z   8
loop_
 _symmetry_equiv_pos_site_id
 _symmetry_equiv_pos_as_xyz
  1  'x, y, z'
loop_
 _atom_site_type_symbol
 _atom_site_label
 _atom_site_symmetry_multiplicity
 _atom_site_fract_x
 _atom_site_fract_y
 _atom_site_fract_z
 _atom_site_occupancy
  Li  Li0  1  0.04494536  0.62371306  0.75511808  1
  Li  Li1  1  0.11067957  0.22244131  0.95250454  1
  Li  Li2  1  0.13361806  0.78478563  0.47082175  1
  Li  Li3  1  0.22480194  0.25605321  0.69285706  1
  Li  Li4  1  0.27519800  0.75605318  0.19285712  1
  Li  Li5  1  0.36638181  0.28478558  0.97082167  1
  Li  Li6  1  0.38932047  0.72244114  0.45250468  1
  Li  Li7  1  0.45505452  0.12371298  0.25511805  1
  Li  Li8  1  0.54494536  0.87628777  0.75511795  1
  Li  Li9  1  0.61067937  0.27755958  0.95250466  1
  Li  Li10  1  0.63361803  0.71521503  0.47082180  1
  Li  Li11  1  0.72480187  0.24394756  0.69285705  1
  Li  Li12  1  0.77519804  0.74394743  0.19285706  1
  Li  Li13  1  0.86638164  0.21521519  0.97082171  1
  Li  Li14  1  0.88932050  0.77755956  0.45250466  1
  Li  Li15  1  0.95505449  0.37628758  0.25511802  1
  V  V16  1  0.05210687  0.74831013  0.09624110  1
  V  V17  1  0.19336014  0.28806182  0.31637291  1
  V  V18  1  0.30664119  0.78806711  0.81637031  1
  V  V19  1  0.44788790  0.24829820  0.59624328  1
  V  V20  1  0.55211168  0.75168637  0.09624510  1
  V  V21  1  0.69336013  0.21193190  0.31637107  1
  V  V22  1  0.80664370  0.71193598  0.81636635  1
  V  V23  1  0.94788991  0.25169014  0.59624371  1
  F  F24  1  0.00467678  0.95751937  0.50356368  1
  F  F25  1  0.04623410  0.40149820  0.43149616  1
  F  F26  1  0.07969390  0.30998458  0.74481099  1
  F  F27  1  0.09096036  0.40220600  0.14248474  1
  F  F28  1  0.14982315  0.94386647  0.25161667  1
  F  F29  1  0.17008793  0.75286916  0.67896178  1
  F  F30  1  0.21240831  0.69078111  0.00026529  1
  F  F31  1  0.24978172  0.10870440  0.88168673  1
  F  F32  1  0.25021829  0.60870398  0.38168666  1
  F  F33  1  0.28759189  0.19078060  0.50026487  1
  F  F34  1  0.32991170  0.25286854  0.17896209  1
  F  F35  1  0.35017710  0.44386667  0.75161665  1
  F  F36  1  0.40903973  0.90220497  0.64248486  1
  F  F37  1  0.42030620  0.80998450  0.24481080  1
  F  F38  1  0.45376566  0.90149798  0.93149633  1
  F  F39  1  0.49532326  0.45751973  0.00356352  1
  F  F40  1  0.50467654  0.54248037  0.50356381  1
  F  F41  1  0.54623448  0.09850186  0.43149620  1
  F  F42  1  0.57969370  0.19001629  0.74481085  1
  F  F43  1  0.59096025  0.09779509  0.14248467  1
  F  F44  1  0.64982314  0.55613453  0.25161683  1
  F  F45  1  0.67008803  0.74713191  0.67896137  1
  F  F46  1  0.71240806  0.80921997  0.00026500  1
  F  F47  1  0.74978162  0.39129647  0.88168632  1
  F  F48  1  0.75021856  0.89129653  0.38168650  1
  F  F49  1  0.78759197  0.30922000  0.50026471  1
  F  F50  1  0.82991156  0.24713122  0.17896149  1
  F  F51  1  0.85017690  0.05613421  0.75161640  1
  F  F52  1  0.90903973  0.59779553  0.64248450  1
  F  F53  1  0.92030609  0.69001610  0.24481074  1
  F  F54  1  0.95376598  0.59850291  0.93149586  1
  F  F55  1  0.99532276  0.04248329  0.00356329  1
