# generated using pymatgen
data_K4Li5Mn2O8
_symmetry_space_group_name_H-M   'P 1'
_cell_length_a   5.55544234
_cell_length_b   8.92256512
_cell_length_c   10.95176933
_cell_angle_alpha   89.09500177
_cell_angle_beta   79.98530190
_cell_angle_gamma   90.05913518
_symmetry_Int_Tables_number   1
_chemical_formula_structural   K4Li5Mn2O8
_chemical_formula_sum   'K8 Li10 Mn4 O16'
_cell_volume   534.52384353
_cell_formula_units_Z   2
loop_
 _symmetry_equiv_pos_site_id
 _symmetry_equiv_pos_as_xyz
  1  'x, y, z'
loop_
 _atom_site_type_symbol
 _atom_site_label
 _atom_site_symmetry_multiplicity
 _atom_site_fract_x
 _atom_site_fract_y
 _atom_site_fract_z
 _atom_site_occupancy
  K  K0  1  0.07478126  0.99034141  0.15117903  1
  K  K1  1  0.16609415  0.23854032  0.63575105  1
  K  K2  1  0.33055775  0.50748265  0.37012030  1
  K  K3  1  0.40315216  0.76199946  0.85331469  1
  K  K4  1  0.62483336  0.24028980  0.15726972  1
  K  K5  1  0.71043292  0.53117048  0.64797585  1
  K  K6  1  0.83426396  0.76769584  0.37179768  1
  K  K7  1  0.93402840  0.96365572  0.81589124  1
  Li  Li8  1  0.09868782  0.25350362  0.30532679  1
  Li  Li9  1  0.10030681  0.52805265  0.80094922  1
  Li  Li10  1  0.31030409  0.51397416  0.07422604  1
  Li  Li11  1  0.22923431  0.01683740  0.42318191  1
  Li  Li12  1  0.41071030  0.75773031  0.19750404  1
  Li  Li13  1  0.59244946  0.23771415  0.79888770  1
  Li  Li14  1  0.53090190  0.02341138  0.99444228  1
  Li  Li15  1  0.68609882  0.47279467  0.93373718  1
  Li  Li16  1  0.77906817  0.98528004  0.56477761  1
  Li  Li17  1  0.91059046  0.48187425  0.20147253  1
  Mn  Mn18  1  0.15436436  0.28762055  0.95317050  1
  Mn  Mn19  1  0.84058406  0.69945282  0.05023742  1
  Mn  Mn20  1  0.68171496  0.22727749  0.44696471  1
  Mn  Mn21  1  0.29933853  0.78063263  0.55497148  1
  O  O22  1  0.09667663  0.67944178  0.15052723  1
  O  O23  1  0.15068431  0.30733908  0.12877863  1
  O  O24  1  0.10806782  0.94033738  0.58917785  1
  O  O25  1  0.21670151  0.59442228  0.62377824  1
  O  O26  1  0.33359602  0.80526812  0.38191130  1
  O  O27  1  0.32333836  0.09701613  0.90365638  1
  O  O28  1  0.39433199  0.21699241  0.38826914  1
  O  O29  1  0.35484313  0.45714111  0.89191767  1
  O  O30  1  0.63353493  0.53594734  0.11930111  1
  O  O31  1  0.58447517  0.80558137  0.60664042  1
  O  O32  1  0.66856632  0.89448391  0.08507321  1
  O  O33  1  0.67536333  0.19698685  0.61228147  1
  O  O34  1  0.81960618  0.39873579  0.37030867  1
  O  O35  1  0.89741331  0.08196171  0.38584364  1
  O  O36  1  0.84794003  0.66914979  0.88200089  1
  O  O37  1  0.89348097  0.30476216  0.85938820  1
