# generated using pymatgen
data_Li2FeP2O7
_symmetry_space_group_name_H-M   'P 1'
_cell_length_a   7.82596513
_cell_length_b   7.82596513
_cell_length_c   5.02875479
_cell_angle_alpha   90.00000000
_cell_angle_beta   90.00000000
_cell_angle_gamma   90.00000000
_symmetry_Int_Tables_number   1
_chemical_formula_structural   Li2FeP2O7
_chemical_formula_sum   'Li4 Fe2 P4 O14'
_cell_volume   307.98975919
_cell_formula_units_Z   2
loop_
 _symmetry_equiv_pos_site_id
 _symmetry_equiv_pos_as_xyz
  1  'x, y, z'
loop_
 _atom_site_type_symbol
 _atom_site_label
 _atom_site_symmetry_multiplicity
 _atom_site_fract_x
 _atom_site_fract_y
 _atom_site_fract_z
 _atom_site_occupancy
  Li  Li0  1  0.22224162  0.72224162  0.52928999  1
  Li  Li1  1  0.27775838  0.22224162  0.47071001  1
  Li  Li2  1  0.72224162  0.77775838  0.47071001  1
  Li  Li3  1  0.77775838  0.27775838  0.52928999  1
  Fe  Fe4  1  0.00000000  0.00000000  0.00000000  1
  Fe  Fe5  1  0.50000000  0.50000000  0.00000000  1
  P  P6  1  0.14026381  0.35973619  0.90954862  1
  P  P7  1  0.35973619  0.85973619  0.09045138  1
  P  P8  1  0.64026381  0.14026381  0.09045138  1
  P  P9  1  0.85973619  0.64026381  0.90954862  1
  O  O10  1  0.00000000  0.50000000  0.81937178  1
  O  O11  1  0.07986009  0.19506717  0.76566997  1
  O  O12  1  0.15288102  0.34711898  0.20658505  1
  O  O13  1  0.19506717  0.92013991  0.23433003  1
  O  O14  1  0.30493283  0.42013991  0.76566997  1
  O  O15  1  0.34711898  0.84711898  0.79341495  1
  O  O16  1  0.42013991  0.69506717  0.23433003  1
  O  O17  1  0.50000000  0.00000000  0.18062822  1
  O  O18  1  0.57986009  0.30493283  0.23433003  1
  O  O19  1  0.65288102  0.15288102  0.79341495  1
  O  O20  1  0.69506717  0.57986009  0.76566997  1
  O  O21  1  0.80493283  0.07986009  0.23433003  1
  O  O22  1  0.84711898  0.65288102  0.20658505  1
  O  O23  1  0.92013991  0.80493283  0.76566997  1
