# generated using pymatgen
data_LiCrSi3O8
_symmetry_space_group_name_H-M   'P 1'
_cell_length_a   7.80690165
_cell_length_b   7.09561409
_cell_length_c   7.13716583
_cell_angle_alpha   79.61131360
_cell_angle_beta   107.87125951
_cell_angle_gamma   61.40919469
_symmetry_Int_Tables_number   1
_chemical_formula_structural   LiCrSi3O8
_chemical_formula_sum   'Li2 Cr2 Si6 O16'
_cell_volume   304.02585831
_cell_formula_units_Z   2
loop_
 _symmetry_equiv_pos_site_id
 _symmetry_equiv_pos_as_xyz
  1  'x, y, z'
loop_
 _atom_site_type_symbol
 _atom_site_label
 _atom_site_symmetry_multiplicity
 _atom_site_fract_x
 _atom_site_fract_y
 _atom_site_fract_z
 _atom_site_occupancy
  Li  Li0  1  0.80920501  0.82629805  0.80362696  1
  Li  Li1  1  0.19079499  0.17370195  0.19637304  1
  Cr  Cr2  1  0.21170100  0.73796557  0.13264988  1
  Cr  Cr3  1  0.78829900  0.26203443  0.86735012  1
  Si  Si4  1  0.21259939  0.55050503  0.73537348  1
  Si  Si5  1  0.45728450  0.73013704  0.62156080  1
  Si  Si6  1  0.17780167  0.14231534  0.74445106  1
  Si  Si7  1  0.82219833  0.85768466  0.25554894  1
  Si  Si8  1  0.54271550  0.26986296  0.37843920  1
  Si  Si9  1  0.78740061  0.44949497  0.26462652  1
  O  O10  1  0.11396524  0.69420017  0.86723739  1
  O  O11  1  0.36985905  0.93056108  0.71910904  1
  O  O12  1  0.03904783  0.69646054  0.48401553  1
  O  O13  1  0.31289636  0.83759986  0.36680003  1
  O  O14  1  0.11311518  0.06648170  0.93080451  1
  O  O15  1  0.44529530  0.51733527  0.75725694  1
  O  O16  1  0.27680388  0.28709683  0.81960842  1
  O  O17  1  0.72190086  0.58081318  0.71683095  1
  O  O18  1  0.27809914  0.41918682  0.28316905  1
  O  O19  1  0.72319612  0.71290317  0.18039158  1
  O  O20  1  0.55470470  0.48266473  0.24274306  1
  O  O21  1  0.88688482  0.93351830  0.06919549  1
  O  O22  1  0.68710364  0.16240014  0.63319997  1
  O  O23  1  0.96095217  0.30353946  0.51598447  1
  O  O24  1  0.63014095  0.06943892  0.28089096  1
  O  O25  1  0.88603476  0.30579983  0.13276261  1
