# generated using pymatgen
data_LiVF3
_symmetry_space_group_name_H-M   'P 1'
_cell_length_a   3.26982943
_cell_length_b   5.61968420
_cell_length_c   6.70365063
_cell_angle_alpha   90.00000000
_cell_angle_beta   104.15877747
_cell_angle_gamma   90.00000000
_symmetry_Int_Tables_number   1
_chemical_formula_structural   LiVF3
_chemical_formula_sum   'Li2 V2 F6'
_cell_volume   119.44023748
_cell_formula_units_Z   2
loop_
 _symmetry_equiv_pos_site_id
 _symmetry_equiv_pos_as_xyz
  1  'x, y, z'
loop_
 _atom_site_type_symbol
 _atom_site_label
 _atom_site_symmetry_multiplicity
 _atom_site_fract_x
 _atom_site_fract_y
 _atom_site_fract_z
 _atom_site_occupancy
  Li  Li0  1  0.07200179  0.75000000  0.12767648  1
  Li  Li1  1  0.92799821  0.25000000  0.87232352  1
  V  V2  1  0.33497753  0.75000000  0.66685989  1
  V  V3  1  0.66502247  0.25000000  0.33314011  1
  F  F4  1  0.16334621  0.00298076  0.32921252  1
  F  F5  1  0.16334621  0.49701924  0.32921252  1
  F  F6  1  0.50032665  0.75000000  0.98452572  1
  F  F7  1  0.49967335  0.25000000  0.01547428  1
  F  F8  1  0.83665379  0.50298076  0.67078748  1
  F  F9  1  0.83665379  0.99701924  0.67078748  1
