# generated using pymatgen
data_Li2Cu4S3
_symmetry_space_group_name_H-M   'P 1'
_cell_length_a   8.45304220
_cell_length_b   10.77249361
_cell_length_c   6.36249193
_cell_angle_alpha   90.00000000
_cell_angle_beta   90.00000000
_cell_angle_gamma   90.00000000
_symmetry_Int_Tables_number   1
_chemical_formula_structural   Li2Cu4S3
_chemical_formula_sum   'Li8 Cu16 S12'
_cell_volume   579.37069802
_cell_formula_units_Z   4
loop_
 _symmetry_equiv_pos_site_id
 _symmetry_equiv_pos_as_xyz
  1  'x, y, z'
loop_
 _atom_site_type_symbol
 _atom_site_label
 _atom_site_symmetry_multiplicity
 _atom_site_fract_x
 _atom_site_fract_y
 _atom_site_fract_z
 _atom_site_occupancy
  Li  Li0  1  0.00000000  0.00000000  0.00000000  1
  Li  Li1  1  0.00000000  0.50000000  0.00000000  1
  Li  Li2  1  0.02510684  0.75000000  0.61033915  1
  Li  Li3  1  0.47489316  0.25000000  0.11033915  1
  Li  Li4  1  0.50000000  0.00000000  0.50000000  1
  Li  Li5  1  0.50000000  0.50000000  0.50000000  1
  Li  Li6  1  0.52510684  0.75000000  0.88966085  1
  Li  Li7  1  0.97489316  0.25000000  0.38966085  1
  Cu  Cu8  1  0.16986689  0.08516726  0.62756313  1
  Cu  Cu9  1  0.16986689  0.41483274  0.62756313  1
  Cu  Cu10  1  0.14074239  0.75000000  0.98609145  1
  Cu  Cu11  1  0.16283333  0.25000000  0.06021877  1
  Cu  Cu12  1  0.33716667  0.75000000  0.56021877  1
  Cu  Cu13  1  0.35925761  0.25000000  0.48609145  1
  Cu  Cu14  1  0.33013311  0.58516726  0.12756313  1
  Cu  Cu15  1  0.33013311  0.91483274  0.12756313  1
  Cu  Cu16  1  0.66986689  0.08516726  0.87243687  1
  Cu  Cu17  1  0.66986689  0.41483274  0.87243687  1
  Cu  Cu18  1  0.64074239  0.75000000  0.51390855  1
  Cu  Cu19  1  0.66283333  0.25000000  0.43978123  1
  Cu  Cu20  1  0.83716667  0.75000000  0.93978123  1
  Cu  Cu21  1  0.85925761  0.25000000  0.01390855  1
  Cu  Cu22  1  0.83013311  0.58516726  0.37243687  1
  Cu  Cu23  1  0.83013311  0.91483274  0.37243687  1
  S  S24  1  0.03732516  0.25000000  0.75473140  1
  S  S25  1  0.25115742  0.59126450  0.77744302  1
  S  S26  1  0.25115742  0.90873550  0.77744302  1
  S  S27  1  0.24884258  0.09126450  0.27744302  1
  S  S28  1  0.24884258  0.40873550  0.27744302  1
  S  S29  1  0.46267484  0.75000000  0.25473140  1
  S  S30  1  0.53732516  0.25000000  0.74526860  1
  S  S31  1  0.75115742  0.59126450  0.72255698  1
  S  S32  1  0.75115742  0.90873550  0.72255698  1
  S  S33  1  0.74884258  0.09126450  0.22255698  1
  S  S34  1  0.74884258  0.40873550  0.22255698  1
  S  S35  1  0.96267484  0.75000000  0.24526860  1
