# generated using pymatgen
data_Li6V(SiO4)2
_symmetry_space_group_name_H-M   'P 1'
_cell_length_a   6.21806104
_cell_length_b   11.05407875
_cell_length_c   5.12876768
_cell_angle_alpha   90.00000000
_cell_angle_beta   88.34166720
_cell_angle_gamma   90.00000000
_symmetry_Int_Tables_number   1
_chemical_formula_structural   Li6V(SiO4)2
_chemical_formula_sum   'Li12 V2 Si4 O16'
_cell_volume   352.37787174
_cell_formula_units_Z   2
loop_
 _symmetry_equiv_pos_site_id
 _symmetry_equiv_pos_as_xyz
  1  'x, y, z'
loop_
 _atom_site_type_symbol
 _atom_site_label
 _atom_site_symmetry_multiplicity
 _atom_site_fract_x
 _atom_site_fract_y
 _atom_site_fract_z
 _atom_site_occupancy
  Li  Li0  1  0.01891100  0.34285307  0.85478370  1
  Li  Li1  1  0.24942888  0.56339301  0.80167697  1
  Li  Li2  1  0.23884359  0.07355179  0.65402404  1
  Li  Li3  1  0.30354498  0.19382670  0.02311487  1
  Li  Li4  1  0.50518202  0.84659306  0.68964121  1
  Li  Li5  1  0.49106370  0.34744444  0.81920389  1
  Li  Li6  1  0.51891100  0.15714693  0.35478370  1
  Li  Li7  1  0.73884359  0.42644821  0.15402404  1
  Li  Li8  1  0.74942888  0.93660699  0.30167697  1
  Li  Li9  1  0.80354498  0.30617330  0.52311487  1
  Li  Li10  1  0.00518202  0.65340694  0.18964121  1
  Li  Li11  1  0.99106370  0.15255556  0.31920389  1
  V  V12  1  0.99623266  0.82740599  0.69867259  1
  V  V13  1  0.49623266  0.67259401  0.19867259  1
  Si  Si14  1  0.24815380  0.40324955  0.32985641  1
  Si  Si15  1  0.24966264  0.92357900  0.17307012  1
  Si  Si16  1  0.74966264  0.57642100  0.67307012  1
  Si  Si17  1  0.74815380  0.09675045  0.82985641  1
  O  O18  1  0.02678310  0.33176956  0.23165580  1
  O  O19  1  0.03512730  0.84308030  0.27487407  1
  O  O20  1  0.25157980  0.06449343  0.27711979  1
  O  O21  1  0.24977529  0.40754006  0.64854905  1
  O  O22  1  0.25462654  0.54107328  0.20114036  1
  O  O23  1  0.25155332  0.92497165  0.85022607  1
  O  O24  1  0.45988818  0.32525439  0.21178370  1
  O  O25  1  0.46647419  0.85394940  0.27882937  1
  O  O26  1  0.53512730  0.65691970  0.77487407  1
  O  O27  1  0.52678310  0.16823044  0.73165580  1
  O  O28  1  0.75155332  0.57502835  0.35022607  1
  O  O29  1  0.74977529  0.09245994  0.14854905  1
  O  O30  1  0.75157980  0.43550657  0.77711979  1
  O  O31  1  0.75462654  0.95892672  0.70114136  1
  O  O32  1  0.96647419  0.64605060  0.77882937  1
  O  O33  1  0.95988818  0.17474561  0.71178370  1
