# generated using pymatgen
data_BaCaI4
_symmetry_space_group_name_H-M   'P 1'
_cell_length_a   18.71559541
_cell_length_b   10.86842191
_cell_length_c   10.83946421
_cell_angle_alpha   90.00000000
_cell_angle_beta   85.13530744
_cell_angle_gamma   90.00000000
_symmetry_Int_Tables_number   1
_chemical_formula_structural   BaCaI4
_chemical_formula_sum   'Ba8 Ca8 I32'
_cell_volume   2196.90202253
_cell_formula_units_Z   8
loop_
 _symmetry_equiv_pos_site_id
 _symmetry_equiv_pos_as_xyz
  1  'x, y, z'
loop_
 _atom_site_type_symbol
 _atom_site_label
 _atom_site_symmetry_multiplicity
 _atom_site_fract_x
 _atom_site_fract_y
 _atom_site_fract_z
 _atom_site_occupancy
  Ba  Ba0  1  0.15147302  0.97174328  0.60621671  1
  Ba  Ba1  1  0.14293927  0.70687521  0.17119748  1
  Ba  Ba2  1  0.34852698  0.47174328  0.89378329  1
  Ba  Ba3  1  0.35706073  0.20687521  0.32880252  1
  Ba  Ba4  1  0.64293927  0.79312479  0.67119748  1
  Ba  Ba5  1  0.65147302  0.52825672  0.10621671  1
  Ba  Ba6  1  0.85706073  0.29312479  0.82880252  1
  Ba  Ba7  1  0.84852698  0.02825672  0.39378329  1
  Ca  Ca8  1  0.08275098  0.45190905  0.64130836  1
  Ca  Ca9  1  0.08074532  0.16629431  0.07587330  1
  Ca  Ca10  1  0.41724902  0.95190905  0.85869164  1
  Ca  Ca11  1  0.41925468  0.66629431  0.42412670  1
  Ca  Ca12  1  0.58074532  0.33370569  0.57587330  1
  Ca  Ca13  1  0.58275098  0.04809095  0.14130836  1
  Ca  Ca14  1  0.91925468  0.83370569  0.92412670  1
  Ca  Ca15  1  0.91724902  0.54809095  0.35869164  1
  I  I16  1  0.04386769  0.43104438  0.17686830  1
  I  I17  1  0.05642607  0.22434128  0.80461981  1
  I  I18  1  0.05311155  0.67878135  0.48157764  1
  I  I19  1  0.09067398  0.89563920  0.92141681  1
  I  I20  1  0.10234271  0.99968337  0.29994976  1
  I  I21  1  0.18824668  0.56707493  0.80980805  1
  I  I22  1  0.18921152  0.28052358  0.48344196  1
  I  I23  1  0.23882295  0.25767919  0.07602121  1
  I  I24  1  0.26117705  0.75767919  0.42397879  1
  I  I25  1  0.31078848  0.78052358  0.01655804  1
  I  I26  1  0.31175332  0.06707493  0.69019195  1
  I  I27  1  0.39765729  0.49968337  0.20005024  1
  I  I28  1  0.40932602  0.39563920  0.57858319  1
  I  I29  1  0.44357393  0.72434128  0.69538019  1
  I  I30  1  0.44688845  0.17878135  0.01842236  1
  I  I31  1  0.45613231  0.93104438  0.32313170  1
  I  I32  1  0.54386769  0.06895562  0.67686830  1
  I  I33  1  0.55311155  0.82121865  0.98157764  1
  I  I34  1  0.55642607  0.27565872  0.30461981  1
  I  I35  1  0.59067398  0.60436080  0.42141681  1
  I  I36  1  0.60234271  0.50031663  0.79994976  1
  I  I37  1  0.68824668  0.93292507  0.30980805  1
  I  I38  1  0.68921152  0.21947642  0.98344196  1
  I  I39  1  0.73882295  0.24232081  0.57602121  1
  I  I40  1  0.76117705  0.74232081  0.92397879  1
  I  I41  1  0.81078848  0.71947642  0.51655804  1
  I  I42  1  0.81175332  0.43292507  0.19019195  1
  I  I43  1  0.89765729  0.00031663  0.70005024  1
  I  I44  1  0.90932602  0.10436080  0.07858319  1
  I  I45  1  0.94688845  0.32121865  0.51842236  1
  I  I46  1  0.94357393  0.77565872  0.19538019  1
  I  I47  1  0.95613231  0.56895562  0.82313170  1
