# generated using pymatgen
data_Li3V(OF)2
_symmetry_space_group_name_H-M   'P 1'
_cell_length_a   2.93970997
_cell_length_b   5.94387991
_cell_length_c   5.94388360
_cell_angle_alpha   59.36781249
_cell_angle_beta   119.64054058
_cell_angle_gamma   119.64052408
_symmetry_Int_Tables_number   1
_chemical_formula_structural   Li3V(OF)2
_chemical_formula_sum   'Li3 V1 O2 F2'
_cell_volume   73.47308843
_cell_formula_units_Z   1
loop_
 _symmetry_equiv_pos_site_id
 _symmetry_equiv_pos_as_xyz
  1  'x, y, z'
loop_
 _atom_site_type_symbol
 _atom_site_label
 _atom_site_symmetry_multiplicity
 _atom_site_fract_x
 _atom_site_fract_y
 _atom_site_fract_z
 _atom_site_occupancy
  Li  Li0  1  0.99961735  0.50068775  0.00047365  1
  Li  Li1  1  0.00003206  0.50048753  0.50049315  1
  Li  Li2  1  0.99961750  0.00046819  0.50069328  1
  V  V3  1  0.99979070  0.00067181  0.00063205  1
  O  O4  1  0.49978833  0.76589163  0.23547058  1
  O  O5  1  0.49979225  0.23546614  0.76589873  1
  F  F6  1  0.49418708  0.24799980  0.24800537  1
  F  F7  1  0.50545973  0.75338614  0.75339217  1
