# generated using pymatgen
data_Fe4O5F3
_symmetry_space_group_name_H-M   'P 1'
_cell_length_a   4.74351043
_cell_length_b   9.47395892
_cell_length_c   6.06040209
_cell_angle_alpha   90.20349534
_cell_angle_beta   89.76571606
_cell_angle_gamma   94.17471957
_symmetry_Int_Tables_number   1
_chemical_formula_structural   Fe4O5F3
_chemical_formula_sum   'Fe8 O10 F6'
_cell_volume   271.62704369
_cell_formula_units_Z   2
loop_
 _symmetry_equiv_pos_site_id
 _symmetry_equiv_pos_as_xyz
  1  'x, y, z'
loop_
 _atom_site_type_symbol
 _atom_site_label
 _atom_site_symmetry_multiplicity
 _atom_site_fract_x
 _atom_site_fract_y
 _atom_site_fract_z
 _atom_site_occupancy
  Fe  Fe0  1  0.00192991  0.00440913  -0.00000399  1
  Fe  Fe1  1  0.97588583  0.99123024  0.50110106  1
  Fe  Fe2  1  0.01883006  0.49506867  0.99218830  1
  Fe  Fe3  1  0.00739767  0.49112342  0.50722462  1
  Fe  Fe4  1  0.55365661  0.23630911  0.24009311  1
  Fe  Fe5  1  0.48644976  0.27069939  0.75760620  1
  Fe  Fe6  1  0.50218806  0.74573368  0.25042969  1
  Fe  Fe7  1  0.45591056  0.76676214  0.75265657  1
  O  O8  1  0.19934884  0.40829495  0.74801759  1
  O  O9  1  0.16781610  0.91034033  0.75242486  1
  O  O10  1  0.30654270  0.15204075  0.00027924  1
  O  O11  1  0.30778898  0.65514244  0.00808794  1
  O  O12  1  0.30216565  0.65331185  0.49275829  1
  O  O13  1  0.70910834  0.35070008  0.00152192  1
  O  O14  1  0.69780772  0.34425659  0.49616234  1
  O  O15  1  0.68890688  0.84926895  0.00540964  1
  O  O16  1  0.67911878  0.84320043  0.49634155  1
  O  O17  1  0.82224174  0.08904919  0.24862328  1
  F  F18  1  0.19996847  0.40162719  0.25034857  1
  F  F19  1  0.19616471  0.90126002  0.25410332  1
  F  F20  1  0.30018490  0.14873853  0.49911182  1
  F  F21  1  0.81214137  0.59779205  0.75082699  1
  F  F22  1  0.79316086  0.10047918  0.74457347  1
  F  F23  1  0.81528650  0.59316068  0.25011662  1
