# generated using pymatgen
data_LiNiP2O7
_symmetry_space_group_name_H-M   'P 1'
_cell_length_a   6.31400467
_cell_length_b   6.31410385
_cell_length_c   13.64730772
_cell_angle_alpha   76.18642791
_cell_angle_beta   81.27908302
_cell_angle_gamma   99.14476792
_symmetry_Int_Tables_number   1
_chemical_formula_structural   LiNiP2O7
_chemical_formula_sum   'Li4 Ni4 P8 O28'
_cell_volume   511.33119013
_cell_formula_units_Z   4
loop_
 _symmetry_equiv_pos_site_id
 _symmetry_equiv_pos_as_xyz
  1  'x, y, z'
loop_
 _atom_site_type_symbol
 _atom_site_label
 _atom_site_symmetry_multiplicity
 _atom_site_fract_x
 _atom_site_fract_y
 _atom_site_fract_z
 _atom_site_occupancy
  Li  Li0  1  0.21892721  0.60973025  0.66754709  1
  Li  Li1  1  0.77708627  0.88353581  0.83393093  1
  Li  Li2  1  0.22324288  0.11431637  0.16701840  1
  Li  Li3  1  0.78412732  0.38894727  0.33304621  1
  Ni  Ni4  1  0.41575124  0.99899252  0.35864777  1
  Ni  Ni5  1  0.14215297  0.22635657  0.85933101  1
  Ni  Ni6  1  0.85826089  0.77225649  0.14134801  1
  Ni  Ni7  1  0.58730963  0.00059703  0.64135429  1
  P  P8  1  0.26047734  0.75907343  0.86626450  1
  P  P9  1  0.35259834  0.67852898  0.08649557  1
  P  P10  1  0.26799122  0.43848796  0.41348704  1
  P  P11  1  0.87609758  0.87331910  0.36629586  1
  P  P12  1  0.12707698  0.12625562  0.63408600  1
  P  P13  1  0.73528397  0.56105450  0.58672577  1
  P  P14  1  0.64781606  0.31960667  0.91387444  1
  P  P15  1  0.74017867  0.23976160  0.13392630  1
  O  O16  1  0.08051529  0.89105756  0.88524277  1
  O  O17  1  0.19192657  0.81717355  0.12035474  1
  O  O18  1  0.27825379  0.96522536  0.61530791  1
  O  O19  1  0.47305445  0.90577211  0.79714628  1
  O  O20  1  0.09711385  0.45479681  0.34553486  1
  O  O21  1  0.17601749  0.55999349  0.82773783  1
  O  O22  1  0.32285896  0.65328660  0.97456408  1
  O  O23  1  0.36644311  0.66739350  0.42268884  1
  O  O24  1  0.59106019  0.78621751  0.07645988  1
  O  O25  1  0.30131336  0.43993379  0.15483594  1
  O  O26  1  0.13141154  0.29815642  0.52587177  1
  O  O27  1  0.56286321  0.68766721  0.62045866  1
  O  O28  1  0.88949853  0.00300079  0.67237853  1
  O  O29  1  0.20390670  0.26904875  0.70358527  1
  O  O30  1  0.79908979  0.72979767  0.29712686  1
  O  O31  1  0.11348642  0.99669153  0.32772158  1
  O  O32  1  0.44019175  0.31143571  0.37971956  1
  O  O33  1  0.87300062  0.70276072  0.47468701  1
  O  O34  1  0.69902439  0.55826153  0.84524718  1
  O  O35  1  0.40933658  0.21189180  0.92402070  1
  O  O36  1  0.63776729  0.33248287  0.57685293  1
  O  O37  1  0.67776949  0.34581134  0.02569362  1
  O  O38  1  0.82377402  0.43849101  0.17285269  1
  O  O39  1  0.90555211  0.54396944  0.65510261  1
  O  O40  1  0.52787027  0.09216967  0.20296732  1
  O  O41  1  0.72474487  0.03437385  0.38483607  1
  O  O42  1  0.80834789  0.18095773  0.88022494  1
  O  O43  1  0.92034791  0.10796346  0.11483742  1
