# generated using pymatgen
data_Mg6TiZn
_symmetry_space_group_name_H-M   'P 1'
_cell_length_a   6.28008714
_cell_length_b   6.14053999
_cell_length_c   4.93241390
_cell_angle_alpha   90.00000000
_cell_angle_beta   90.00000000
_cell_angle_gamma   119.26763676
_symmetry_Int_Tables_number   1
_chemical_formula_structural   Mg6TiZn
_chemical_formula_sum   'Mg6 Ti1 Zn1'
_cell_volume   165.92823777
_cell_formula_units_Z   1
loop_
 _symmetry_equiv_pos_site_id
 _symmetry_equiv_pos_as_xyz
  1  'x, y, z'
loop_
 _atom_site_type_symbol
 _atom_site_label
 _atom_site_symmetry_multiplicity
 _atom_site_fract_x
 _atom_site_fract_y
 _atom_site_fract_z
 _atom_site_occupancy
  Mg  Mg0  1  0.66175984  0.33355644  0.25000000  1
  Mg  Mg1  1  0.66175984  0.82820240  0.25000000  1
  Mg  Mg2  1  0.32827618  0.16248335  0.75000000  1
  Mg  Mg3  1  0.32827618  0.66579383  0.75000000  1
  Mg  Mg4  1  0.84390890  0.17195495  0.75000000  1
  Mg  Mg5  1  0.84329393  0.67164747  0.75000000  1
  Ti  Ti6  1  0.16038134  0.83019017  0.25000000  1
  Zn  Zn7  1  0.17234379  0.33617140  0.25000000  1
