# generated using pymatgen
data_LaMoO5
_symmetry_space_group_name_H-M   'P 1'
_cell_length_a   5.58551974
_cell_length_b   7.01554095
_cell_length_c   13.04961849
_cell_angle_alpha   90.00000000
_cell_angle_beta   90.00000000
_cell_angle_gamma   110.59372285
_symmetry_Int_Tables_number   1
_chemical_formula_structural   LaMoO5
_chemical_formula_sum   'La4 Mo4 O20'
_cell_volume   478.67850170
_cell_formula_units_Z   4
loop_
 _symmetry_equiv_pos_site_id
 _symmetry_equiv_pos_as_xyz
  1  'x, y, z'
loop_
 _atom_site_type_symbol
 _atom_site_label
 _atom_site_symmetry_multiplicity
 _atom_site_fract_x
 _atom_site_fract_y
 _atom_site_fract_z
 _atom_site_occupancy
  La  La0  1  0.12856788  0.78325736  0.43713599  1
  La  La1  1  0.87143212  0.21674264  0.56286401  1
  La  La2  1  0.37143212  0.71674264  0.93713599  1
  La  La3  1  0.62856788  0.28325736  0.06286401  1
  Mo  Mo4  1  0.93607183  0.85798789  0.13430982  1
  Mo  Mo5  1  0.06392817  0.14201211  0.86569018  1
  Mo  Mo6  1  0.56392817  0.64201211  0.63430982  1
  Mo  Mo7  1  0.43607183  0.35798789  0.36569018  1
  O  O8  1  0.05425844  0.51833023  0.05346178  1
  O  O9  1  0.94574156  0.48166977  0.94653822  1
  O  O10  1  0.44574156  0.98166977  0.55346178  1
  O  O11  1  0.55425844  0.01833023  0.44653822  1
  O  O12  1  0.84109160  0.83169746  0.57245625  1
  O  O13  1  0.15890840  0.16830254  0.42754375  1
  O  O14  1  0.65890840  0.66830254  0.07245625  1
  O  O15  1  0.34109160  0.33169746  0.92754375  1
  O  O16  1  0.23836106  0.95356182  0.06128512  1
  O  O17  1  0.76163894  0.04643818  0.93871488  1
  O  O18  1  0.26163894  0.54643818  0.56128512  1
  O  O19  1  0.73836106  0.45356182  0.43871488  1
  O  O20  1  0.98748545  0.77308174  0.25825482  1
  O  O21  1  0.01251455  0.22691826  0.74174518  1
  O  O22  1  0.51251455  0.72691826  0.75825482  1
  O  O23  1  0.48748545  0.27308174  0.24174518  1
  O  O24  1  0.15359533  0.92767340  0.84453871  1
  O  O25  1  0.84640467  0.07232660  0.15546129  1
  O  O26  1  0.34640467  0.57232660  0.34453871  1
  O  O27  1  0.65359533  0.42767340  0.65546129  1
