# generated using pymatgen
data_Li2MnO2F
_symmetry_space_group_name_H-M   'P 1'
_cell_length_a   5.21426311
_cell_length_b   5.21426311
_cell_length_c   9.37277805
_cell_angle_alpha   79.50224578
_cell_angle_beta   100.49775422
_cell_angle_gamma   68.76454288
_symmetry_Int_Tables_number   1
_chemical_formula_structural   Li2MnO2F
_chemical_formula_sum   'Li8 Mn4 O8 F4'
_cell_volume   224.82659654
_cell_formula_units_Z   4
loop_
 _symmetry_equiv_pos_site_id
 _symmetry_equiv_pos_as_xyz
  1  'x, y, z'
loop_
 _atom_site_type_symbol
 _atom_site_label
 _atom_site_symmetry_multiplicity
 _atom_site_fract_x
 _atom_site_fract_y
 _atom_site_fract_z
 _atom_site_occupancy
  Li  Li0  1  0.10876382  0.64852169  0.72797396  1
  Li  Li1  1  0.35147831  0.89123618  0.22797396  1
  Li  Li2  1  0.06977108  0.21361430  0.61023065  1
  Li  Li3  1  0.20790426  0.04666066  0.91048237  1
  Li  Li4  1  0.78638570  0.93022892  0.11023065  1
  Li  Li5  1  0.95333934  0.79209574  0.41048237  1
  Li  Li6  1  0.62950432  0.12857668  0.74396685  1
  Li  Li7  1  0.87142332  0.37049568  0.24396685  1
  Mn  Mn8  1  0.70737729  0.54238404  0.91476281  1
  Mn  Mn9  1  0.54256734  0.70393529  0.59021535  1
  Mn  Mn10  1  0.45761596  0.29262271  0.41476281  1
  Mn  Mn11  1  0.29606471  0.45743266  0.09021535  1
  O  O12  1  0.38410475  0.84717932  0.75840712  1
  O  O13  1  0.74074000  0.95230894  0.57207092  1
  O  O14  1  0.32877224  0.46795839  0.57308259  1
  O  O15  1  0.15282068  0.61589525  0.25840712  1
  O  O16  1  0.87118387  0.39822776  0.75777266  1
  O  O17  1  0.04769106  0.25926000  0.07207092  1
  O  O18  1  0.53204161  0.67122776  0.07308259  1
  O  O19  1  0.60177224  0.12881613  0.25777266  1
  F  F20  1  0.47106481  0.25889266  0.92208971  1
  F  F21  1  0.96023264  0.81372670  0.91894501  1
  F  F22  1  0.74110734  0.52893519  0.42208971  1
  F  F23  1  0.18627330  0.03976736  0.41894501  1
