# generated using pymatgen
data_Li2Fe2Si4O11
_symmetry_space_group_name_H-M   'P 1'
_cell_length_a   9.62131844
_cell_length_b   7.65608097
_cell_length_c   7.07658407
_cell_angle_alpha   110.93829151
_cell_angle_beta   101.83480564
_cell_angle_gamma   97.39114982
_symmetry_Int_Tables_number   1
_chemical_formula_structural   Li2Fe2Si4O11
_chemical_formula_sum   'Li4 Fe4 Si8 O22'
_cell_volume   464.72962188
_cell_formula_units_Z   2
loop_
 _symmetry_equiv_pos_site_id
 _symmetry_equiv_pos_as_xyz
  1  'x, y, z'
loop_
 _atom_site_type_symbol
 _atom_site_label
 _atom_site_symmetry_multiplicity
 _atom_site_fract_x
 _atom_site_fract_y
 _atom_site_fract_z
 _atom_site_occupancy
  Li  Li0  1  0.43631152  0.58821998  0.91089110  1
  Li  Li1  1  0.44632714  0.61736586  0.37432537  1
  Li  Li2  1  0.55367286  0.38263414  0.62567463  1
  Li  Li3  1  0.56368848  0.41178002  0.08910890  1
  Fe  Fe4  1  0.24497692  0.77389662  0.66886823  1
  Fe  Fe5  1  0.21024678  0.65583871  0.11208791  1
  Fe  Fe6  1  0.78975322  0.34416129  0.88791209  1
  Fe  Fe7  1  0.75502308  0.22610338  0.33113177  1
  Si  Si8  1  0.05117460  0.36798104  0.24723141  1
  Si  Si9  1  0.23973647  0.22377632  0.95271188  1
  Si  Si10  1  0.23319162  0.22375285  0.52753313  1
  Si  Si11  1  0.60027327  0.97416442  0.77984306  1
  Si  Si12  1  0.39972673  0.02583558  0.22015694  1
  Si  Si13  1  0.76680838  0.77624715  0.47246687  1
  Si  Si14  1  0.76026353  0.77622368  0.04728812  1
  Si  Si15  1  0.94882540  0.63201896  0.75276859  1
  O  O16  1  0.12475896  0.64759761  0.81612713  1
  O  O17  1  0.07933936  0.26059573  0.40952989  1
  O  O18  1  0.14974640  0.58875532  0.33927015  1
  O  O19  1  0.08839203  0.24353351  0.02549977  1
  O  O20  1  0.19305021  0.13280690  0.69506247  1
  O  O21  1  0.27689819  0.04334583  0.35568841  1
  O  O22  1  0.44832192  0.81781895  0.65003585  1
  O  O23  1  0.35955894  0.41434135  0.62292206  1
  O  O24  1  0.40946337  0.80329193  0.14161772  1
  O  O25  1  0.31321399  0.05577700  0.00398144  1
  O  O26  1  0.34953407  0.43273900  0.06378395  1
  O  O27  1  0.65046593  0.56726100  0.93621605  1
  O  O28  1  0.68678601  0.94422300  0.99601856  1
  O  O29  1  0.59053663  0.19670807  0.85838228  1
  O  O30  1  0.64044106  0.58565865  0.37707794  1
  O  O31  1  0.55167808  0.18218105  0.34996415  1
  O  O32  1  0.72310181  0.95665417  0.64431159  1
  O  O33  1  0.80694979  0.86719310  0.30493753  1
  O  O34  1  0.91160797  0.75646649  0.97450023  1
  O  O35  1  0.85025360  0.41124468  0.66072985  1
  O  O36  1  0.92066064  0.73940427  0.59047011  1
  O  O37  1  0.87524104  0.35240239  0.18387287  1
