# generated using pymatgen
data_Sb9PO25
_symmetry_space_group_name_H-M   'P 1'
_cell_length_a   3.96101008
_cell_length_b   11.11361883
_cell_length_c   11.11361883
_cell_angle_alpha   91.81985316
_cell_angle_beta   100.26523454
_cell_angle_gamma   79.73476546
_symmetry_Int_Tables_number   1
_chemical_formula_structural   Sb9PO25
_chemical_formula_sum   'Sb9 P1 O25'
_cell_volume   473.69769141
_cell_formula_units_Z   1
loop_
 _symmetry_equiv_pos_site_id
 _symmetry_equiv_pos_as_xyz
  1  'x, y, z'
loop_
 _atom_site_type_symbol
 _atom_site_label
 _atom_site_symmetry_multiplicity
 _atom_site_fract_x
 _atom_site_fract_y
 _atom_site_fract_z
 _atom_site_occupancy
  Sb  Sb0  1  0.00000000  0.00000000  0.00000000  1
  Sb  Sb1  1  0.12058799  0.11833058  0.32570090  1
  Sb  Sb2  1  0.85925530  0.44780060  0.20662486  1
  Sb  Sb3  1  0.69294409  0.20662486  0.55219940  1
  Sb  Sb4  1  0.20511391  0.67429910  0.11833058  1
  Sb  Sb5  1  0.76108243  0.32570090  0.88166942  1
  Sb  Sb6  1  0.34736955  0.79337514  0.44780060  1
  Sb  Sb7  1  0.10043205  0.55219940  0.79337514  1
  Sb  Sb8  1  0.91321667  0.88166942  0.67429910  1
  P  P9  1  0.75000000  0.50000000  0.50000000  1
  O  O10  1  0.50000000  0.00000000  0.00000000  1
  O  O11  1  0.07256842  0.02688244  0.17993400  1
  O  O12  1  0.78279081  0.41521833  0.03419004  1
  O  O13  1  0.62731863  0.15106576  0.36955281  1
  O  O14  1  0.00866178  0.28114016  0.25132840  1
  O  O15  1  0.80198986  0.03419004  0.58478167  1
  O  O16  1  0.17145367  0.20394010  0.50389342  1
  O  O17  1  0.33243974  0.49610658  0.20394010  1
  O  O18  1  0.74223418  0.63044719  0.15106576  1
  O  O19  1  0.57828972  0.38367100  0.48717657  1
  O  O20  1  0.10736558  0.82006600  0.02688244  1
  O  O21  1  0.90888585  0.51282343  0.38367100  1
  O  O22  1  0.71019806  0.25132840  0.71885984  1
  O  O23  1  0.24266662  0.74867160  0.28114016  1
  O  O24  1  0.03803928  0.48717657  0.61632900  1
  O  O25  1  0.90054914  0.17993400  0.97311756  1
  O  O26  1  0.47478515  0.61632900  0.51282343  1
  O  O27  1  0.22161560  0.36955281  0.84893424  1
  O  O28  1  0.62460622  0.50389342  0.79605990  1
  O  O29  1  0.87150036  0.79605990  0.49610658  1
  O  O30  1  0.25139923  0.96580996  0.41521833  1
  O  O31  1  0.03847354  0.71885984  0.74867160  1
  O  O32  1  0.40883159  0.84893424  0.63044719  1
  O  O33  1  0.16381910  0.58478167  0.96580996  1
  O  O34  1  0.91951686  0.97311756  0.82006600  1
