# generated using pymatgen
data_Li3Cr3(CoO6)2
_symmetry_space_group_name_H-M   'P 1'
_cell_length_a   8.78147681
_cell_length_b   12.44331069
_cell_length_c   9.25763180
_cell_angle_alpha   90.00000000
_cell_angle_beta   90.00000000
_cell_angle_gamma   91.40584816
_symmetry_Int_Tables_number   1
_chemical_formula_structural   Li3Cr3(CoO6)2
_chemical_formula_sum   'Li12 Cr12 Co8 O48'
_cell_volume   1011.28289406
_cell_formula_units_Z   4
loop_
 _symmetry_equiv_pos_site_id
 _symmetry_equiv_pos_as_xyz
  1  'x, y, z'
loop_
 _atom_site_type_symbol
 _atom_site_label
 _atom_site_symmetry_multiplicity
 _atom_site_fract_x
 _atom_site_fract_y
 _atom_site_fract_z
 _atom_site_occupancy
  Li  Li0  1  0.07777979  0.69677208  0.08661985  1
  Li  Li1  1  0.06037217  0.34264619  0.50872525  1
  Li  Li2  1  0.16577336  0.17911559  0.77181236  1
  Li  Li3  1  0.33422664  0.32088441  0.27181236  1
  Li  Li4  1  0.42222021  0.80322792  0.58661985  1
  Li  Li5  1  0.43962783  0.15735381  0.00872525  1
  Li  Li6  1  0.56037217  0.84264619  0.99127475  1
  Li  Li7  1  0.57777979  0.19677208  0.41338015  1
  Li  Li8  1  0.66577336  0.67911559  0.72818764  1
  Li  Li9  1  0.83422664  0.82088441  0.22818764  1
  Li  Li10  1  0.93962783  0.65735381  0.49127475  1
  Li  Li11  1  0.92222021  0.30322792  0.91338015  1
  Cr  Cr12  1  0.04242076  0.49188040  0.24872619  1
  Cr  Cr13  1  0.11792908  0.85159938  0.38137799  1
  Cr  Cr14  1  0.11626051  0.14594202  0.11283012  1
  Cr  Cr15  1  0.38207092  0.64840062  0.88137799  1
  Cr  Cr16  1  0.38373949  0.35405798  0.61283012  1
  Cr  Cr17  1  0.45757924  0.00811960  0.74872619  1
  Cr  Cr18  1  0.54242076  0.99188040  0.25127381  1
  Cr  Cr19  1  0.61626051  0.64594202  0.38716988  1
  Cr  Cr20  1  0.61792908  0.35159938  0.11862201  1
  Cr  Cr21  1  0.88373949  0.85405798  0.88716988  1
  Cr  Cr22  1  0.88207092  0.14840062  0.61862201  1
  Cr  Cr23  1  0.95757924  0.50811960  0.75127381  1
  Co  Co24  1  0.24248845  0.88939419  0.03037754  1
  Co  Co25  1  0.25751155  0.61060581  0.53037754  1
  Co  Co26  1  0.26243027  0.38349172  0.96648873  1
  Co  Co27  1  0.23756973  0.11650828  0.46648873  1
  Co  Co28  1  0.76243027  0.88349172  0.53351127  1
  Co  Co29  1  0.73756973  0.61650828  0.03351127  1
  Co  Co30  1  0.74248845  0.38939419  0.46962246  1
  Co  Co31  1  0.75751155  0.11060581  0.96962246  1
  O  O32  1  0.05627929  0.44352197  0.87748372  1
  O  O33  1  0.05750195  0.90608673  0.88293483  1
  O  O34  1  0.05850390  0.60432999  0.66550325  1
  O  O35  1  0.07093599  0.19444565  0.57693896  1
  O  O36  1  0.09811864  0.58670349  0.36717154  1
  O  O37  1  0.11431059  0.83343880  0.19210408  1
  O  O38  1  0.13247367  0.98324251  0.41390447  1
  O  O39  1  0.12145981  0.24604241  0.98839522  1
  O  O40  1  0.17354292  0.19422275  0.27358095  1
  O  O41  1  0.19533205  0.43537153  0.17694532  1
  O  O42  1  0.24393388  0.77284480  0.47052877  1
  O  O43  1  0.25606612  0.72715520  0.97052877  1
  O  O44  1  0.24415095  0.05686171  0.05556856  1
  O  O45  1  0.25584905  0.44313829  0.55556856  1
  O  O46  1  0.30466795  0.06462847  0.67694532  1
  O  O47  1  0.32645708  0.30577725  0.77358095  1
  O  O48  1  0.36752633  0.51675749  0.91390447  1
  O  O49  1  0.37854019  0.25395759  0.48839522  1
  O  O50  1  0.38568941  0.66656120  0.69210408  1
  O  O51  1  0.40188136  0.91329651  0.86717154  1
  O  O52  1  0.44149610  0.89567001  0.16550325  1
  O  O53  1  0.44249805  0.59391327  0.38293483  1
  O  O54  1  0.42906401  0.30555435  0.07693896  1
  O  O55  1  0.44372071  0.05647803  0.37748372  1
  O  O56  1  0.55627929  0.94352197  0.62251628  1
  O  O57  1  0.57093599  0.69444565  0.92306104  1
  O  O58  1  0.55750195  0.40608673  0.61706517  1
  O  O59  1  0.55850390  0.10432999  0.83449675  1
  O  O60  1  0.59811864  0.08670349  0.13282846  1
  O  O61  1  0.61431059  0.33343880  0.30789592  1
  O  O62  1  0.62145981  0.74604241  0.51160478  1
  O  O63  1  0.63247367  0.48324251  0.08609553  1
  O  O64  1  0.67354292  0.69422275  0.22641905  1
  O  O65  1  0.69533205  0.93537153  0.32305468  1
  O  O66  1  0.74415095  0.55686171  0.44443144  1
  O  O67  1  0.75584905  0.94313829  0.94443144  1
  O  O68  1  0.74393388  0.27284480  0.02947123  1
  O  O69  1  0.75606612  0.22715520  0.52947123  1
  O  O70  1  0.80466795  0.56462847  0.82305468  1
  O  O71  1  0.82645708  0.80577725  0.72641905  1
  O  O72  1  0.87854019  0.75395759  0.01160478  1
  O  O73  1  0.86752633  0.01675749  0.58609553  1
  O  O74  1  0.88568941  0.16656120  0.80789592  1
  O  O75  1  0.90188136  0.41329651  0.63282846  1
  O  O76  1  0.92906401  0.80555435  0.42306104  1
  O  O77  1  0.94149610  0.39567001  0.33449675  1
  O  O78  1  0.94249805  0.09391327  0.11706517  1
  O  O79  1  0.94372071  0.55647803  0.12251628  1
