# generated using pymatgen
data_Li2Cr(CO3)2
_symmetry_space_group_name_H-M   'P 1'
_cell_length_a   5.25310467
_cell_length_b   6.85305240
_cell_length_c   7.84752423
_cell_angle_alpha   89.99905622
_cell_angle_beta   89.99922884
_cell_angle_gamma   71.12623697
_symmetry_Int_Tables_number   1
_chemical_formula_structural   Li2Cr(CO3)2
_chemical_formula_sum   'Li4 Cr2 C4 O12'
_cell_volume   267.31980307
_cell_formula_units_Z   2
loop_
 _symmetry_equiv_pos_site_id
 _symmetry_equiv_pos_as_xyz
  1  'x, y, z'
loop_
 _atom_site_type_symbol
 _atom_site_label
 _atom_site_symmetry_multiplicity
 _atom_site_fract_x
 _atom_site_fract_y
 _atom_site_fract_z
 _atom_site_occupancy
  Li  Li0  1  0.63274020  0.76999614  0.92805084  1
  Li  Li1  1  0.86722219  0.73000422  0.42805286  1
  Li  Li2  1  0.13276979  0.26998637  0.57193052  1
  Li  Li3  1  0.36720141  0.23001669  0.07194402  1
  Cr  Cr4  1  0.49995583  0.50007784  0.50004395  1
  Cr  Cr5  1  0.00001481  -0.00008995  0.99990777  1
  C  C6  1  0.30628777  0.84904565  0.27120559  1
  C  C7  1  0.19401019  0.65095447  0.77123125  1
  C  C8  1  0.80639827  0.34902821  0.22874871  1
  C  C9  1  0.69397787  0.15096525  0.72871753  1
  O  O10  1  0.38511845  0.90849639  0.12629690  1
  O  O11  1  0.02324892  0.71530402  0.89478426  1
  O  O12  1  0.47671289  0.78472202  0.39477719  1
  O  O13  1  0.11486329  0.59148060  0.62627765  1
  O  O14  1  0.05874028  0.85897942  0.28427677  1
  O  O15  1  0.44103747  0.64102345  0.78424466  1
  O  O16  1  0.55864183  0.35898462  0.21573294  1
  O  O17  1  0.94109616  0.14102263  0.71574635  1
  O  O18  1  0.88512486  0.40851463  0.37374517  1
  O  O19  1  0.52331114  0.21524059  0.60525623  1
  O  O20  1  0.97664377  0.28478529  0.10526824  1
  O  O21  1  0.61487762  0.09146845  0.87375963  1
