# generated using pymatgen
data_Li2FeSi3O8
_symmetry_space_group_name_H-M   'P 1'
_cell_length_a   6.73524579
_cell_length_b   10.17719441
_cell_length_c   5.02422344
_cell_angle_alpha   90.00000000
_cell_angle_beta   90.05292826
_cell_angle_gamma   90.00000000
_symmetry_Int_Tables_number   1
_chemical_formula_structural   Li2FeSi3O8
_chemical_formula_sum   'Li4 Fe2 Si6 O16'
_cell_volume   344.38979952
_cell_formula_units_Z   2
loop_
 _symmetry_equiv_pos_site_id
 _symmetry_equiv_pos_as_xyz
  1  'x, y, z'
loop_
 _atom_site_type_symbol
 _atom_site_label
 _atom_site_symmetry_multiplicity
 _atom_site_fract_x
 _atom_site_fract_y
 _atom_site_fract_z
 _atom_site_occupancy
  Li  Li0  1  0.00076505  0.14781885  0.18501772  1
  Li  Li1  1  0.49923495  0.64781885  0.31498228  1
  Li  Li2  1  0.49357603  0.34299142  0.66036761  1
  Li  Li3  1  0.00642397  0.84299142  0.83963239  1
  Fe  Fe4  1  0.50112886  0.16070525  0.16282283  1
  Fe  Fe5  1  0.99887114  0.66070525  0.33717717  1
  Si  Si6  1  0.97799075  0.33560843  0.70327066  1
  Si  Si7  1  0.26538018  0.91027002  0.28942187  1
  Si  Si8  1  0.23461982  0.41027002  0.21057813  1
  Si  Si9  1  0.52200925  0.83560843  0.79672934  1
  Si  Si10  1  0.77854967  0.59481658  0.84348963  1
  Si  Si11  1  0.72145033  0.09481658  0.65651037  1
  O  O12  1  0.05495775  0.84436992  0.21892229  1
  O  O13  1  0.04987693  0.33817226  0.38969398  1
  O  O14  1  0.33215769  0.87577540  0.60629489  1
  O  O15  1  0.24889773  0.56466298  0.26716176  1
  O  O16  1  0.16784231  0.37577540  0.89370511  1
  O  O17  1  0.25110227  0.06466298  0.23283824  1
  O  O18  1  0.45012307  0.83817226  0.11030602  1
  O  O19  1  0.44504225  0.34436992  0.28107771  1
  O  O20  1  0.58505170  0.68277349  0.70976867  1
  O  O21  1  0.52132786  0.16380027  0.76205261  1
  O  O22  1  0.71946610  0.93496451  0.75929249  1
  O  O23  1  0.74571436  0.60327162  0.15937962  1
  O  O24  1  0.78053390  0.43496451  0.74070751  1
  O  O25  1  0.75428564  0.10327162  0.34062038  1
  O  O26  1  0.97867214  0.66380027  0.73794739  1
  O  O27  1  0.91494830  0.18277349  0.79023133  1
