# generated using pymatgen
data_LiCr2(PO4)2
_symmetry_space_group_name_H-M   'P 1'
_cell_length_a   8.09824960
_cell_length_b   9.29869166
_cell_length_c   5.15906136
_cell_angle_alpha   91.25503295
_cell_angle_beta   90.00000000
_cell_angle_gamma   90.00000000
_symmetry_Int_Tables_number   1
_chemical_formula_structural   LiCr2(PO4)2
_chemical_formula_sum   'Li2 Cr4 P4 O16'
_cell_volume   388.40025049
_cell_formula_units_Z   2
loop_
 _symmetry_equiv_pos_site_id
 _symmetry_equiv_pos_as_xyz
  1  'x, y, z'
loop_
 _atom_site_type_symbol
 _atom_site_label
 _atom_site_symmetry_multiplicity
 _atom_site_fract_x
 _atom_site_fract_y
 _atom_site_fract_z
 _atom_site_occupancy
  Li  Li0  1  0.55400996  0.89656145  0.93673988  1
  Li  Li1  1  0.94599004  0.39656145  0.43673988  1
  Cr  Cr2  1  0.16694720  0.02293575  0.98484740  1
  Cr  Cr3  1  0.33305280  0.52293575  0.48484740  1
  Cr  Cr4  1  0.66364998  0.47059218  0.98693127  1
  Cr  Cr5  1  0.83635002  0.97059218  0.48693127  1
  P  P6  1  0.22656200  0.85495676  0.56368081  1
  P  P7  1  0.27343800  0.35495676  0.06368081  1
  P  P8  1  0.70733624  0.64164716  0.55938864  1
  P  P9  1  0.79266376  0.14164716  0.05938864  1
  O  O10  1  0.05881875  0.92745418  0.66655234  1
  O  O11  1  0.15308556  0.44074145  0.25020041  1
  O  O12  1  0.21696526  0.69497673  0.62518342  1
  O  O13  1  0.24495981  0.38118672  0.77741272  1
  O  O14  1  0.25504019  0.88118672  0.27741272  1
  O  O15  1  0.28303474  0.19497673  0.12518342  1
  O  O16  1  0.34691444  0.94074145  0.75020041  1
  O  O17  1  0.44118125  0.42745418  0.16655234  1
  O  O18  1  0.53872776  0.57857144  0.67578119  1
  O  O19  1  0.66972800  0.03524935  0.19022395  1
  O  O20  1  0.71701806  0.79986636  0.66591335  1
  O  O21  1  0.78814161  0.13576245  0.76043561  1
  O  O22  1  0.71185839  0.63576245  0.26043561  1
  O  O23  1  0.78298194  0.29986636  0.16591335  1
  O  O24  1  0.83027200  0.53524935  0.69022395  1
  O  O25  1  0.96127224  0.07857144  0.17578119  1
