# generated using pymatgen
data_Li4Mn2Cr3Fe3O16
_symmetry_space_group_name_H-M   'P 1'
_cell_length_a   5.90227137
_cell_length_b   5.88452431
_cell_length_c   9.44459979
_cell_angle_alpha   90.41945974
_cell_angle_beta   90.53656456
_cell_angle_gamma   119.96681044
_symmetry_Int_Tables_number   1
_chemical_formula_structural   Li4Mn2Cr3Fe3O16
_chemical_formula_sum   'Li4 Mn2 Cr3 Fe3 O16'
_cell_volume   284.13790128
_cell_formula_units_Z   1
loop_
 _symmetry_equiv_pos_site_id
 _symmetry_equiv_pos_as_xyz
  1  'x, y, z'
loop_
 _atom_site_type_symbol
 _atom_site_label
 _atom_site_symmetry_multiplicity
 _atom_site_fract_x
 _atom_site_fract_y
 _atom_site_fract_z
 _atom_site_occupancy
  Li  Li0  1  0.33519763  0.66717737  0.89709995  1
  Li  Li1  1  0.99601051  0.99590592  0.99429100  1
  Li  Li2  1  0.00139584  0.00147492  0.49491294  1
  Li  Li3  1  0.66660541  0.33143760  0.39762588  1
  Mn  Mn4  1  0.33336455  0.66772975  0.48337787  1
  Mn  Mn5  1  0.66670393  0.33753772  0.98378106  1
  Cr  Cr6  1  0.17170689  0.82998034  0.21268265  1
  Cr  Cr7  1  0.17057201  0.33949755  0.20910087  1
  Cr  Cr8  1  0.34351718  0.17186035  0.71238170  1
  Fe  Fe9  1  0.66287570  0.82972702  0.21331288  1
  Fe  Fe10  1  0.83305581  0.66242253  0.71197249  1
  Fe  Fe11  1  0.83277963  0.17092392  0.71218921  1
  O  O12  1  0.16805937  0.83152034  0.59639039  1
  O  O13  1  0.04225927  0.51521337  0.34020598  1
  O  O14  1  0.32871240  0.65938996  0.10383962  1
  O  O15  1  0.00602356  0.00685836  0.30745779  1
  O  O16  1  0.00516575  0.00311988  0.80660921  1
  O  O17  1  0.16910759  0.33683213  0.59760673  1
  O  O18  1  0.47798047  0.95779121  0.34538055  1
  O  O19  1  0.46807309  0.51003067  0.34327705  1
  O  O20  1  0.33037342  0.17461538  0.10110502  1
  O  O21  1  0.66195951  0.83115839  0.59786611  1
  O  O22  1  0.51861760  0.47688159  0.84658427  1
  O  O23  1  0.51734219  0.04196617  0.84725066  1
  O  O24  1  0.66440218  0.33190995  0.60408591  1
  O  O25  1  0.83042770  0.66449613  0.09752721  1
  O  O26  1  0.95582769  0.47713298  0.84831253  1
  O  O27  1  0.84188211  0.17570749  0.10161552  1
