# generated using pymatgen
data_Li2Si2NiO6
_symmetry_space_group_name_H-M   'P 1'
_cell_length_a   10.04092159
_cell_length_b   7.13199230
_cell_length_c   9.82224803
_cell_angle_alpha   90.00000000
_cell_angle_beta   90.00000000
_cell_angle_gamma   90.00000000
_symmetry_Int_Tables_number   1
_chemical_formula_structural   Li2Si2NiO6
_chemical_formula_sum   'Li12 Si12 Ni6 O36'
_cell_volume   703.38862048
_cell_formula_units_Z   6
loop_
 _symmetry_equiv_pos_site_id
 _symmetry_equiv_pos_as_xyz
  1  'x, y, z'
loop_
 _atom_site_type_symbol
 _atom_site_label
 _atom_site_symmetry_multiplicity
 _atom_site_fract_x
 _atom_site_fract_y
 _atom_site_fract_z
 _atom_site_occupancy
  Li  Li0  1  0.00000000  0.78821789  0.24362014  1
  Li  Li1  1  0.00000000  0.77040712  0.76849067  1
  Li  Li2  1  0.22534961  0.28884833  0.45682341  1
  Li  Li3  1  0.22918685  0.22075199  0.03556724  1
  Li  Li4  1  0.27081315  0.77924801  0.53556724  1
  Li  Li5  1  0.27465039  0.71115167  0.95682341  1
  Li  Li6  1  0.50000000  0.22959288  0.26849067  1
  Li  Li7  1  0.50000000  0.21178211  0.74362014  1
  Li  Li8  1  0.72534961  0.71115167  0.95682341  1
  Li  Li9  1  0.72918685  0.77924801  0.53556724  1
  Li  Li10  1  0.77081315  0.22075199  0.03556724  1
  Li  Li11  1  0.77465039  0.28884833  0.45682341  1
  Si  Si12  1  0.00000000  0.98039514  0.52575635  1
  Si  Si13  1  0.00000000  0.51709929  0.96963858  1
  Si  Si14  1  0.22633278  0.02320103  0.75315636  1
  Si  Si15  1  0.22671817  0.47596325  0.74308054  1
  Si  Si16  1  0.27328183  0.52403675  0.24308054  1
  Si  Si17  1  0.27366722  0.97679897  0.25315636  1
  Si  Si18  1  0.50000000  0.48290071  0.46963858  1
  Si  Si19  1  0.50000000  0.01960486  0.02575635  1
  Si  Si20  1  0.72633278  0.97679897  0.25315636  1
  Si  Si21  1  0.72671817  0.52403675  0.24308054  1
  Si  Si22  1  0.77328183  0.47596325  0.74308054  1
  Si  Si23  1  0.77366722  0.02320103  0.75315636  1
  Ni  Ni24  1  0.00000000  0.24899690  0.24653739  1
  Ni  Ni25  1  0.00000000  0.98009436  0.02333235  1
  Ni  Ni26  1  0.00000000  0.51803673  0.46571122  1
  Ni  Ni27  1  0.50000000  0.01990564  0.52333235  1
  Ni  Ni28  1  0.50000000  0.48196327  0.96571122  1
  Ni  Ni29  1  0.50000000  0.75100310  0.74653739  1
  O  O30  1  0.00000000  0.30615336  0.03129085  1
  O  O31  1  0.00000000  0.69710019  0.06849393  1
  O  O32  1  0.00000000  0.18950802  0.46208542  1
  O  O33  1  0.00000000  0.79899813  0.42883370  1
  O  O34  1  0.13097537  0.04548094  0.19393488  1
  O  O35  1  0.12323446  0.55697351  0.86050357  1
  O  O36  1  0.12505432  0.94484485  0.63323681  1
  O  O37  1  0.13341425  0.44447179  0.30174443  1
  O  O38  1  0.17265912  0.94659096  0.89863737  1
  O  O39  1  0.17888295  0.53664322  0.59187613  1
  O  O40  1  0.27647638  0.75048083  0.25795748  1
  O  O41  1  0.22352362  0.24951917  0.75795748  1
  O  O42  1  0.32111705  0.46335678  0.09187613  1
  O  O43  1  0.32734088  0.05340904  0.39863737  1
  O  O44  1  0.36658575  0.55552821  0.80174443  1
  O  O45  1  0.37494568  0.05515515  0.13323681  1
  O  O46  1  0.37676554  0.44302649  0.36050357  1
  O  O47  1  0.36902463  0.95451906  0.69393488  1
  O  O48  1  0.50000000  0.69384664  0.53129085  1
  O  O49  1  0.50000000  0.30289981  0.56849393  1
  O  O50  1  0.50000000  0.20100187  0.92883370  1
  O  O51  1  0.50000000  0.81049198  0.96208542  1
  O  O52  1  0.63097537  0.95451906  0.69393488  1
  O  O53  1  0.62323446  0.44302649  0.36050357  1
  O  O54  1  0.62505432  0.05515515  0.13323681  1
  O  O55  1  0.63341425  0.55552821  0.80174443  1
  O  O56  1  0.67265912  0.05340904  0.39863737  1
  O  O57  1  0.67888295  0.46335678  0.09187613  1
  O  O58  1  0.77647638  0.24951917  0.75795748  1
  O  O59  1  0.72352362  0.75048083  0.25795748  1
  O  O60  1  0.82111705  0.53664322  0.59187613  1
  O  O61  1  0.82734088  0.94659096  0.89863737  1
  O  O62  1  0.86658575  0.44447179  0.30174443  1
  O  O63  1  0.87494568  0.94484485  0.63323681  1
  O  O64  1  0.87676554  0.55697351  0.86050357  1
  O  O65  1  0.86902463  0.04548094  0.19393488  1
