# generated using pymatgen
data_Li2V(SiO3)2
_symmetry_space_group_name_H-M   'P 1'
_cell_length_a   10.14694483
_cell_length_b   10.14003789
_cell_length_c   7.17623364
_cell_angle_alpha   90.00000000
_cell_angle_beta   90.00000000
_cell_angle_gamma   90.00000000
_symmetry_Int_Tables_number   1
_chemical_formula_structural   Li2V(SiO3)2
_chemical_formula_sum   'Li12 V6 Si12 O36'
_cell_volume   738.36558591
_cell_formula_units_Z   6
loop_
 _symmetry_equiv_pos_site_id
 _symmetry_equiv_pos_as_xyz
  1  'x, y, z'
loop_
 _atom_site_type_symbol
 _atom_site_label
 _atom_site_symmetry_multiplicity
 _atom_site_fract_x
 _atom_site_fract_y
 _atom_site_fract_z
 _atom_site_occupancy
  Li  Li0  1  0.00000000  0.49962184  0.49715469  1
  Li  Li1  1  0.00000000  0.75347755  0.75043078  1
  Li  Li2  1  0.21741737  0.45102676  0.30193860  1
  Li  Li3  1  0.21988354  0.50684438  0.74983117  1
  Li  Li4  1  0.28011646  0.00684438  0.25016883  1
  Li  Li5  1  0.28258263  0.95102676  0.69806140  1
  Li  Li6  1  0.50000000  0.25347755  0.24956922  1
  Li  Li7  1  0.50000000  0.99962184  0.50284531  1
  Li  Li8  1  0.71741737  0.95102676  0.69806140  1
  Li  Li9  1  0.71988354  0.00684438  0.25016883  1
  Li  Li10  1  0.78011646  0.50684438  0.74983117  1
  Li  Li11  1  0.78258263  0.45102676  0.30193860  1
  V  V12  1  0.00000000  0.01483380  0.97962290  1
  V  V13  1  0.00000000  0.24499015  0.24738139  1
  V  V14  1  0.00000000  0.25386626  0.72788354  1
  V  V15  1  0.50000000  0.51483380  0.02037710  1
  V  V16  1  0.50000000  0.75386626  0.27211646  1
  V  V17  1  0.50000000  0.74499015  0.75261861  1
  Si  Si18  1  0.00000000  0.53447665  0.98734365  1
  Si  Si19  1  0.00000000  0.95722335  0.50734095  1
  Si  Si20  1  0.22568567  0.75679049  0.02159025  1
  Si  Si21  1  0.22214441  0.74038023  0.46259566  1
  Si  Si22  1  0.27785559  0.24038023  0.53740434  1
  Si  Si23  1  0.27431433  0.25679049  0.97840975  1
  Si  Si24  1  0.50000000  0.45722335  0.49265905  1
  Si  Si25  1  0.50000000  0.03447665  0.01265635  1
  Si  Si26  1  0.72568567  0.25679049  0.97840975  1
  Si  Si27  1  0.72214441  0.24038023  0.53740434  1
  Si  Si28  1  0.77785559  0.74038023  0.46259566  1
  Si  Si29  1  0.77431433  0.75679049  0.02159025  1
  O  O30  1  0.00000000  0.02431472  0.30195013  1
  O  O31  1  0.00000000  0.46307275  0.18805923  1
  O  O32  1  0.00000000  0.05470549  0.68500063  1
  O  O33  1  0.00000000  0.45136291  0.79496256  1
  O  O34  1  0.12260137  0.85193961  0.55844034  1
  O  O35  1  0.12718551  0.63625154  0.94632023  1
  O  O36  1  0.12529465  0.20200507  0.00768127  1
  O  O37  1  0.13110318  0.28842181  0.47665267  1
  O  O38  1  0.17812303  0.59151119  0.51080237  1
  O  O39  1  0.18188165  0.89471501  0.92722130  1
  O  O40  1  0.20317771  0.78014016  0.24392993  1
  O  O41  1  0.29682229  0.28014016  0.75607007  1
  O  O42  1  0.31811835  0.39471501  0.07277870  1
  O  O43  1  0.32187697  0.09151119  0.48919763  1
  O  O44  1  0.36889682  0.78842181  0.52334733  1
  O  O45  1  0.37470535  0.70200507  0.99231873  1
  O  O46  1  0.37281449  0.13625154  0.05367977  1
  O  O47  1  0.37739863  0.35193961  0.44155966  1
  O  O48  1  0.50000000  0.52431472  0.69804987  1
  O  O49  1  0.50000000  0.55470549  0.31499937  1
  O  O50  1  0.50000000  0.96307275  0.81194077  1
  O  O51  1  0.50000000  0.95136291  0.20503744  1
  O  O52  1  0.62260137  0.35193961  0.44155966  1
  O  O53  1  0.62718551  0.13625154  0.05367977  1
  O  O54  1  0.62529465  0.70200507  0.99231873  1
  O  O55  1  0.63110318  0.78842181  0.52334733  1
  O  O56  1  0.67812303  0.09151119  0.48919763  1
  O  O57  1  0.68188165  0.39471501  0.07277870  1
  O  O58  1  0.70317771  0.28014016  0.75607007  1
  O  O59  1  0.79682229  0.78014016  0.24392993  1
  O  O60  1  0.81811835  0.89471501  0.92722130  1
  O  O61  1  0.82187697  0.59151119  0.51080237  1
  O  O62  1  0.86889682  0.28842181  0.47665267  1
  O  O63  1  0.87470535  0.20200507  0.00768127  1
  O  O64  1  0.87281449  0.63625154  0.94632023  1
  O  O65  1  0.87739863  0.85193961  0.55844034  1
