# generated using pymatgen
data_Li3Mn3(FeO5)2
_symmetry_space_group_name_H-M   'P 1'
_cell_length_a   5.10228684
_cell_length_b   5.16359129
_cell_length_c   8.00687792
_cell_angle_alpha   109.79370323
_cell_angle_beta   101.52059208
_cell_angle_gamma   99.24606167
_symmetry_Int_Tables_number   1
_chemical_formula_structural   Li3Mn3(FeO5)2
_chemical_formula_sum   'Li3 Mn3 Fe2 O10'
_cell_volume   188.43044547
_cell_formula_units_Z   1
loop_
 _symmetry_equiv_pos_site_id
 _symmetry_equiv_pos_as_xyz
  1  'x, y, z'
loop_
 _atom_site_type_symbol
 _atom_site_label
 _atom_site_symmetry_multiplicity
 _atom_site_fract_x
 _atom_site_fract_y
 _atom_site_fract_z
 _atom_site_occupancy
  Li  Li0  1  0.20981249  0.93084351  0.41485908  1
  Li  Li1  1  0.50000000  0.50000000  0.50000000  1
  Li  Li2  1  0.79018751  0.06915649  0.58514092  1
  Mn  Mn3  1  0.00000000  0.50000000  0.00000000  1
  Mn  Mn4  1  0.69465668  0.88981904  0.89861565  1
  Mn  Mn5  1  0.30534332  0.11018096  0.10138435  1
  Fe  Fe6  1  0.11621034  0.68390631  0.68549434  1
  Fe  Fe7  1  0.88378966  0.31609369  0.31450566  1
  O  O8  1  0.03322304  0.09931865  0.87185687  1
  O  O9  1  0.35384427  0.74473489  0.94832129  1
  O  O10  1  0.11509691  0.29970199  0.53091275  1
  O  O11  1  0.20454809  0.46103236  0.21954539  1
  O  O12  1  0.47845497  0.87261471  0.67454884  1
  O  O13  1  0.52154503  0.12738529  0.32545116  1
  O  O14  1  0.79545191  0.53896764  0.78045461  1
  O  O15  1  0.88490309  0.70029801  0.46908725  1
  O  O16  1  0.64615573  0.25526511  0.05167871  1
  O  O17  1  0.96677696  0.90068135  0.12814313  1
