# generated using pymatgen
data_Li2TiCr2O6
_symmetry_space_group_name_H-M   'P 1'
_cell_length_a   5.14986051
_cell_length_b   5.14986019
_cell_length_c   10.18496449
_cell_angle_alpha   90.00000000
_cell_angle_beta   90.00000000
_cell_angle_gamma   120.07939570
_symmetry_Int_Tables_number   1
_chemical_formula_structural   Li2TiCr2O6
_chemical_formula_sum   'Li4 Ti2 Cr4 O12'
_cell_volume   233.74000259
_cell_formula_units_Z   2
loop_
 _symmetry_equiv_pos_site_id
 _symmetry_equiv_pos_as_xyz
  1  'x, y, z'
loop_
 _atom_site_type_symbol
 _atom_site_label
 _atom_site_symmetry_multiplicity
 _atom_site_fract_x
 _atom_site_fract_y
 _atom_site_fract_z
 _atom_site_occupancy
  Li  Li0  1  0.15486212  0.65486212  0.75000000  1
  Li  Li1  1  0.34513788  0.84513788  0.25000000  1
  Li  Li2  1  0.65486212  0.15486212  0.75000000  1
  Li  Li3  1  0.84513788  0.34513788  0.25000000  1
  Ti  Ti4  1  0.00000000  0.00000000  0.00000000  1
  Ti  Ti5  1  0.50000000  0.50000000  0.50000000  1
  Cr  Cr6  1  0.16412870  0.83587130  0.50000000  1
  Cr  Cr7  1  0.33587130  0.66412870  0.00000000  1
  Cr  Cr8  1  0.66412870  0.33587130  0.00000000  1
  Cr  Cr9  1  0.83587130  0.16412870  0.50000000  1
  O  O10  1  0.00597928  0.66922331  0.10591102  1
  O  O11  1  0.99402072  0.33077669  0.89408898  1
  O  O12  1  0.16922331  0.50597928  0.39408898  1
  O  O13  1  0.49402072  0.83077669  0.60591102  1
  O  O14  1  0.17762006  0.17762006  0.59821877  1
  O  O15  1  0.32237994  0.32237994  0.09821877  1
  O  O16  1  0.67762006  0.67762006  0.90178123  1
  O  O17  1  0.33077669  0.99402072  0.89408898  1
  O  O18  1  0.82237994  0.82237994  0.40178123  1
  O  O19  1  0.50597928  0.16922331  0.39408898  1
  O  O20  1  0.83077669  0.49402072  0.60591102  1
  O  O21  1  0.66922331  0.00597928  0.10591102  1
