# generated using pymatgen
data_LiV(PO4)2
_symmetry_space_group_name_H-M   'P 1'
_cell_length_a   4.74191077
_cell_length_b   5.24175384
_cell_length_c   6.68144097
_cell_angle_alpha   90.00000000
_cell_angle_beta   92.93987936
_cell_angle_gamma   56.44722670
_symmetry_Int_Tables_number   1
_chemical_formula_structural   LiV(PO4)2
_chemical_formula_sum   'Li1 V1 P2 O8'
_cell_volume   138.13944127
_cell_formula_units_Z   1
loop_
 _symmetry_equiv_pos_site_id
 _symmetry_equiv_pos_as_xyz
  1  'x, y, z'
loop_
 _atom_site_type_symbol
 _atom_site_label
 _atom_site_symmetry_multiplicity
 _atom_site_fract_x
 _atom_site_fract_y
 _atom_site_fract_z
 _atom_site_occupancy
  Li  Li0  1  0.50133843  0.99933079  0.49757848  1
  V  V1  1  0.50039217  0.99980342  0.99858586  1
  P  P2  1  0.19003280  0.65498360  0.76205962  1
  P  P3  1  0.81106904  0.34446498  0.23534265  1
  O  O4  1  0.00384818  0.24807541  0.43390698  1
  O  O5  1  0.04966624  0.22516638  0.05405332  1
  O  O6  1  0.42316913  0.29680058  0.79527543  1
  O  O7  1  0.42316913  0.78003029  0.79527543  1
  O  O8  1  0.57806769  0.21919347  0.20248311  1
  O  O9  1  0.57806769  0.70273784  0.20248311  1
  O  O10  1  0.95125885  0.77437107  0.94316161  1
  O  O11  1  0.99827666  0.75086217  0.56317139  1
