# generated using pymatgen
data_Li2SiNiO4
_symmetry_space_group_name_H-M   'P 1'
_cell_length_a   5.03115325
_cell_length_b   5.02765207
_cell_length_c   11.49567261
_cell_angle_alpha   90.28091680
_cell_angle_beta   89.73113300
_cell_angle_gamma   120.16253130
_symmetry_Int_Tables_number   1
_chemical_formula_structural   Li2SiNiO4
_chemical_formula_sum   'Li6 Si3 Ni3 O12'
_cell_volume   251.40708295
_cell_formula_units_Z   3
loop_
 _symmetry_equiv_pos_site_id
 _symmetry_equiv_pos_as_xyz
  1  'x, y, z'
loop_
 _atom_site_type_symbol
 _atom_site_label
 _atom_site_symmetry_multiplicity
 _atom_site_fract_x
 _atom_site_fract_y
 _atom_site_fract_z
 _atom_site_occupancy
  Li  Li0  1  0.32896158  0.88899398  0.58430424  1
  Li  Li1  1  0.11129636  0.44112023  0.91918889  1
  Li  Li2  1  0.55871987  0.67013645  0.25131191  1
  Li  Li3  1  0.45194033  0.11277259  0.08045761  1
  Li  Li4  1  0.66057881  0.54694123  0.74887449  1
  Li  Li5  1  0.88692720  0.33856145  0.41534894  1
  Si  Si6  1  0.99702569  0.18810108  0.66701910  1
  Si  Si7  1  0.19076311  0.00323810  0.33365544  1
  Si  Si8  1  0.81431225  0.81064792  0.00029345  1
  Ni  Ni9  1  0.00824669  0.45719538  0.16556453  1
  Ni  Ni10  1  0.53984021  0.55151917  0.49751328  1
  Ni  Ni11  1  0.44732407  0.98298631  0.82784358  1
  O  O12  1  0.15141808  0.85853817  0.95827172  1
  O  O13  1  0.11769411  0.43591582  0.55910430  1
  O  O14  1  0.31829138  0.88099027  0.22503940  1
  O  O15  1  0.14726406  0.29582249  0.29387115  1
  O  O16  1  0.28465639  0.14043402  0.70688324  1
  O  O17  1  0.70169248  0.85060440  0.62795094  1
  O  O18  1  0.56348978  0.68243254  0.89272249  1
  O  O19  1  0.69061237  0.56266959  0.10893215  1
  O  O20  1  0.43842369  0.12645464  0.44261416  1
  O  O21  1  0.85530301  0.71456787  0.37438520  1
  O  O22  1  0.86139090  0.14564780  0.04203842  1
  O  O23  1  0.87382859  0.31370751  0.77677635  1
