# generated using pymatgen
data_Li4Mn2Co3Te3O16
_symmetry_space_group_name_H-M   'P 1'
_cell_length_a   6.13420299
_cell_length_b   6.28927171
_cell_length_c   9.96986705
_cell_angle_alpha   88.10987941
_cell_angle_beta   89.76938717
_cell_angle_gamma   120.10659964
_symmetry_Int_Tables_number   1
_chemical_formula_structural   Li4Mn2Co3Te3O16
_chemical_formula_sum   'Li4 Mn2 Co3 Te3 O16'
_cell_volume   332.46941630
_cell_formula_units_Z   1
loop_
 _symmetry_equiv_pos_site_id
 _symmetry_equiv_pos_as_xyz
  1  'x, y, z'
loop_
 _atom_site_type_symbol
 _atom_site_label
 _atom_site_symmetry_multiplicity
 _atom_site_fract_x
 _atom_site_fract_y
 _atom_site_fract_z
 _atom_site_occupancy
  Li  Li0  1  0.31074476  0.64022656  0.87373571  1
  Li  Li1  1  0.99329493  0.02023380  0.99330293  1
  Li  Li2  1  0.99201442  0.99258384  0.50712969  1
  Li  Li3  1  0.64458006  0.33526528  0.39956032  1
  Mn  Mn4  1  0.36283963  0.68936118  0.51167999  1
  Mn  Mn5  1  0.66842688  0.29740556  0.97313335  1
  Co  Co6  1  0.67687084  0.85964607  0.21342798  1
  Co  Co7  1  0.83263363  0.65551216  0.71827472  1
  Co  Co8  1  0.82860344  0.15336820  0.71583850  1
  Te  Te9  1  0.17551924  0.85203779  0.21179644  1
  Te  Te10  1  0.18627444  0.36924652  0.21969238  1
  Te  Te11  1  0.33538300  0.15589190  0.71502497  1
  O  O12  1  0.17386314  0.86124377  0.60619374  1
  O  O13  1  0.02612021  0.53200931  0.32765147  1
  O  O14  1  0.32546404  0.69174478  0.10271035  1
  O  O15  1  0.01238560  0.98319187  0.32397253  1
  O  O16  1  0.01502876  0.99867116  0.81440265  1
  O  O17  1  0.17963143  0.31309869  0.60777442  1
  O  O18  1  0.46554203  0.97511256  0.32438310  1
  O  O19  1  0.48104518  0.53305294  0.33744817  1
  O  O20  1  0.33777455  0.14237453  0.08882813  1
  O  O21  1  0.69524414  0.86499927  0.61550938  1
  O  O22  1  0.49768853  0.43687895  0.84049443  1
  O  O23  1  0.48715240  0.00464111  0.82707113  1
  O  O24  1  0.64889287  0.31786353  0.60631629  1
  O  O25  1  0.87390755  0.71986320  0.10845375  1
  O  O26  1  0.93998390  0.43199497  0.83440884  1
  O  O27  1  0.83309143  0.17278148  0.08962364  1
