# generated using pymatgen
data_Li3Cr4(PO4)6
_symmetry_space_group_name_H-M   'P 1'
_cell_length_a   10.14320702
_cell_length_b   10.14326424
_cell_length_c   10.14333750
_cell_angle_alpha   109.41313878
_cell_angle_beta   109.11916873
_cell_angle_gamma   109.88207587
_symmetry_Int_Tables_number   1
_chemical_formula_structural   Li3Cr4(PO4)6
_chemical_formula_sum   'Li6 Cr8 P12 O48'
_cell_volume   803.32900153
_cell_formula_units_Z   2
loop_
 _symmetry_equiv_pos_site_id
 _symmetry_equiv_pos_as_xyz
  1  'x, y, z'
loop_
 _atom_site_type_symbol
 _atom_site_label
 _atom_site_symmetry_multiplicity
 _atom_site_fract_x
 _atom_site_fract_y
 _atom_site_fract_z
 _atom_site_occupancy
  Li  Li0  1  0.12739878  0.37739831  0.74999895  1
  Li  Li1  1  0.62525342  0.87525340  0.75000033  1
  Li  Li2  1  0.24999979  0.37797877  0.12797936  1
  Li  Li3  1  0.37260092  0.12260166  0.24999895  1
  Li  Li4  1  0.87474705  0.62474615  0.24999995  1
  Li  Li5  1  0.74999912  0.12201951  0.37201983  1
  Cr  Cr6  1  0.00162678  0.50335511  0.50086849  1
  Cr  Cr7  1  0.00141255  0.99834516  0.50100006  1
  Cr  Cr8  1  0.99734750  0.50041753  0.99900115  1
  Cr  Cr9  1  0.99751462  0.99665287  0.99827353  1
  Cr  Cr10  1  0.50264679  0.50164411  0.50306403  1
  Cr  Cr11  1  0.49838084  0.99924384  0.50172885  1
  Cr  Cr12  1  0.50247861  0.50074749  0.99912721  1
  Cr  Cr13  1  0.49857721  0.99957780  0.99693225  1
  P  P14  1  0.12564037  0.75000316  0.87563529  1
  P  P15  1  0.12586675  0.87586791  0.25000042  1
  P  P16  1  0.37413361  0.62413703  0.75000095  1
  P  P17  1  0.25000116  0.12580304  0.87580564  1
  P  P18  1  0.24999643  0.62225000  0.37224854  1
  P  P19  1  0.37436223  0.25000418  0.62436473  1
  P  P20  1  0.62351922  0.75000196  0.37352102  1
  P  P21  1  0.75001006  0.37420041  0.62420320  1
  P  P22  1  0.74999727  0.87774748  0.12774777  1
  P  P23  1  0.62469366  0.37469201  0.25000157  1
  P  P24  1  0.87531324  0.12531263  0.75000282  1
  P  P25  1  0.87647645  0.24999687  0.12647719  1
  O  O26  1  0.10854549  0.99958177  0.70349452  1
  O  O27  1  0.10986688  0.60700053  0.90665405  1
  O  O28  1  0.00665924  0.30201020  0.88892477  1
  O  O29  1  0.09271204  0.70242345  0.70154275  1
  O  O30  1  0.08542417  0.88357203  0.38654183  1
  O  O31  1  0.10759615  0.61009490  0.40431023  1
  O  O32  1  0.19776262  0.49687097  0.61310058  1
  O  O33  1  0.41457835  0.80112292  0.79814850  1
  O  O34  1  0.38377041  0.58466126  0.88689851  1
  O  O35  1  0.29639093  0.30326699  0.91386015  1
  O  O36  1  0.30223163  0.91533253  0.29910253  1
  O  O37  1  0.00361640  0.20465001  0.10952536  1
  O  O38  1  0.20035561  0.20322171  0.59334569  1
  O  O39  1  0.20069571  0.58383437  0.19633608  1
  O  O40  1  0.39238290  0.79669722  0.50248184  1
  O  O41  1  0.29930549  0.49562306  0.38312728  1
  O  O42  1  0.29966111  0.89298898  0.00286425  1
  O  O43  1  0.11622941  0.00312836  0.20089698  1
  O  O44  1  0.50297235  0.61643811  0.70184963  1
  O  O45  1  0.39145498  0.09494333  0.89103572  1
  O  O46  1  0.50087877  0.39117538  0.79845635  1
  O  O47  1  0.39012328  0.29679665  0.49713363  1
  O  O48  1  0.59512656  0.89409135  0.39047500  1
  O  O49  1  0.20362715  0.11747379  0.00688012  1
  O  O50  1  0.79422513  0.88990341  0.99751741  1
  O  O51  1  0.40728697  0.10883643  0.60971704  1
  O  O52  1  0.61118589  0.70586415  0.50406643  1
  O  O53  1  0.49637204  0.60589524  0.20101352  1
  O  O54  1  0.61250811  0.91617775  0.11687301  1
  O  O55  1  0.49333655  0.38226369  0.29535519  1
  O  O56  1  0.88379944  0.99646278  0.79658994  1
  O  O57  1  0.70180876  0.10712052  0.99593435  1
  O  O58  1  0.70390372  0.50042783  0.60896355  1
  O  O59  1  0.61059210  0.19673460  0.49311866  1
  O  O60  1  0.79608884  0.40504239  0.79650353  1
  O  O61  1  0.79820460  0.79413422  0.40532310  1
  O  O62  1  0.99912035  0.79756072  0.89028293  1
  O  O63  1  0.69986991  0.08720920  0.70340991  1
  O  O64  1  0.70578487  0.70329854  0.09568935  1
  O  O65  1  0.61619837  0.41279159  0.11265748  1
  O  O66  1  0.58690948  0.19798262  0.20464378  1
  O  O67  1  0.80013564  0.50354093  0.38734085  1
  O  O68  1  0.88939732  0.38253042  0.58614141  1
  O  O69  1  0.91308618  0.11773354  0.61107357  1
  O  O70  1  0.90489020  0.29536627  0.29898597  1
  O  O71  1  0.99704040  0.69888200  0.11346782  1
  O  O72  1  0.88880147  0.39288162  0.09467783  1
  O  O73  1  0.88749160  0.00436130  0.30366395  1
