# generated using pymatgen
data_LiTiCrSO8
_symmetry_space_group_name_H-M   'P 1'
_cell_length_a   9.24354470
_cell_length_b   9.22206121
_cell_length_c   9.07821376
_cell_angle_alpha   56.38988839
_cell_angle_beta   55.77516371
_cell_angle_gamma   56.02265453
_symmetry_Int_Tables_number   1
_chemical_formula_structural   LiTiCrSO8
_chemical_formula_sum   'Li3 Ti3 Cr3 S3 O24'
_cell_volume   497.27312374
_cell_formula_units_Z   3
loop_
 _symmetry_equiv_pos_site_id
 _symmetry_equiv_pos_as_xyz
  1  'x, y, z'
loop_
 _atom_site_type_symbol
 _atom_site_label
 _atom_site_symmetry_multiplicity
 _atom_site_fract_x
 _atom_site_fract_y
 _atom_site_fract_z
 _atom_site_occupancy
  Li  Li0  1  0.22454006  0.83270914  0.58073472  1
  Li  Li1  1  0.58796441  0.21690632  0.82094395  1
  Li  Li2  1  0.83621000  0.85403487  0.86856108  1
  Ti  Ti3  1  0.14960428  0.15053193  0.13253544  1
  Ti  Ti4  1  0.35656080  0.36200423  0.35356395  1
  Ti  Ti5  1  0.64610700  0.63796192  0.64788512  1
  Cr  Cr6  1  0.03326248  0.75053445  0.47136933  1
  Cr  Cr7  1  0.74454549  0.46630251  0.04828347  1
  Cr  Cr8  1  0.24728573  0.53269239  0.96142966  1
  S  S9  1  0.46227215  0.03676782  0.74747757  1
  S  S10  1  0.52775198  0.96740819  0.25411879  1
  S  S11  1  0.97000980  0.25383124  0.52326848  1
  O  O12  1  0.10183298  0.31111603  0.50490262  1
  O  O13  1  0.32125837  0.48451321  0.13018332  1
  O  O14  1  0.04308015  0.96947183  0.29799992  1
  O  O15  1  0.48743511  0.10888817  0.31696471  1
  O  O16  1  0.03311115  0.72771269  0.66445411  1
  O  O17  1  0.24730628  0.58306410  0.39240101  1
  O  O18  1  0.36599282  0.21772677  0.62650408  1
  O  O19  1  0.33004953  0.00859696  0.95143873  1
  O  O20  1  0.60317171  0.35550188  0.25716593  1
  O  O21  1  0.03546167  0.68416629  0.99465976  1
  O  O22  1  0.30510020  0.31249945  0.97328623  1
  O  O23  1  0.34224881  0.97307975  0.29259179  1
  O  O24  1  0.63359140  0.03764736  0.72235503  1
  O  O25  1  0.70389487  0.66881835  0.02955137  1
  O  O26  1  0.98137277  0.31210107  0.01679279  1
  O  O27  1  0.39910564  0.63545935  0.73421423  1
  O  O28  1  0.64634749  0.00501683  0.05212898  1
  O  O29  1  0.61743125  0.77944537  0.37412956  1
  O  O30  1  0.77029286  0.37667900  0.60935679  1
  O  O31  1  0.99484775  0.28555491  0.33107503  1
  O  O32  1  0.50103378  0.88325036  0.70226075  1
  O  O33  1  0.99169003  0.05884690  0.64954163  1
  O  O34  1  0.69213693  0.50593446  0.86265043  1
  O  O35  1  0.86379527  0.70252391  0.49701963  1
