# generated using pymatgen
data_Li4TiMn3(PO4)4
_symmetry_space_group_name_H-M   'P 1'
_cell_length_a   4.77872976
_cell_length_b   10.59456894
_cell_length_c   6.15828836
_cell_angle_alpha   90.00000000
_cell_angle_beta   90.00000000
_cell_angle_gamma   89.87445319
_symmetry_Int_Tables_number   1
_chemical_formula_structural   Li4TiMn3(PO4)4
_chemical_formula_sum   'Li4 Ti1 Mn3 P4 O16'
_cell_volume   311.78465803
_cell_formula_units_Z   1
loop_
 _symmetry_equiv_pos_site_id
 _symmetry_equiv_pos_as_xyz
  1  'x, y, z'
loop_
 _atom_site_type_symbol
 _atom_site_label
 _atom_site_symmetry_multiplicity
 _atom_site_fract_x
 _atom_site_fract_y
 _atom_site_fract_z
 _atom_site_occupancy
  Li  Li0  1  0.99959116  0.99993855  0.00028999  1
  Li  Li1  1  0.99959116  0.99993855  0.49971001  1
  Li  Li2  1  0.49907362  0.49981042  0.49936079  1
  Li  Li3  1  0.49907362  0.49981042  0.00063921  1
  Ti  Ti4  1  0.97392645  0.27968009  0.25000000  1
  Mn  Mn5  1  0.02775243  0.71904160  0.75000000  1
  Mn  Mn6  1  0.47294304  0.21887610  0.75000000  1
  Mn  Mn7  1  0.52735995  0.78125903  0.25000000  1
  P  P8  1  0.09031255  0.59234217  0.25000000  1
  P  P9  1  0.40995662  0.09203765  0.25000000  1
  P  P10  1  0.59008165  0.90829578  0.75000000  1
  P  P11  1  0.91156835  0.40838450  0.75000000  1
  O  O12  1  0.21214917  0.45592924  0.25000000  1
  O  O13  1  0.22360469  0.66156355  0.04892983  1
  O  O14  1  0.22360469  0.66156355  0.45107017  1
  O  O15  1  0.23305829  0.40418834  0.75000000  1
  O  O16  1  0.26860174  0.90418995  0.75000000  1
  O  O17  1  0.27252613  0.16159935  0.04989973  1
  O  O18  1  0.27252613  0.16159935  0.45010027  1
  O  O19  1  0.28807003  0.95605356  0.25000000  1
  O  O20  1  0.71128018  0.04465328  0.75000000  1
  O  O21  1  0.72397559  0.83896339  0.54888804  1
  O  O22  1  0.72397559  0.83896339  0.95111196  1
  O  O23  1  0.73147661  0.09421859  0.25000000  1
  O  O24  1  0.76855927  0.59607993  0.25000000  1
  O  O25  1  0.77924265  0.33834857  0.54865678  1
  O  O26  1  0.77924265  0.33834857  0.95134322  1
  O  O27  1  0.78687599  0.54432151  0.75000000  1
