# generated using pymatgen
data_Li2Mn2Si2O7
_symmetry_space_group_name_H-M   'P 1'
_cell_length_a   5.08981375
_cell_length_b   5.44529798
_cell_length_c   13.45136678
_cell_angle_alpha   90.08570441
_cell_angle_beta   89.84478018
_cell_angle_gamma   117.96283799
_symmetry_Int_Tables_number   1
_chemical_formula_structural   Li2Mn2Si2O7
_chemical_formula_sum   'Li4 Mn4 Si4 O14'
_cell_volume   329.28574632
_cell_formula_units_Z   2
loop_
 _symmetry_equiv_pos_site_id
 _symmetry_equiv_pos_as_xyz
  1  'x, y, z'
loop_
 _atom_site_type_symbol
 _atom_site_label
 _atom_site_symmetry_multiplicity
 _atom_site_fract_x
 _atom_site_fract_y
 _atom_site_fract_z
 _atom_site_occupancy
  Li  Li0  1  0.01640479  0.00592213  0.00162845  1
  Li  Li1  1  0.01126521  0.99681913  0.50232563  1
  Li  Li2  1  0.00679832  0.02885920  0.24910774  1
  Li  Li3  1  0.98278878  0.98167818  0.74905749  1
  Mn  Mn4  1  0.34307160  0.56590945  0.58957457  1
  Mn  Mn5  1  0.34604836  0.57032879  0.91139328  1
  Mn  Mn6  1  0.78177319  0.43564031  0.41112463  1
  Mn  Mn7  1  0.78084096  0.43739878  0.08929302  1
  Si  Si8  1  0.44133318  0.77886248  0.13947922  1
  Si  Si9  1  0.44297947  0.77853453  0.36197161  1
  Si  Si10  1  0.66121282  0.22513083  0.63957459  1
  Si  Si11  1  0.66309569  0.22740074  0.86139353  1
  O  O12  1  0.14698284  0.82301145  0.12439761  1
  O  O13  1  0.14816252  0.82135357  0.37763913  1
  O  O14  1  0.43483599  0.63739485  0.25049492  1
  O  O15  1  0.68532003  0.93804244  0.86856453  1
  O  O16  1  0.68389361  0.93595583  0.63108115  1
  O  O17  1  0.44433510  0.54539650  0.06229929  1
  O  O18  1  0.44762557  0.54609697  0.43907825  1
  O  O19  1  0.32531862  0.18509461  0.87689762  1
  O  O20  1  0.32211252  0.18091098  0.62564974  1
  O  O21  1  0.79781161  0.36917828  0.75025998  1
  O  O22  1  0.75618094  0.06824915  0.36932833  1
  O  O23  1  0.75440378  0.06895663  0.13103988  1
  O  O24  1  0.89842276  0.45840822  0.56221381  1
  O  O25  1  0.90108975  0.46018799  0.93864900  1
