# generated using pymatgen
data_Dy2SiO5
_symmetry_space_group_name_H-M   'P 1'
_cell_length_a   10.19143568
_cell_length_b   10.81829948
_cell_length_c   3.67794948
_cell_angle_alpha   90.00000000
_cell_angle_beta   90.00000000
_cell_angle_gamma   90.00000000
_symmetry_Int_Tables_number   1
_chemical_formula_structural   Dy2SiO5
_chemical_formula_sum   'Dy8 Si4 O20'
_cell_volume   405.50865417
_cell_formula_units_Z   4
loop_
 _symmetry_equiv_pos_site_id
 _symmetry_equiv_pos_as_xyz
  1  'x, y, z'
loop_
 _atom_site_type_symbol
 _atom_site_label
 _atom_site_symmetry_multiplicity
 _atom_site_fract_x
 _atom_site_fract_y
 _atom_site_fract_z
 _atom_site_occupancy
  Dy  Dy0  1  0.10105789  0.71706556  0.25000000  1
  Dy  Dy1  1  0.13951596  0.05420316  0.25000000  1
  Dy  Dy2  1  0.36048404  0.55420316  0.75000000  1
  Dy  Dy3  1  0.39894211  0.21706556  0.75000000  1
  Dy  Dy4  1  0.60105789  0.78293444  0.25000000  1
  Dy  Dy5  1  0.63951596  0.44579684  0.25000000  1
  Dy  Dy6  1  0.86048404  0.94579684  0.75000000  1
  Dy  Dy7  1  0.89894211  0.28293444  0.75000000  1
  Si  Si8  1  0.18125050  0.37518195  0.25000000  1
  Si  Si9  1  0.31874950  0.87518195  0.75000000  1
  Si  Si10  1  0.68125050  0.12481805  0.25000000  1
  Si  Si11  1  0.81874950  0.62481805  0.75000000  1
  O  O12  1  0.00995512  0.10447665  0.75000000  1
  O  O13  1  0.02336999  0.34426329  0.25000000  1
  O  O14  1  0.22075828  0.52820976  0.25000000  1
  O  O15  1  0.22431363  0.37825074  0.75000000  1
  O  O16  1  0.23492873  0.73721866  0.75000000  1
  O  O17  1  0.26507127  0.23721866  0.25000000  1
  O  O18  1  0.27568637  0.87825074  0.25000000  1
  O  O19  1  0.27924172  0.02820976  0.75000000  1
  O  O20  1  0.47663001  0.84426329  0.75000000  1
  O  O21  1  0.49004488  0.60447665  0.25000000  1
  O  O22  1  0.50995512  0.39552335  0.75000000  1
  O  O23  1  0.52336999  0.15573671  0.25000000  1
  O  O24  1  0.72075828  0.97179024  0.25000000  1
  O  O25  1  0.72431363  0.12174926  0.75000000  1
  O  O26  1  0.73492873  0.76278134  0.75000000  1
  O  O27  1  0.76507127  0.26278134  0.25000000  1
  O  O28  1  0.77568637  0.62174926  0.25000000  1
  O  O29  1  0.77924172  0.47179024  0.75000000  1
  O  O30  1  0.97663001  0.65573671  0.75000000  1
  O  O31  1  0.99004488  0.89552335  0.25000000  1
