# generated using pymatgen
data_Li3CrPCO7
_symmetry_space_group_name_H-M   'P 1'
_cell_length_a   9.53971731
_cell_length_b   9.98049180
_cell_length_c   6.48960008
_cell_angle_alpha   90.00000000
_cell_angle_beta   90.00000000
_cell_angle_gamma   63.71477258
_symmetry_Int_Tables_number   1
_chemical_formula_structural   Li3CrPCO7
_chemical_formula_sum   'Li12 Cr4 P4 C4 O28'
_cell_volume   553.99318896
_cell_formula_units_Z   4
loop_
 _symmetry_equiv_pos_site_id
 _symmetry_equiv_pos_as_xyz
  1  'x, y, z'
loop_
 _atom_site_type_symbol
 _atom_site_label
 _atom_site_symmetry_multiplicity
 _atom_site_fract_x
 _atom_site_fract_y
 _atom_site_fract_z
 _atom_site_occupancy
  Li  Li0  1  0.88854364  0.44235062  0.75041716  1
  Li  Li1  1  0.88854364  0.94235062  0.74958284  1
  Li  Li2  1  0.70643800  0.26383463  0.97991831  1
  Li  Li3  1  0.70643800  0.76383463  0.52008169  1
  Li  Li4  1  0.64329910  0.06585784  0.24224087  1
  Li  Li5  1  0.64329910  0.56585784  0.25775913  1
  Li  Li6  1  0.35670090  0.43414216  0.75775913  1
  Li  Li7  1  0.35670090  0.93414216  0.74224087  1
  Li  Li8  1  0.29356200  0.23616537  0.02008169  1
  Li  Li9  1  0.29356200  0.73616537  0.47991831  1
  Li  Li10  1  0.11145636  0.05764938  0.24958284  1
  Li  Li11  1  0.11145636  0.55764938  0.25041716  1
  Cr  Cr12  1  0.74069636  0.25408002  0.48263786  1
  Cr  Cr13  1  0.74069636  0.75408002  0.01736214  1
  Cr  Cr14  1  0.25930364  0.24591998  0.51736214  1
  Cr  Cr15  1  0.25930364  0.74591998  0.98263786  1
  P  P16  1  0.58924171  0.06771759  0.74632391  1
  P  P17  1  0.58924171  0.56771759  0.75367609  1
  P  P18  1  0.41075829  0.43228241  0.25367609  1
  P  P19  1  0.41075829  0.93228241  0.24632391  1
  C  C20  1  0.95949305  0.37338674  0.26340421  1
  C  C21  1  0.95949305  0.87338674  0.23659579  1
  C  C22  1  0.04050695  0.12661326  0.73659579  1
  C  C23  1  0.04050695  0.62661326  0.76340421  1
  O  O24  1  0.93818417  0.00801861  0.24900182  1
  O  O25  1  0.93818417  0.50801861  0.25099818  1
  O  O26  1  0.89681686  0.23729764  0.72208653  1
  O  O27  1  0.84349583  0.33844241  0.25829927  1
  O  O28  1  0.89681686  0.73729764  0.77791347  1
  O  O29  1  0.84349583  0.83844241  0.24170073  1
  O  O30  1  0.68529400  0.07184095  0.93597303  1
  O  O31  1  0.68726046  0.07609887  0.55745484  1
  O  O32  1  0.68726046  0.57609887  0.94254516  1
  O  O33  1  0.68529400  0.57184095  0.56402697  1
  O  O34  1  0.57810570  0.29918134  0.25029572  1
  O  O35  1  0.57503505  0.41921535  0.76463722  1
  O  O36  1  0.57810570  0.79918134  0.24970428  1
  O  O37  1  0.57503505  0.91921535  0.73536278  1
  O  O38  1  0.42496495  0.08078465  0.23536278  1
  O  O39  1  0.42189430  0.20081866  0.74970428  1
  O  O40  1  0.42496495  0.58078465  0.26463722  1
  O  O41  1  0.42189430  0.70081866  0.75029572  1
  O  O42  1  0.31470600  0.42815905  0.06402697  1
  O  O43  1  0.31273954  0.42390113  0.44254516  1
  O  O44  1  0.31273954  0.92390113  0.05745484  1
  O  O45  1  0.31470600  0.92815905  0.43597303  1
  O  O46  1  0.15650417  0.16155759  0.74170073  1
  O  O47  1  0.10318314  0.26270236  0.27791347  1
  O  O48  1  0.15650417  0.66155759  0.75829927  1
  O  O49  1  0.10318314  0.76270236  0.22208653  1
  O  O50  1  0.06181583  0.49198139  0.75099818  1
  O  O51  1  0.06181583  0.99198139  0.74900182  1
