# generated using pymatgen
data_Li3NiPCO7
_symmetry_space_group_name_H-M   'P 1'
_cell_length_a   9.41178100
_cell_length_b   9.74443653
_cell_length_c   6.32910818
_cell_angle_alpha   90.00000000
_cell_angle_beta   90.00000000
_cell_angle_gamma   63.96928615
_symmetry_Int_Tables_number   1
_chemical_formula_structural   Li3NiPCO7
_chemical_formula_sum   'Li12 Ni4 P4 C4 O28'
_cell_volume   521.57603110
_cell_formula_units_Z   4
loop_
 _symmetry_equiv_pos_site_id
 _symmetry_equiv_pos_as_xyz
  1  'x, y, z'
loop_
 _atom_site_type_symbol
 _atom_site_label
 _atom_site_symmetry_multiplicity
 _atom_site_fract_x
 _atom_site_fract_y
 _atom_site_fract_z
 _atom_site_occupancy
  Li  Li0  1  0.90005409  0.43304185  0.75003553  1
  Li  Li1  1  0.90005409  0.93304185  0.74996447  1
  Li  Li2  1  0.72181362  0.25855968  0.99074214  1
  Li  Li3  1  0.72181362  0.75855968  0.50925786  1
  Li  Li4  1  0.65239397  0.06372645  0.24849355  1
  Li  Li5  1  0.65239397  0.56372645  0.25150645  1
  Li  Li6  1  0.34760603  0.43627355  0.75150645  1
  Li  Li7  1  0.34760603  0.93627355  0.74849355  1
  Li  Li8  1  0.27818638  0.24144032  0.00925786  1
  Li  Li9  1  0.27818638  0.74144032  0.49074214  1
  Li  Li10  1  0.09994591  0.06695815  0.24996447  1
  Li  Li11  1  0.09994591  0.56695815  0.25003553  1
  Ni  Ni12  1  0.72572768  0.26243667  0.50941892  1
  Ni  Ni13  1  0.72572768  0.76243667  0.99058108  1
  Ni  Ni14  1  0.27427232  0.23756333  0.49058108  1
  Ni  Ni15  1  0.27427232  0.73756333  0.00941892  1
  P  P16  1  0.59091378  0.06507249  0.75216161  1
  P  P17  1  0.59091378  0.56507249  0.74783839  1
  P  P18  1  0.40908622  0.43492751  0.24783839  1
  P  P19  1  0.40908622  0.93492751  0.25216161  1
  C  C20  1  0.96114733  0.37154940  0.25978048  1
  C  C21  1  0.96114733  0.87154940  0.24021952  1
  C  C22  1  0.03885267  0.12845060  0.74021952  1
  C  C23  1  0.03885267  0.62845060  0.75978048  1
  O  O24  1  0.93093882  0.01192013  0.25139963  1
  O  O25  1  0.93093882  0.51192013  0.24860037  1
  O  O26  1  0.89007882  0.23504326  0.73501311  1
  O  O27  1  0.85071043  0.32649755  0.26047764  1
  O  O28  1  0.89007882  0.73504326  0.76498689  1
  O  O29  1  0.85071043  0.82649755  0.23952236  1
  O  O30  1  0.68427893  0.07437824  0.94563962  1
  O  O31  1  0.69147542  0.07036963  0.55897686  1
  O  O32  1  0.69147542  0.57036963  0.94102314  1
  O  O33  1  0.68427893  0.57437824  0.55436038  1
  O  O34  1  0.57956128  0.30523460  0.25901951  1
  O  O35  1  0.58078641  0.40900868  0.74421648  1
  O  O36  1  0.57956128  0.80523460  0.24098049  1
  O  O37  1  0.58078641  0.90900868  0.75578352  1
  O  O38  1  0.41921359  0.09099132  0.25578352  1
  O  O39  1  0.42043872  0.19476540  0.74098049  1
  O  O40  1  0.41921359  0.59099132  0.24421648  1
  O  O41  1  0.42043872  0.69476540  0.75901951  1
  O  O42  1  0.31572107  0.42562176  0.05436038  1
  O  O43  1  0.30852458  0.42963037  0.44102314  1
  O  O44  1  0.30852458  0.92963037  0.05897686  1
  O  O45  1  0.31572107  0.92562176  0.44563962  1
  O  O46  1  0.14928957  0.17350245  0.73952236  1
  O  O47  1  0.10992118  0.26495674  0.26498689  1
  O  O48  1  0.14928957  0.67350245  0.76047764  1
  O  O49  1  0.10992118  0.76495674  0.23501311  1
  O  O50  1  0.06906118  0.48807987  0.74860037  1
  O  O51  1  0.06906118  0.98807987  0.75139963  1
