# generated using pymatgen
data_LiNiP2O7
_symmetry_space_group_name_H-M   'P 1'
_cell_length_a   8.28459818
_cell_length_b   5.10857719
_cell_length_c   13.27457689
_cell_angle_alpha   90.00000000
_cell_angle_beta   75.31862659
_cell_angle_gamma   90.00000000
_symmetry_Int_Tables_number   1
_chemical_formula_structural   LiNiP2O7
_chemical_formula_sum   'Li4 Ni4 P8 O28'
_cell_volume   543.47030667
_cell_formula_units_Z   4
loop_
 _symmetry_equiv_pos_site_id
 _symmetry_equiv_pos_as_xyz
  1  'x, y, z'
loop_
 _atom_site_type_symbol
 _atom_site_label
 _atom_site_symmetry_multiplicity
 _atom_site_fract_x
 _atom_site_fract_y
 _atom_site_fract_z
 _atom_site_occupancy
  Li  Li0  1  0.27187777  0.73477242  0.15970477  1
  Li  Li1  1  0.14907061  0.32256479  0.83737127  1
  Li  Li2  1  0.64907061  0.17743521  0.33737127  1
  Li  Li3  1  0.77187777  0.76522758  0.65970477  1
  Ni  Ni4  1  0.07573377  0.25682191  0.64194222  1
  Ni  Ni5  1  0.57573377  0.24317809  0.14194222  1
  Ni  Ni6  1  0.40538120  0.73144034  0.86114535  1
  Ni  Ni7  1  0.90538120  0.76855966  0.36114535  1
  P  P8  1  0.28262621  0.22464741  0.02223581  1
  P  P9  1  0.02111645  0.79247075  0.80035404  1
  P  P10  1  0.22258723  0.73707351  0.47903843  1
  P  P11  1  0.52111645  0.70752925  0.30035404  1
  P  P12  1  0.48231844  0.26965991  0.69110602  1
  P  P13  1  0.78262621  0.27535259  0.52223581  1
  P  P14  1  0.98231844  0.23034009  0.19110602  1
  P  P15  1  0.72258723  0.76292649  0.97903843  1
  O  O16  1  0.07937448  0.26812005  0.07169370  1
  O  O17  1  0.04677335  0.97319639  0.22765966  1
  O  O18  1  0.02125964  0.46198606  0.25432171  1
  O  O19  1  0.12214793  0.78968439  0.39955538  1
  O  O20  1  0.31052883  0.92906499  0.00746005  1
  O  O21  1  0.19695153  0.44997657  0.51311047  1
  O  O22  1  0.36430130  0.35038680  0.10176358  1
  O  O23  1  0.19144773  0.92308263  0.57011467  1
  O  O24  1  0.19819662  0.72924410  0.80685694  1
  O  O25  1  0.46175063  0.88812700  0.22536076  1
  O  O26  1  0.29657590  0.29121315  0.69534739  1
  O  O27  1  0.49391440  0.41450580  0.28421112  1
  O  O28  1  0.41555351  0.77345951  0.41938209  1
  O  O29  1  0.31083146  0.37175453  0.91966458  1
  O  O30  1  0.69144773  0.57691737  0.07011467  1
  O  O31  1  0.57937448  0.23187995  0.57169370  1
  O  O32  1  0.54677335  0.52680361  0.72765966  1
  O  O33  1  0.69819662  0.77075590  0.30685694  1
  O  O34  1  0.52125964  0.03801394  0.75432171  1
  O  O35  1  0.79657590  0.20878685  0.19534739  1
  O  O36  1  0.81083146  0.12824547  0.41966458  1
  O  O37  1  0.62214793  0.71031561  0.89955538  1
  O  O38  1  0.81052883  0.57093501  0.50746005  1
  O  O39  1  0.69695153  0.05002343  0.01311047  1
  O  O40  1  0.86430130  0.14961320  0.60176358  1
  O  O41  1  0.96175063  0.61187300  0.72536076  1
  O  O42  1  0.99391440  0.08549420  0.78421112  1
  O  O43  1  0.91555351  0.72654049  0.91938209  1
