# generated using pymatgen
data_BiB2O5
_symmetry_space_group_name_H-M   'P 1'
_cell_length_a   6.70321525
_cell_length_b   6.70321525
_cell_length_c   10.24383556
_cell_angle_alpha   78.96034061
_cell_angle_beta   101.03965939
_cell_angle_gamma   118.65163794
_symmetry_Int_Tables_number   1
_chemical_formula_structural   BiB2O5
_chemical_formula_sum   'Bi4 B8 O20'
_cell_volume   393.78740553
_cell_formula_units_Z   4
loop_
 _symmetry_equiv_pos_site_id
 _symmetry_equiv_pos_as_xyz
  1  'x, y, z'
loop_
 _atom_site_type_symbol
 _atom_site_label
 _atom_site_symmetry_multiplicity
 _atom_site_fract_x
 _atom_site_fract_y
 _atom_site_fract_z
 _atom_site_occupancy
  Bi  Bi0  1  0.61662135  0.98416750  0.69183841  1
  Bi  Bi1  1  0.01583250  0.38337865  0.19183841  1
  Bi  Bi2  1  0.98416750  0.61662135  0.80816159  1
  Bi  Bi3  1  0.38337865  0.01583250  0.30816159  1
  B  B4  1  0.17069081  0.44113190  0.64088678  1
  B  B5  1  0.23397961  0.28150598  0.00109028  1
  B  B6  1  0.55886810  0.82930919  0.14088678  1
  B  B7  1  0.71849402  0.76601939  0.50109028  1
  B  B8  1  0.28150598  0.23397961  0.49890972  1
  B  B9  1  0.44113190  0.17069081  0.85911322  1
  B  B10  1  0.76601939  0.71849402  0.99890972  1
  B  B11  1  0.82930919  0.55886810  0.35911322  1
  O  O12  1  0.32817621  0.94338092  0.84091617  1
  O  O13  1  0.05661908  0.67182379  0.34091617  1
  O  O14  1  0.10628146  0.39944352  0.97278051  1
  O  O15  1  0.27638096  0.65141156  0.68965401  1
  O  O16  1  0.60055648  0.89371854  0.47278051  1
  O  O17  1  0.34858844  0.72361904  0.18965401  1
  O  O18  1  0.78534020  0.83008578  0.87127336  1
  O  O19  1  0.29338215  0.36593898  0.58979042  1
  O  O20  1  0.36593898  0.29338215  0.91020958  1
  O  O21  1  0.16991422  0.21465980  0.37127336  1
  O  O22  1  0.83008578  0.78534020  0.62872664  1
  O  O23  1  0.63406102  0.70661785  0.08979042  1
  O  O24  1  0.70661785  0.63406102  0.41020958  1
  O  O25  1  0.21465980  0.16991422  0.12872664  1
  O  O26  1  0.65141156  0.27638096  0.81034599  1
  O  O27  1  0.39944352  0.10628146  0.52721949  1
  O  O28  1  0.72361904  0.34858844  0.31034599  1
  O  O29  1  0.89371854  0.60055648  0.02721949  1
  O  O30  1  0.94338092  0.32817621  0.65908383  1
  O  O31  1  0.67182379  0.05661908  0.15908383  1
