# generated using pymatgen
data_Li3TiCo3O8
_symmetry_space_group_name_H-M   'P 1'
_cell_length_a   5.86380194
_cell_length_b   5.68226549
_cell_length_c   5.68226587
_cell_angle_alpha   60.00000220
_cell_angle_beta   61.01893164
_cell_angle_gamma   90.00000412
_symmetry_Int_Tables_number   1
_chemical_formula_structural   Li3TiCo3O8
_chemical_formula_sum   'Li3 Ti1 Co3 O8'
_cell_volume   135.90237910
_cell_formula_units_Z   1
loop_
 _symmetry_equiv_pos_site_id
 _symmetry_equiv_pos_as_xyz
  1  'x, y, z'
loop_
 _atom_site_type_symbol
 _atom_site_label
 _atom_site_symmetry_multiplicity
 _atom_site_fract_x
 _atom_site_fract_y
 _atom_site_fract_z
 _atom_site_occupancy
  Li  Li0  1  0.50000000  0.00000000  0.00000000  1
  Li  Li1  1  0.50000000  0.00000000  0.50000000  1
  Li  Li2  1  0.50000000  0.50000000  0.50000000  1
  Ti  Ti3  1  0.00000000  0.00000000  0.00000000  1
  Co  Co4  1  0.00000000  0.00000000  0.50000000  1
  Co  Co5  1  0.00000000  0.50000000  0.00000000  1
  Co  Co6  1  0.00000000  0.50000000  0.50000000  1
  O  O7  1  0.21836822  0.23986987  0.02150164  1
  O  O8  1  0.21836822  0.23986987  0.52025926  1
  O  O9  1  0.21836822  0.73862849  0.02150164  1
  O  O10  1  0.21181757  0.73727252  0.52545495  1
  O  O11  1  0.78818243  0.26272748  0.47454505  1
  O  O12  1  0.78163178  0.26137151  0.97849836  1
  O  O13  1  0.78163178  0.76013013  0.47974074  1
  O  O14  1  0.78163178  0.76013013  0.97849836  1
