# generated using pymatgen
data_LiMn2OF5
_symmetry_space_group_name_H-M   'P 1'
_cell_length_a   4.73219697
_cell_length_b   17.29305717
_cell_length_c   5.12000632
_cell_angle_alpha   88.54703034
_cell_angle_beta   90.00000000
_cell_angle_gamma   90.00000000
_symmetry_Int_Tables_number   1
_chemical_formula_structural   LiMn2OF5
_chemical_formula_sum   'Li4 Mn8 O4 F20'
_cell_volume   418.85666285
_cell_formula_units_Z   4
loop_
 _symmetry_equiv_pos_site_id
 _symmetry_equiv_pos_as_xyz
  1  'x, y, z'
loop_
 _atom_site_type_symbol
 _atom_site_label
 _atom_site_symmetry_multiplicity
 _atom_site_fract_x
 _atom_site_fract_y
 _atom_site_fract_z
 _atom_site_occupancy
  Li  Li0  1  0.01034951  0.38179486  0.25124693  1
  Li  Li1  1  0.98923286  0.61082343  0.74640415  1
  Li  Li2  1  0.48965049  0.88179486  0.25124693  1
  Li  Li3  1  0.51076714  0.11082343  0.74640415  1
  Mn  Mn4  1  0.01003442  0.28161622  0.76436530  1
  Mn  Mn5  1  0.01797780  0.05521114  0.24941122  1
  Mn  Mn6  1  0.04448097  0.70996353  0.22501193  1
  Mn  Mn7  1  -0.00051990  0.94578010  0.75743933  1
  Mn  Mn8  1  0.45551903  0.20996353  0.22501193  1
  Mn  Mn9  1  0.48202220  0.55521114  0.24941122  1
  Mn  Mn10  1  0.48996558  0.78161622  0.76436530  1
  Mn  Mn11  1  0.50051990  0.44578010  0.75743933  1
  O  O12  1  0.26234357  0.78498021  0.06777801  1
  O  O13  1  0.24389319  0.62823667  0.08432204  1
  O  O14  1  0.25610681  0.12823667  0.08432204  1
  O  O15  1  0.23765643  0.28498021  0.06777801  1
  F  F16  1  0.23701555  0.95943396  0.08423523  1
  F  F17  1  0.23234044  0.04452738  0.56911105  1
  F  F18  1  0.26295239  0.20943612  0.56239070  1
  F  F19  1  0.22655188  0.37125483  0.58283103  1
  F  F20  1  0.27344812  0.87125483  0.58283103  1
  F  F21  1  0.23704761  0.70943612  0.56239070  1
  F  F22  1  0.26298445  0.45943396  0.08423523  1
  F  F23  1  0.26765956  0.54452738  0.56911105  1
  F  F24  1  0.71075459  0.47276806  0.40935795  1
  F  F25  1  0.71128308  0.54274252  0.93052912  1
  F  F26  1  0.77139412  0.29103568  0.45240645  1
  F  F27  1  0.78619822  0.70683809  0.93577150  1
  F  F28  1  0.71339841  0.13578333  0.40550168  1
  F  F29  1  0.71415225  0.86777488  0.92188639  1
  F  F30  1  0.78584775  0.36777488  0.92188639  1
  F  F31  1  0.78660159  0.63578333  0.40550168  1
  F  F32  1  0.72860588  0.79103568  0.45240645  1
  F  F33  1  0.71380178  0.20683809  0.93577150  1
  F  F34  1  0.78871692  0.04274252  0.93052912  1
  F  F35  1  0.78924541  0.97276806  0.40935795  1
