# generated using pymatgen
data_YHO2
_symmetry_space_group_name_H-M   'P 1'
_cell_length_a   3.53193400
_cell_length_b   3.53195996
_cell_length_c   9.23116600
_cell_angle_alpha   90.00125305
_cell_angle_beta   89.99991931
_cell_angle_gamma   120.00050459
_symmetry_Int_Tables_number   1
_chemical_formula_structural   YHO2
_chemical_formula_sum   'Y2 H2 O4'
_cell_volume   99.72713336
_cell_formula_units_Z   2
loop_
 _symmetry_equiv_pos_site_id
 _symmetry_equiv_pos_as_xyz
  1  'x, y, z'
loop_
 _atom_site_type_symbol
 _atom_site_label
 _atom_site_symmetry_multiplicity
 _atom_site_fract_x
 _atom_site_fract_y
 _atom_site_fract_z
 _atom_site_occupancy
  Y  Y0  1  0.99999900  0.00030000  0.99999900  1
  Y  Y1  1  0.99999100  0.99976200  0.49999900  1
  H  H2  1  0.33332800  0.66667700  0.24999700  1
  H  H3  1  0.66667700  0.33335500  0.74999900  1
  O  O4  1  0.33333000  0.66677500  0.11729200  1
  O  O5  1  0.33333100  0.66660600  0.38271100  1
  O  O6  1  0.66666200  0.33342300  0.88271100  1
  O  O7  1  0.66668100  0.33330200  0.61729200  1
