# generated using pymatgen
data_Ca2SnN2
_symmetry_space_group_name_H-M   'P 1'
_cell_length_a   5.01794322
_cell_length_b   5.96875122
_cell_length_c   7.42323511
_cell_angle_alpha   59.86181106
_cell_angle_beta   70.29421594
_cell_angle_gamma   65.09391159
_symmetry_Int_Tables_number   1
_chemical_formula_structural   Ca2SnN2
_chemical_formula_sum   'Ca4 Sn2 N4'
_cell_volume   172.13932262
_cell_formula_units_Z   2
loop_
 _symmetry_equiv_pos_site_id
 _symmetry_equiv_pos_as_xyz
  1  'x, y, z'
loop_
 _atom_site_type_symbol
 _atom_site_label
 _atom_site_symmetry_multiplicity
 _atom_site_fract_x
 _atom_site_fract_y
 _atom_site_fract_z
 _atom_site_occupancy
  Ca  Ca0  1  0.66637986  0.24830619  0.41783471  1
  Ca  Ca1  1  0.33305821  0.75082932  0.58092655  1
  Ca  Ca2  1  0.00714419  0.72396013  0.25767749  1
  Ca  Ca3  1  0.99290259  0.27134854  0.74384072  1
  Sn  Sn4  1  0.34679213  0.23801323  0.09149372  1
  Sn  Sn5  1  0.67655953  0.75689112  0.90758955  1
  N  N6  1  0.16957914  0.24748685  0.40656867  1
  N  N7  1  0.82549679  0.74881000  0.59261400  1
  N  N8  1  0.50162096  0.21265392  0.77714252  1
  N  N9  1  0.49058460  0.78206869  0.22261807  1
