# generated using pymatgen
data_In2Bi2O7
_symmetry_space_group_name_H-M   'P 1'
_cell_length_a   8.11132449
_cell_length_b   14.01653869
_cell_length_c   5.56102534
_cell_angle_alpha   90.00000000
_cell_angle_beta   90.00000000
_cell_angle_gamma   99.06068597
_symmetry_Int_Tables_number   1
_chemical_formula_structural   In2Bi2O7
_chemical_formula_sum   'In8 Bi8 O28'
_cell_volume   624.35882037
_cell_formula_units_Z   4
loop_
 _symmetry_equiv_pos_site_id
 _symmetry_equiv_pos_as_xyz
  1  'x, y, z'
loop_
 _atom_site_type_symbol
 _atom_site_label
 _atom_site_symmetry_multiplicity
 _atom_site_fract_x
 _atom_site_fract_y
 _atom_site_fract_z
 _atom_site_occupancy
  In  In0  1  0.06805249  0.31398327  0.27372708  1
  In  In1  1  0.02117461  0.11333730  0.76080939  1
  In  In2  1  0.39308200  0.67245953  0.76399433  1
  In  In3  1  0.45957594  0.87682176  0.24812322  1
  In  In4  1  0.54042406  0.12317824  0.74812322  1
  In  In5  1  0.60691800  0.32754047  0.26399433  1
  In  In6  1  0.97882539  0.88666270  0.26080939  1
  In  In7  1  0.93194751  0.68601673  0.77372708  1
  Bi  Bi8  1  0.16639423  0.54825787  0.32727348  1
  Bi  Bi9  1  0.23359523  0.92127252  0.76230927  1
  Bi  Bi10  1  0.30062155  0.14398955  0.22472554  1
  Bi  Bi11  1  0.37954276  0.37664212  0.78024988  1
  Bi  Bi12  1  0.62045724  0.62335788  0.28024988  1
  Bi  Bi13  1  0.69937845  0.85601045  0.72472554  1
  Bi  Bi14  1  0.76640477  0.07872748  0.26230927  1
  Bi  Bi15  1  0.83360577  0.45174213  0.82727348  1
  O  O16  1  0.03905741  0.42634367  0.56285141  1
  O  O17  1  0.96794138  0.18399313  0.43766203  1
  O  O18  1  0.15371361  0.65865380  0.58504784  1
  O  O19  1  0.21866948  0.86908289  0.39535041  1
  O  O20  1  0.19904678  0.43601416  0.09137734  1
  O  O21  1  0.08255694  0.03362193  0.09666275  1
  O  O22  1  0.15267273  0.22661942  0.98332915  1
  O  O23  1  0.36243915  0.63128603  0.12444455  1
  O  O24  1  0.41621302  0.82378885  0.89224264  1
  O  O25  1  0.27198520  0.08926659  0.59085190  1
  O  O26  1  0.32716519  0.29235346  0.40825312  1
  O  O27  1  0.39989326  0.53875265  0.54980811  1
  O  O28  1  0.56095072  0.96467321  0.56573483  1
  O  O29  1  0.52316008  0.75841268  0.46766271  1
  O  O30  1  0.47683992  0.24158732  0.96766271  1
  O  O31  1  0.43904928  0.03532679  0.06573483  1
  O  O32  1  0.60010674  0.46124735  0.04980811  1
  O  O33  1  0.67283481  0.70764654  0.90825312  1
  O  O34  1  0.72801480  0.91073341  0.09085190  1
  O  O35  1  0.58378698  0.17621115  0.39224264  1
  O  O36  1  0.63756085  0.36871397  0.62444455  1
  O  O37  1  0.84732727  0.77338058  0.48332915  1
  O  O38  1  0.91744306  0.96637807  0.59666175  1
  O  O39  1  0.80095322  0.56398584  0.59137734  1
  O  O40  1  0.78133052  0.13091711  0.89535041  1
  O  O41  1  0.84628639  0.34134620  0.08504784  1
  O  O42  1  0.03205862  0.81600687  0.93766203  1
  O  O43  1  0.96094259  0.57365633  0.06285141  1
