# generated using pymatgen
data_Li4TiV4Cr4O18
_symmetry_space_group_name_H-M   'P 1'
_cell_length_a   8.96347052
_cell_length_b   24.95622807
_cell_length_c   2.97613369
_cell_angle_alpha   90.00000000
_cell_angle_beta   90.00000000
_cell_angle_gamma   90.00000000
_symmetry_Int_Tables_number   1
_chemical_formula_structural   Li4TiV4Cr4O18
_chemical_formula_sum   'Li8 Ti2 V8 Cr8 O36'
_cell_volume   665.74448354
_cell_formula_units_Z   2
loop_
 _symmetry_equiv_pos_site_id
 _symmetry_equiv_pos_as_xyz
  1  'x, y, z'
loop_
 _atom_site_type_symbol
 _atom_site_label
 _atom_site_symmetry_multiplicity
 _atom_site_fract_x
 _atom_site_fract_y
 _atom_site_fract_z
 _atom_site_occupancy
  Li  Li0  1  0.18373417  0.99368186  0.00000000  1
  Li  Li1  1  0.20550349  0.19016796  0.00000000  1
  Li  Li2  1  0.29449651  0.69016796  0.00000000  1
  Li  Li3  1  0.31626583  0.49368186  0.00000000  1
  Li  Li4  1  0.68481356  0.50959163  0.00000000  1
  Li  Li5  1  0.70923161  0.31297284  0.00000000  1
  Li  Li6  1  0.79076839  0.81297284  0.00000000  1
  Li  Li7  1  0.81518644  0.00959163  0.00000000  1
  Ti  Ti8  1  0.49407167  0.39751809  0.00000000  1
  Ti  Ti9  1  0.00592833  0.89751809  0.00000000  1
  V  V10  1  0.00088581  0.49989772  0.00000000  1
  V  V11  1  0.99685529  0.10293944  0.00000000  1
  V  V12  1  0.14564307  0.80282703  0.50000000  1
  V  V13  1  0.35435693  0.30282703  0.50000000  1
  V  V14  1  0.50314471  0.60293944  0.00000000  1
  V  V15  1  0.49911419  0.99989772  0.00000000  1
  V  V16  1  0.64300544  0.69610825  0.50000000  1
  V  V17  1  0.85699456  0.19610825  0.50000000  1
  Cr  Cr18  1  0.01789504  0.30990499  0.00000000  1
  Cr  Cr19  1  0.14874031  0.58676227  0.50000000  1
  Cr  Cr20  1  0.35125969  0.08676227  0.50000000  1
  Cr  Cr21  1  0.48210496  0.80990499  0.00000000  1
  Cr  Cr22  1  0.51654583  0.18893045  0.00000000  1
  Cr  Cr23  1  0.64735614  0.91379667  0.50000000  1
  Cr  Cr24  1  0.85264386  0.41379667  0.50000000  1
  Cr  Cr25  1  0.98345417  0.68893045  0.00000000  1
  O  O26  1  0.00126135  0.42427471  0.00000000  1
  O  O27  1  0.00163270  0.57657809  0.00000000  1
  O  O28  1  0.05936564  0.94190731  0.50000000  1
  O  O29  1  0.04753703  0.16011492  0.50000000  1
  O  O30  1  0.11745912  0.66517114  0.50000000  1
  O  O31  1  0.08977407  0.75659228  0.00000000  1
  O  O32  1  0.15143437  0.50518019  0.50000000  1
  O  O33  1  0.15179249  0.28476425  0.50000000  1
  O  O34  1  0.18743213  0.85410901  0.00000000  1
  O  O35  1  0.20114082  0.08625144  0.00000000  1
  O  O36  1  0.29885918  0.58625144  0.00000000  1
  O  O37  1  0.31256787  0.35410901  0.00000000  1
  O  O38  1  0.34820751  0.78476425  0.50000000  1
  O  O39  1  0.34856563  0.00518019  0.50000000  1
  O  O40  1  0.41022593  0.25659228  0.00000000  1
  O  O41  1  0.38254088  0.16517114  0.50000000  1
  O  O42  1  0.45246297  0.66011492  0.50000000  1
  O  O43  1  0.44063436  0.44190731  0.50000000  1
  O  O44  1  0.49836730  0.07657809  0.00000000  1
  O  O45  1  0.49873865  0.92427471  0.00000000  1
  O  O46  1  0.55804483  0.55729836  0.50000000  1
  O  O47  1  0.54599324  0.34022366  0.50000000  1
  O  O48  1  0.61417488  0.83516045  0.50000000  1
  O  O49  1  0.59213545  0.74298217  0.00000000  1
  O  O50  1  0.64915940  0.99549170  0.50000000  1
  O  O51  1  0.65289749  0.21179367  0.50000000  1
  O  O52  1  0.68192499  0.64373274  0.00000000  1
  O  O53  1  0.70352814  0.41327366  0.00000000  1
  O  O54  1  0.79647186  0.91327366  0.00000000  1
  O  O55  1  0.81807501  0.14373274  0.00000000  1
  O  O56  1  0.84710251  0.71179367  0.50000000  1
  O  O57  1  0.85084060  0.49549170  0.50000000  1
  O  O58  1  0.90786455  0.24298217  0.00000000  1
  O  O59  1  0.88582512  0.33516045  0.50000000  1
  O  O60  1  0.95400676  0.84022366  0.50000000  1
  O  O61  1  0.94195517  0.05729836  0.50000000  1
