# generated using pymatgen
data_Bi4(BO4)3
_symmetry_space_group_name_H-M   'P 1'
_cell_length_a   8.48531315
_cell_length_b   8.48531315
_cell_length_c   8.48531315
_cell_angle_alpha   109.47122063
_cell_angle_beta   109.47122063
_cell_angle_gamma   109.47122063
_symmetry_Int_Tables_number   1
_chemical_formula_structural   Bi4(BO4)3
_chemical_formula_sum   'Bi8 B6 O24'
_cell_volume   470.30731383
_cell_formula_units_Z   2
loop_
 _symmetry_equiv_pos_site_id
 _symmetry_equiv_pos_as_xyz
  1  'x, y, z'
loop_
 _atom_site_type_symbol
 _atom_site_label
 _atom_site_symmetry_multiplicity
 _atom_site_fract_x
 _atom_site_fract_y
 _atom_site_fract_z
 _atom_site_occupancy
  Bi  Bi0  1  0.85138469  0.50000000  0.00000000  1
  Bi  Bi1  1  0.50000000  0.00000000  0.35138469  1
  Bi  Bi2  1  0.14861531  0.14861531  0.14861531  1
  Bi  Bi3  1  0.35138469  0.50000000  0.00000000  1
  Bi  Bi4  1  0.50000000  0.00000000  0.85138469  1
  Bi  Bi5  1  0.64861531  0.64861531  0.64861531  1
  Bi  Bi6  1  0.00000000  0.35138469  0.50000000  1
  Bi  Bi7  1  0.00000000  0.85138469  0.50000000  1
  B  B8  1  0.62500000  0.37500000  0.25000000  1
  B  B9  1  0.87500000  0.12500000  0.75000000  1
  B  B10  1  0.75000000  0.87500000  0.12500000  1
  B  B11  1  0.37500000  0.25000000  0.62500000  1
  B  B12  1  0.25000000  0.62500000  0.37500000  1
  B  B13  1  0.12500000  0.75000000  0.87500000  1
  O  O14  1  0.91803657  0.07279952  0.25790268  1
  O  O15  1  0.65476295  0.33986611  0.08196343  1
  O  O16  1  0.83986611  0.15476295  0.58196343  1
  O  O17  1  0.66013389  0.24209732  0.31489684  1
  O  O18  1  0.81489684  0.74209732  0.16013389  1
  O  O19  1  0.42720048  0.34523705  0.18510316  1
  O  O20  1  0.74209732  0.16013389  0.81489684  1
  O  O21  1  0.75790268  0.57279952  0.41803657  1
  O  O22  1  0.34523705  0.18510316  0.42720048  1
  O  O23  1  0.33986611  0.08196343  0.65476295  1
  O  O24  1  0.58196343  0.83986611  0.15476295  1
  O  O25  1  0.18510316  0.42720048  0.34523705  1
  O  O26  1  0.31489684  0.66013389  0.24209732  1
  O  O27  1  0.57279952  0.41803657  0.75790268  1
  O  O28  1  0.92720048  0.68510316  0.84523705  1
  O  O29  1  0.25790268  0.91803657  0.07279952  1
  O  O30  1  0.24209732  0.31489684  0.66013389  1
  O  O31  1  0.84523705  0.92720048  0.68510316  1
  O  O32  1  0.41803657  0.75790268  0.57279952  1
  O  O33  1  0.08196343  0.65476295  0.33986611  1
  O  O34  1  0.68510316  0.84523705  0.92720048  1
  O  O35  1  0.07279952  0.25790268  0.91803657  1
  O  O36  1  0.15476295  0.58196343  0.83986611  1
  O  O37  1  0.16013389  0.81489684  0.74209732  1
