# generated using pymatgen
data_Dy2(SeO4)3
_symmetry_space_group_name_H-M   'P 1'
_cell_length_a   6.83234316
_cell_length_b   6.83234316
_cell_length_c   11.31484293
_cell_angle_alpha   80.47216279
_cell_angle_beta   99.52783721
_cell_angle_gamma   62.81591129
_symmetry_Int_Tables_number   1
_chemical_formula_structural   Dy2(SeO4)3
_chemical_formula_sum   'Dy4 Se6 O24'
_cell_volume   445.51405056
_cell_formula_units_Z   2
loop_
 _symmetry_equiv_pos_site_id
 _symmetry_equiv_pos_as_xyz
  1  'x, y, z'
loop_
 _atom_site_type_symbol
 _atom_site_label
 _atom_site_symmetry_multiplicity
 _atom_site_fract_x
 _atom_site_fract_y
 _atom_site_fract_z
 _atom_site_occupancy
  Dy  Dy0  1  0.30120264  0.94850318  0.59442507  1
  Dy  Dy1  1  0.05149682  0.69879736  0.09442507  1
  Dy  Dy2  1  0.94850318  0.30120264  0.90557493  1
  Dy  Dy3  1  0.69879736  0.05149682  0.40557493  1
  Se  Se4  1  0.45272449  0.78795793  0.92470170  1
  Se  Se5  1  0.21204207  0.54727551  0.42470170  1
  Se  Se6  1  0.86825432  0.86825432  0.75000000  1
  Se  Se7  1  0.13174568  0.13174568  0.25000000  1
  Se  Se8  1  0.78795793  0.45272449  0.57529830  1
  Se  Se9  1  0.54727551  0.21204207  0.07529830  1
  O  O10  1  0.99913408  0.58466216  0.78848096  1
  O  O11  1  0.37426686  0.73684392  0.79018246  1
  O  O12  1  0.95553008  0.94093903  0.87730428  1
  O  O13  1  0.74500878  0.65401310  0.95753219  1
  O  O14  1  0.41533784  0.00086592  0.28848096  1
  O  O15  1  0.07342544  0.31763253  0.60672946  1
  O  O16  1  0.31052461  0.61855940  0.54442097  1
  O  O17  1  0.61855940  0.31052461  0.95557903  1
  O  O18  1  0.31763253  0.07342544  0.89327054  1
  O  O19  1  0.26315608  0.62573314  0.29018246  1
  O  O20  1  0.65401310  0.74500878  0.54246781  1
  O  O21  1  0.94093903  0.95553008  0.62269572  1
  O  O22  1  0.05906097  0.04446992  0.37730428  1
  O  O23  1  0.34598690  0.25499122  0.45753219  1
  O  O24  1  0.73684392  0.37426686  0.70981754  1
  O  O25  1  0.68236747  0.92657456  0.10672946  1
  O  O26  1  0.38144060  0.68947539  0.04442097  1
  O  O27  1  0.68947539  0.38144060  0.45557903  1
  O  O28  1  0.92657456  0.68236747  0.39327054  1
  O  O29  1  0.58466216  0.99913408  0.71151904  1
  O  O30  1  0.25499122  0.34598690  0.04246781  1
  O  O31  1  0.04446992  0.05906097  0.12269572  1
  O  O32  1  0.62573314  0.26315608  0.20981754  1
  O  O33  1  0.00086592  0.41533784  0.21151904  1
