# generated using pymatgen
data_Ca5Ta4O15
_symmetry_space_group_name_H-M   'P 1'
_cell_length_a   5.63269932
_cell_length_b   5.63274803
_cell_length_c   11.50209347
_cell_angle_alpha   89.99943321
_cell_angle_beta   89.99971301
_cell_angle_gamma   119.99909427
_symmetry_Int_Tables_number   1
_chemical_formula_structural   Ca5Ta4O15
_chemical_formula_sum   'Ca5 Ta4 O15'
_cell_volume   316.04460460
_cell_formula_units_Z   1
loop_
 _symmetry_equiv_pos_site_id
 _symmetry_equiv_pos_as_xyz
  1  'x, y, z'
loop_
 _atom_site_type_symbol
 _atom_site_label
 _atom_site_symmetry_multiplicity
 _atom_site_fract_x
 _atom_site_fract_y
 _atom_site_fract_z
 _atom_site_occupancy
  Ca  Ca0  1  0.33330669  0.66670141  0.45965855  1
  Ca  Ca1  1  0.33332273  0.66666228  0.76126976  1
  Ca  Ca2  1  0.00003015  -0.00000042  0.99999570  1
  Ca  Ca3  1  0.66667879  0.33334633  0.23873382  1
  Ca  Ca4  1  0.66660136  0.33329526  0.54034553  1
  Ta  Ta5  1  0.33332132  0.66666033  0.10362962  1
  Ta  Ta6  1  0.00000928  0.99998857  0.31509349  1
  Ta  Ta7  1  0.00000492  0.00001158  0.68490615  1
  Ta  Ta8  1  0.66666143  0.33333570  0.89636954  1
  O  O9  1  0.17184342  0.82822483  0.60777925  1
  O  O10  1  0.99989319  0.49998366  0.00003968  1
  O  O11  1  0.16229184  0.83768483  0.19259257  1
  O  O12  1  0.16231764  0.32457579  0.19257798  1
  O  O13  1  0.17180304  0.34363979  0.60777022  1
  O  O14  1  0.34361446  0.17177791  0.39221882  1
  O  O15  1  0.67541106  0.83768391  0.19256414  1
  O  O16  1  0.49990768  0.50002209  0.99995945  1
  O  O17  1  0.32461259  0.16231509  0.80740450  1
  O  O18  1  0.65636259  0.82817937  0.60778042  1
  O  O19  1  0.49989291  -0.00000027  0.00000094  1
  O  O20  1  0.83774551  0.67542417  0.80742126  1
  O  O21  1  0.82816860  0.65635820  0.39222640  1
  O  O22  1  0.83772475  0.16231547  0.80744035  1
  O  O23  1  0.82817406  0.17181311  0.39221986  1
