# generated using pymatgen
data_Ba4Ta2O9
_symmetry_space_group_name_H-M   'P 1'
_cell_length_a   6.26480212
_cell_length_b   6.26485085
_cell_length_c   15.93120212
_cell_angle_alpha   89.99978591
_cell_angle_beta   90.00039279
_cell_angle_gamma   119.99978226
_symmetry_Int_Tables_number   1
_chemical_formula_structural   Ba4Ta2O9
_chemical_formula_sum   'Ba8 Ta4 O18'
_cell_volume   541.49970754
_cell_formula_units_Z   2
loop_
 _symmetry_equiv_pos_site_id
 _symmetry_equiv_pos_as_xyz
  1  'x, y, z'
loop_
 _atom_site_type_symbol
 _atom_site_label
 _atom_site_symmetry_multiplicity
 _atom_site_fract_x
 _atom_site_fract_y
 _atom_site_fract_z
 _atom_site_occupancy
  Ba  Ba0  1  0.33333085  0.66665727  0.03217345  1
  Ba  Ba1  1  0.33330188  0.66665661  0.29471689  1
  Ba  Ba2  1  0.33335179  0.66667207  0.79471619  1
  Ba  Ba3  1  0.33332766  0.66666663  0.53217201  1
  Ba  Ba4  1  0.66663195  0.33333070  0.20528373  1
  Ba  Ba5  1  0.66667742  0.33333849  0.70528270  1
  Ba  Ba6  1  0.66665964  0.33333464  0.46782638  1
  Ba  Ba7  1  0.66668857  0.33333745  0.96782543  1
  Ta  Ta8  1  0.99996339  0.99999693  0.15253695  1
  Ta  Ta9  1  0.99996923  0.99999551  0.34746152  1
  Ta  Ta10  1  0.00000225  0.99999885  0.65254028  1
  Ta  Ta11  1  0.00002961  0.00001048  0.84746317  1
  O  O12  1  0.00001963  0.76497435  0.74999971  1
  O  O13  1  0.03631192  0.74229762  0.40245824  1
  O  O14  1  0.25772070  0.96367360  0.90246156  1
  O  O15  1  0.03636233  0.29404330  0.90245925  1
  O  O16  1  0.99995777  0.23502394  0.24999995  1
  O  O17  1  0.23504401  0.23503477  0.75000113  1
  O  O18  1  0.25768340  0.29402392  0.40245524  1
  O  O19  1  0.70594024  0.96365812  0.40246181  1
  O  O20  1  0.29400159  0.25768918  0.09754196  1
  O  O21  1  0.23499692  0.99999600  0.25000053  1
  O  O22  1  0.70598547  0.74231482  0.90245780  1
  O  O23  1  0.29404294  0.03633986  0.59754156  1
  O  O24  1  0.74229700  0.70596974  0.59754203  1
  O  O25  1  0.76493087  0.76496624  0.24999819  1
  O  O26  1  0.96365097  0.70596604  0.09754490  1
  O  O27  1  0.74227001  0.03633287  0.09753755  1
  O  O28  1  0.76498403  0.00000437  0.74999865  1
  O  O29  1  0.96366594  0.25769663  0.59754023  1
