# generated using pymatgen
data_LiBi3O5
_symmetry_space_group_name_H-M   'P 1'
_cell_length_a   8.02631405
_cell_length_b   6.44207327
_cell_length_c   10.16224943
_cell_angle_alpha   90.00000000
_cell_angle_beta   89.77000072
_cell_angle_gamma   90.00000000
_symmetry_Int_Tables_number   1
_chemical_formula_structural   LiBi3O5
_chemical_formula_sum   'Li4 Bi12 O20'
_cell_volume   525.44608408
_cell_formula_units_Z   4
loop_
 _symmetry_equiv_pos_site_id
 _symmetry_equiv_pos_as_xyz
  1  'x, y, z'
loop_
 _atom_site_type_symbol
 _atom_site_label
 _atom_site_symmetry_multiplicity
 _atom_site_fract_x
 _atom_site_fract_y
 _atom_site_fract_z
 _atom_site_occupancy
  Li  Li0  1  0.24972782  0.30236415  0.60936706  1
  Li  Li1  1  0.24972782  0.19763585  0.10936706  1
  Li  Li2  1  0.75027218  0.80236415  0.89063294  1
  Li  Li3  1  0.75027218  0.69763585  0.39063294  1
  Bi  Bi4  1  0.04977176  0.05465858  0.82267259  1
  Bi  Bi5  1  0.04977176  0.44534142  0.32267259  1
  Bi  Bi6  1  0.25118657  0.60913949  0.97137033  1
  Bi  Bi7  1  0.25118657  0.89086051  0.47137033  1
  Bi  Bi8  1  0.44963085  0.05809916  0.82352983  1
  Bi  Bi9  1  0.44963085  0.44190084  0.32352983  1
  Bi  Bi10  1  0.55036915  0.55809916  0.67647017  1
  Bi  Bi11  1  0.55036915  0.94190084  0.17647017  1
  Bi  Bi12  1  0.74881343  0.10913949  0.52862967  1
  Bi  Bi13  1  0.74881343  0.39086051  0.02862967  1
  Bi  Bi14  1  0.95022824  0.55465858  0.67732741  1
  Bi  Bi15  1  0.95022824  0.94534142  0.17732741  1
  O  O16  1  0.01278892  0.18698729  0.61144963  1
  O  O17  1  0.01278892  0.31301271  0.11144963  1
  O  O18  1  0.24975865  0.31500871  0.80942414  1
  O  O19  1  0.24926551  0.53435303  0.48664271  1
  O  O20  1  0.24975865  0.18499129  0.30942414  1
  O  O21  1  0.24926551  0.96564697  0.98664271  1
  O  O22  1  0.25228519  0.87742488  0.72000952  1
  O  O23  1  0.25228519  0.62257512  0.22000952  1
  O  O24  1  0.48624027  0.18987829  0.60840487  1
  O  O25  1  0.48624027  0.31012171  0.10840487  1
  O  O26  1  0.51375973  0.68987829  0.89159513  1
  O  O27  1  0.51375973  0.81012171  0.39159513  1
  O  O28  1  0.74771481  0.37742488  0.77999048  1
  O  O29  1  0.74771481  0.12257512  0.27999048  1
  O  O30  1  0.75073449  0.03435303  0.01335729  1
  O  O31  1  0.75024135  0.81500871  0.69057586  1
  O  O32  1  0.75073449  0.46564697  0.51335729  1
  O  O33  1  0.75024135  0.68499129  0.19057586  1
  O  O34  1  0.98721108  0.68698729  0.88855037  1
  O  O35  1  0.98721108  0.81301271  0.38855037  1
