# generated using pymatgen
data_Li4Ti4V5O18
_symmetry_space_group_name_H-M   'P 1'
_cell_length_a   9.14852880
_cell_length_b   25.37718514
_cell_length_c   2.97339330
_cell_angle_alpha   89.99997826
_cell_angle_beta   89.99993549
_cell_angle_gamma   90.00707405
_symmetry_Int_Tables_number   1
_chemical_formula_structural   Li4Ti4V5O18
_chemical_formula_sum   'Li8 Ti8 V10 O36'
_cell_volume   690.31460611
_cell_formula_units_Z   2
loop_
 _symmetry_equiv_pos_site_id
 _symmetry_equiv_pos_as_xyz
  1  'x, y, z'
loop_
 _atom_site_type_symbol
 _atom_site_label
 _atom_site_symmetry_multiplicity
 _atom_site_fract_x
 _atom_site_fract_y
 _atom_site_fract_z
 _atom_site_occupancy
  Li  Li0  1  0.19239977  0.99033615  0.00000061  1
  Li  Li1  1  0.18210306  0.20127756  0.00000018  1
  Li  Li2  1  0.31813404  0.70120809  0.00000005  1
  Li  Li3  1  0.30743119  0.49031977  0.00000067  1
  Li  Li4  1  0.69264057  0.50961856  0.00000002  1
  Li  Li5  1  0.68210237  0.29876216  0.00000062  1
  Li  Li6  1  0.81799963  0.79879752  0.00000146  1
  Li  Li7  1  0.80756253  0.00966616  0.00000061  1
  Ti  Ti8  1  0.00291604  0.10212787  0.00000148  1
  Ti  Ti9  1  0.14746440  0.80516786  0.49999956  1
  Ti  Ti10  1  0.35261788  0.30508916  0.49999990  1
  Ti  Ti11  1  0.49704745  0.60211050  0.00000022  1
  Ti  Ti12  1  0.50287622  0.39789254  0.00000048  1
  Ti  Ti13  1  0.64748582  0.69485667  0.50000091  1
  Ti  Ti14  1  0.85264946  0.19488283  0.50000026  1
  Ti  Ti15  1  0.99704692  0.89787016  0.00000016  1
  V  V16  1  -0.00002759  0.49997524  0.99999183  1
  V  V17  1  0.01761764  0.30976759  0.99998391  1
  V  V18  1  0.14617649  0.58538516  0.49998847  1
  V  V19  1  0.35369506  0.08535950  0.50002281  1
  V  V20  1  0.48249186  0.80970922  0.99999919  1
  V  V21  1  0.49995999  0.00002278  0.00000065  1
  V  V22  1  0.51758006  0.19021018  0.00000173  1
  V  V23  1  0.64624527  0.91462634  0.49998368  1
  V  V24  1  0.85368248  0.41462391  0.49999853  1
  V  V25  1  0.98247389  0.69031641  0.00000757  1
  O  O26  1  -0.00010115  0.42521579  0.00000222  1
  O  O27  1  0.99999661  0.57476567  0.00000040  1
  O  O28  1  0.05804977  0.94044514  0.49999908  1
  O  O29  1  0.04988943  0.15864979  0.49999927  1
  O  O30  1  0.10387809  0.66249532  0.50000220  1
  O  O31  1  0.09478723  0.75767300  0.99999903  1
  O  O32  1  0.14837988  0.50403485  0.49999973  1
  O  O33  1  0.15070063  0.28222256  0.50000009  1
  O  O34  1  0.18570586  0.85389557  0.99999872  1
  O  O35  1  0.20140934  0.08274771  0.00000202  1
  O  O36  1  0.29846464  0.58280936  0.00000239  1
  O  O37  1  0.31430523  0.35380187  0.99999964  1
  O  O38  1  0.34935791  0.78222441  0.49999556  1
  O  O39  1  0.35166457  0.00402553  0.49999961  1
  O  O40  1  0.40521173  0.25758452  0.00000208  1
  O  O41  1  0.39602396  0.16247442  0.50000440  1
  O  O42  1  0.45011280  0.65866920  0.50000086  1
  O  O43  1  0.44188558  0.44042083  0.50000137  1
  O  O44  1  0.49990949  0.07478199  0.99999942  1
  O  O45  1  0.50006419  0.92522844  0.00000144  1
  O  O46  1  0.55800305  0.55957257  0.50000068  1
  O  O47  1  0.54985881  0.34133381  0.50000075  1
  O  O48  1  0.60393436  0.83752274  0.49999285  1
  O  O49  1  0.59486793  0.74237124  0.00000003  1
  O  O50  1  0.64837260  0.99597731  0.50000221  1
  O  O51  1  0.65068706  0.21775754  0.50000053  1
  O  O52  1  0.68568410  0.64614197  0.00000193  1
  O  O53  1  0.70136725  0.41722698  0.00000043  1
  O  O54  1  0.79849581  0.91723202  0.00000197  1
  O  O55  1  0.81431432  0.14617103  -0.00000071  1
  O  O56  1  0.84935419  0.71778978  0.50000220  1
  O  O57  1  0.85165681  0.49594926  0.49999836  1
  O  O58  1  0.90531522  0.24237848  0.00000212  1
  O  O59  1  0.89607021  0.33750596  0.50000002  1
  O  O60  1  0.95008731  0.84135527  0.50000007  1
  O  O61  1  0.94186271  0.05956816  0.50000140  1
