# generated using pymatgen
data_AgH8O5
_symmetry_space_group_name_H-M   'P 1'
_cell_length_a   6.31191733
_cell_length_b   6.44803119
_cell_length_c   13.01579898
_cell_angle_alpha   90.00000000
_cell_angle_beta   90.00000000
_cell_angle_gamma   90.00000000
_symmetry_Int_Tables_number   1
_chemical_formula_structural   AgH8O5
_chemical_formula_sum   'Ag4 H32 O20'
_cell_volume   529.73572720
_cell_formula_units_Z   4
loop_
 _symmetry_equiv_pos_site_id
 _symmetry_equiv_pos_as_xyz
  1  'x, y, z'
loop_
 _atom_site_type_symbol
 _atom_site_label
 _atom_site_symmetry_multiplicity
 _atom_site_fract_x
 _atom_site_fract_y
 _atom_site_fract_z
 _atom_site_occupancy
  Ag  Ag0  1  0.00500498  0.74921506  0.50028345  1
  Ag  Ag1  1  0.49499502  0.25078494  0.00028345  1
  Ag  Ag2  1  0.50500498  0.75078494  0.49971655  1
  Ag  Ag3  1  0.99499502  0.24921506  0.99971655  1
  H  H4  1  0.04190349  0.70202962  0.81097677  1
  H  H5  1  0.20124081  0.53054350  0.76571407  1
  H  H6  1  0.22057260  0.06260375  0.34045678  1
  H  H7  1  0.23078541  0.36435958  0.60375495  1
  H  H8  1  0.23179951  0.83818112  0.29300739  1
  H  H9  1  0.24162394  0.56503815  0.93685687  1
  H  H10  1  0.24394475  0.12537080  0.63783727  1
  H  H11  1  0.24459713  0.19751035  0.16230578  1
  H  H12  1  0.25540287  0.80248965  0.66230578  1
  H  H13  1  0.25605525  0.87462920  0.13783727  1
  H  H14  1  0.25837606  0.43496185  0.43685687  1
  H  H15  1  0.26820049  0.16181888  0.79300739  1
  H  H16  1  0.26921459  0.63564042  0.10375495  1
  H  H17  1  0.27942740  0.93739625  0.84045678  1
  H  H18  1  0.29875919  0.46945650  0.26571407  1
  H  H19  1  0.45809651  0.29797038  0.31097677  1
  H  H20  1  0.54190349  0.79797038  0.18902323  1
  H  H21  1  0.70124081  0.96945650  0.23428593  1
  H  H22  1  0.72057260  0.43739625  0.65954322  1
  H  H23  1  0.73078541  0.13564042  0.39624505  1
  H  H24  1  0.73179951  0.66181888  0.70699261  1
  H  H25  1  0.74162394  0.93496185  0.06314313  1
  H  H26  1  0.74394475  0.37462920  0.36216273  1
  H  H27  1  0.74459713  0.30248965  0.83769422  1
  H  H28  1  0.75540287  0.69751035  0.33769422  1
  H  H29  1  0.75605525  0.62537080  0.86216273  1
  H  H30  1  0.75837606  0.06503815  0.56314313  1
  H  H31  1  0.76820049  0.33818112  0.20699261  1
  H  H32  1  0.76921459  0.86435958  0.89624505  1
  H  H33  1  0.77942740  0.56260375  0.15954322  1
  H  H34  1  0.79875919  0.03054350  0.73428593  1
  H  H35  1  0.95809651  0.20202962  0.68902323  1
  O  O36  1  0.19624073  0.66498709  0.80075541  1
  O  O37  1  0.21006102  0.27004075  0.66560724  1
  O  O38  1  0.23676543  0.91511210  0.35805694  1
  O  O39  1  0.24292585  0.10882064  0.10064913  1
  O  O40  1  0.24447888  0.48955784  0.00301409  1
  O  O41  1  0.25552112  0.51044216  0.50301409  1
  O  O42  1  0.25707415  0.89117936  0.60065013  1
  O  O43  1  0.26323457  0.08488790  0.85805694  1
  O  O44  1  0.28993898  0.72995925  0.16560724  1
  O  O45  1  0.30375927  0.33501291  0.30075541  1
  O  O46  1  0.69624073  0.83501291  0.19924459  1
  O  O47  1  0.71006102  0.22995925  0.33439276  1
  O  O48  1  0.73676543  0.58488790  0.64194306  1
  O  O49  1  0.74292585  0.39117936  0.89934987  1
  O  O50  1  0.74447888  0.01044216  0.99698591  1
  O  O51  1  0.75552112  0.98955784  0.49698591  1
  O  O52  1  0.75707415  0.60882064  0.39935087  1
  O  O53  1  0.76323457  0.41511210  0.14194306  1
  O  O54  1  0.78993898  0.77004075  0.83439276  1
  O  O55  1  0.80375927  0.16498709  0.69924459  1
