# generated using pymatgen
data_Ba2YCl7
_symmetry_space_group_name_H-M   'P 1'
_cell_length_a   13.29102459
_cell_length_b   11.16274003
_cell_length_c   14.74555729
_cell_angle_alpha   90.00000000
_cell_angle_beta   143.86434134
_cell_angle_gamma   90.00000000
_symmetry_Int_Tables_number   1
_chemical_formula_structural   Ba2YCl7
_chemical_formula_sum   'Ba8 Y4 Cl28'
_cell_volume   1290.09273995
_cell_formula_units_Z   4
loop_
 _symmetry_equiv_pos_site_id
 _symmetry_equiv_pos_as_xyz
  1  'x, y, z'
loop_
 _atom_site_type_symbol
 _atom_site_label
 _atom_site_symmetry_multiplicity
 _atom_site_fract_x
 _atom_site_fract_y
 _atom_site_fract_z
 _atom_site_occupancy
  Ba  Ba0  1  0.23375682  0.20574257  0.76476032  1
  Ba  Ba1  1  0.63410959  0.28334049  0.83785468  1
  Ba  Ba2  1  0.36589041  0.78334049  0.66214532  1
  Ba  Ba3  1  0.23375682  0.29425743  0.26476032  1
  Ba  Ba4  1  0.76624318  0.70574257  0.73523968  1
  Ba  Ba5  1  0.63410959  0.21665951  0.33785468  1
  Ba  Ba6  1  0.36589041  0.71665951  0.16214532  1
  Ba  Ba7  1  0.76624318  0.79425743  0.23523968  1
  Y  Y8  1  0.04596237  0.58908312  0.67763110  1
  Y  Y9  1  0.04596237  0.91091688  0.17763110  1
  Y  Y10  1  0.95403763  0.08908312  0.82236890  1
  Y  Y11  1  0.95403763  0.41091688  0.32236890  1
  Cl  Cl12  1  0.06645452  0.55731624  0.87523681  1
  Cl  Cl13  1  0.05869683  0.86628058  0.86593802  1
  Cl  Cl14  1  0.25127872  0.19941818  0.99113567  1
  Cl  Cl15  1  0.21121456  0.46736951  0.66069689  1
  Cl  Cl16  1  0.06645452  0.94268376  0.37523681  1
  Cl  Cl17  1  0.45337669  0.05482481  0.79959259  1
  Cl  Cl18  1  0.07583872  0.78900643  0.59917885  1
  Cl  Cl19  1  0.62279303  0.34121234  0.04234856  1
  Cl  Cl20  1  0.05869683  0.63371942  0.36593802  1
  Cl  Cl21  1  0.25127872  0.30058182  0.49113567  1
  Cl  Cl22  1  0.37720697  0.84121234  0.45765144  1
  Cl  Cl23  1  0.92416128  0.28900643  0.90082115  1
  Cl  Cl24  1  0.54662331  0.55482481  0.70040741  1
  Cl  Cl25  1  0.21121456  0.03263049  0.16069689  1
  Cl  Cl26  1  0.78878544  0.96736951  0.83930311  1
  Cl  Cl27  1  0.45337669  0.44517519  0.29959259  1
  Cl  Cl28  1  0.07583872  0.71099357  0.09917885  1
  Cl  Cl29  1  0.62279303  0.15878766  0.54234856  1
  Cl  Cl30  1  0.74872128  0.69941818  0.50886433  1
  Cl  Cl31  1  0.94130317  0.36628058  0.63406198  1
  Cl  Cl32  1  0.37720697  0.65878766  0.95765144  1
  Cl  Cl33  1  0.92416128  0.21099357  0.40082115  1
  Cl  Cl34  1  0.54662331  0.94517519  0.20040741  1
  Cl  Cl35  1  0.93354548  0.05731624  0.62476319  1
  Cl  Cl36  1  0.78878544  0.53263049  0.33930311  1
  Cl  Cl37  1  0.74872128  0.80058182  0.00886433  1
  Cl  Cl38  1  0.94130317  0.13371942  0.13406198  1
  Cl  Cl39  1  0.93354548  0.44268376  0.12476319  1
