# generated using pymatgen
data_K2La4O7
_symmetry_space_group_name_H-M   'P 1'
_cell_length_a   6.39700849
_cell_length_b   6.39693309
_cell_length_c   7.78612155
_cell_angle_alpha   90.00007963
_cell_angle_beta   90.00012512
_cell_angle_gamma   119.99939908
_symmetry_Int_Tables_number   1
_chemical_formula_structural   K2La4O7
_chemical_formula_sum   'K2 La4 O7'
_cell_volume   275.93270354
_cell_formula_units_Z   1
loop_
 _symmetry_equiv_pos_site_id
 _symmetry_equiv_pos_as_xyz
  1  'x, y, z'
loop_
 _atom_site_type_symbol
 _atom_site_label
 _atom_site_symmetry_multiplicity
 _atom_site_fract_x
 _atom_site_fract_y
 _atom_site_fract_z
 _atom_site_occupancy
  K  K0  1  0.33335499  0.66662015  0.00000104  1
  K  K1  1  0.66662563  0.33327631  0.99998013  1
  La  La2  1  0.00001409  0.99999260  0.27664619  1
  La  La3  1  0.99997865  0.99998707  0.72337442  1
  La  La4  1  0.33334067  0.66666411  0.50000212  1
  La  La5  1  0.66667104  0.33332836  0.50000097  1
  O  O6  1  0.00000410  0.64132265  0.32907348  1
  O  O7  1  0.00000390  0.35865042  0.67092700  1
  O  O8  1  0.00000175  0.99999338  0.00000678  1
  O  O9  1  0.35866835  0.35866020  0.32907380  1
  O  O10  1  0.64133699  0.64132842  0.67092280  1
  O  O11  1  0.35866126  0.99998777  0.67091917  1
  O  O12  1  0.64133858  0.99998956  0.32907110  1
