# generated using pymatgen
data_Y2(SeO4)3
_symmetry_space_group_name_H-M   'P 1'
_cell_length_a   6.83575518
_cell_length_b   6.83575518
_cell_length_c   11.33435215
_cell_angle_alpha   80.70084721
_cell_angle_beta   99.29915279
_cell_angle_gamma   62.82533786
_symmetry_Int_Tables_number   1
_chemical_formula_structural   Y2(SeO4)3
_chemical_formula_sum   'Y4 Se6 O24'
_cell_volume   447.94902510
_cell_formula_units_Z   2
loop_
 _symmetry_equiv_pos_site_id
 _symmetry_equiv_pos_as_xyz
  1  'x, y, z'
loop_
 _atom_site_type_symbol
 _atom_site_label
 _atom_site_symmetry_multiplicity
 _atom_site_fract_x
 _atom_site_fract_y
 _atom_site_fract_z
 _atom_site_occupancy
  Y  Y0  1  0.29941700  0.95031681  0.59408546  1
  Y  Y1  1  0.04968319  0.70058300  0.09408546  1
  Y  Y2  1  0.95031681  0.29941700  0.90591454  1
  Y  Y3  1  0.70058300  0.04968319  0.40591454  1
  Se  Se4  1  0.45161570  0.78680106  0.92214186  1
  Se  Se5  1  0.21319894  0.54838430  0.42214186  1
  Se  Se6  1  0.86790192  0.86790192  0.75000000  1
  Se  Se7  1  0.13209808  0.13209808  0.25000000  1
  Se  Se8  1  0.78680106  0.45161570  0.57785814  1
  Se  Se9  1  0.54838430  0.21319894  0.07785814  1
  O  O10  1  0.37659178  0.73182754  0.78865954  1
  O  O11  1  0.58487234  0.00058091  0.71129322  1
  O  O12  1  0.95474752  0.94140665  0.87680091  1
  O  O13  1  0.30897050  0.62300381  0.54088412  1
  O  O14  1  0.74303978  0.65565156  0.95638502  1
  O  O15  1  0.07146955  0.31887534  0.60881430  1
  O  O16  1  0.26817246  0.62340822  0.28865954  1
  O  O17  1  0.31887534  0.07146955  0.89118570  1
  O  O18  1  0.65565156  0.74303978  0.54361498  1
  O  O19  1  0.62300381  0.30897050  0.95911588  1
  O  O20  1  0.94140665  0.95474752  0.62319909  1
  O  O21  1  0.99941909  0.41512766  0.21129322  1
  O  O22  1  0.00058091  0.58487234  0.78870678  1
  O  O23  1  0.05859335  0.04525248  0.37680091  1
  O  O24  1  0.37699619  0.69102950  0.04088412  1
  O  O25  1  0.34434844  0.25696022  0.45638502  1
  O  O26  1  0.68112466  0.92853045  0.10881430  1
  O  O27  1  0.73182754  0.37659178  0.71134046  1
  O  O28  1  0.92853045  0.68112466  0.39118570  1
  O  O29  1  0.25696022  0.34434844  0.04361498  1
  O  O30  1  0.69102950  0.37699619  0.45911588  1
  O  O31  1  0.04525248  0.05859335  0.12319909  1
  O  O32  1  0.41512766  0.99941909  0.28870678  1
  O  O33  1  0.62340822  0.26817246  0.21134046  1
