# generated using pymatgen
data_Mn2InO5
_symmetry_space_group_name_H-M   'P 1'
_cell_length_a   3.91002062
_cell_length_b   5.37868081
_cell_length_c   10.27286852
_cell_angle_alpha   90.00000000
_cell_angle_beta   90.00000000
_cell_angle_gamma   111.31369657
_symmetry_Int_Tables_number   1
_chemical_formula_structural   Mn2InO5
_chemical_formula_sum   'Mn4 In2 O10'
_cell_volume   201.26954490
_cell_formula_units_Z   2
loop_
 _symmetry_equiv_pos_site_id
 _symmetry_equiv_pos_as_xyz
  1  'x, y, z'
loop_
 _atom_site_type_symbol
 _atom_site_label
 _atom_site_symmetry_multiplicity
 _atom_site_fract_x
 _atom_site_fract_y
 _atom_site_fract_z
 _atom_site_occupancy
  Mn  Mn0  1  0.13791892  0.27583784  0.55757887  1
  Mn  Mn1  1  0.13791892  0.27583784  0.94242113  1
  Mn  Mn2  1  0.86208108  0.72416216  0.05757887  1
  Mn  Mn3  1  0.86208108  0.72416216  0.44242113  1
  In  In4  1  0.19574633  0.39149366  0.25000000  1
  In  In5  1  0.80425367  0.60850634  0.75000000  1
  O  O6  1  0.04710923  0.09421946  0.10808108  1
  O  O7  1  0.04710923  0.09421946  0.39191892  1
  O  O8  1  0.31054933  0.62109965  0.44644588  1
  O  O9  1  0.31054933  0.62109965  0.05355412  1
  O  O10  1  0.21117515  0.42235130  0.75000000  1
  O  O11  1  0.78882485  0.57764870  0.25000000  1
  O  O12  1  0.95289077  0.90578054  0.60808108  1
  O  O13  1  0.68945067  0.37890035  0.55355412  1
  O  O14  1  0.95289077  0.90578054  0.89191892  1
  O  O15  1  0.68945067  0.37890035  0.94644588  1
