# generated using pymatgen
data_Li6Mn3P6WO24
_symmetry_space_group_name_H-M   'P 1'
_cell_length_a   8.85502773
_cell_length_b   8.78232432
_cell_length_c   8.82494898
_cell_angle_alpha   60.93207707
_cell_angle_beta   60.12692515
_cell_angle_gamma   61.29675770
_symmetry_Int_Tables_number   1
_chemical_formula_structural   Li6Mn3P6WO24
_chemical_formula_sum   'Li6 Mn3 P6 W1 O24'
_cell_volume   493.77580709
_cell_formula_units_Z   1
loop_
 _symmetry_equiv_pos_site_id
 _symmetry_equiv_pos_as_xyz
  1  'x, y, z'
loop_
 _atom_site_type_symbol
 _atom_site_label
 _atom_site_symmetry_multiplicity
 _atom_site_fract_x
 _atom_site_fract_y
 _atom_site_fract_z
 _atom_site_occupancy
  Li  Li0  1  0.03023713  0.02696608  0.00833095  1
  Li  Li1  1  0.72164880  0.16683697  0.35486859  1
  Li  Li2  1  0.47334634  0.50289100  0.49299509  1
  Li  Li3  1  0.31639530  0.83716956  0.64037218  1
  Li  Li4  1  0.63934595  0.31834592  0.83085160  1
  Li  Li5  1  0.84100078  0.63680758  0.31140377  1
  Mn  Mn6  1  0.14742459  0.14656973  0.14547456  1
  Mn  Mn7  1  0.34830141  0.36461702  0.34860926  1
  Mn  Mn8  1  0.65719432  0.65859401  0.65303715  1
  P  P9  1  0.05633409  0.75253702  0.43677773  1
  P  P10  1  0.44677136  0.05008100  0.75351469  1
  P  P11  1  0.74665001  0.44152112  0.04859367  1
  P  P12  1  0.24285697  0.53995267  0.95244411  1
  P  P13  1  0.55237096  0.95784583  0.25181392  1
  P  P14  1  0.95218640  0.24451201  0.53499678  1
  W  W15  1  0.85146679  0.84724927  0.85208477  1
  O  O16  1  0.13059195  0.25049216  0.51210010  1
  O  O17  1  0.26020348  0.53610523  0.11660192  1
  O  O18  1  0.07280933  0.92134734  0.25841997  1
  O  O19  1  0.56825680  0.10723031  0.28076495  1
  O  O20  1  0.23503785  0.59957004  0.44735838  1
  O  O21  1  0.97756356  0.82168747  0.60705916  1
  O  O22  1  0.26211429  0.08323146  0.91121890  1
  O  O23  1  0.47975110  0.22120030  0.58672228  1
  O  O24  1  0.59596453  0.44519191  0.23792086  1
  O  O25  1  0.17197638  0.38934813  0.99808236  1
  O  O26  1  0.09794724  0.73876506  0.88638067  1
  O  O27  1  0.39215063  0.02303668  0.19326454  1
  O  O28  1  0.60723458  0.97237150  0.83079948  1
  O  O29  1  0.89753438  0.25535086  0.07358436  1
  O  O30  1  0.82249893  0.60254196  0.98204295  1
  O  O31  1  0.41601377  0.54334030  0.77448928  1
  O  O32  1  0.55369393  0.77613867  0.41888332  1
  O  O33  1  0.74476450  0.89256602  0.09412736  1
  O  O34  1  0.96632358  0.19388664  0.38236395  1
  O  O35  1  0.78335786  0.41907251  0.55055364  1
  O  O36  1  0.46062652  0.90066574  0.69968923  1
  O  O37  1  0.89237428  0.09570740  0.73411727  1
  O  O38  1  0.67954841  0.47252164  0.90322134  1
  O  O39  1  0.90812794  0.69513589  0.45506292  1
