# generated using pymatgen
data_Ni5(TeO6)2
_symmetry_space_group_name_H-M   'P 1'
_cell_length_a   5.18533646
_cell_length_b   5.18533723
_cell_length_c   9.94938680
_cell_angle_alpha   83.60187391
_cell_angle_beta   96.39812752
_cell_angle_gamma   58.66202739
_symmetry_Int_Tables_number   1
_chemical_formula_structural   Ni5(TeO6)2
_chemical_formula_sum   'Ni5 Te2 O12'
_cell_volume   222.49867225
_cell_formula_units_Z   1
loop_
 _symmetry_equiv_pos_site_id
 _symmetry_equiv_pos_as_xyz
  1  'x, y, z'
loop_
 _atom_site_type_symbol
 _atom_site_label
 _atom_site_symmetry_multiplicity
 _atom_site_fract_x
 _atom_site_fract_y
 _atom_site_fract_z
 _atom_site_occupancy
  Ni  Ni0  1  0.08186633  0.08186633  0.25000000  1
  Ni  Ni1  1  0.00147505  0.52807893  0.99306889  1
  Ni  Ni2  1  0.52807893  0.00147505  0.50693111  1
  Ni  Ni3  1  0.42146489  0.42146489  0.25000000  1
  Ni  Ni4  1  0.57607117  0.57607117  0.75000000  1
  Te  Te5  1  0.24796638  0.24796638  0.75000000  1
  Te  Te6  1  0.74989916  0.74989916  0.25000000  1
  O  O7  1  0.95940618  0.25531744  0.86663720  1
  O  O8  1  0.25531744  0.95940618  0.63336280  1
  O  O9  1  0.12834046  0.37453477  0.36070086  1
  O  O10  1  0.37453477  0.12834046  0.13929914  1
  O  O11  1  0.31848568  0.49653236  0.86189935  1
  O  O12  1  0.49653236  0.31848568  0.63810065  1
  O  O13  1  0.48385038  0.71557430  0.36383038  1
  O  O14  1  0.71557430  0.48385038  0.13616962  1
  O  O15  1  0.59111681  0.84328939  0.85978035  1
  O  O16  1  0.84328939  0.59111681  0.64021965  1
  O  O17  1  0.78988532  0.01542501  0.36453284  1
  O  O18  1  0.01542501  0.78988532  0.13546716  1
