# generated using pymatgen
data_Ni4P2O9
_symmetry_space_group_name_H-M   'P 1'
_cell_length_a   7.65103415
_cell_length_b   8.05260050
_cell_length_c   6.36086137
_cell_angle_alpha   67.68564248
_cell_angle_beta   78.25972541
_cell_angle_gamma   98.13741520
_symmetry_Int_Tables_number   1
_chemical_formula_structural   Ni4P2O9
_chemical_formula_sum   'Ni8 P4 O18'
_cell_volume   344.45245468
_cell_formula_units_Z   2
loop_
 _symmetry_equiv_pos_site_id
 _symmetry_equiv_pos_as_xyz
  1  'x, y, z'
loop_
 _atom_site_type_symbol
 _atom_site_label
 _atom_site_symmetry_multiplicity
 _atom_site_fract_x
 _atom_site_fract_y
 _atom_site_fract_z
 _atom_site_occupancy
  Ni  Ni0  1  0.11899115  0.26696314  0.07767459  1
  Ni  Ni1  1  0.11062781  0.26264571  0.60275393  1
  Ni  Ni2  1  0.32952794  0.56276519  0.63793681  1
  Ni  Ni3  1  0.39921700  0.09381009  0.83039154  1
  Ni  Ni4  1  0.60078300  0.90618991  0.16960846  1
  Ni  Ni5  1  0.67047206  0.43723481  0.36206319  1
  Ni  Ni6  1  0.88937219  0.73735429  0.39724607  1
  Ni  Ni7  1  0.88100885  0.73303686  0.92232541  1
  P  P8  1  0.22010077  0.92534269  0.48186013  1
  P  P9  1  0.25887692  0.64635971  0.11860771  1
  P  P10  1  0.74112308  0.35364029  0.88139229  1
  P  P11  1  0.77989923  0.07465731  0.51813987  1
  O  O12  1  0.06421072  0.68461151  0.14423708  1
  O  O13  1  0.04164548  0.76203133  0.61104698  1
  O  O14  1  0.21249177  0.04186503  0.23062650  1
  O  O15  1  0.27714323  0.52104493  0.36577101  1
  O  O16  1  0.41030294  0.82736087  0.00942427  1
  O  O17  1  0.22439018  0.03799858  0.63147541  1
  O  O18  1  0.38589698  0.83267298  0.47336968  1
  O  O19  1  0.28059216  0.53253780  0.96927924  1
  O  O20  1  0.28322136  0.30075765  0.77718176  1
  O  O21  1  0.71677864  0.69924235  0.22281824  1
  O  O22  1  0.71940784  0.46746220  0.03072076  1
  O  O23  1  0.61410302  0.16732702  0.52663032  1
  O  O24  1  0.77560982  0.96200142  0.36852459  1
  O  O25  1  0.58969706  0.17263913  0.99057573  1
  O  O26  1  0.72285677  0.47895507  0.63422899  1
  O  O27  1  0.78750823  0.95813497  0.76937350  1
  O  O28  1  0.95835452  0.23796867  0.38895302  1
  O  O29  1  0.93578928  0.31538849  0.85576292  1
