# generated using pymatgen
data_Ti2ZnSnO6
_symmetry_space_group_name_H-M   'P 1'
_cell_length_a   7.62804864
_cell_length_b   7.62804864
_cell_length_c   7.74790317
_cell_angle_alpha   90.00000000
_cell_angle_beta   90.00000000
_cell_angle_gamma   90.00000000
_symmetry_Int_Tables_number   1
_chemical_formula_structural   Ti2ZnSnO6
_chemical_formula_sum   'Ti8 Zn4 Sn4 O24'
_cell_volume   450.82821841
_cell_formula_units_Z   4
loop_
 _symmetry_equiv_pos_site_id
 _symmetry_equiv_pos_as_xyz
  1  'x, y, z'
loop_
 _atom_site_type_symbol
 _atom_site_label
 _atom_site_symmetry_multiplicity
 _atom_site_fract_x
 _atom_site_fract_y
 _atom_site_fract_z
 _atom_site_occupancy
  Ti  Ti0  1  0.50000000  0.50000000  0.50000000  1
  Ti  Ti1  1  0.00000000  0.50000000  0.50000000  1
  Ti  Ti2  1  0.50000000  0.00000000  0.50000000  1
  Ti  Ti3  1  -0.00000000  -0.00000000  0.50000000  1
  Ti  Ti4  1  0.50000000  0.50000000  -0.00000000  1
  Ti  Ti5  1  -0.00000000  0.50000000  -0.00000000  1
  Ti  Ti6  1  0.50000000  -0.00000000  -0.00000000  1
  Ti  Ti7  1  0.00000000  0.00000000  -0.00000000  1
  Zn  Zn8  1  0.75000000  0.25000000  0.25000000  1
  Zn  Zn9  1  0.25000000  0.75000000  0.75000000  1
  Zn  Zn10  1  0.75000000  0.25000000  0.75000000  1
  Zn  Zn11  1  0.25000000  0.75000000  0.25000000  1
  Sn  Sn12  1  0.75000000  0.75000000  0.27226749  1
  Sn  Sn13  1  0.75000000  0.75000000  0.77226749  1
  Sn  Sn14  1  0.25000000  0.25000000  0.72773251  1
  Sn  Sn15  1  0.25000000  0.25000000  0.22773251  1
  O  O16  1  0.75000000  0.94904849  0.03590866  1
  O  O17  1  0.75000000  0.55095151  0.03590866  1
  O  O18  1  0.94904849  0.75000000  0.53590866  1
  O  O19  1  0.55095151  0.75000000  0.53590866  1
  O  O20  1  0.25000000  0.05095151  0.96409134  1
  O  O21  1  0.25000000  0.44904849  0.96409134  1
  O  O22  1  0.05095151  0.25000000  0.46409134  1
  O  O23  1  0.44904849  0.25000000  0.46409134  1
  O  O24  1  0.05040981  0.75000000  0.93088368  1
  O  O25  1  0.44959019  0.75000000  0.93088368  1
  O  O26  1  0.75000000  0.05040981  0.43088368  1
  O  O27  1  0.75000000  0.44959019  0.43088368  1
  O  O28  1  0.94959019  0.25000000  0.06911632  1
  O  O29  1  0.55040981  0.25000000  0.06911632  1
  O  O30  1  0.25000000  0.94959019  0.56911632  1
  O  O31  1  0.25000000  0.55040981  0.56911632  1
  O  O32  1  0.44353216  0.94353216  0.25000000  1
  O  O33  1  0.05646784  0.94353216  0.25000000  1
  O  O34  1  0.44353216  0.55646784  0.25000000  1
  O  O35  1  0.05646784  0.55646784  0.25000000  1
  O  O36  1  0.94353216  0.44353216  0.75000000  1
  O  O37  1  0.55646784  0.44353216  0.75000000  1
  O  O38  1  0.94353216  0.05646784  0.75000000  1
  O  O39  1  0.55646784  0.05646784  0.75000000  1
