# generated using pymatgen
data_Li2AlVO4
_symmetry_space_group_name_H-M   'P 1'
_cell_length_a   6.48607369
_cell_length_b   5.55948278
_cell_length_c   4.96139987
_cell_angle_alpha   90.00000000
_cell_angle_beta   89.90148399
_cell_angle_gamma   90.00000000
_symmetry_Int_Tables_number   1
_chemical_formula_structural   Li2AlVO4
_chemical_formula_sum   'Li4 Al2 V2 O8'
_cell_volume   178.90392011
_cell_formula_units_Z   2
loop_
 _symmetry_equiv_pos_site_id
 _symmetry_equiv_pos_as_xyz
  1  'x, y, z'
loop_
 _atom_site_type_symbol
 _atom_site_label
 _atom_site_symmetry_multiplicity
 _atom_site_fract_x
 _atom_site_fract_y
 _atom_site_fract_z
 _atom_site_occupancy
  Li  Li0  1  0.00109092  0.82465723  0.49389865  1
  Li  Li1  1  0.25423931  0.34179494  0.49265405  1
  Li  Li2  1  0.50109092  0.17534277  0.99389865  1
  Li  Li3  1  0.75423931  0.65820506  0.99265405  1
  Al  Al4  1  0.25286649  0.66847520  0.00228458  1
  Al  Al5  1  0.75286649  0.33152480  0.50228458  1
  V  V6  1  0.00852729  0.16478578  0.99238840  1
  V  V7  1  0.50852729  0.83521422  0.49238840  1
  O  O8  1  0.02638017  0.82711134  0.89967156  1
  O  O9  1  0.24477487  0.36185943  0.90056082  1
  O  O10  1  0.26096919  0.68199904  0.36258293  1
  O  O11  1  0.48115076  0.81747164  0.88895902  1
  O  O12  1  0.52638017  0.17288866  0.39967156  1
  O  O13  1  0.74477487  0.63814057  0.40056082  1
  O  O14  1  0.76096919  0.31800096  0.86258293  1
  O  O15  1  0.98115076  0.18252836  0.38895902  1
