# generated using pymatgen
data_Li4MnO3
_symmetry_space_group_name_H-M   'P 1'
_cell_length_a   5.12926464
_cell_length_b   5.79950495
_cell_length_c   6.85350180
_cell_angle_alpha   71.51872729
_cell_angle_beta   89.94164486
_cell_angle_gamma   63.78576862
_symmetry_Int_Tables_number   1
_chemical_formula_structural   Li4MnO3
_chemical_formula_sum   'Li8 Mn2 O6'
_cell_volume   171.14049465
_cell_formula_units_Z   2
loop_
 _symmetry_equiv_pos_site_id
 _symmetry_equiv_pos_as_xyz
  1  'x, y, z'
loop_
 _atom_site_type_symbol
 _atom_site_label
 _atom_site_symmetry_multiplicity
 _atom_site_fract_x
 _atom_site_fract_y
 _atom_site_fract_z
 _atom_site_occupancy
  Li  Li0  1  0.97280522  0.76339799  0.92411747  1
  Li  Li1  1  0.26460778  0.76067737  0.42255426  1
  Li  Li2  1  0.88249430  0.54905129  0.64174425  1
  Li  Li3  1  0.51226797  0.41193170  0.83061653  1
  Li  Li4  1  0.56686826  0.54994392  0.14193987  1
  Li  Li5  1  0.07587624  0.40827827  0.33138195  1
  Li  Li6  1  0.71280620  0.27104124  0.53213270  1
  Li  Li7  1  0.01306356  0.27449734  0.03133419  1
  Mn  Mn8  1  0.33502950  0.03109430  0.74082534  1
  Mn  Mn9  1  0.63271871  0.03092670  0.23960260  1
  O  O10  1  0.67652496  0.66546762  0.86239504  1
  O  O11  1  0.65951908  0.66353102  0.36195284  1
  O  O12  1  0.29449629  0.40628694  0.58255182  1
  O  O13  1  0.92993937  0.12952284  0.82356570  1
  O  O14  1  0.29838286  0.40723798  0.08281202  1
  O  O15  1  0.94116370  0.12630450  0.32387742  1
