# generated using pymatgen
data_MgCoO3
_symmetry_space_group_name_H-M   'P 1'
_cell_length_a   4.92736186
_cell_length_b   5.14567824
_cell_length_c   7.19145877
_cell_angle_alpha   89.95181531
_cell_angle_beta   89.99055904
_cell_angle_gamma   89.99433534
_symmetry_Int_Tables_number   1
_chemical_formula_structural   MgCoO3
_chemical_formula_sum   'Mg4 Co4 O12'
_cell_volume   182.33662731
_cell_formula_units_Z   4
loop_
 _symmetry_equiv_pos_site_id
 _symmetry_equiv_pos_as_xyz
  1  'x, y, z'
loop_
 _atom_site_type_symbol
 _atom_site_label
 _atom_site_symmetry_multiplicity
 _atom_site_fract_x
 _atom_site_fract_y
 _atom_site_fract_z
 _atom_site_occupancy
  Mg  Mg0  1  0.98455621  0.06763920  0.24972432  1
  Mg  Mg1  1  0.48457836  0.43233637  0.75019357  1
  Mg  Mg2  1  0.51542851  0.56766204  0.24980600  1
  Mg  Mg3  1  0.01543584  0.93236316  0.75027482  1
  Co  Co4  1  0.49999833  0.00000001  0.00000007  1
  Co  Co5  1  0.00000188  0.50000079  0.99999966  1
  Co  Co6  1  0.00000175  0.50000092  0.49999994  1
  Co  Co7  1  0.49999825  0.00000021  0.49999980  1
  O  O8  1  0.87639513  0.55397606  0.75001401  1
  O  O9  1  0.37639013  0.94601868  0.25001035  1
  O  O10  1  0.62360579  0.05398090  0.74998976  1
  O  O11  1  0.12360791  0.44602473  0.24998576  1
  O  O12  1  0.68680635  0.31236910  0.43559382  1
  O  O13  1  0.18678354  0.18763807  0.56444342  1
  O  O14  1  0.81309503  0.81211681  0.06445619  1
  O  O15  1  0.31310422  0.68789875  0.93552249  1
  O  O16  1  0.68689771  0.31209997  0.06447657  1
  O  O17  1  0.18690394  0.18788281  0.93554306  1
  O  O18  1  0.31319524  0.68763079  0.56440703  1
  O  O19  1  0.81321589  0.81236262  0.43555733  1
