# generated using pymatgen
data_Li2TiV3O8
_symmetry_space_group_name_H-M   'P 1'
_cell_length_a   5.95209136
_cell_length_b   5.98137865
_cell_length_c   6.06622692
_cell_angle_alpha   90.32628277
_cell_angle_beta   60.63370589
_cell_angle_gamma   60.14393726
_symmetry_Int_Tables_number   1
_chemical_formula_structural   Li2TiV3O8
_chemical_formula_sum   'Li2 Ti1 V3 O8'
_cell_volume   154.06200767
_cell_formula_units_Z   1
loop_
 _symmetry_equiv_pos_site_id
 _symmetry_equiv_pos_as_xyz
  1  'x, y, z'
loop_
 _atom_site_type_symbol
 _atom_site_label
 _atom_site_symmetry_multiplicity
 _atom_site_fract_x
 _atom_site_fract_y
 _atom_site_fract_z
 _atom_site_occupancy
  Li  Li0  1  0.00000271  0.99996740  0.50000744  1
  Li  Li1  1  0.50001354  0.99998963  0.50000941  1
  Ti  Ti2  1  0.00005368  0.99993886  0.99992782  1
  V  V3  1  0.49992145  0.00005094  0.00007831  1
  V  V4  1  0.50000314  0.49999635  0.00000765  1
  V  V5  1  0.00003756  0.49998230  0.99998063  1
  O  O6  1  0.46581185  0.77782527  0.79551515  1
  O  O7  1  0.48335037  0.24843662  0.78483440  1
  O  O8  1  0.98594829  0.24342715  0.78388667  1
  O  O9  1  0.96108892  0.77727686  0.79568142  1
  O  O10  1  0.03885511  0.22274149  0.20432828  1
  O  O11  1  0.01408619  0.75654160  0.21608626  1
  O  O12  1  0.51662148  0.75160290  0.21519734  1
  O  O13  1  0.53419470  0.22220263  0.20449120  1
