# generated using pymatgen
data_RbLi7(NiO3)2
_symmetry_space_group_name_H-M   'P 1'
_cell_length_a   3.68581393
_cell_length_b   5.36300762
_cell_length_c   10.06262718
_cell_angle_alpha   92.28587336
_cell_angle_beta   89.96461252
_cell_angle_gamma   69.98525151
_symmetry_Int_Tables_number   1
_chemical_formula_structural   RbLi7(NiO3)2
_chemical_formula_sum   'Rb1 Li7 Ni2 O6'
_cell_volume   186.72498250
_cell_formula_units_Z   1
loop_
 _symmetry_equiv_pos_site_id
 _symmetry_equiv_pos_as_xyz
  1  'x, y, z'
loop_
 _atom_site_type_symbol
 _atom_site_label
 _atom_site_symmetry_multiplicity
 _atom_site_fract_x
 _atom_site_fract_y
 _atom_site_fract_z
 _atom_site_occupancy
  Rb  Rb0  1  0.00128707  0.00049945  0.00051716  1
  Li  Li1  1  0.16761832  0.66236053  0.73084954  1
  Li  Li2  1  0.73041298  0.53887361  0.90085227  1
  Li  Li3  1  0.24480807  0.50902417  0.41538986  1
  Li  Li4  1  0.75164474  0.49378378  0.58662145  1
  Li  Li5  1  0.27022097  0.46181211  0.10040436  1
  Li  Li6  1  0.83188185  0.33674187  0.27145864  1
  Li  Li7  1  0.49581631  0.00210368  0.49971505  1
  Ni  Ni8  1  0.57825526  0.84186232  0.25398764  1
  Ni  Ni9  1  0.42352512  0.15727331  0.74705145  1
  O  O10  1  0.60416842  0.78989396  0.74059639  1
  O  O11  1  0.66961477  0.65923741  0.41172517  1
  O  O12  1  0.69835803  0.60587105  0.10777216  1
  O  O13  1  0.30279310  0.39422500  0.89346453  1
  O  O14  1  0.32720868  0.34221046  0.58986470  1
  O  O15  1  0.39498730  0.21019329  0.26180464  1
