# generated using pymatgen
data_Na3SnAsCO7
_symmetry_space_group_name_H-M   'P 1'
_cell_length_a   9.59757553
_cell_length_b   7.45314710
_cell_length_c   5.34704075
_cell_angle_alpha   90.00000000
_cell_angle_beta   91.41101041
_cell_angle_gamma   90.00000000
_symmetry_Int_Tables_number   1
_chemical_formula_structural   Na3SnAsCO7
_chemical_formula_sum   'Na6 Sn2 As2 C2 O14'
_cell_volume   382.36930067
_cell_formula_units_Z   2
loop_
 _symmetry_equiv_pos_site_id
 _symmetry_equiv_pos_as_xyz
  1  'x, y, z'
loop_
 _atom_site_type_symbol
 _atom_site_label
 _atom_site_symmetry_multiplicity
 _atom_site_fract_x
 _atom_site_fract_y
 _atom_site_fract_z
 _atom_site_occupancy
  Na  Na0  1  0.07926826  0.25000000  0.76838166  1
  Na  Na1  1  0.25110571  0.00808237  0.24533663  1
  Na  Na2  1  0.25110571  0.49191763  0.24533663  1
  Na  Na3  1  0.74889429  0.50808237  0.75466337  1
  Na  Na4  1  0.74889429  0.99191763  0.75466337  1
  Na  Na5  1  0.92073174  0.75000000  0.23161834  1
  Sn  Sn6  1  0.35683690  0.75000000  0.76696818  1
  Sn  Sn7  1  0.64316310  0.25000000  0.23303182  1
  As  As8  1  0.39920525  0.25000000  0.70875158  1
  As  As9  1  0.60079475  0.75000000  0.29124842  1
  C  C10  1  0.04934703  0.75000000  0.73044700  1
  C  C11  1  0.95065297  0.25000000  0.26955300  1
  O  O12  1  0.08520438  0.25000000  0.27475626  1
  O  O13  1  0.11801152  0.75000000  0.94640856  1
  O  O14  1  0.11755746  0.75000000  0.52197624  1
  O  O15  1  0.30549117  0.06753860  0.81339512  1
  O  O16  1  0.30549117  0.43246140  0.81339512  1
  O  O17  1  0.39467286  0.25000000  0.38687153  1
  O  O18  1  0.42547890  0.75000000  0.19486398  1
  O  O19  1  0.57452110  0.25000000  0.80513602  1
  O  O20  1  0.60532714  0.75000000  0.61312847  1
  O  O21  1  0.69450883  0.56753860  0.18660488  1
  O  O22  1  0.69450883  0.93246140  0.18660488  1
  O  O23  1  0.88244254  0.25000000  0.47802376  1
  O  O24  1  0.88198848  0.25000000  0.05359144  1
  O  O25  1  0.91479562  0.75000000  0.72524374  1
