# generated using pymatgen
data_NaCr2BiO6
_symmetry_space_group_name_H-M   'P 1'
_cell_length_a   10.96579043
_cell_length_b   10.96579107
_cell_length_c   10.96579133
_cell_angle_alpha   59.64309118
_cell_angle_beta   59.64309324
_cell_angle_gamma   59.64309154
_symmetry_Int_Tables_number   1
_chemical_formula_structural   NaCr2BiO6
_chemical_formula_sum   'Na8 Cr16 Bi8 O48'
_cell_volume   924.84385630
_cell_formula_units_Z   8
loop_
 _symmetry_equiv_pos_site_id
 _symmetry_equiv_pos_as_xyz
  1  'x, y, z'
loop_
 _atom_site_type_symbol
 _atom_site_label
 _atom_site_symmetry_multiplicity
 _atom_site_fract_x
 _atom_site_fract_y
 _atom_site_fract_z
 _atom_site_occupancy
  Na  Na0  1  0.13530141  0.13530141  0.13530141  1
  Na  Na1  1  0.13530141  0.13530141  0.63530141  1
  Na  Na2  1  0.13530141  0.63530141  0.13530141  1
  Na  Na3  1  0.13530141  0.63530141  0.63530141  1
  Na  Na4  1  0.63530141  0.13530141  0.13530141  1
  Na  Na5  1  0.63530141  0.13530141  0.63530141  1
  Na  Na6  1  0.63530141  0.63530141  0.13530141  1
  Na  Na7  1  0.63530141  0.63530141  0.63530141  1
  Cr  Cr8  1  0.00542386  0.00542386  0.00542386  1
  Cr  Cr9  1  0.00542386  0.00542386  0.50542386  1
  Cr  Cr10  1  0.00542386  0.50542386  0.00542386  1
  Cr  Cr11  1  0.00542386  0.50542386  0.50542386  1
  Cr  Cr12  1  0.50542386  0.00542386  0.00542386  1
  Cr  Cr13  1  0.50542386  0.00542386  0.50542386  1
  Cr  Cr14  1  0.50542386  0.50542386  0.00542386  1
  Cr  Cr15  1  0.50542386  0.50542386  0.50542386  1
  Cr  Cr16  1  0.25429870  0.25429870  0.25429870  1
  Cr  Cr17  1  0.25429870  0.25429870  0.75429870  1
  Cr  Cr18  1  0.25429870  0.75429870  0.25429870  1
  Cr  Cr19  1  0.25429870  0.75429870  0.75429870  1
  Cr  Cr20  1  0.75429870  0.25429870  0.25429870  1
  Cr  Cr21  1  0.75429870  0.25429870  0.75429870  1
  Cr  Cr22  1  0.75429870  0.75429870  0.25429870  1
  Cr  Cr23  1  0.75429870  0.75429870  0.75429870  1
  Bi  Bi24  1  0.39364217  0.39364217  0.39364217  1
  Bi  Bi25  1  0.39364217  0.39364217  0.89364217  1
  Bi  Bi26  1  0.39364217  0.89364217  0.39364217  1
  Bi  Bi27  1  0.39364217  0.89364217  0.89364217  1
  Bi  Bi28  1  0.89364217  0.39364217  0.39364217  1
  Bi  Bi29  1  0.89364217  0.39364217  0.89364217  1
  Bi  Bi30  1  0.89364217  0.89364217  0.39364217  1
  Bi  Bi31  1  0.89364217  0.89364217  0.89364217  1
  O  O32  1  0.08486375  0.16369134  0.37706367  1
  O  O33  1  0.08486375  0.16369134  0.87706367  1
  O  O34  1  0.08486375  0.66369134  0.37706367  1
  O  O35  1  0.08486375  0.66369134  0.87706367  1
  O  O36  1  0.58486375  0.16369134  0.37706367  1
  O  O37  1  0.58486375  0.16369134  0.87706367  1
  O  O38  1  0.58486375  0.66369134  0.37706367  1
  O  O39  1  0.58486375  0.66369134  0.87706367  1
  O  O40  1  0.16369134  0.37706367  0.08486375  1
  O  O41  1  0.16369134  0.37706367  0.58486375  1
  O  O42  1  0.16369134  0.87706367  0.08486375  1
  O  O43  1  0.16369134  0.87706367  0.58486375  1
  O  O44  1  0.66369134  0.37706367  0.08486375  1
  O  O45  1  0.66369134  0.37706367  0.58486375  1
  O  O46  1  0.66369134  0.87706367  0.08486375  1
  O  O47  1  0.66369134  0.87706367  0.58486375  1
  O  O48  1  0.37706367  0.08486375  0.16369134  1
  O  O49  1  0.37706367  0.08486375  0.66369134  1
  O  O50  1  0.37706367  0.58486375  0.16369134  1
  O  O51  1  0.37706367  0.58486375  0.66369134  1
  O  O52  1  0.87706367  0.08486375  0.16369134  1
  O  O53  1  0.87706367  0.08486375  0.66369134  1
  O  O54  1  0.87706367  0.58486375  0.16369134  1
  O  O55  1  0.87706367  0.58486375  0.66369134  1
  O  O56  1  0.11277930  0.41592775  0.33990804  1
  O  O57  1  0.11277930  0.41592775  0.83990804  1
  O  O58  1  0.11277930  0.91592775  0.33990804  1
  O  O59  1  0.11277930  0.91592775  0.83990804  1
  O  O60  1  0.61277930  0.41592775  0.33990804  1
  O  O61  1  0.61277930  0.41592775  0.83990804  1
  O  O62  1  0.61277930  0.91592775  0.33990804  1
  O  O63  1  0.61277930  0.91592775  0.83990804  1
  O  O64  1  0.33990804  0.11277930  0.41592775  1
  O  O65  1  0.33990804  0.11277930  0.91592775  1
  O  O66  1  0.33990804  0.61277930  0.41592775  1
  O  O67  1  0.33990804  0.61277930  0.91592775  1
  O  O68  1  0.83990804  0.11277930  0.41592775  1
  O  O69  1  0.83990804  0.11277930  0.91592775  1
  O  O70  1  0.83990804  0.61277930  0.41592775  1
  O  O71  1  0.83990804  0.61277930  0.91592775  1
  O  O72  1  0.41592775  0.33990804  0.11277930  1
  O  O73  1  0.41592775  0.33990804  0.61277930  1
  O  O74  1  0.41592775  0.83990804  0.11277930  1
  O  O75  1  0.41592775  0.83990804  0.61277930  1
  O  O76  1  0.91592775  0.33990804  0.11277930  1
  O  O77  1  0.91592775  0.33990804  0.61277930  1
  O  O78  1  0.91592775  0.83990804  0.11277930  1
  O  O79  1  0.91592775  0.83990804  0.61277930  1
