# generated using pymatgen
data_MnPO4
_symmetry_space_group_name_H-M   'P 1'
_cell_length_a   9.22763173
_cell_length_b   9.58989728
_cell_length_c   9.16656552
_cell_angle_alpha   90.00000000
_cell_angle_beta   90.00000000
_cell_angle_gamma   90.00000000
_symmetry_Int_Tables_number   1
_chemical_formula_structural   MnPO4
_chemical_formula_sum   'Mn8 P8 O32'
_cell_volume   811.16808659
_cell_formula_units_Z   8
loop_
 _symmetry_equiv_pos_site_id
 _symmetry_equiv_pos_as_xyz
  1  'x, y, z'
loop_
 _atom_site_type_symbol
 _atom_site_label
 _atom_site_symmetry_multiplicity
 _atom_site_fract_x
 _atom_site_fract_y
 _atom_site_fract_z
 _atom_site_occupancy
  Mn  Mn0  1  0.06581480  0.21853014  0.60351531  1
  Mn  Mn1  1  0.06581480  0.28146986  0.10351531  1
  Mn  Mn2  1  0.43418520  0.78146986  0.10351531  1
  Mn  Mn3  1  0.43418520  0.71853014  0.60351531  1
  Mn  Mn4  1  0.56581480  0.28146986  0.39648469  1
  Mn  Mn5  1  0.56581480  0.21853014  0.89648469  1
  Mn  Mn6  1  0.93418520  0.71853014  0.89648469  1
  Mn  Mn7  1  0.93418520  0.78146986  0.39648469  1
  P  P8  1  0.12845635  0.60799657  0.18207726  1
  P  P9  1  0.12845635  0.89200343  0.68207726  1
  P  P10  1  0.37154365  0.10799657  0.18207726  1
  P  P11  1  0.37154365  0.39200343  0.68207726  1
  P  P12  1  0.62845635  0.60799657  0.31792274  1
  P  P13  1  0.62845635  0.89200343  0.81792274  1
  P  P14  1  0.87154365  0.10799657  0.31792274  1
  P  P15  1  0.87154365  0.39200343  0.81792274  1
  O  O16  1  0.99534257  0.15400512  0.42083518  1
  O  O17  1  0.99534257  0.34599488  0.92083518  1
  O  O18  1  0.09993389  0.67233598  0.33390865  1
  O  O19  1  0.09993389  0.82766402  0.83390865  1
  O  O20  1  0.13216333  0.44757026  0.19690866  1
  O  O21  1  0.13216333  0.05242974  0.69690866  1
  O  O22  1  0.22288733  0.15534607  0.12547788  1
  O  O23  1  0.22288733  0.34465393  0.62547788  1
  O  O24  1  0.27711267  0.65534607  0.12547788  1
  O  O25  1  0.27711267  0.84465393  0.62547788  1
  O  O26  1  0.36783667  0.94757026  0.19690866  1
  O  O27  1  0.36783667  0.55242974  0.69690866  1
  O  O28  1  0.40006611  0.17233598  0.33390865  1
  O  O29  1  0.40006611  0.32766402  0.83390865  1
  O  O30  1  0.50465743  0.65400512  0.42083518  1
  O  O31  1  0.50465743  0.84599488  0.92083518  1
  O  O32  1  0.49534257  0.15400512  0.07916482  1
  O  O33  1  0.49534257  0.34599488  0.57916482  1
  O  O34  1  0.59993389  0.67233598  0.16609135  1
  O  O35  1  0.59993389  0.82766402  0.66609135  1
  O  O36  1  0.63216333  0.44757026  0.30309134  1
  O  O37  1  0.63216333  0.05242974  0.80309134  1
  O  O38  1  0.72288733  0.15534607  0.37452212  1
  O  O39  1  0.72288733  0.34465393  0.87452212  1
  O  O40  1  0.77711267  0.65534607  0.37452212  1
  O  O41  1  0.77711267  0.84465393  0.87452212  1
  O  O42  1  0.86783667  0.94757026  0.30309134  1
  O  O43  1  0.86783667  0.55242974  0.80309134  1
  O  O44  1  0.90006611  0.17233598  0.16609135  1
  O  O45  1  0.90006611  0.32766402  0.66609135  1
  O  O46  1  0.00465743  0.65400512  0.07916482  1
  O  O47  1  0.00465743  0.84599488  0.57916482  1
