# generated using pymatgen
data_Li2AlNiO4
_symmetry_space_group_name_H-M   'P 1'
_cell_length_a   6.35900106
_cell_length_b   10.74494167
_cell_length_c   4.98509548
_cell_angle_alpha   90.00007077
_cell_angle_beta   90.00012808
_cell_angle_gamma   89.99920981
_symmetry_Int_Tables_number   1
_chemical_formula_structural   Li2AlNiO4
_chemical_formula_sum   'Li8 Al4 Ni4 O16'
_cell_volume   340.61709477
_cell_formula_units_Z   4
loop_
 _symmetry_equiv_pos_site_id
 _symmetry_equiv_pos_as_xyz
  1  'x, y, z'
loop_
 _atom_site_type_symbol
 _atom_site_label
 _atom_site_symmetry_multiplicity
 _atom_site_fract_x
 _atom_site_fract_y
 _atom_site_fract_z
 _atom_site_occupancy
  Li  Li0  1  0.00434203  0.83501335  0.75599176  1
  Li  Li1  1  0.24431799  0.08259683  0.75593324  1
  Li  Li2  1  0.25568436  0.58259533  0.75593411  1
  Li  Li3  1  0.49565751  0.33501300  0.75598996  1
  Li  Li4  1  0.50434415  0.66498681  0.25598772  1
  Li  Li5  1  0.74431502  0.41740641  0.25593166  1
  Li  Li6  1  0.75568358  0.91740282  0.25593274  1
  Li  Li7  1  0.99565936  0.16498607  0.25599170  1
  Al  Al8  1  0.00732887  0.66610489  0.26138029  1
  Al  Al9  1  0.49267210  0.16610588  0.26138240  1
  Al  Al10  1  0.50732954  0.83389580  0.76138278  1
  Al  Al11  1  0.99267172  0.33389469  0.76138793  1
  Ni  Ni12  1  0.24265140  0.41418910  0.25964233  1
  Ni  Ni13  1  0.25734807  0.91419256  0.25962885  1
  Ni  Ni14  1  0.74265598  0.08580953  0.75962967  1
  Ni  Ni15  1  0.75734340  0.58580892  0.75962149  1
  O  O16  1  0.00648500  0.33691927  0.11966157  1
  O  O17  1  0.01933037  0.82512660  0.15650781  1
  O  O18  1  0.26304999  0.08132965  0.15980499  1
  O  O19  1  0.22529085  0.40533540  0.63422621  1
  O  O20  1  0.27470658  0.90533697  0.63421334  1
  O  O21  1  0.23695096  0.58132570  0.15981006  1
  O  O22  1  0.48067285  0.32512346  0.15650978  1
  O  O23  1  0.49351756  0.83692062  0.11966052  1
  O  O24  1  0.50648362  0.16307922  0.61966079  1
  O  O25  1  0.51932088  0.67487821  0.65650306  1
  O  O26  1  0.76304778  0.41866927  0.65980281  1
  O  O27  1  0.72529385  0.09466340  0.13421260  1
  O  O28  1  0.77470838  0.59466461  0.13420882  1
  O  O29  1  0.73694955  0.91867160  0.65980513  1
  O  O30  1  0.98067506  0.17487503  0.65650534  1
  O  O31  1  0.99351165  0.66307899  0.61965855  1
