# generated using pymatgen
data_Li2MnAl2O6
_symmetry_space_group_name_H-M   'P 1'
_cell_length_a   4.96237499
_cell_length_b   4.91543455
_cell_length_c   10.14247642
_cell_angle_alpha   90.00000000
_cell_angle_beta   90.00000000
_cell_angle_gamma   59.68360243
_symmetry_Int_Tables_number   1
_chemical_formula_structural   Li2MnAl2O6
_chemical_formula_sum   'Li4 Mn2 Al4 O12'
_cell_volume   213.56626687
_cell_formula_units_Z   2
loop_
 _symmetry_equiv_pos_site_id
 _symmetry_equiv_pos_as_xyz
  1  'x, y, z'
loop_
 _atom_site_type_symbol
 _atom_site_label
 _atom_site_symmetry_multiplicity
 _atom_site_fract_x
 _atom_site_fract_y
 _atom_site_fract_z
 _atom_site_occupancy
  Li  Li0  1  0.15869555  0.50000000  0.75000000  1
  Li  Li1  1  0.84130445  0.50000000  0.25000000  1
  Li  Li2  1  0.34130445  0.50000000  0.25000000  1
  Li  Li3  1  0.65869555  0.50000000  0.75000000  1
  Mn  Mn4  1  0.50000000  0.00000000  0.50000000  1
  Mn  Mn5  1  0.00000000  0.00000000  0.00000000  1
  Al  Al6  1  0.66325960  0.67348079  0.00000000  1
  Al  Al7  1  0.16325960  0.67348079  0.50000000  1
  Al  Al8  1  0.33674040  0.32651921  0.00000000  1
  Al  Al9  1  0.83674040  0.32651921  0.50000000  1
  O  O10  1  0.50912672  0.65506558  0.39808830  1
  O  O11  1  0.00912672  0.65506558  0.10191170  1
  O  O12  1  0.33580770  0.65506558  0.89808730  1
  O  O13  1  0.83580770  0.65506558  0.60191270  1
  O  O14  1  0.99087328  0.34493442  0.89808730  1
  O  O15  1  0.49087328  0.34493442  0.60191270  1
  O  O16  1  0.66419230  0.34493442  0.10191170  1
  O  O17  1  0.16419230  0.34493442  0.39808830  1
  O  O18  1  0.33212791  1.00000000  0.09552959  1
  O  O19  1  0.16787209  0.00000000  0.59552959  1
  O  O20  1  0.66787209  0.00000000  0.90447041  1
  O  O21  1  0.83212791  1.00000000  0.40447041  1
