# generated using pymatgen
data_LaHoO3
_symmetry_space_group_name_H-M   'P 1'
_cell_length_a   6.03314567
_cell_length_b   8.51063131
_cell_length_c   6.08585414
_cell_angle_alpha   90.00000000
_cell_angle_beta   90.00000000
_cell_angle_gamma   90.14300270
_symmetry_Int_Tables_number   1
_chemical_formula_structural   LaHoO3
_chemical_formula_sum   'La4 Ho4 O12'
_cell_volume   312.48255318
_cell_formula_units_Z   4
loop_
 _symmetry_equiv_pos_site_id
 _symmetry_equiv_pos_as_xyz
  1  'x, y, z'
loop_
 _atom_site_type_symbol
 _atom_site_label
 _atom_site_symmetry_multiplicity
 _atom_site_fract_x
 _atom_site_fract_y
 _atom_site_fract_z
 _atom_site_occupancy
  La  La0  1  0.02397483  0.24907103  0.00821489  1
  La  La1  1  0.47602517  0.75092897  0.50821489  1
  La  La2  1  0.52397483  0.24907103  0.49178511  1
  La  La3  1  0.97602517  0.75092897  0.99178511  1
  Ho  Ho4  1  0.00000000  0.50000000  0.50000000  1
  Ho  Ho5  1  0.00000000  0.00000000  0.50000000  1
  Ho  Ho6  1  0.50000000  0.50000000  0.00000000  1
  Ho  Ho7  1  0.50000000  0.00000000  0.00000000  1
  O  O8  1  0.04032393  0.74841107  0.61075617  1
  O  O9  1  0.17636038  0.03913492  0.82419479  1
  O  O10  1  0.18690697  0.56451875  0.18726114  1
  O  O11  1  0.31309303  0.43548125  0.68726114  1
  O  O12  1  0.32363962  0.96086508  0.32419479  1
  O  O13  1  0.45967607  0.25158893  0.11075617  1
  O  O14  1  0.54032393  0.74841107  0.88924383  1
  O  O15  1  0.67636038  0.03913492  0.67580521  1
  O  O16  1  0.68690697  0.56451875  0.31273886  1
  O  O17  1  0.81309303  0.43548125  0.81273886  1
  O  O18  1  0.82363962  0.96086508  0.17580521  1
  O  O19  1  0.95967607  0.25158893  0.38924383  1
