# generated using pymatgen
data_Li6Ti2O7
_symmetry_space_group_name_H-M   'P 1'
_cell_length_a   10.08878439
_cell_length_b   10.08878439
_cell_length_c   2.96324059
_cell_angle_alpha   90.00000000
_cell_angle_beta   90.00000000
_cell_angle_gamma   90.00000000
_symmetry_Int_Tables_number   1
_chemical_formula_structural   Li6Ti2O7
_chemical_formula_sum   'Li12 Ti4 O14'
_cell_volume   301.60920741
_cell_formula_units_Z   2
loop_
 _symmetry_equiv_pos_site_id
 _symmetry_equiv_pos_as_xyz
  1  'x, y, z'
loop_
 _atom_site_type_symbol
 _atom_site_label
 _atom_site_symmetry_multiplicity
 _atom_site_fract_x
 _atom_site_fract_y
 _atom_site_fract_z
 _atom_site_occupancy
  Li  Li0  1  0.10790743  0.30015953  0.03175201  1
  Li  Li1  1  0.08507567  0.08507567  0.53525134  1
  Li  Li2  1  0.19984047  0.60790743  0.53175201  1
  Li  Li3  1  0.30015953  0.10790743  0.03175201  1
  Li  Li4  1  0.41492433  0.58507567  0.03525134  1
  Li  Li5  1  0.39209257  0.80015953  0.53175201  1
  Li  Li6  1  0.60790743  0.19984047  0.53175201  1
  Li  Li7  1  0.58507567  0.41492433  0.03525134  1
  Li  Li8  1  0.69984047  0.89209257  0.03175201  1
  Li  Li9  1  0.80015953  0.39209257  0.53175201  1
  Li  Li10  1  0.91492433  0.91492433  0.53525134  1
  Li  Li11  1  0.89209257  0.69984047  0.03175201  1
  Ti  Ti12  1  0.15289753  0.84710247  0.04814701  1
  Ti  Ti13  1  0.34710247  0.34710247  0.54814701  1
  Ti  Ti14  1  0.65289753  0.65289753  0.54814701  1
  Ti  Ti15  1  0.84710247  0.15289753  0.04814701  1
  O  O16  1  0.00000000  0.00000000  0.03522101  1
  O  O17  1  0.05318672  0.75547781  0.53011669  1
  O  O18  1  0.25547781  0.44681328  0.03011669  1
  O  O19  1  0.21831095  0.21831095  0.53177924  1
  O  O20  1  0.28168905  0.71831095  0.03177924  1
  O  O21  1  0.24452219  0.94681328  0.53011669  1
  O  O22  1  0.44681328  0.25547781  0.03011669  1
  O  O23  1  0.50000000  0.50000000  0.53522101  1
  O  O24  1  0.55318672  0.74452219  0.03011669  1
  O  O25  1  0.75547781  0.05318672  0.53011669  1
  O  O26  1  0.71831095  0.28168905  0.03177924  1
  O  O27  1  0.78168905  0.78168905  0.53177924  1
  O  O28  1  0.74452219  0.55318672  0.03011669  1
  O  O29  1  0.94681328  0.24452219  0.53011669  1
