# generated using pymatgen
data_Li10Fe3Sb7O24
_symmetry_space_group_name_H-M   'P 1'
_cell_length_a   9.59382528
_cell_length_b   5.26019687
_cell_length_c   10.21601273
_cell_angle_alpha   90.45835934
_cell_angle_beta   89.44697130
_cell_angle_gamma   89.29904919
_symmetry_Int_Tables_number   1
_chemical_formula_structural   Li10Fe3Sb7O24
_chemical_formula_sum   'Li10 Fe3 Sb7 O24'
_cell_volume   515.47568327
_cell_formula_units_Z   1
loop_
 _symmetry_equiv_pos_site_id
 _symmetry_equiv_pos_as_xyz
  1  'x, y, z'
loop_
 _atom_site_type_symbol
 _atom_site_label
 _atom_site_symmetry_multiplicity
 _atom_site_fract_x
 _atom_site_fract_y
 _atom_site_fract_z
 _atom_site_occupancy
  Li  Li0  1  0.31198216  0.44133916  0.07287965  1
  Li  Li1  1  0.31069998  0.04754822  0.59937998  1
  Li  Li2  1  0.46788136  0.97195986  0.38632681  1
  Li  Li3  1  0.55160806  0.44974315  0.91220878  1
  Li  Li4  1  0.75216047  0.00465961  0.16070784  1
  Li  Li5  1  0.74839280  0.50444563  0.68001136  1
  Li  Li6  1  0.76476353  0.55846025  0.04110267  1
  Li  Li7  1  0.76325794  0.96474241  0.55743704  1
  Li  Li8  1  0.08893721  0.92440821  0.43890726  1
  Li  Li9  1  0.06667534  0.57536019  0.93295099  1
  Fe  Fe10  1  0.25798442  0.45916810  0.34731732  1
  Fe  Fe11  1  0.24968584  0.02477107  0.85513339  1
  Fe  Fe12  1  0.58223290  0.00558402  0.83965969  1
  Sb  Sb13  1  0.08009229  0.52924861  0.63561863  1
  Sb  Sb14  1  0.07236882  0.98731913  0.13099642  1
  Sb  Sb15  1  0.42152846  0.54632883  0.62688108  1
  Sb  Sb16  1  0.42605986  0.94026726  0.11191291  1
  Sb  Sb17  1  0.60617367  0.47670554  0.34528134  1
  Sb  Sb18  1  0.90020243  0.04636629  0.85367692  1
  Sb  Sb19  1  0.92494939  0.46617536  0.36540784  1
  O  O20  1  0.08907771  0.65186857  0.29495834  1
  O  O21  1  0.07307179  0.80178856  0.77404661  1
  O  O22  1  0.08401841  0.28485189  0.47171417  1
  O  O23  1  0.06937071  0.20750453  0.94922938  1
  O  O24  1  0.26652454  0.19226174  0.20893764  1
  O  O25  1  0.24731149  0.34482483  0.71082371  1
  O  O26  1  0.23990207  0.71487943  0.53313483  1
  O  O27  1  0.25949982  0.77472235  0.01735240  1
  O  O28  1  0.41462356  0.19788772  0.96888842  1
  O  O29  1  0.39550830  0.29300603  0.47471077  1
  O  O30  1  0.38654762  0.68917995  0.25934029  1
  O  O31  1  0.40546190  0.85049306  0.73992384  1
  O  O32  1  0.56485298  0.08590603  0.22849607  1
  O  O33  1  0.56055518  0.35876082  0.72421183  1
  O  O34  1  0.55781233  0.72848830  0.50838334  1
  O  O35  1  0.57209076  0.75206494  0.00869429  1
  O  O36  1  0.76389363  0.30407774  0.46107816  1
  O  O37  1  0.74852584  0.24087206  0.94077511  1
  O  O38  1  0.78161254  0.68185870  0.27859266  1
  O  O39  1  0.76403545  0.86861095  0.74433612  1
  O  O40  1  0.94123957  0.71543709  0.52300976  1
  O  O41  1  0.91425976  0.79868984  0.00354174  1
  O  O42  1  0.91698704  0.21405987  0.22301278  1
  O  O43  1  0.93158010  0.32330512  0.71700884  1
