# generated using pymatgen
data_Na2SiSbCO7
_symmetry_space_group_name_H-M   'P 1'
_cell_length_a   9.30492579
_cell_length_b   6.76295485
_cell_length_c   5.32930255
_cell_angle_alpha   90.00000000
_cell_angle_beta   91.60376939
_cell_angle_gamma   90.00000000
_symmetry_Int_Tables_number   1
_chemical_formula_structural   Na2SiSbCO7
_chemical_formula_sum   'Na4 Si2 Sb2 C2 O14'
_cell_volume   335.23520560
_cell_formula_units_Z   2
loop_
 _symmetry_equiv_pos_site_id
 _symmetry_equiv_pos_as_xyz
  1  'x, y, z'
loop_
 _atom_site_type_symbol
 _atom_site_label
 _atom_site_symmetry_multiplicity
 _atom_site_fract_x
 _atom_site_fract_y
 _atom_site_fract_z
 _atom_site_occupancy
  Na  Na0  1  0.22772766  0.49232154  0.23648299  1
  Na  Na1  1  0.22772766  0.00767846  0.23648299  1
  Na  Na2  1  0.77227234  0.50767846  0.76351701  1
  Na  Na3  1  0.77227234  0.99232154  0.76351701  1
  Si  Si4  1  0.42161593  0.25000000  0.71104553  1
  Si  Si5  1  0.57838407  0.75000000  0.28895447  1
  Sb  Sb6  1  0.35815364  0.75000000  0.78186942  1
  Sb  Sb7  1  0.64184636  0.25000000  0.21813058  1
  C  C8  1  0.06934294  0.75000000  0.72662121  1
  C  C9  1  0.93065706  0.25000000  0.27337879  1
  O  O10  1  0.06470228  0.25000000  0.28631740  1
  O  O11  1  0.14390308  0.75000000  0.94389741  1
  O  O12  1  0.15093362  0.75000000  0.52684591  1
  O  O13  1  0.33069719  0.05721308  0.80780922  1
  O  O14  1  0.33069719  0.44278692  0.80780922  1
  O  O15  1  0.41256034  0.75000000  0.16276452  1
  O  O16  1  0.43116648  0.25000000  0.40119596  1
  O  O17  1  0.56883352  0.75000000  0.59880404  1
  O  O18  1  0.58743966  0.25000000  0.83723548  1
  O  O19  1  0.66930281  0.55721308  0.19219078  1
  O  O20  1  0.66930281  0.94278692  0.19219078  1
  O  O21  1  0.84906638  0.25000000  0.47315409  1
  O  O22  1  0.85609692  0.25000000  0.05610259  1
  O  O23  1  0.93529772  0.75000000  0.71368260  1
