# generated using pymatgen
data_La2Cd2O5
_symmetry_space_group_name_H-M   'P 1'
_cell_length_a   6.22144400
_cell_length_b   16.04817422
_cell_length_c   6.02277036
_cell_angle_alpha   90.00000000
_cell_angle_beta   90.00000000
_cell_angle_gamma   90.00000000
_symmetry_Int_Tables_number   1
_chemical_formula_structural   La2Cd2O5
_chemical_formula_sum   'La8 Cd8 O20'
_cell_volume   601.33036016
_cell_formula_units_Z   4
loop_
 _symmetry_equiv_pos_site_id
 _symmetry_equiv_pos_as_xyz
  1  'x, y, z'
loop_
 _atom_site_type_symbol
 _atom_site_label
 _atom_site_symmetry_multiplicity
 _atom_site_fract_x
 _atom_site_fract_y
 _atom_site_fract_z
 _atom_site_occupancy
  La  La0  1  0.93793071  0.11582394  0.49268066  1
  La  La1  1  0.93793071  0.38417606  0.49268066  1
  La  La2  1  0.56206929  0.61582394  0.99268066  1
  La  La3  1  0.56206929  0.88417606  0.99268066  1
  La  La4  1  0.43793071  0.11582394  0.00731934  1
  La  La5  1  0.43793071  0.38417606  0.00731934  1
  La  La6  1  0.06206929  0.61582394  0.50731934  1
  La  La7  1  0.06206929  0.88417606  0.50731934  1
  Cd  Cd8  1  0.00000000  0.00000000  0.00000000  1
  Cd  Cd9  1  0.00000000  0.50000000  0.00000000  1
  Cd  Cd10  1  0.07228142  0.75000000  0.02357878  1
  Cd  Cd11  1  0.42771858  0.25000000  0.52357878  1
  Cd  Cd12  1  0.50000000  0.00000000  0.50000000  1
  Cd  Cd13  1  0.50000000  0.50000000  0.50000000  1
  Cd  Cd14  1  0.57228142  0.75000000  0.47642122  1
  Cd  Cd15  1  0.92771858  0.25000000  0.97642122  1
  O  O16  1  0.07349784  0.14025644  0.13525716  1
  O  O17  1  0.07349784  0.35974356  0.13525716  1
  O  O18  1  0.07230968  0.25000000  0.62139888  1
  O  O19  1  0.31254481  0.53518734  0.18351008  1
  O  O20  1  0.31254481  0.96481266  0.18351008  1
  O  O21  1  0.18745519  0.46481266  0.68351008  1
  O  O22  1  0.18745519  0.03518734  0.68351008  1
  O  O23  1  0.42769032  0.75000000  0.12139888  1
  O  O24  1  0.42650216  0.64025644  0.63525716  1
  O  O25  1  0.42650216  0.85974356  0.63525716  1
  O  O26  1  0.57349784  0.14025644  0.36474284  1
  O  O27  1  0.57349784  0.35974356  0.36474284  1
  O  O28  1  0.57230968  0.25000000  0.87860112  1
  O  O29  1  0.81254481  0.96481266  0.31648992  1
  O  O30  1  0.81254481  0.53518734  0.31648992  1
  O  O31  1  0.68745519  0.03518734  0.81648992  1
  O  O32  1  0.68745519  0.46481266  0.81648992  1
  O  O33  1  0.92769032  0.75000000  0.37860112  1
  O  O34  1  0.92650216  0.64025644  0.86474284  1
  O  O35  1  0.92650216  0.85974356  0.86474284  1
