# generated using pymatgen
data_FeCu(PO4)2
_symmetry_space_group_name_H-M   'P 1'
_cell_length_a   8.50202232
_cell_length_b   8.58714795
_cell_length_c   8.58714827
_cell_angle_alpha   59.99999728
_cell_angle_beta   59.66823776
_cell_angle_gamma   59.66823081
_symmetry_Int_Tables_number   1
_chemical_formula_structural   FeCu(PO4)2
_chemical_formula_sum   'Fe3 Cu3 P6 O24'
_cell_volume   441.07151618
_cell_formula_units_Z   3
loop_
 _symmetry_equiv_pos_site_id
 _symmetry_equiv_pos_as_xyz
  1  'x, y, z'
loop_
 _atom_site_type_symbol
 _atom_site_label
 _atom_site_symmetry_multiplicity
 _atom_site_fract_x
 _atom_site_fract_y
 _atom_site_fract_z
 _atom_site_occupancy
  Fe  Fe0  1  0.06636228  0.64454557  0.64454557  1
  Fe  Fe1  1  0.42995283  0.85668239  0.85668239  1
  Fe  Fe2  1  0.93149609  0.35616797  0.35616797  1
  Cu  Cu3  1  0.99757276  0.00080941  0.00080941  1
  Cu  Cu4  1  0.56941860  0.14352680  0.14352680  1
  Cu  Cu5  1  0.49848658  0.50050414  0.50050414  1
  P  P6  1  0.25039470  0.24963615  0.54390845  1
  P  P7  1  0.25039470  0.95606070  0.24963615  1
  P  P8  1  0.25039470  0.54390845  0.95606070  1
  P  P9  1  0.74824695  0.45641063  0.04507161  1
  P  P10  1  0.74824695  0.04507161  0.75027081  1
  P  P11  1  0.74824695  0.75027081  0.45641063  1
  O  O12  1  0.06777482  0.11365156  0.31466339  1
  O  O13  1  0.06777482  0.50391023  0.11365156  1
  O  O14  1  0.06777482  0.31466339  0.50391023  1
  O  O15  1  0.22625223  0.08744229  0.74276978  1
  O  O16  1  0.44027892  0.18794683  0.38815985  1
  O  O17  1  0.26975685  0.41182154  0.56194566  1
  O  O18  1  0.22625223  0.94353569  0.08744229  1
  O  O19  1  0.26975685  0.75647495  0.41182154  1
  O  O20  1  0.56509368  0.61380919  0.00617849  1
  O  O21  1  0.26975685  0.56194566  0.75647495  1
  O  O22  1  0.77576372  0.25823983  0.05240104  1
  O  O23  1  0.56509368  0.00617849  0.81491863  1
  O  O24  1  0.44027892  0.98361540  0.18794683  1
  O  O25  1  0.22625223  0.74276978  0.94353569  1
  O  O26  1  0.72641840  0.44096534  0.24392599  1
  O  O27  1  0.44027892  0.38815985  0.98361540  1
  O  O28  1  0.72641840  0.24392599  0.58868926  1
  O  O29  1  0.77576372  0.05240104  0.91359541  1
  O  O30  1  0.72641840  0.58868926  0.44096534  1
  O  O31  1  0.56509368  0.81491863  0.61380919  1
  O  O32  1  0.77576372  0.91359541  0.25823983  1
  O  O33  1  0.93225701  0.68230223  0.49666755  1
  O  O34  1  0.93225701  0.49666755  0.88877221  1
  O  O35  1  0.93225701  0.88877221  0.68230223  1
