# generated using pymatgen
data_Mn3Fe2P6WO24
_symmetry_space_group_name_H-M   'P 1'
_cell_length_a   8.65446304
_cell_length_b   8.80228234
_cell_length_c   8.80228203
_cell_angle_alpha   60.00000175
_cell_angle_beta   59.43336843
_cell_angle_gamma   59.43337247
_symmetry_Int_Tables_number   1
_chemical_formula_structural   Mn3Fe2P6WO24
_chemical_formula_sum   'Mn3 Fe2 P6 W1 O24'
_cell_volume   470.04838338
_cell_formula_units_Z   1
loop_
 _symmetry_equiv_pos_site_id
 _symmetry_equiv_pos_as_xyz
  1  'x, y, z'
loop_
 _atom_site_type_symbol
 _atom_site_label
 _atom_site_symmetry_multiplicity
 _atom_site_fract_x
 _atom_site_fract_y
 _atom_site_fract_z
 _atom_site_occupancy
  Mn  Mn0  1  0.05671300  0.64776200  0.64776200  1
  Mn  Mn1  1  0.44218088  0.85260604  0.85260604  1
  Mn  Mn2  1  0.93799025  0.35400358  0.35400358  1
  Fe  Fe3  1  0.02794991  0.99068336  0.99068336  1
  Fe  Fe4  1  0.50236248  0.49921284  0.49921284  1
  P  P5  1  0.25020898  0.25298714  0.54825029  1
  P  P6  1  0.25020898  0.94855360  0.25298714  1
  P  P7  1  0.25020898  0.54825029  0.94855360  1
  P  P8  1  0.74202363  0.45768475  0.05505843  1
  P  P9  1  0.74202363  0.05505843  0.74523319  1
  P  P10  1  0.74202363  0.74523319  0.45768475  1
  W  W11  1  0.57221728  0.14259424  0.14259424  1
  O  O12  1  0.07299964  0.09508954  0.32673230  1
  O  O13  1  0.07299964  0.50517851  0.09508954  1
  O  O14  1  0.07299964  0.32673230  0.50517851  1
  O  O15  1  0.23277080  0.09356051  0.73787792  1
  O  O16  1  0.42635740  0.17505424  0.38134263  1
  O  O17  1  0.30538964  0.39874429  0.54240185  1
  O  O18  1  0.23277080  0.93579077  0.09356051  1
  O  O19  1  0.30538964  0.75346323  0.39874429  1
  O  O20  1  0.56317119  0.60575242  0.01323330  1
  O  O21  1  0.30538964  0.54240185  0.75346323  1
  O  O22  1  0.75319087  0.25410785  0.08144801  1
  O  O23  1  0.56317119  0.01323330  0.81784208  1
  O  O24  1  0.42635740  0.01724673  0.17505424  1
  O  O25  1  0.23277080  0.73787792  0.93579077  1
  O  O26  1  0.71219560  0.43598671  0.25483369  1
  O  O27  1  0.42635740  0.38134263  0.01724673  1
  O  O28  1  0.71219560  0.25483369  0.59698400  1
  O  O29  1  0.75319087  0.08144801  0.91125227  1
  O  O30  1  0.71219560  0.59698400  0.43598671  1
  O  O31  1  0.56317119  0.81784208  0.60575242  1
  O  O32  1  0.75319087  0.91125227  0.25410785  1
  O  O33  1  0.92855331  0.69158345  0.47492322  1
  O  O34  1  0.92855331  0.47492322  0.90493902  1
  O  O35  1  0.92855331  0.90493902  0.69158345  1
