# generated using pymatgen
data_Na3SiBSbO7
_symmetry_space_group_name_H-M   'P 1'
_cell_length_a   9.18799344
_cell_length_b   6.83999765
_cell_length_c   5.32460169
_cell_angle_alpha   90.00000000
_cell_angle_beta   90.58674668
_cell_angle_gamma   90.00000000
_symmetry_Int_Tables_number   1
_chemical_formula_structural   Na3SiBSbO7
_chemical_formula_sum   'Na6 Si2 B2 Sb2 O14'
_cell_volume   334.61159178
_cell_formula_units_Z   2
loop_
 _symmetry_equiv_pos_site_id
 _symmetry_equiv_pos_as_xyz
  1  'x, y, z'
loop_
 _atom_site_type_symbol
 _atom_site_label
 _atom_site_symmetry_multiplicity
 _atom_site_fract_x
 _atom_site_fract_y
 _atom_site_fract_z
 _atom_site_occupancy
  Na  Na0  1  0.07630851  0.25000000  0.75946743  1
  Na  Na1  1  0.24915881  0.00759285  0.25354524  1
  Na  Na2  1  0.24915881  0.49240715  0.25354524  1
  Na  Na3  1  0.75084119  0.50759285  0.74645476  1
  Na  Na4  1  0.75084119  0.99240715  0.74645476  1
  Na  Na5  1  0.92369149  0.75000000  0.24053257  1
  Si  Si6  1  0.41731236  0.25000000  0.70703371  1
  Si  Si7  1  0.58268764  0.75000000  0.29296629  1
  B  B8  1  0.05919631  0.75000000  0.73267431  1
  B  B9  1  0.94080369  0.25000000  0.26732569  1
  Sb  Sb10  1  0.34182651  0.75000000  0.78316403  1
  Sb  Sb11  1  0.65817349  0.25000000  0.21683597  1
  O  O12  1  0.08574674  0.25000000  0.28724042  1
  O  O13  1  0.13704077  0.75000000  0.96486082  1
  O  O14  1  0.15404490  0.75000000  0.52436731  1
  O  O15  1  0.31597426  0.06184559  0.79369129  1
  O  O16  1  0.31597426  0.43815441  0.79369129  1
  O  O17  1  0.43660764  0.25000000  0.39834667  1
  O  O18  1  0.41914014  0.75000000  0.16133222  1
  O  O19  1  0.58085986  0.25000000  0.83866778  1
  O  O20  1  0.56339236  0.75000000  0.60165333  1
  O  O21  1  0.68402574  0.56184559  0.20630871  1
  O  O22  1  0.68402574  0.93815441  0.20630871  1
  O  O23  1  0.84595510  0.25000000  0.47563269  1
  O  O24  1  0.86295923  0.25000000  0.03513918  1
  O  O25  1  0.91425326  0.75000000  0.71275958  1
