# generated using pymatgen
data_Li6Fe2P(CO4)4
_symmetry_space_group_name_H-M   'P 1'
_cell_length_a   9.45143189
_cell_length_b   9.48390546
_cell_length_c   9.45639771
_cell_angle_alpha   59.86235881
_cell_angle_beta   59.89504864
_cell_angle_gamma   59.91234302
_symmetry_Int_Tables_number   1
_chemical_formula_structural   Li6Fe2P(CO4)4
_chemical_formula_sum   'Li12 Fe4 P2 C8 O32'
_cell_volume   597.87355159
_cell_formula_units_Z   2
loop_
 _symmetry_equiv_pos_site_id
 _symmetry_equiv_pos_as_xyz
  1  'x, y, z'
loop_
 _atom_site_type_symbol
 _atom_site_label
 _atom_site_symmetry_multiplicity
 _atom_site_fract_x
 _atom_site_fract_y
 _atom_site_fract_z
 _atom_site_occupancy
  Li  Li0  1  0.07172298  0.67826301  0.07172818  1
  Li  Li1  1  0.07459627  0.07053925  0.67760566  1
  Li  Li2  1  0.07482551  0.67685375  0.67791525  1
  Li  Li3  1  0.67789034  0.07038852  0.07486040  1
  Li  Li4  1  0.32352867  0.92647929  0.32353974  1
  Li  Li5  1  0.32236748  0.32272934  0.92544023  1
  Li  Li6  1  0.67763376  0.67726953  0.07455974  1
  Li  Li7  1  0.67647687  0.07351483  0.67646672  1
  Li  Li8  1  0.92517619  0.32314528  0.32208566  1
  Li  Li9  1  0.32210939  0.92960826  0.92514374  1
  Li  Li10  1  0.92827821  0.32173603  0.92827249  1
  Li  Li11  1  0.92540464  0.92946022  0.32239417  1
  Fe  Fe12  1  -0.00000212  0.49999459  0.50000098  1
  Fe  Fe13  1  0.49999308  0.50001201  -0.00000421  1
  Fe  Fe14  1  0.49997657  0.00002154  0.50000439  1
  Fe  Fe15  1  0.50000330  0.49999658  0.49997653  1
  P  P16  1  0.12547531  0.12454239  0.12546544  1
  P  P17  1  0.87452487  0.87545679  0.87453575  1
  C  C18  1  0.27680582  0.27958792  0.27994681  1
  C  C19  1  0.27724127  0.28019210  0.66577383  1
  C  C20  1  0.27996489  0.66367079  0.27678600  1
  C  C21  1  0.66576979  0.27681650  0.27723057  1
  C  C22  1  0.33423214  0.72318037  0.72276745  1
  C  C23  1  0.72003460  0.33632712  0.72321756  1
  C  C24  1  0.72275865  0.71981084  0.33422674  1
  C  C25  1  0.72319675  0.72041090  0.72005280  1
  O  O26  1  0.05851758  0.05779233  0.05784286  1
  O  O27  1  0.05825742  0.05735534  0.32629151  1
  O  O28  1  0.05782567  0.32587954  0.05851903  1
  O  O29  1  0.32629856  0.05809098  0.05825872  1
  O  O30  1  0.13425757  0.41320902  0.29349744  1
  O  O31  1  0.28533455  0.13587003  0.40494195  1
  O  O32  1  0.13469643  0.29549452  0.65731217  1
  O  O33  1  0.40815873  0.29630039  0.13545773  1
  O  O34  1  0.13541429  0.66007847  0.40818254  1
  O  O35  1  0.29350094  0.65904710  0.13429073  1
  O  O36  1  0.40436836  0.13592728  0.67261949  1
  O  O37  1  0.28370001  0.40974734  0.67164651  1
  O  O38  1  0.67164346  0.13488437  0.28374699  1
  O  O39  1  0.40489461  0.67384981  0.28535496  1
  O  O40  1  0.65735395  0.41249706  0.13470122  1
  O  O41  1  0.32739501  0.71291102  0.59562614  1
  O  O42  1  0.67260554  0.28708842  0.40437531  1
  O  O43  1  0.34264672  0.58750394  0.86529729  1
  O  O44  1  0.59510743  0.32614776  0.71464549  1
  O  O45  1  0.32835699  0.86511473  0.71625390  1
  O  O46  1  0.71630252  0.59025402  0.32835068  1
  O  O47  1  0.59563107  0.86407193  0.32738179  1
  O  O48  1  0.70649973  0.34095267  0.86571145  1
  O  O49  1  0.86459103  0.33992221  0.59181308  1
  O  O50  1  0.59183878  0.70369900  0.86454573  1
  O  O51  1  0.86530450  0.70450503  0.34268848  1
  O  O52  1  0.71466575  0.86413019  0.59505796  1
  O  O53  1  0.86574444  0.58678911  0.70650415  1
  O  O54  1  0.67370252  0.94190896  0.94174200  1
  O  O55  1  0.94217398  0.67411959  0.94148189  1
  O  O56  1  0.94174350  0.94264467  0.67370952  1
  O  O57  1  0.94148313  0.94220544  0.94215869  1
