# generated using pymatgen
data_Na2SiBSbO7
_symmetry_space_group_name_H-M   'P 1'
_cell_length_a   9.38537877
_cell_length_b   6.63995129
_cell_length_c   5.44211229
_cell_angle_alpha   90.00000000
_cell_angle_beta   86.87609657
_cell_angle_gamma   90.00000000
_symmetry_Int_Tables_number   1
_chemical_formula_structural   Na2SiBSbO7
_chemical_formula_sum   'Na4 Si2 B2 Sb2 O14'
_cell_volume   338.64008491
_cell_formula_units_Z   2
loop_
 _symmetry_equiv_pos_site_id
 _symmetry_equiv_pos_as_xyz
  1  'x, y, z'
loop_
 _atom_site_type_symbol
 _atom_site_label
 _atom_site_symmetry_multiplicity
 _atom_site_fract_x
 _atom_site_fract_y
 _atom_site_fract_z
 _atom_site_occupancy
  Na  Na0  1  0.19601138  0.99474140  0.23788631  1
  Na  Na1  1  0.19601138  0.50525860  0.23788631  1
  Na  Na2  1  0.80398862  0.49474140  0.76211369  1
  Na  Na3  1  0.80398862  0.00525860  0.76211369  1
  Si  Si4  1  0.43612539  0.25000000  0.73122148  1
  Si  Si5  1  0.56387461  0.75000000  0.26877852  1
  B  B6  1  0.07900892  0.75000000  0.72133447  1
  B  B7  1  0.92099108  0.25000000  0.27866553  1
  Sb  Sb8  1  0.34465225  0.75000000  0.78310069  1
  Sb  Sb9  1  0.65534775  0.25000000  0.21689931  1
  O  O10  1  0.05666822  0.25000000  0.31766133  1
  O  O11  1  0.14661510  0.75000000  0.95156216  1
  O  O12  1  0.19486895  0.75000000  0.53165341  1
  O  O13  1  0.33872752  0.05249844  0.80633842  1
  O  O14  1  0.33872752  0.44750156  0.80633842  1
  O  O15  1  0.41439421  0.75000000  0.12335498  1
  O  O16  1  0.47650899  0.25000000  0.42902199  1
  O  O17  1  0.52349101  0.75000000  0.57097801  1
  O  O18  1  0.58560579  0.25000000  0.87664502  1
  O  O19  1  0.66127248  0.55249844  0.19366158  1
  O  O20  1  0.66127248  0.94750156  0.19366158  1
  O  O21  1  0.80513105  0.25000000  0.46834659  1
  O  O22  1  0.85338490  0.25000000  0.04843784  1
  O  O23  1  0.94333178  0.75000000  0.68233867  1
