# generated using pymatgen
data_Li4Nb5V3O16
_symmetry_space_group_name_H-M   'P 1'
_cell_length_a   6.08497623
_cell_length_b   6.05149486
_cell_length_c   10.06849006
_cell_angle_alpha   90.03295438
_cell_angle_beta   90.12205122
_cell_angle_gamma   119.80303488
_symmetry_Int_Tables_number   1
_chemical_formula_structural   Li4Nb5V3O16
_chemical_formula_sum   'Li4 Nb5 V3 O16'
_cell_volume   321.71649356
_cell_formula_units_Z   1
loop_
 _symmetry_equiv_pos_site_id
 _symmetry_equiv_pos_as_xyz
  1  'x, y, z'
loop_
 _atom_site_type_symbol
 _atom_site_label
 _atom_site_symmetry_multiplicity
 _atom_site_fract_x
 _atom_site_fract_y
 _atom_site_fract_z
 _atom_site_occupancy
  Li  Li0  1  0.33682461  0.66839705  0.90724365  1
  Li  Li1  1  0.00215336  0.00164221  0.98717315  1
  Li  Li2  1  0.00987608  0.00326281  0.49140481  1
  Li  Li3  1  0.66867274  0.33454657  0.39171959  1
  Nb  Nb4  1  0.31367496  0.65551989  0.49379161  1
  Nb  Nb5  1  0.64805599  0.82533079  0.22314889  1
  Nb  Nb6  1  0.65538382  0.32823812  0.99773446  1
  Nb  Nb7  1  0.81780602  0.62828432  0.71413749  1
  Nb  Nb8  1  0.81747675  0.18818819  0.71424663  1
  V  V9  1  0.17181747  0.83140780  0.21192501  1
  V  V10  1  0.17259114  0.34224027  0.21198759  1
  V  V11  1  0.34874805  0.17375962  0.71379580  1
  O  O12  1  0.16739537  0.83061189  0.59480780  1
  O  O13  1  0.05212783  0.52686365  0.35327621  1
  O  O14  1  0.35371994  0.67761676  0.09906046  1
  O  O15  1  0.98942828  0.99577287  0.30856303  1
  O  O16  1  0.00293683  0.00107134  0.80392681  1
  O  O17  1  0.16693662  0.33460623  0.59435508  1
  O  O18  1  0.49131033  0.96677812  0.34531292  1
  O  O19  1  0.49196817  0.52589572  0.34538085  1
  O  O20  1  0.33770864  0.16932697  0.08930489  1
  O  O21  1  0.66135273  0.83020728  0.59162920  1
  O  O22  1  0.52886381  0.48850061  0.84645959  1
  O  O23  1  0.52895299  0.03996522  0.84663414  1
  O  O24  1  0.64790574  0.32340490  0.57945918  1
  O  O25  1  0.82045098  0.66241987  0.09682457  1
  O  O26  1  0.97491571  0.48708149  0.85758863  1
  O  O27  1  0.82094605  0.15935943  0.09694894  1
