# generated using pymatgen
data_Li4Mn5P6WO24
_symmetry_space_group_name_H-M   'P 1'
_cell_length_a   8.72833637
_cell_length_b   9.09988995
_cell_length_c   9.06189774
_cell_angle_alpha   59.74637423
_cell_angle_beta   58.92750850
_cell_angle_gamma   58.70183629
_symmetry_Int_Tables_number   1
_chemical_formula_structural   Li4Mn5P6WO24
_chemical_formula_sum   'Li4 Mn5 P6 W1 O24'
_cell_volume   498.70339696
_cell_formula_units_Z   1
loop_
 _symmetry_equiv_pos_site_id
 _symmetry_equiv_pos_as_xyz
  1  'x, y, z'
loop_
 _atom_site_type_symbol
 _atom_site_label
 _atom_site_symmetry_multiplicity
 _atom_site_fract_x
 _atom_site_fract_y
 _atom_site_fract_z
 _atom_site_occupancy
  Li  Li0  1  0.25389652  0.84652708  0.64583784  1
  Li  Li1  1  0.79315082  0.15326839  0.35165532  1
  Li  Li2  1  0.78695934  0.70050786  0.15043101  1
  Li  Li3  1  0.79326954  0.35923896  0.69618228  1
  Mn  Mn4  1  0.02546559  0.99719650  0.99846898  1
  Mn  Mn5  1  0.04806573  0.64812238  0.65074000  1
  Mn  Mn6  1  0.49228044  0.49477605  0.49998194  1
  Mn  Mn7  1  0.45768567  0.84597776  0.84882201  1
  Mn  Mn8  1  0.97399092  0.34219256  0.33933508  1
  P  P9  1  0.24052382  0.25685985  0.55833159  1
  P  P10  1  0.24459477  0.94582974  0.25145586  1
  P  P11  1  0.23861978  0.56193294  0.94669502  1
  P  P12  1  0.74726726  0.44580466  0.05402308  1
  P  P13  1  0.76315441  0.05025445  0.74957612  1
  P  P14  1  0.72424134  0.75584624  0.45238583  1
  W  W15  1  0.55251511  0.15338121  0.14741745  1
  O  O16  1  0.05344716  0.09260294  0.31818447  1
  O  O17  1  0.04971227  0.53663714  0.09044563  1
  O  O18  1  0.05210854  0.33300138  0.52672307  1
  O  O19  1  0.22905270  0.09099406  0.73519625  1
  O  O20  1  0.41279790  0.19643950  0.39115524  1
  O  O21  1  0.27699973  0.39927188  0.56884829  1
  O  O22  1  0.23440049  0.92009707  0.10121748  1
  O  O23  1  0.28051559  0.76547724  0.41108786  1
  O  O24  1  0.56802704  0.58588624  0.01312509  1
  O  O25  1  0.28204019  0.56903497  0.75464993  1
  O  O26  1  0.76684710  0.24192333  0.09519070  1
  O  O27  1  0.60215477  0.99042426  0.81207849  1
  O  O28  1  0.41278347  0.01029444  0.17653407  1
  O  O29  1  0.22505928  0.74878237  0.92420409  1
  O  O30  1  0.72812274  0.43141579  0.24411060  1
  O  O31  1  0.40923427  0.39860755  0.00785574  1
  O  O32  1  0.73658944  0.24081697  0.59537108  1
  O  O33  1  0.75819363  0.09634515  0.90358406  1
  O  O34  1  0.72908252  0.59557382  0.42566529  1
  O  O35  1  0.52844784  0.82254145  0.59010000  1
  O  O36  1  0.74901504  0.90573965  0.25049963  1
  O  O37  1  0.88888599  0.71581984  0.49783958  1
  O  O38  1  0.92981549  0.47207223  0.90184475  1
  O  O39  1  0.96098776  0.90548511  0.70014919  1
