# generated using pymatgen
data_Li3Ti2MnO6
_symmetry_space_group_name_H-M   'P 1'
_cell_length_a   15.71718190
_cell_length_b   10.03674858
_cell_length_c   10.03674862
_cell_angle_alpha   17.10329698
_cell_angle_beta   16.78388958
_cell_angle_gamma   16.78388650
_symmetry_Int_Tables_number   1
_chemical_formula_structural   Li3Ti2MnO6
_chemical_formula_sum   'Li3 Ti2 Mn1 O6'
_cell_volume   116.55607305
_cell_formula_units_Z   1
loop_
 _symmetry_equiv_pos_site_id
 _symmetry_equiv_pos_as_xyz
  1  'x, y, z'
loop_
 _atom_site_type_symbol
 _atom_site_label
 _atom_site_symmetry_multiplicity
 _atom_site_fract_x
 _atom_site_fract_y
 _atom_site_fract_z
 _atom_site_occupancy
  Li  Li0  1  0.16666700  0.50000000  0.50000000  1
  Li  Li1  1  0.49509353  0.50372578  0.50372578  1
  Li  Li2  1  0.83823947  0.49627422  0.49627422  1
  Ti  Ti3  1  0.01000664  0.99414536  0.99414536  1
  Ti  Ti4  1  0.32332636  0.00585464  0.00585464  1
  Mn  Mn5  1  0.66666700  0.00000000  0.00000000  1
  O  O6  1  0.21533258  0.27988699  0.27988699  1
  O  O7  1  0.58643774  0.25460594  0.25460594  1
  O  O8  1  0.11800042  0.72011301  0.72011301  1
  O  O9  1  0.95582582  0.22382242  0.22382242  1
  O  O10  1  0.37750718  0.77617758  0.77617758  1
  O  O11  1  0.74689626  0.74539406  0.74539406  1
