# generated using pymatgen
data_Li4Mn5CoO12
_symmetry_space_group_name_H-M   'P 1'
_cell_length_a   5.13622020
_cell_length_b   5.12861614
_cell_length_c   10.26430333
_cell_angle_alpha   91.28162454
_cell_angle_beta   91.57157147
_cell_angle_gamma   60.49131762
_symmetry_Int_Tables_number   1
_chemical_formula_structural   Li4Mn5CoO12
_chemical_formula_sum   'Li4 Mn5 Co1 O12'
_cell_volume   235.20520882
_cell_formula_units_Z   1
loop_
 _symmetry_equiv_pos_site_id
 _symmetry_equiv_pos_as_xyz
  1  'x, y, z'
loop_
 _atom_site_type_symbol
 _atom_site_label
 _atom_site_symmetry_multiplicity
 _atom_site_fract_x
 _atom_site_fract_y
 _atom_site_fract_z
 _atom_site_occupancy
  Li  Li0  1  0.16453167  0.48311220  0.74864180  1
  Li  Li1  1  0.33781599  0.49989457  0.24935390  1
  Li  Li2  1  0.66191398  0.49524021  0.75063578  1
  Li  Li3  1  0.83004755  0.51208803  0.24854342  1
  Mn  Mn4  1  0.15376650  0.68095662  0.49939792  1
  Mn  Mn5  1  0.66356549  0.66995989  0.99933031  1
  Mn  Mn6  1  0.33678946  0.32274017  0.99948561  1
  Mn  Mn7  1  0.82959717  0.33784087  0.49887309  1
  Mn  Mn8  1  0.49799584  0.00039968  0.49864973  1
  Co  Co9  1  0.00021352  0.99636792  0.99943124  1
  O  O10  1  0.00810162  0.63350247  0.10435583  1
  O  O11  1  0.35855070  0.62844947  0.89406650  1
  O  O12  1  0.13110999  0.36583135  0.39413403  1
  O  O13  1  0.52870262  0.64211865  0.38962256  1
  O  O14  1  0.49742809  0.35334089  0.60082930  1
  O  O15  1  0.16803824  0.01011316  0.59201120  1
  O  O16  1  0.83400346  0.63017693  0.61382793  1
  O  O17  1  0.64098924  0.36431688  0.10423496  1
  O  O18  1  0.35677643  0.99723255  0.09733068  1
  O  O19  1  0.99294888  0.35888239  0.89521407  1
  O  O20  1  0.64361910  0.99564141  0.90159906  1
  O  O21  1  0.81637747  0.00736867  0.40434408  1
