# generated using pymatgen
data_CaPbI6
_symmetry_space_group_name_H-M   'P 1'
_cell_length_a   13.45508064
_cell_length_b   12.41755655
_cell_length_c   12.41755655
_cell_angle_alpha   116.24129148
_cell_angle_beta   75.08321162
_cell_angle_gamma   75.08321162
_symmetry_Int_Tables_number   1
_chemical_formula_structural   CaPbI6
_chemical_formula_sum   'Ca4 Pb4 I24'
_cell_volume   1624.88616451
_cell_formula_units_Z   4
loop_
 _symmetry_equiv_pos_site_id
 _symmetry_equiv_pos_as_xyz
  1  'x, y, z'
loop_
 _atom_site_type_symbol
 _atom_site_label
 _atom_site_symmetry_multiplicity
 _atom_site_fract_x
 _atom_site_fract_y
 _atom_site_fract_z
 _atom_site_occupancy
  Ca  Ca0  1  0.78078478  0.91437731  0.63236879  1
  Ca  Ca1  1  0.28078478  0.38236879  0.16437731  1
  Ca  Ca2  1  0.71921522  0.44516209  0.66315357  1
  Ca  Ca3  1  0.21921522  0.41315357  0.69516209  1
  Pb  Pb4  1  0.87221288  0.73557659  0.91094801  1
  Pb  Pb5  1  0.37221288  0.66094801  0.98557659  1
  Pb  Pb6  1  0.62778712  0.35778947  0.03316089  1
  Pb  Pb7  1  0.12778712  0.78316089  0.60778947  1
  I  I8  1  0.79226108  0.80989179  0.20615265  1
  I  I9  1  0.38269501  0.58973300  0.23817217  1
  I  I10  1  0.02655900  0.76826732  0.40840534  1
  I  I11  1  0.63007499  0.64352705  0.42251503  1
  I  I12  1  0.05534355  0.36201442  0.17583915  1
  I  I13  1  0.80487786  0.66011424  0.65450499  1
  I  I14  1  0.29226108  0.95615265  0.05989179  1
  I  I15  1  0.70773892  0.35215287  0.24841372  1
  I  I16  1  0.19512214  0.45938285  0.46499210  1
  I  I17  1  0.11730499  0.72242901  0.87086818  1
  I  I18  1  0.47344100  0.54482632  0.68496435  1
  I  I19  1  0.94465645  0.23118270  0.41735797  1
  I  I20  1  0.36992501  0.05259102  0.27360204  1
  I  I21  1  0.86992501  0.02360204  0.30259102  1
  I  I22  1  0.44465645  0.16735797  0.48118270  1
  I  I23  1  0.97344100  0.43496435  0.79482632  1
  I  I24  1  0.61730499  0.62086818  0.97242901  1
  I  I25  1  0.69512214  0.21499210  0.70938285  1
  I  I26  1  0.20773892  0.99841372  0.60215287  1
  I  I27  1  0.30487786  0.40450499  0.91011424  1
  I  I28  1  0.55534355  0.92583915  0.61201442  1
  I  I29  1  0.13007499  0.17251503  0.89352705  1
  I  I30  1  0.52655900  0.15840534  0.01826732  1
  I  I31  1  0.88269501  0.98817217  0.83973300  1
