# generated using pymatgen
data_Lu2TeO6
_symmetry_space_group_name_H-M   'P 1'
_cell_length_a   5.30711835
_cell_length_b   9.71200441
_cell_length_c   9.71200441
_cell_angle_alpha   68.66668238
_cell_angle_beta   76.14369640
_cell_angle_gamma   76.14369640
_symmetry_Int_Tables_number   1
_chemical_formula_structural   Lu2TeO6
_chemical_formula_sum   'Lu8 Te4 O24'
_cell_volume   446.24321258
_cell_formula_units_Z   4
loop_
 _symmetry_equiv_pos_site_id
 _symmetry_equiv_pos_as_xyz
  1  'x, y, z'
loop_
 _atom_site_type_symbol
 _atom_site_label
 _atom_site_symmetry_multiplicity
 _atom_site_fract_x
 _atom_site_fract_y
 _atom_site_fract_z
 _atom_site_occupancy
  Lu  Lu0  1  0.61466285  0.06094170  0.28283229  1
  Lu  Lu1  1  0.11466285  0.28283229  0.06094170  1
  Lu  Lu2  1  0.75000000  0.62457592  0.37542408  1
  Lu  Lu3  1  0.75000000  0.10253663  0.89746337  1
  Lu  Lu4  1  0.25000000  0.89746337  0.10253663  1
  Lu  Lu5  1  0.25000000  0.37542408  0.62457592  1
  Lu  Lu6  1  0.88533715  0.71716771  0.93905830  1
  Lu  Lu7  1  0.38533715  0.93905830  0.71716771  1
  Te  Te8  1  0.93310148  0.19501959  0.49831656  1
  Te  Te9  1  0.43310148  0.49831656  0.19501959  1
  Te  Te10  1  0.56689852  0.50168344  0.80498041  1
  Te  Te11  1  0.06689852  0.80498041  0.50168344  1
  O  O12  1  0.92267146  0.10612414  0.07515431  1
  O  O13  1  0.42267146  0.07515431  0.10612414  1
  O  O14  1  0.74475236  0.47052245  0.05507386  1
  O  O15  1  0.84983237  0.21482122  0.31154071  1
  O  O16  1  0.24475236  0.05507386  0.47052245  1
  O  O17  1  0.34983237  0.31154071  0.21482122  1
  O  O18  1  0.59944536  0.17923197  0.62321681  1
  O  O19  1  0.09944536  0.62321681  0.17923197  1
  O  O20  1  0.98939777  0.39039316  0.45836455  1
  O  O21  1  0.57348768  0.68775825  0.15506220  1
  O  O22  1  0.48939777  0.45836455  0.39039316  1
  O  O23  1  0.07348768  0.15506220  0.68775825  1
  O  O24  1  0.92651232  0.84493780  0.31224175  1
  O  O25  1  0.51060223  0.54163545  0.60960684  1
  O  O26  1  0.42651232  0.31224175  0.84493780  1
  O  O27  1  0.01060223  0.60960684  0.54163545  1
  O  O28  1  0.90055464  0.37678319  0.82076803  1
  O  O29  1  0.40055464  0.82076803  0.37678319  1
  O  O30  1  0.65016763  0.68845929  0.78517878  1
  O  O31  1  0.75524764  0.94492614  0.52947755  1
  O  O32  1  0.15016763  0.78517878  0.68845929  1
  O  O33  1  0.25524864  0.52947755  0.94492614  1
  O  O34  1  0.57732854  0.92484569  0.89387586  1
  O  O35  1  0.07732854  0.89387586  0.92484569  1
