# generated using pymatgen
data_Li7Fe3(WO8)2
_symmetry_space_group_name_H-M   'P 1'
_cell_length_a   5.92334205
_cell_length_b   5.86338479
_cell_length_c   9.71436656
_cell_angle_alpha   89.97755244
_cell_angle_beta   89.39827182
_cell_angle_gamma   119.65902176
_symmetry_Int_Tables_number   1
_chemical_formula_structural   Li7Fe3(WO8)2
_chemical_formula_sum   'Li7 Fe3 W2 O16'
_cell_volume   293.16314062
_cell_formula_units_Z   1
loop_
 _symmetry_equiv_pos_site_id
 _symmetry_equiv_pos_as_xyz
  1  'x, y, z'
loop_
 _atom_site_type_symbol
 _atom_site_label
 _atom_site_symmetry_multiplicity
 _atom_site_fract_x
 _atom_site_fract_y
 _atom_site_fract_z
 _atom_site_occupancy
  Li  Li0  1  0.16026594  0.82361740  0.21028745  1
  Li  Li1  1  0.34609605  0.67302400  0.90781238  1
  Li  Li2  1  0.99555083  0.99776463  0.99614759  1
  Li  Li3  1  0.00128891  0.00073908  0.48492255  1
  Li  Li4  1  0.16023986  0.33668319  0.21032203  1
  Li  Li5  1  0.34035196  0.17023368  0.71158142  1
  Li  Li6  1  0.66645201  0.33323034  0.40309533  1
  Fe  Fe7  1  0.65668733  0.82835476  0.21765582  1
  Fe  Fe8  1  0.82694190  0.66236117  0.71461294  1
  Fe  Fe9  1  0.82692194  0.16459084  0.71465556  1
  W  W10  1  0.30063775  0.65034056  0.47963224  1
  W  W11  1  0.65585227  0.32800543  0.99110114  1
  O  O12  1  0.16855297  0.82769859  0.59013430  1
  O  O13  1  0.03005058  0.51508108  0.35838719  1
  O  O14  1  0.36776885  0.68392051  0.11569754  1
  O  O15  1  0.96746806  0.98365206  0.29711924  1
  O  O16  1  0.98406141  0.99188885  0.80274616  1
  O  O17  1  0.16845993  0.34087374  0.59021364  1
  O  O18  1  0.49518985  0.96357615  0.35667922  1
  O  O19  1  0.49519580  0.53170525  0.35673293  1
  O  O20  1  0.33708629  0.16850823  0.07486886  1
  O  O21  1  0.66877650  0.83438472  0.59831865  1
  O  O22  1  0.54044796  0.49700607  0.84667273  1
  O  O23  1  0.54051019  0.04347826  0.84668106  1
  O  O24  1  0.69407802  0.34716673  0.61364170  1
  O  O25  1  0.81728345  0.65070086  0.08822641  1
  O  O26  1  0.97045099  0.48527441  0.84170040  1
  O  O27  1  0.81732940  0.16643739  0.08819253  1
