# generated using pymatgen
data_Sb2O5
_symmetry_space_group_name_H-M   'P 1'
_cell_length_a   8.57722466
_cell_length_b   5.10920900
_cell_length_c   10.12310103
_cell_angle_alpha   90.00000000
_cell_angle_beta   113.88938941
_cell_angle_gamma   90.00000000
_symmetry_Int_Tables_number   1
_chemical_formula_structural   Sb2O5
_chemical_formula_sum   'Sb8 O20'
_cell_volume   405.61733233
_cell_formula_units_Z   4
loop_
 _symmetry_equiv_pos_site_id
 _symmetry_equiv_pos_as_xyz
  1  'x, y, z'
loop_
 _atom_site_type_symbol
 _atom_site_label
 _atom_site_symmetry_multiplicity
 _atom_site_fract_x
 _atom_site_fract_y
 _atom_site_fract_z
 _atom_site_occupancy
  Sb  Sb0  1  0.13368175  0.47287314  0.94279637  1
  Sb  Sb1  1  0.97862113  0.99880304  0.32934879  1
  Sb  Sb2  1  0.36631825  0.97287314  0.55720363  1
  Sb  Sb3  1  0.47862113  0.50119696  0.82934879  1
  Sb  Sb4  1  0.52137887  0.49880304  0.17065121  1
  Sb  Sb5  1  0.63368175  0.02712686  0.44279637  1
  Sb  Sb6  1  0.02137887  0.00119696  0.67065121  1
  Sb  Sb7  1  0.86631825  0.52712686  0.05720363  1
  O  O8  1  0.06253593  0.73046113  0.05475652  1
  O  O9  1  0.19156818  0.19745631  0.82954835  1
  O  O10  1  0.98306309  0.33629179  0.24792105  1
  O  O11  1  0.13142431  0.14859839  0.54163646  1
  O  O12  1  0.36857569  0.64859839  0.95836354  1
  O  O13  1  0.19009664  0.81658030  0.37342296  1
  O  O14  1  0.30843182  0.69745631  0.67045165  1
  O  O15  1  0.43746407  0.23046113  0.44524348  1
  O  O16  1  0.30990336  0.31658030  0.12657704  1
  O  O17  1  0.48306309  0.16370821  0.74792105  1
  O  O18  1  0.51693691  0.83629179  0.25207895  1
  O  O19  1  0.69009664  0.68341970  0.87342296  1
  O  O20  1  0.56253593  0.76953887  0.55475652  1
  O  O21  1  0.69156818  0.30254369  0.32954835  1
  O  O22  1  0.80990336  0.18341970  0.62657704  1
  O  O23  1  0.63142431  0.35140161  0.04163646  1
  O  O24  1  0.86857569  0.85140161  0.45836354  1
  O  O25  1  0.01693691  0.66370821  0.75207895  1
  O  O26  1  0.80843182  0.80254369  0.17045165  1
  O  O27  1  0.93746407  0.26953887  0.94524348  1
