# generated using pymatgen
data_Eu2Al4O9
_symmetry_space_group_name_H-M   'P 1'
_cell_length_a   7.53177229
_cell_length_b   8.43920268
_cell_length_c   5.75232775
_cell_angle_alpha   89.99926823
_cell_angle_beta   90.00020188
_cell_angle_gamma   90.01175109
_symmetry_Int_Tables_number   1
_chemical_formula_structural   Eu2Al4O9
_chemical_formula_sum   'Eu4 Al8 O18'
_cell_volume   365.63032841
_cell_formula_units_Z   2
loop_
 _symmetry_equiv_pos_site_id
 _symmetry_equiv_pos_as_xyz
  1  'x, y, z'
loop_
 _atom_site_type_symbol
 _atom_site_label
 _atom_site_symmetry_multiplicity
 _atom_site_fract_x
 _atom_site_fract_y
 _atom_site_fract_z
 _atom_site_occupancy
  Eu  Eu0  1  0.15656131  0.18413504  0.99999828  1
  Eu  Eu1  1  0.34369231  0.68391346  0.00000146  1
  Eu  Eu2  1  0.65670437  0.31590803  0.99999861  1
  Eu  Eu3  1  0.84326089  0.81583146  0.99999016  1
  Al  Al4  1  0.00019380  0.50013228  0.25658526  1
  Al  Al5  1  0.00019536  0.50013193  0.74341678  1
  Al  Al6  1  0.13822040  0.83572692  0.50000106  1
  Al  Al7  1  0.36168257  0.33591863  0.50000095  1
  Al  Al8  1  0.49984820  0.99981456  0.25637116  1
  Al  Al9  1  0.49984651  0.99982042  0.74363334  1
  Al  Al10  1  0.63836749  0.66419242  0.49999914  1
  Al  Al11  1  0.86165964  0.16410914  0.49999975  1
  O  O12  1  0.00002018  0.00005055  0.50000013  1
  O  O13  1  0.09960883  0.71693454  0.75148998  1
  O  O14  1  0.09961127  0.71693801  0.24851279  1
  O  O15  1  0.14863141  0.42686931  0.50000209  1
  O  O16  1  0.15839158  0.45113685  0.00000081  1
  O  O17  1  0.34144161  0.95142692  -0.00000021  1
  O  O18  1  0.35139245  0.92696668  0.50000176  1
  O  O19  1  0.40038262  0.21692841  0.24851602  1
  O  O20  1  0.40038040  0.21692591  0.75148596  1
  O  O21  1  0.50000000  0.50001450  0.49999990  1
  O  O22  1  0.59967084  0.78307976  0.24850907  1
  O  O23  1  0.59967560  0.78307987  0.75149545  1
  O  O24  1  0.64857594  0.07310892  0.49999941  1
  O  O25  1  0.65885772  0.04887020  0.99999603  1
  O  O26  1  0.84113169  0.54883620  0.99999285  1
  O  O27  1  0.85133333  0.57299667  0.50000059  1
  O  O28  1  0.90032976  0.28310412  0.24845143  1
  O  O29  1  0.90033194  0.28309830  0.75154999  1
