# generated using pymatgen
data_SrTiCuO4
_symmetry_space_group_name_H-M   'P 1'
_cell_length_a   3.95467592
_cell_length_b   3.95467592
_cell_length_c   11.09341097
_cell_angle_alpha   90.00000000
_cell_angle_beta   90.00000000
_cell_angle_gamma   90.00000000
_symmetry_Int_Tables_number   1
_chemical_formula_structural   SrTiCuO4
_chemical_formula_sum   'Sr2 Ti2 Cu2 O8'
_cell_volume   173.49497524
_cell_formula_units_Z   2
loop_
 _symmetry_equiv_pos_site_id
 _symmetry_equiv_pos_as_xyz
  1  'x, y, z'
loop_
 _atom_site_type_symbol
 _atom_site_label
 _atom_site_symmetry_multiplicity
 _atom_site_fract_x
 _atom_site_fract_y
 _atom_site_fract_z
 _atom_site_occupancy
  Sr  Sr0  1  0.75000000  0.75000000  0.12677603  1
  Sr  Sr1  1  0.25000000  0.25000000  0.87322397  1
  Ti  Ti2  1  0.75000000  0.75000000  0.72889046  1
  Ti  Ti3  1  0.25000000  0.25000000  0.27110954  1
  Cu  Cu4  1  0.25000000  0.75000000  0.50000000  1
  Cu  Cu5  1  0.75000000  0.25000000  0.50000000  1
  O  O6  1  0.75000000  0.75000000  0.89877374  1
  O  O7  1  0.25000000  0.25000000  0.10122626  1
  O  O8  1  0.75000000  0.75000000  0.52625860  1
  O  O9  1  0.25000000  0.25000000  0.47374140  1
  O  O10  1  0.75000000  0.25000000  0.72246548  1
  O  O11  1  0.25000000  0.75000000  0.72246548  1
  O  O12  1  0.25000000  0.75000000  0.27753452  1
  O  O13  1  0.75000000  0.25000000  0.27753452  1
