# generated using pymatgen
data_Li4CrCo5O12
_symmetry_space_group_name_H-M   'P 1'
_cell_length_a   4.94219165
_cell_length_b   4.92821904
_cell_length_c   9.91782297
_cell_angle_alpha   90.17877023
_cell_angle_beta   90.44341118
_cell_angle_gamma   59.92299504
_symmetry_Int_Tables_number   1
_chemical_formula_structural   Li4CrCo5O12
_chemical_formula_sum   'Li4 Cr1 Co5 O12'
_cell_volume   209.02868150
_cell_formula_units_Z   1
loop_
 _symmetry_equiv_pos_site_id
 _symmetry_equiv_pos_as_xyz
  1  'x, y, z'
loop_
 _atom_site_type_symbol
 _atom_site_label
 _atom_site_symmetry_multiplicity
 _atom_site_fract_x
 _atom_site_fract_y
 _atom_site_fract_z
 _atom_site_occupancy
  Li  Li0  1  0.16527540  0.48927463  0.74656344  1
  Li  Li1  1  0.34843724  0.48659187  0.25139751  1
  Li  Li2  1  0.65324137  0.51440678  0.74791269  1
  Li  Li3  1  0.84338110  0.49601897  0.25034517  1
  Cr  Cr4  1  0.00005691  0.99972539  0.99849154  1
  Co  Co5  1  0.16408916  0.67191209  0.49923775  1
  Co  Co6  1  0.66598324  0.66826735  0.99902832  1
  Co  Co7  1  0.33418944  0.33156369  0.99866075  1
  Co  Co8  1  0.83437589  0.33113638  0.49986997  1
  Co  Co9  1  0.49942826  0.00116650  0.49939820  1
  O  O10  1  0.00567539  0.65634121  0.10433359  1
  O  O11  1  0.33773032  0.65733817  0.89333894  1
  O  O12  1  0.16623758  0.33645780  0.39819855  1
  O  O13  1  0.50240198  0.66524180  0.39797940  1
  O  O14  1  0.49653468  0.33700721  0.60087269  1
  O  O15  1  0.17344296  0.00067909  0.59664105  1
  O  O16  1  0.83248303  0.66618165  0.60089952  1
  O  O17  1  0.66266090  0.34184550  0.10417309  1
  O  O18  1  0.33381461  0.00026214  0.09793228  1
  O  O19  1  0.99484318  0.34314474  0.89320797  1
  O  O20  1  0.66575124  -0.00014084  0.89955497  1
  O  O21  1  0.82523312  0.00262386  0.40242061  1
