# generated using pymatgen
data_Cr2(WO4)3
_symmetry_space_group_name_H-M   'P 1'
_cell_length_a   9.68710207
_cell_length_b   9.68710207
_cell_length_c   9.68710188
_cell_angle_alpha   56.30011855
_cell_angle_beta   56.30011853
_cell_angle_gamma   56.30012201
_symmetry_Int_Tables_number   1
_chemical_formula_structural   Cr2(WO4)3
_chemical_formula_sum   'Cr4 W6 O24'
_cell_volume   587.76534360
_cell_formula_units_Z   2
loop_
 _symmetry_equiv_pos_site_id
 _symmetry_equiv_pos_as_xyz
  1  'x, y, z'
loop_
 _atom_site_type_symbol
 _atom_site_label
 _atom_site_symmetry_multiplicity
 _atom_site_fract_x
 _atom_site_fract_y
 _atom_site_fract_z
 _atom_site_occupancy
  Cr  Cr0  1  0.14051243  0.14051243  0.14051243  1
  Cr  Cr1  1  0.35321991  0.35321991  0.35321991  1
  Cr  Cr2  1  0.64678009  0.64678009  0.64678009  1
  Cr  Cr3  1  0.85948757  0.85948757  0.85948757  1
  W  W4  1  0.25028174  0.96867459  0.53451247  1
  W  W5  1  0.03132541  0.46548753  0.74971826  1
  W  W6  1  0.46548753  0.74971826  0.03132541  1
  W  W7  1  0.53451247  0.25028174  0.96867459  1
  W  W8  1  0.96867459  0.53451247  0.25028174  1
  W  W9  1  0.74971826  0.03132541  0.46548753  1
  O  O10  1  0.19687383  0.00628002  0.36221593  1
  O  O11  1  0.09344860  0.88438868  0.74678346  1
  O  O12  1  0.25321654  0.90655140  0.11561132  1
  O  O13  1  0.99371998  0.63778407  0.80312617  1
  O  O14  1  0.47443392  0.80990148  0.51877040  1
  O  O15  1  0.18153996  0.51058410  0.22303850  1
  O  O16  1  0.19009852  0.48122960  0.52556608  1
  O  O17  1  0.48941590  0.77696150  0.81846004  1
  O  O18  1  0.63778407  0.80312617  0.99371998  1
  O  O19  1  0.11561132  0.25321654  0.90655140  1
  O  O20  1  0.77696150  0.81846004  0.48941590  1
  O  O21  1  0.48122960  0.52556608  0.19009852  1
  O  O22  1  0.51877040  0.47443392  0.80990148  1
  O  O23  1  0.22303850  0.18153996  0.51058410  1
  O  O24  1  0.88438868  0.74678346  0.09344860  1
  O  O25  1  0.36221593  0.19687383  0.00628002  1
  O  O26  1  0.51058410  0.22303850  0.18153996  1
  O  O27  1  0.80990148  0.51877040  0.47443392  1
  O  O28  1  0.81846004  0.48941590  0.77696150  1
  O  O29  1  0.52556608  0.19009852  0.48122960  1
  O  O30  1  0.00628002  0.36221593  0.19687383  1
  O  O31  1  0.74678346  0.09344860  0.88438868  1
  O  O32  1  0.90655140  0.11561132  0.25321654  1
  O  O33  1  0.80312617  0.99371998  0.63778407  1
