# generated using pymatgen
data_Li2MnBAsO7
_symmetry_space_group_name_H-M   'P 1'
_cell_length_a   8.76085207
_cell_length_b   6.39592877
_cell_length_c   5.16810392
_cell_angle_alpha   90.00000000
_cell_angle_beta   86.77644989
_cell_angle_gamma   90.00000000
_symmetry_Int_Tables_number   1
_chemical_formula_structural   Li2MnBAsO7
_chemical_formula_sum   'Li4 Mn2 B2 As2 O14'
_cell_volume   289.13022250
_cell_formula_units_Z   2
loop_
 _symmetry_equiv_pos_site_id
 _symmetry_equiv_pos_as_xyz
  1  'x, y, z'
loop_
 _atom_site_type_symbol
 _atom_site_label
 _atom_site_symmetry_multiplicity
 _atom_site_fract_x
 _atom_site_fract_y
 _atom_site_fract_z
 _atom_site_occupancy
  Li  Li0  1  0.19563013  0.51854207  0.22742102  1
  Li  Li1  1  0.19563013  0.98145793  0.22742102  1
  Li  Li2  1  0.80436987  0.48145793  0.77257898  1
  Li  Li3  1  0.80436987  0.01854207  0.77257898  1
  Mn  Mn4  1  0.32503670  0.75000000  0.78821130  1
  Mn  Mn5  1  0.67496330  0.25000000  0.21178870  1
  B  B6  1  0.05374673  0.75000000  0.73168237  1
  B  B7  1  0.94625327  0.25000000  0.26831763  1
  As  As8  1  0.42864607  0.25000000  0.71642102  1
  As  As9  1  0.57135393  0.75000000  0.28357898  1
  O  O10  1  0.09546050  0.25000000  0.29557691  1
  O  O11  1  0.12594296  0.75000000  0.97023967  1
  O  O12  1  0.17138518  0.75000000  0.53140181  1
  O  O13  1  0.31082178  0.04828787  0.81496584  1
  O  O14  1  0.31082178  0.45171213  0.81496584  1
  O  O15  1  0.39796345  0.75000000  0.14632240  1
  O  O16  1  0.46991272  0.25000000  0.38634233  1
  O  O17  1  0.53008728  0.75000000  0.61365767  1
  O  O18  1  0.60203655  0.25000000  0.85367760  1
  O  O19  1  0.68917822  0.54828787  0.18503416  1
  O  O20  1  0.68917822  0.95171213  0.18503416  1
  O  O21  1  0.82861482  0.25000000  0.46859819  1
  O  O22  1  0.87405704  0.25000000  0.02976033  1
  O  O23  1  0.90453950  0.75000000  0.70442309  1
