# generated using pymatgen
data_Li4Co5Ni3O16
_symmetry_space_group_name_H-M   'P 1'
_cell_length_a   5.61565289
_cell_length_b   5.62844560
_cell_length_c   9.09708670
_cell_angle_alpha   90.28161805
_cell_angle_beta   89.69433536
_cell_angle_gamma   119.88329911
_symmetry_Int_Tables_number   1
_chemical_formula_structural   Li4Co5Ni3O16
_chemical_formula_sum   'Li4 Co5 Ni3 O16'
_cell_volume   249.30073161
_cell_formula_units_Z   1
loop_
 _symmetry_equiv_pos_site_id
 _symmetry_equiv_pos_as_xyz
  1  'x, y, z'
loop_
 _atom_site_type_symbol
 _atom_site_label
 _atom_site_symmetry_multiplicity
 _atom_site_fract_x
 _atom_site_fract_y
 _atom_site_fract_z
 _atom_site_occupancy
  Li  Li0  1  0.33447615  0.66757018  0.89584575  1
  Li  Li1  1  0.99976112  0.99835987  0.99807102  1
  Li  Li2  1  0.00480960  0.00286185  0.49588529  1
  Li  Li3  1  0.67119920  0.33415662  0.39561917  1
  Co  Co4  1  0.16882891  0.82734795  0.21470875  1
  Co  Co5  1  0.32861662  0.66483066  0.48505810  1
  Co  Co6  1  0.16904254  0.33643157  0.21017954  1
  Co  Co7  1  0.33975640  0.16975677  0.71443637  1
  Co  Co8  1  0.66342075  0.33617209  0.98357569  1
  Ni  Ni9  1  0.65926321  0.82809931  0.21406539  1
  Ni  Ni10  1  0.83048222  0.66045219  0.71433455  1
  Ni  Ni11  1  0.83026913  0.16973366  0.71418227  1
  O  O12  1  0.16093513  0.83469079  0.59837043  1
  O  O13  1  0.04331058  0.51789760  0.33847906  1
  O  O14  1  0.33747823  0.66769510  0.10966451  1
  O  O15  1  0.99463680  0.99753194  0.30623049  1
  O  O16  1  0.99558996  0.99821540  0.80694396  1
  O  O17  1  0.16146750  0.32655265  0.59866435  1
  O  O18  1  0.47991842  0.95814613  0.34067921  1
  O  O19  1  0.47698542  0.51980644  0.33877888  1
  O  O20  1  0.32961501  0.17075582  0.10349293  1
  O  O21  1  0.67517122  0.83720454  0.59862136  1
  O  O22  1  0.52140411  0.48032219  0.83995645  1
  O  O23  1  0.52174974  0.04133384  0.84015446  1
  O  O24  1  0.67075059  0.33540363  0.61209655  1
  O  O25  1  0.83497390  0.67271716  0.09757894  1
  O  O26  1  0.95731902  0.47839173  0.83996050  1
  O  O27  1  0.83876954  0.16786031  0.10220305  1
