# generated using pymatgen
data_BaLaI5
_symmetry_space_group_name_H-M   'P 1'
_cell_length_a   8.55165527
_cell_length_b   27.08204128
_cell_length_c   11.99812445
_cell_angle_alpha   90.00000000
_cell_angle_beta   89.89696022
_cell_angle_gamma   90.00000000
_symmetry_Int_Tables_number   1
_chemical_formula_structural   BaLaI5
_chemical_formula_sum   'Ba8 La8 I40'
_cell_volume   2778.71651086
_cell_formula_units_Z   8
loop_
 _symmetry_equiv_pos_site_id
 _symmetry_equiv_pos_as_xyz
  1  'x, y, z'
loop_
 _atom_site_type_symbol
 _atom_site_label
 _atom_site_symmetry_multiplicity
 _atom_site_fract_x
 _atom_site_fract_y
 _atom_site_fract_z
 _atom_site_occupancy
  Ba  Ba0  1  0.12249417  0.52446440  0.73965849  1
  Ba  Ba1  1  0.33960203  0.25802131  0.50079039  1
  Ba  Ba2  1  0.37750583  0.02446440  0.76034151  1
  Ba  Ba3  1  0.16039797  0.75802131  0.99920961  1
  Ba  Ba4  1  0.83960203  0.24197869  0.00079039  1
  Ba  Ba5  1  0.62249417  0.97553560  0.23965849  1
  Ba  Ba6  1  0.66039797  0.74197869  0.49920961  1
  Ba  Ba7  1  0.87750583  0.47553560  0.26034151  1
  La  La8  1  0.26619798  0.37421182  0.94995927  1
  La  La9  1  0.23380202  0.87421182  0.55004073  1
  La  La10  1  0.23985645  0.11450721  0.10924407  1
  La  La11  1  0.26014355  0.61450721  0.39075593  1
  La  La12  1  0.73985645  0.38549279  0.60924407  1
  La  La13  1  0.76014355  0.88549279  0.89075593  1
  La  La14  1  0.76619798  0.12578818  0.44995927  1
  La  La15  1  0.73380202  0.62578818  0.05004073  1
  I  I16  1  0.06436785  0.11745883  0.88297113  1
  I  I17  1  0.05243361  0.34921268  0.50039900  1
  I  I18  1  0.07946742  0.16280645  0.55202219  1
  I  I19  1  0.08873274  0.92317430  0.77642420  1
  I  I20  1  0.05596303  0.59121511  0.17512999  1
  I  I21  1  0.03876905  0.36176948  0.15580800  1
  I  I22  1  0.16766336  0.27138421  0.84314997  1
  I  I23  1  0.13287622  0.21735589  0.20707486  1
  I  I24  1  0.24123296  0.98712921  0.49155329  1
  I  I25  1  0.21352960  0.49993323  0.43514935  1
  I  I26  1  0.33233664  0.77138421  0.65685003  1
  I  I27  1  0.28647040  0.99993323  0.06485065  1
  I  I28  1  0.25876704  0.48712921  0.00844671  1
  I  I29  1  0.36712378  0.71735589  0.29292514  1
  I  I30  1  0.41126726  0.42317430  0.72357580  1
  I  I31  1  0.42053258  0.66280645  0.94797781  1
  I  I32  1  0.46123095  0.86176948  0.34419200  1
  I  I33  1  0.44403697  0.09121511  0.32487001  1
  I  I34  1  0.44756639  0.84921268  0.99960100  1
  I  I35  1  0.43563215  0.61745883  0.61702887  1
  I  I36  1  0.56436785  0.38254117  0.38297113  1
  I  I37  1  0.55243361  0.15078732  0.00039900  1
  I  I38  1  0.55596303  0.90878489  0.67512999  1
  I  I39  1  0.53876905  0.13823052  0.65580800  1
  I  I40  1  0.57946742  0.33719355  0.05202219  1
  I  I41  1  0.58873274  0.57682570  0.27642520  1
  I  I42  1  0.63287622  0.28264411  0.70707486  1
  I  I43  1  0.74123296  0.51287079  0.99155329  1
  I  I44  1  0.71352960  0.00006677  0.93514935  1
  I  I45  1  0.66766336  0.22861579  0.34314997  1
  I  I46  1  0.78647040  0.50006677  0.56485065  1
  I  I47  1  0.75876704  0.01287079  0.50844671  1
  I  I48  1  0.86712378  0.78264411  0.79292514  1
  I  I49  1  0.83233664  0.72861579  0.15685003  1
  I  I50  1  0.96123095  0.63823052  0.84419200  1
  I  I51  1  0.94403697  0.40878489  0.82487001  1
  I  I52  1  0.91126726  0.07682570  0.22357580  1
  I  I53  1  0.92053258  0.83719355  0.44797781  1
  I  I54  1  0.94756639  0.65078732  0.49960100  1
  I  I55  1  0.93563215  0.88254117  0.11702887  1
