# generated using pymatgen
data_Ba5La3I19
_symmetry_space_group_name_H-M   'P 1'
_cell_length_a   12.04978829
_cell_length_b   15.31833438
_cell_length_c   17.39619569
_cell_angle_alpha   86.47642820
_cell_angle_beta   62.84127236
_cell_angle_gamma   83.13211284
_symmetry_Int_Tables_number   1
_chemical_formula_structural   Ba5La3I19
_chemical_formula_sum   'Ba10 La6 I38'
_cell_volume   2836.41869636
_cell_formula_units_Z   2
loop_
 _symmetry_equiv_pos_site_id
 _symmetry_equiv_pos_as_xyz
  1  'x, y, z'
loop_
 _atom_site_type_symbol
 _atom_site_label
 _atom_site_symmetry_multiplicity
 _atom_site_fract_x
 _atom_site_fract_y
 _atom_site_fract_z
 _atom_site_occupancy
  Ba  Ba0  1  0.19795266  0.29445468  0.16343054  1
  Ba  Ba1  1  0.75491140  0.14035164  0.34560384  1
  Ba  Ba2  1  0.07444655  0.65288952  0.21117733  1
  Ba  Ba3  1  0.43740395  0.19028573  0.73780165  1
  Ba  Ba4  1  0.77745640  0.41341332  0.56954434  1
  Ba  Ba5  1  0.22254360  0.58658668  0.43045566  1
  Ba  Ba6  1  0.56259605  0.80971427  0.26219835  1
  Ba  Ba7  1  0.92555345  0.34711148  0.78882267  1
  Ba  Ba8  1  0.24508860  0.85964836  0.65439616  1
  Ba  Ba9  1  0.80204734  0.70554532  0.83656946  1
  La  La10  1  0.65498817  0.46754537  0.17787987  1
  La  La11  1  0.15529146  0.17601057  0.51092986  1
  La  La12  1  0.75782469  0.00519136  0.98756904  1
  La  La13  1  0.24217531  0.99480864  0.01243096  1
  La  La14  1  0.84470854  0.82398943  0.48907014  1
  La  La15  1  0.34501183  0.53245463  0.82212013  1
  I  I16  1  0.50000000  0.00000000  0.00000000  1
  I  I17  1  0.00000000  0.00000000  0.00000000  1
  I  I18  1  0.09604346  0.07260419  0.20424064  1
  I  I19  1  0.62492245  0.02945760  0.19268106  1
  I  I20  1  0.86920477  0.31595398  0.18761262  1
  I  I21  1  0.49840045  0.33724390  0.15053436  1
  I  I22  1  0.78094659  0.02696636  0.52007941  1
  I  I23  1  0.78493489  0.50807850  0.96715050  1
  I  I24  1  0.43383375  0.19588564  0.38850055  1
  I  I25  1  0.00711477  0.23889971  0.39477546  1
  I  I26  1  0.15162606  0.46447118  0.29670547  1
  I  I27  1  0.21322748  0.13159740  0.67429879  1
  I  I28  1  0.51535543  0.45965399  0.37725055  1
  I  I29  1  0.86629991  0.20477223  0.66102574  1
  I  I30  1  0.79959653  0.62562649  0.20197449  1
  I  I31  1  0.60234282  0.27319848  0.53294937  1
  I  I32  1  0.44350432  0.63201160  0.20631165  1
  I  I33  1  0.25709878  0.79815433  0.06438000  1
  I  I34  1  0.73291103  0.79861138  0.03527214  1
  I  I35  1  0.12817142  0.38207913  0.54915879  1
  I  I36  1  0.87182858  0.61792087  0.45084121  1
  I  I37  1  0.26708897  0.20138862  0.96472786  1
  I  I38  1  0.74290122  0.20184567  0.93562000  1
  I  I39  1  0.55649568  0.36798840  0.79368835  1
  I  I40  1  0.39765718  0.72680152  0.46705063  1
  I  I41  1  0.20040347  0.37437351  0.79802551  1
  I  I42  1  0.13370009  0.79522777  0.33897426  1
  I  I43  1  0.48464457  0.54034601  0.62274945  1
  I  I44  1  0.78677252  0.86840260  0.32570121  1
  I  I45  1  0.84837394  0.53552882  0.70329453  1
  I  I46  1  0.99288523  0.76110029  0.60522454  1
  I  I47  1  0.56616625  0.80411436  0.61149945  1
  I  I48  1  0.21506511  0.49192150  0.03284950  1
  I  I49  1  0.21905341  0.97303364  0.47992059  1
  I  I50  1  0.50159955  0.66275610  0.84946564  1
  I  I51  1  0.13079523  0.68404602  0.81238738  1
  I  I52  1  0.37507755  0.97054240  0.80731894  1
  I  I53  1  0.90395654  0.92739581  0.79575936  1
