# generated using pymatgen
data_Li4Cr3Fe5O16
_symmetry_space_group_name_H-M   'P 1'
_cell_length_a   5.88893179
_cell_length_b   5.90102961
_cell_length_c   9.56526352
_cell_angle_alpha   89.98854667
_cell_angle_beta   90.56084814
_cell_angle_gamma   119.57893165
_symmetry_Int_Tables_number   1
_chemical_formula_structural   Li4Cr3Fe5O16
_chemical_formula_sum   'Li4 Cr3 Fe5 O16'
_cell_volume   289.06267980
_cell_formula_units_Z   1
loop_
 _symmetry_equiv_pos_site_id
 _symmetry_equiv_pos_as_xyz
  1  'x, y, z'
loop_
 _atom_site_type_symbol
 _atom_site_label
 _atom_site_symmetry_multiplicity
 _atom_site_fract_x
 _atom_site_fract_y
 _atom_site_fract_z
 _atom_site_occupancy
  Li  Li0  1  0.32988129  0.66823277  0.89245042  1
  Li  Li1  1  0.00397017  0.99970619  0.99631685  1
  Li  Li2  1  0.00440046  0.00042996  0.49620356  1
  Li  Li3  1  0.66386684  0.33222391  0.39421181  1
  Cr  Cr4  1  0.17384331  0.83171721  0.21826572  1
  Cr  Cr5  1  0.16515376  0.33526567  0.21154825  1
  Cr  Cr6  1  0.34465445  0.16996222  0.71505477  1
  Fe  Fe7  1  0.33134551  0.66056602  0.49221074  1
  Fe  Fe8  1  0.66012863  0.82416976  0.21308758  1
  Fe  Fe9  1  0.66822898  0.34156756  0.98966845  1
  Fe  Fe10  1  0.83213886  0.66301876  0.71469514  1
  Fe  Fe11  1  0.83297879  0.16972393  0.71304494  1
  O  O12  1  0.16696720  0.83533249  0.60070154  1
  O  O13  1  0.03759886  0.51235163  0.33404552  1
  O  O14  1  0.31843429  0.66632700  0.10504215  1
  O  O15  1  0.00796776  0.99871239  0.30919343  1
  O  O16  1  0.01619032  0.00907224  0.81011691  1
  O  O17  1  0.17273362  0.32486200  0.59977073  1
  O  O18  1  0.46801317  0.95866944  0.33881128  1
  O  O19  1  0.47225907  0.51221459  0.33503754  1
  O  O20  1  0.32754672  0.17422496  0.10676598  1
  O  O21  1  0.67778863  0.83387321  0.60014084  1
  O  O22  1  0.51587018  0.48169672  0.83773056  1
  O  O23  1  0.50635031  0.03874423  0.83932138  1
  O  O24  1  0.65120269  0.32574157  0.60342221  1
  O  O25  1  0.84632780  0.67723701  0.09987709  1
  O  O26  1  0.96009367  0.48402212  0.83780837  1
  O  O27  1  0.84406468  0.17063443  0.10329724  1
