# generated using pymatgen
data_KSiPCO7
_symmetry_space_group_name_H-M   'P 1'
_cell_length_a   10.11097501
_cell_length_b   6.00884300
_cell_length_c   5.09732669
_cell_angle_alpha   90.00000000
_cell_angle_beta   88.77198170
_cell_angle_gamma   90.00000000
_symmetry_Int_Tables_number   1
_chemical_formula_structural   KSiPCO7
_chemical_formula_sum   'K2 Si2 P2 C2 O14'
_cell_volume   309.61828687
_cell_formula_units_Z   2
loop_
 _symmetry_equiv_pos_site_id
 _symmetry_equiv_pos_as_xyz
  1  'x, y, z'
loop_
 _atom_site_type_symbol
 _atom_site_label
 _atom_site_symmetry_multiplicity
 _atom_site_fract_x
 _atom_site_fract_y
 _atom_site_fract_z
 _atom_site_occupancy
  K  K0  1  0.20978721  0.36757265  0.24878234  1
  K  K1  1  0.79021279  0.86757265  0.75121766  1
  Si  Si2  1  0.35443266  0.77792128  0.76707175  1
  Si  Si3  1  0.64556734  0.27792128  0.23292825  1
  P  P4  1  0.44774416  0.27455493  0.73536730  1
  P  P5  1  0.55225584  0.77455493  0.26463270  1
  C  C6  1  0.13414668  0.74345475  0.71257431  1
  C  C7  1  0.86585332  0.24345475  0.28742569  1
  O  O8  1  0.98343190  0.20122956  0.31947354  1
  O  O9  1  0.19622158  0.76574692  0.94152940  1
  O  O10  1  0.22836769  0.76473609  0.52236640  1
  O  O11  1  0.35269453  0.07495580  0.76762936  1
  O  O12  1  0.35450447  0.47539171  0.76966687  1
  O  O13  1  0.44508224  0.77501915  0.05749506  1
  O  O14  1  0.50736273  0.27726615  0.45332765  1
  O  O15  1  0.49263727  0.77726615  0.54667235  1
  O  O16  1  0.55491776  0.27501915  0.94250494  1
  O  O17  1  0.64549553  0.97539171  0.23033313  1
  O  O18  1  0.64730547  0.57495580  0.23237064  1
  O  O19  1  0.77163231  0.26473609  0.47763360  1
  O  O20  1  0.80377842  0.26574692  0.05847060  1
  O  O21  1  0.01656810  0.70122956  0.68052646  1
