# generated using pymatgen
data_NbNi5(PO4)6
_symmetry_space_group_name_H-M   'P 1'
_cell_length_a   8.53345501
_cell_length_b   8.67895861
_cell_length_c   8.67895801
_cell_angle_alpha   60.00000224
_cell_angle_beta   59.43433849
_cell_angle_gamma   59.43434123
_symmetry_Int_Tables_number   1
_chemical_formula_structural   NbNi5(PO4)6
_chemical_formula_sum   'Nb1 Ni5 P6 O24'
_cell_volume   450.58685529
_cell_formula_units_Z   1
loop_
 _symmetry_equiv_pos_site_id
 _symmetry_equiv_pos_as_xyz
  1  'x, y, z'
loop_
 _atom_site_type_symbol
 _atom_site_label
 _atom_site_symmetry_multiplicity
 _atom_site_fract_x
 _atom_site_fract_y
 _atom_site_fract_z
 _atom_site_occupancy
  Nb  Nb0  1  0.56995794  0.14334769  0.14334769  1
  Ni  Ni1  1  0.01393525  0.99535492  0.99535492  1
  Ni  Ni2  1  0.07793641  0.64068820  0.64068820  1
  Ni  Ni3  1  0.50086264  0.49971312  0.49971312  1
  Ni  Ni4  1  0.43187270  0.85604210  0.85604210  1
  Ni  Ni5  1  0.92617690  0.35794137  0.35794137  1
  P  P6  1  0.24209980  0.25280413  0.55369587  1
  P  P7  1  0.24209980  0.95140021  0.25280413  1
  P  P8  1  0.24209980  0.55369587  0.95140021  1
  P  P9  1  0.75352322  0.45764489  0.04678276  1
  P  P10  1  0.75352322  0.04678276  0.74204913  1
  P  P11  1  0.75352322  0.74204913  0.45764489  1
  O  O12  1  0.06192339  0.10687402  0.32061266  1
  O  O13  1  0.06192339  0.51058993  0.10687402  1
  O  O14  1  0.06192339  0.32061266  0.51058993  1
  O  O15  1  0.22386331  0.09212892  0.74653591  1
  O  O16  1  0.42400603  0.17677843  0.38928455  1
  O  O17  1  0.28552644  0.40363109  0.55492357  1
  O  O18  1  0.22386331  0.93747086  0.09212892  1
  O  O19  1  0.28552644  0.75591989  0.40363109  1
  O  O20  1  0.56814243  0.60898146  0.00890801  1
  O  O21  1  0.28552644  0.55492357  0.75591989  1
  O  O22  1  0.77337271  0.25510388  0.06631029  1
  O  O23  1  0.56814243  0.00890801  0.81396811  1
  O  O24  1  0.42400603  0.00993099  0.17677843  1
  O  O25  1  0.22386331  0.74653591  0.93747086  1
  O  O26  1  0.72265768  0.44143083  0.24534039  1
  O  O27  1  0.42400603  0.38928455  0.00993099  1
  O  O28  1  0.72265768  0.24534039  0.59057210  1
  O  O29  1  0.77337271  0.06631029  0.90521213  1
  O  O30  1  0.72265768  0.59057210  0.44143083  1
  O  O31  1  0.56814243  0.81396811  0.60898146  1
  O  O32  1  0.77337271  0.90521213  0.25510388  1
  O  O33  1  0.93797238  0.67990469  0.49029375  1
  O  O34  1  0.93797238  0.49029375  0.89182917  1
  O  O35  1  0.93797238  0.89182917  0.67990469  1
