# generated using pymatgen
data_Sr3Fe2O4F3
_symmetry_space_group_name_H-M   'P 1'
_cell_length_a   4.03380734
_cell_length_b   4.03143156
_cell_length_c   10.94072631
_cell_angle_alpha   100.61220902
_cell_angle_beta   100.62064244
_cell_angle_gamma   90.00992907
_symmetry_Int_Tables_number   1
_chemical_formula_structural   Sr3Fe2O4F3
_chemical_formula_sum   'Sr3 Fe2 O4 F3'
_cell_volume   171.77220820
_cell_formula_units_Z   1
loop_
 _symmetry_equiv_pos_site_id
 _symmetry_equiv_pos_as_xyz
  1  'x, y, z'
loop_
 _atom_site_type_symbol
 _atom_site_label
 _atom_site_symmetry_multiplicity
 _atom_site_fract_x
 _atom_site_fract_y
 _atom_site_fract_z
 _atom_site_occupancy
  Sr  Sr0  1  0.49957906  0.49956756  0.99915345  1
  Sr  Sr1  1  0.67199789  0.67200159  0.34399975  1
  Sr  Sr2  1  0.32810585  0.32814460  0.65622080  1
  Fe  Fe3  1  0.90138233  0.90136124  0.80276454  1
  Fe  Fe4  1  0.09857730  0.09857264  0.19715417  1
  O  O5  1  0.90000360  0.39998848  0.80000850  1
  O  O6  1  0.60017864  0.10017891  0.20035437  1
  O  O7  1  0.09847527  0.59847654  0.19695784  1
  O  O8  1  0.40184131  0.90185296  0.80367223  1
  F  F9  1  0.00022425  0.00019414  0.00045836  1
  F  F10  1  0.79120079  0.79122558  0.58238238  1
  F  F11  1  0.20843371  0.20843576  0.41687360  1
