# generated using pymatgen
data_Sr2LaI7
_symmetry_space_group_name_H-M   'P 1'
_cell_length_a   7.90115087
_cell_length_b   17.59755963
_cell_length_c   11.95629582
_cell_angle_alpha   90.00000000
_cell_angle_beta   89.73832165
_cell_angle_gamma   90.00000000
_symmetry_Int_Tables_number   1
_chemical_formula_structural   Sr2LaI7
_chemical_formula_sum   'Sr8 La4 I28'
_cell_volume   1662.39767191
_cell_formula_units_Z   4
loop_
 _symmetry_equiv_pos_site_id
 _symmetry_equiv_pos_as_xyz
  1  'x, y, z'
loop_
 _atom_site_type_symbol
 _atom_site_label
 _atom_site_symmetry_multiplicity
 _atom_site_fract_x
 _atom_site_fract_y
 _atom_site_fract_z
 _atom_site_occupancy
  Sr  Sr0  1  0.28382977  0.56020874  0.67689281  1
  Sr  Sr1  1  0.29381644  0.21771986  0.55261363  1
  Sr  Sr2  1  0.28382977  0.93979126  0.17689281  1
  Sr  Sr3  1  0.29381644  0.28228014  0.05261363  1
  Sr  Sr4  1  0.70618356  0.71771986  0.94738637  1
  Sr  Sr5  1  0.71617023  0.06020874  0.82310719  1
  Sr  Sr6  1  0.70618356  0.78228014  0.44738637  1
  Sr  Sr7  1  0.71617023  0.43979126  0.32310719  1
  La  La8  1  0.21559001  0.86948740  0.72390193  1
  La  La9  1  0.21559001  0.63051260  0.22390193  1
  La  La10  1  0.78440999  0.36948740  0.77609807  1
  La  La11  1  0.78440999  0.13051260  0.27609807  1
  I  I12  1  0.00023493  0.21360719  0.77653537  1
  I  I13  1  0.00244964  0.39732972  0.55586267  1
  I  I14  1  0.00023493  0.28639281  0.27653537  1
  I  I15  1  0.00244964  0.10267028  0.05586267  1
  I  I16  1  0.14778838  0.42635571  0.87708964  1
  I  I17  1  0.14778838  0.07364429  0.37708964  1
  I  I18  1  0.30735079  0.64205679  0.96331835  1
  I  I19  1  0.30735079  0.85794321  0.46331835  1
  I  I20  1  0.31974108  0.04298418  0.70904629  1
  I  I21  1  0.31974108  0.45701582  0.20904629  1
  I  I22  1  0.50167841  0.89505274  0.92776684  1
  I  I23  1  0.50640818  0.73878236  0.69575426  1
  I  I24  1  0.50167841  0.60494726  0.42776684  1
  I  I25  1  0.50640818  0.76121764  0.19575426  1
  I  I26  1  0.49359182  0.23878236  0.80424574  1
  I  I27  1  0.49832159  0.39505174  0.57223316  1
  I  I28  1  0.49359182  0.26121764  0.30424574  1
  I  I29  1  0.49832159  0.10494726  0.07223316  1
  I  I30  1  0.68025892  0.54298418  0.79095371  1
  I  I31  1  0.68025892  0.95701582  0.29095371  1
  I  I32  1  0.69264921  0.14205679  0.53668165  1
  I  I33  1  0.69264921  0.35794321  0.03668165  1
  I  I34  1  0.85221162  0.92635571  0.62291036  1
  I  I35  1  0.85221162  0.57364429  0.12291036  1
  I  I36  1  0.99755036  0.89732972  0.94413733  1
  I  I37  1  0.99976507  0.71360719  0.72346463  1
  I  I38  1  0.99755036  0.60267028  0.44413733  1
  I  I39  1  0.99976507  0.78639281  0.22346463  1
