# generated using pymatgen
data_As5Pb3S10
_symmetry_space_group_name_H-M   'P 1'
_cell_length_a   25.59073796
_cell_length_b   8.75036912
_cell_length_c   8.60776204
_cell_angle_alpha   90.00000000
_cell_angle_beta   91.14385542
_cell_angle_gamma   90.00000000
_symmetry_Int_Tables_number   1
_chemical_formula_structural   As5Pb3S10
_chemical_formula_sum   'As20 Pb12 S40'
_cell_volume   1927.13830249
_cell_formula_units_Z   4
loop_
 _symmetry_equiv_pos_site_id
 _symmetry_equiv_pos_as_xyz
  1  'x, y, z'
loop_
 _atom_site_type_symbol
 _atom_site_label
 _atom_site_symmetry_multiplicity
 _atom_site_fract_x
 _atom_site_fract_y
 _atom_site_fract_z
 _atom_site_occupancy
  As  As0  1  0.09773867  0.15309144  0.50788109  1
  As  As1  1  0.09683368  0.14376883  0.06419286  1
  As  As2  1  0.18330229  0.44248420  0.28487027  1
  As  As3  1  0.18949627  0.83126292  0.61621977  1
  As  As4  1  0.17391171  0.81857652  0.99686822  1
  As  As5  1  0.31036374  0.67290640  0.63350780  1
  As  As6  1  0.32589055  0.68095055  0.26000703  1
  As  As7  1  0.31502565  0.05502987  0.96178385  1
  As  As8  1  0.40513390  0.35246390  0.74673696  1
  As  As9  1  0.40193234  0.35232881  0.18542214  1
  As  As10  1  0.59806766  0.85232881  0.81457786  1
  As  As11  1  0.59486610  0.85246390  0.25326304  1
  As  As12  1  0.68497435  0.55502987  0.03821615  1
  As  As13  1  0.67410945  0.18095055  0.73999297  1
  As  As14  1  0.68963626  0.17290640  0.36649220  1
  As  As15  1  0.82608829  0.31857652  0.00313178  1
  As  As16  1  0.81050373  0.33126292  0.38378023  1
  As  As17  1  0.81669771  0.94248420  0.71512973  1
  As  As18  1  0.90316632  0.64376883  0.93580714  1
  As  As19  1  0.90226133  0.65309144  0.49211891  1
  Pb  Pb20  1  0.04513877  0.79201541  0.76047334  1
  Pb  Pb21  1  0.03982979  0.78769754  0.26362638  1
  Pb  Pb22  1  0.17143806  0.48659060  0.73564318  1
  Pb  Pb23  1  0.33117228  0.01944254  0.51450523  1
  Pb  Pb24  1  0.45826917  0.70016092  0.48528669  1
  Pb  Pb25  1  0.45461625  0.71725261  0.99197772  1
  Pb  Pb26  1  0.54173083  0.20016092  0.51471331  1
  Pb  Pb27  1  0.54538375  0.21725261  0.00802228  1
  Pb  Pb28  1  0.66882772  0.51944254  0.48549477  1
  Pb  Pb29  1  0.82856194  0.98659060  0.26435682  1
  Pb  Pb30  1  0.96017021  0.28769754  0.73637362  1
  Pb  Pb31  1  0.95486123  0.29201541  0.23952666  1
  S  S32  1  0.02292914  0.01391594  0.49707511  1
  S  S33  1  0.01928434  0.02055916  0.02604004  1
  S  S34  1  0.08085972  0.31045933  0.27763485  1
  S  S35  1  0.07510951  0.31199440  0.69722311  1
  S  S36  1  0.11378131  0.63313287  0.99163085  1
  S  S37  1  0.12282188  0.67692367  0.52543368  1
  S  S38  1  0.14168193  0.96717488  0.21249947  1
  S  S39  1  0.14482016  0.97412689  0.79996432  1
  S  S40  1  0.22542396  0.33201760  0.07719185  1
  S  S41  1  0.22030111  0.32769541  0.47352832  1
  S  S42  1  0.28001585  0.17517712  0.77331641  1
  S  S43  1  0.27100295  0.15980170  0.16722893  1
  S  S44  1  0.35501683  0.52425514  0.45484960  1
  S  S45  1  0.35733850  0.53188741  0.03841916  1
  S  S46  1  0.37635212  0.82635382  0.72749846  1
  S  S47  1  0.38641988  0.86561277  0.25646193  1
  S  S48  1  0.42683275  0.19063615  0.55913311  1
  S  S49  1  0.42185183  0.19238243  0.97150305  1
  S  S50  1  0.47969542  0.49518558  0.75531378  1
  S  S51  1  0.47863332  0.47578367  0.22750072  1
  S  S52  1  0.52136668  0.97578367  0.77249928  1
  S  S53  1  0.52030458  0.99518558  0.24468622  1
  S  S54  1  0.57814817  0.69238243  0.02849695  1
  S  S55  1  0.57316725  0.69063615  0.44086689  1
  S  S56  1  0.61358012  0.36561277  0.74353807  1
  S  S57  1  0.62364788  0.32635382  0.27250154  1
  S  S58  1  0.64266150  0.03188741  0.96158084  1
  S  S59  1  0.64498417  0.02425514  0.54515040  1
  S  S60  1  0.72899705  0.65980170  0.83277107  1
  S  S61  1  0.71998415  0.67517712  0.22668359  1
  S  S62  1  0.77969889  0.82769541  0.52647168  1
  S  S63  1  0.77457604  0.83201760  0.92280815  1
  S  S64  1  0.85517984  0.47412689  0.20003568  1
  S  S65  1  0.85831807  0.46717488  0.78750053  1
  S  S66  1  0.87717812  0.17692367  0.47456632  1
  S  S67  1  0.88621869  0.13313287  0.00836915  1
  S  S68  1  0.92489049  0.81199440  0.30277689  1
  S  S69  1  0.91914028  0.81045933  0.72236515  1
  S  S70  1  0.97707086  0.51391594  0.50292489  1
  S  S71  1  0.98071566  0.52055916  0.97395996  1
