# generated using pymatgen
data_Li2CuCSO7
_symmetry_space_group_name_H-M   'P 1'
_cell_length_a   8.47538413
_cell_length_b   6.50404352
_cell_length_c   5.00279421
_cell_angle_alpha   90.00000000
_cell_angle_beta   87.02411179
_cell_angle_gamma   90.00000000
_symmetry_Int_Tables_number   1
_chemical_formula_structural   Li2CuCSO7
_chemical_formula_sum   'Li4 Cu2 C2 S2 O14'
_cell_volume   275.40347392
_cell_formula_units_Z   2
loop_
 _symmetry_equiv_pos_site_id
 _symmetry_equiv_pos_as_xyz
  1  'x, y, z'
loop_
 _atom_site_type_symbol
 _atom_site_label
 _atom_site_symmetry_multiplicity
 _atom_site_fract_x
 _atom_site_fract_y
 _atom_site_fract_z
 _atom_site_occupancy
  Li  Li0  1  0.21121249  0.98469475  0.22430717  1
  Li  Li1  1  0.21121249  0.51530525  0.22430717  1
  Li  Li2  1  0.78878751  0.48469475  0.77569283  1
  Li  Li3  1  0.78878751  0.01530525  0.77569283  1
  Cu  Cu4  1  0.35473940  0.75000000  0.76828268  1
  Cu  Cu5  1  0.64526060  0.25000000  0.23171732  1
  C  C6  1  0.05959084  0.75000000  0.72180660  1
  C  C7  1  0.94040916  0.25000000  0.27819340  1
  S  S8  1  0.41898232  0.25000000  0.71596074  1
  S  S9  1  0.58101768  0.75000000  0.28403926  1
  O  O10  1  0.09018453  0.25000000  0.27268243  1
  O  O11  1  0.13671915  0.75000000  0.94472446  1
  O  O12  1  0.14880133  0.75000000  0.50326836  1
  O  O13  1  0.33024023  0.06725055  0.81600037  1
  O  O14  1  0.33024023  0.43274945  0.81600037  1
  O  O15  1  0.41658483  0.75000000  0.19277858  1
  O  O16  1  0.42981019  0.25000000  0.41263736  1
  O  O17  1  0.57018981  0.75000000  0.58736264  1
  O  O18  1  0.58341517  0.25000000  0.80722142  1
  O  O19  1  0.66975977  0.56725055  0.18399963  1
  O  O20  1  0.66975977  0.93274945  0.18399963  1
  O  O21  1  0.85119867  0.25000000  0.49673164  1
  O  O22  1  0.86328085  0.25000000  0.05527554  1
  O  O23  1  0.90981547  0.75000000  0.72731757  1
