# generated using pymatgen
data_TiNi5(PO4)6
_symmetry_space_group_name_H-M   'P 1'
_cell_length_a   8.50543298
_cell_length_b   8.62224092
_cell_length_c   8.62224095
_cell_angle_alpha   59.99999577
_cell_angle_beta   59.54465199
_cell_angle_gamma   59.54465287
_symmetry_Int_Tables_number   1
_chemical_formula_structural   TiNi5(PO4)6
_chemical_formula_sum   'Ti1 Ni5 P6 O24'
_cell_volume   444.01548590
_cell_formula_units_Z   1
loop_
 _symmetry_equiv_pos_site_id
 _symmetry_equiv_pos_as_xyz
  1  'x, y, z'
loop_
 _atom_site_type_symbol
 _atom_site_label
 _atom_site_symmetry_multiplicity
 _atom_site_fract_x
 _atom_site_fract_y
 _atom_site_fract_z
 _atom_site_occupancy
  Ti  Ti0  1  0.56353832  0.14548723  0.14548723  1
  Ni  Ni1  1  0.00260631  0.99913123  0.99913123  1
  Ni  Ni2  1  0.07929586  0.64023505  0.64023505  1
  Ni  Ni3  1  0.50296465  0.49901145  0.49901145  1
  Ni  Ni4  1  0.42773772  0.85742109  0.85742109  1
  Ni  Ni5  1  0.92681545  0.35772818  0.35772818  1
  P  P6  1  0.24864848  0.25092756  0.54786387  1
  P  P7  1  0.24864848  0.95256010  0.25092756  1
  P  P8  1  0.24864848  0.54786387  0.95256010  1
  P  P9  1  0.75170055  0.45342406  0.04660123  1
  P  P10  1  0.75170055  0.04660123  0.74827315  1
  P  P11  1  0.75170055  0.74827315  0.45342406  1
  O  O12  1  0.06236911  0.10175358  0.32871828  1
  O  O13  1  0.06236911  0.50716004  0.10175358  1
  O  O14  1  0.06236911  0.32871828  0.50716004  1
  O  O15  1  0.22171844  0.08988280  0.74321352  1
  O  O16  1  0.42582573  0.17600274  0.38559739  1
  O  O17  1  0.28952043  0.40158522  0.55544932  1
  O  O18  1  0.22171844  0.94518524  0.08988280  1
  O  O19  1  0.28952043  0.75344504  0.40158522  1
  O  O20  1  0.56832224  0.60955753  0.00705329  1
  O  O21  1  0.28952043  0.55544932  0.75344504  1
  O  O22  1  0.77150490  0.25360161  0.06344268  1
  O  O23  1  0.56832224  0.00705329  0.81506694  1
  O  O24  1  0.42582573  0.01257414  0.17600274  1
  O  O25  1  0.22171844  0.74321352  0.94518524  1
  O  O26  1  0.72161916  0.43644294  0.24775595  1
  O  O27  1  0.42582573  0.38559739  0.01257414  1
  O  O28  1  0.72161916  0.24775595  0.59418196  1
  O  O29  1  0.77150490  0.06344268  0.91145081  1
  O  O30  1  0.72161916  0.59418196  0.43644294  1
  O  O31  1  0.56832224  0.81506694  0.60955753  1
  O  O32  1  0.77150490  0.91145081  0.25360161  1
  O  O33  1  0.93778421  0.67870135  0.48907641  1
  O  O34  1  0.93778421  0.48907641  0.89443703  1
  O  O35  1  0.93778421  0.89443703  0.67870135  1
