# generated using pymatgen
data_LiVSnO4
_symmetry_space_group_name_H-M   'P 1'
_cell_length_a   6.12065935
_cell_length_b   6.11200867
_cell_length_c   8.67141376
_cell_angle_alpha   90.01318459
_cell_angle_beta   90.00432907
_cell_angle_gamma   89.98432832
_symmetry_Int_Tables_number   1
_chemical_formula_structural   LiVSnO4
_chemical_formula_sum   'Li4 V4 Sn4 O16'
_cell_volume   324.39343097
_cell_formula_units_Z   4
loop_
 _symmetry_equiv_pos_site_id
 _symmetry_equiv_pos_as_xyz
  1  'x, y, z'
loop_
 _atom_site_type_symbol
 _atom_site_label
 _atom_site_symmetry_multiplicity
 _atom_site_fract_x
 _atom_site_fract_y
 _atom_site_fract_z
 _atom_site_occupancy
  Li  Li0  1  0.00054482  0.23078328  0.99961260  1
  Li  Li1  1  0.00048396  0.76922073  0.50038337  1
  Li  Li2  1  0.23159832  0.99998853  0.25002813  1
  Li  Li3  1  0.76857264  0.99998745  0.74989936  1
  V  V4  1  0.24030826  0.50005575  0.25000358  1
  V  V5  1  0.49900003  0.23886903  0.99886848  1
  V  V6  1  0.49890436  0.76104559  0.50112606  1
  V  V7  1  0.75915386  0.50003917  0.75009269  1
  Sn  Sn8  1  0.25317065  0.25334111  0.62687590  1
  Sn  Sn9  1  0.25309987  0.74667145  0.87327151  1
  Sn  Sn10  1  0.74672225  0.25167858  0.37495009  1
  Sn  Sn11  1  0.74675054  0.74827787  0.12499023  1
  O  O12  1  0.01831859  0.26108770  0.25144797  1
  O  O13  1  0.01822799  0.73887960  0.24868680  1
  O  O14  1  0.26057984  0.01819338  0.99881076  1
  O  O15  1  0.26069353  0.98183936  0.50110021  1
  O  O16  1  0.26300996  0.48105534  0.01124420  1
  O  O17  1  0.26287644  0.51865063  0.48879386  1
  O  O18  1  0.48101573  0.26282828  0.23941720  1
  O  O19  1  0.48089115  0.73711729  0.26041208  1
  O  O20  1  0.51817885  0.25956785  0.76074440  1
  O  O21  1  0.51835720  0.74038792  0.73951698  1
  O  O22  1  0.73725660  0.51835249  0.51482053  1
  O  O23  1  0.73740580  0.48160498  0.98506258  1
  O  O24  1  0.73919943  0.01938233  0.00171177  1
  O  O25  1  0.73938979  0.98102204  0.49841229  1
  O  O26  1  0.98311054  0.25928228  0.74792055  1
  O  O27  1  0.98317898  0.74078998  0.75179581  1
