# generated using pymatgen
data_CaNb2CuBrO7
_symmetry_space_group_name_H-M   'P 1'
_cell_length_a   3.95723570
_cell_length_b   3.95796012
_cell_length_c   11.56943355
_cell_angle_alpha   89.99927361
_cell_angle_beta   90.00072793
_cell_angle_gamma   89.99151798
_symmetry_Int_Tables_number   1
_chemical_formula_structural   CaNb2CuBrO7
_chemical_formula_sum   'Ca1 Nb2 Cu1 Br1 O7'
_cell_volume   181.20718917
_cell_formula_units_Z   1
loop_
 _symmetry_equiv_pos_site_id
 _symmetry_equiv_pos_as_xyz
  1  'x, y, z'
loop_
 _atom_site_type_symbol
 _atom_site_label
 _atom_site_symmetry_multiplicity
 _atom_site_fract_x
 _atom_site_fract_y
 _atom_site_fract_z
 _atom_site_occupancy
  Ca  Ca0  1  0.99996136  0.99995053  0.99999623  1
  Nb  Nb1  1  0.50000051  0.50000751  0.81580236  1
  Nb  Nb2  1  0.50000707  0.50000221  0.18419967  1
  Cu  Cu3  1  0.50000835  0.49999676  0.50000618  1
  Br  Br4  1  0.00000174  0.99999885  0.49999883  1
  O  O5  1  0.00000385  0.50000410  0.15435183  1
  O  O6  1  0.49999738  0.00000628  0.15428266  1
  O  O7  1  0.50000313  0.50000369  0.34481336  1
  O  O8  1  0.49999448  0.00000668  0.84571575  1
  O  O9  1  0.00000224  0.49999333  0.84564496  1
  O  O10  1  0.50000525  0.50000536  0.65518852  1
  O  O11  1  0.50001363  0.50002469  -0.00000035  1
