# generated using pymatgen
data_Li2CrNiO4
_symmetry_space_group_name_H-M   'P 1'
_cell_length_a   5.15330692
_cell_length_b   5.15330716
_cell_length_c   5.15330721
_cell_angle_alpha   133.80404787
_cell_angle_beta   133.80404685
_cell_angle_gamma   67.39422589
_symmetry_Int_Tables_number   1
_chemical_formula_structural   Li2CrNiO4
_chemical_formula_sum   'Li2 Cr1 Ni1 O4'
_cell_volume   70.09368576
_cell_formula_units_Z   1
loop_
 _symmetry_equiv_pos_site_id
 _symmetry_equiv_pos_as_xyz
  1  'x, y, z'
loop_
 _atom_site_type_symbol
 _atom_site_label
 _atom_site_symmetry_multiplicity
 _atom_site_fract_x
 _atom_site_fract_y
 _atom_site_fract_z
 _atom_site_occupancy
  Li  Li0  1  0.25000000  0.75000000  0.50000000  1
  Li  Li1  1  0.50000000  0.50000000  0.00000000  1
  Cr  Cr2  1  0.75000000  0.25000000  0.50000000  1
  Ni  Ni3  1  0.00000000  0.00000000  0.00000000  1
  O  O4  1  0.51751595  0.01751595  0.50000000  1
  O  O5  1  0.23017625  0.23017625  0.00000000  1
  O  O6  1  0.98248405  0.48248405  0.50000000  1
  O  O7  1  0.76982375  0.76982375  0.00000000  1
