# generated using pymatgen
data_Na6CoO4
_symmetry_space_group_name_H-M   'P 1'
_cell_length_a   9.32449930
_cell_length_b   9.32449930
_cell_length_c   9.32449930
_cell_angle_alpha   109.47122063
_cell_angle_beta   109.47122063
_cell_angle_gamma   109.47122063
_symmetry_Int_Tables_number   1
_chemical_formula_structural   Na6CoO4
_chemical_formula_sum   'Na24 Co4 O16'
_cell_volume   624.10070200
_cell_formula_units_Z   4
loop_
 _symmetry_equiv_pos_site_id
 _symmetry_equiv_pos_as_xyz
  1  'x, y, z'
loop_
 _atom_site_type_symbol
 _atom_site_label
 _atom_site_symmetry_multiplicity
 _atom_site_fract_x
 _atom_site_fract_y
 _atom_site_fract_z
 _atom_site_occupancy
  Na  Na0  1  0.73346952  0.46247730  0.00000000  1
  Na  Na1  1  0.73346952  0.00000000  0.46247730  1
  Na  Na2  1  0.43069923  0.21594010  0.00000000  1
  Na  Na3  1  0.43069923  0.00000000  0.21594010  1
  Na  Na4  1  0.72900779  0.26653048  0.26653048  1
  Na  Na5  1  0.78405990  0.78405990  0.21476013  1
  Na  Na6  1  0.78405990  0.21476013  0.78405990  1
  Na  Na7  1  0.21594010  0.43069923  0.00000000  1
  Na  Na8  1  0.21594010  0.00000000  0.43069923  1
  Na  Na9  1  0.53752270  0.27099221  0.53752270  1
  Na  Na10  1  0.53752270  0.53752270  0.27099221  1
  Na  Na11  1  0.46247730  0.73346952  0.00000000  1
  Na  Na12  1  0.46247730  0.00000000  0.73346952  1
  Na  Na13  1  0.78523987  0.56930077  0.56930077  1
  Na  Na14  1  0.00000000  0.43069923  0.21594010  1
  Na  Na15  1  0.00000000  0.21594010  0.43069923  1
  Na  Na16  1  0.26653048  0.72900779  0.26653048  1
  Na  Na17  1  0.26653048  0.26653048  0.72900779  1
  Na  Na18  1  0.56930077  0.78523987  0.56930077  1
  Na  Na19  1  0.56930077  0.56930077  0.78523987  1
  Na  Na20  1  0.27099221  0.53752270  0.53752270  1
  Na  Na21  1  0.00000000  0.73346952  0.46247730  1
  Na  Na22  1  0.00000000  0.46247730  0.73346952  1
  Na  Na23  1  0.21476013  0.78405990  0.78405990  1
  Co  Co24  1  0.74723760  0.00000000  0.00000000  1
  Co  Co25  1  0.25276240  0.25276240  0.25276240  1
  Co  Co26  1  0.00000000  0.74723760  0.00000000  1
  Co  Co27  1  0.00000000  0.00000000  0.74723760  1
  O  O28  1  0.72210201  0.20984864  0.00000000  1
  O  O29  1  0.72210201  0.00000000  0.20984864  1
  O  O30  1  0.00000000  0.00000000  0.00000000  1
  O  O31  1  0.50000000  0.50000000  0.00000000  1
  O  O32  1  0.50000000  0.00000000  0.50000000  1
  O  O33  1  0.48774763  0.27789799  0.27789799  1
  O  O34  1  0.79015136  0.51225237  0.79015136  1
  O  O35  1  0.79015136  0.79015136  0.51225237  1
  O  O36  1  0.20984864  0.72210201  0.00000000  1
  O  O37  1  0.20984864  0.00000000  0.72210201  1
  O  O38  1  0.27789799  0.48774763  0.27789799  1
  O  O39  1  0.27789799  0.27789799  0.48774763  1
  O  O40  1  0.00000000  0.72210201  0.20984864  1
  O  O41  1  0.00000000  0.20984864  0.72210201  1
  O  O42  1  0.00000000  0.50000000  0.50000000  1
  O  O43  1  0.51225237  0.79015136  0.79015136  1
