# generated using pymatgen
data_Li4Mn3F10
_symmetry_space_group_name_H-M   'P 1'
_cell_length_a   7.92719761
_cell_length_b   5.19631027
_cell_length_c   5.50635922
_cell_angle_alpha   78.06474645
_cell_angle_beta   67.62461018
_cell_angle_gamma   96.91304641
_symmetry_Int_Tables_number   1
_chemical_formula_structural   Li4Mn3F10
_chemical_formula_sum   'Li4 Mn3 F10'
_cell_volume   200.17725902
_cell_formula_units_Z   1
loop_
 _symmetry_equiv_pos_site_id
 _symmetry_equiv_pos_as_xyz
  1  'x, y, z'
loop_
 _atom_site_type_symbol
 _atom_site_label
 _atom_site_symmetry_multiplicity
 _atom_site_fract_x
 _atom_site_fract_y
 _atom_site_fract_z
 _atom_site_occupancy
  Li  Li0  1  0.34776794  0.00868193  0.94819533  1
  Li  Li1  1  0.20391183  0.49229857  0.15800266  1
  Li  Li2  1  0.79608817  0.50770143  0.84199734  1
  Li  Li3  1  0.65223206  0.99131807  0.05180467  1
  Mn  Mn4  1  0.14427001  0.82205267  0.61429039  1
  Mn  Mn5  1  0.50000000  0.50000000  0.50000000  1
  Mn  Mn6  1  0.85572999  0.17794733  0.38570961  1
  F  F7  1  0.15582550  0.10592334  0.24763935  1
  F  F8  1  0.00000000  0.50000000  0.50000000  1
  F  F9  1  0.00000000  0.50000000  0.00000000  1
  F  F10  1  0.26785487  0.17122125  0.67627437  1
  F  F11  1  0.35938656  0.69901812  0.79058396  1
  F  F12  1  0.38971149  0.75310063  0.24841442  1
  F  F13  1  0.61028851  0.24689937  0.75158558  1
  F  F14  1  0.64061344  0.30098188  0.20941604  1
  F  F15  1  0.73214513  0.82877875  0.32372563  1
  F  F16  1  0.84417450  0.89407666  0.75236065  1
