# generated using pymatgen
data_Li6Cr3Sb3O16
_symmetry_space_group_name_H-M   'P 1'
_cell_length_a   6.04712783
_cell_length_b   6.07551999
_cell_length_c   10.02636874
_cell_angle_alpha   89.99937253
_cell_angle_beta   89.85032074
_cell_angle_gamma   120.15568282
_symmetry_Int_Tables_number   1
_chemical_formula_structural   Li6Cr3Sb3O16
_chemical_formula_sum   'Li6 Cr3 Sb3 O16'
_cell_volume   318.50882688
_cell_formula_units_Z   1
loop_
 _symmetry_equiv_pos_site_id
 _symmetry_equiv_pos_as_xyz
  1  'x, y, z'
loop_
 _atom_site_type_symbol
 _atom_site_label
 _atom_site_symmetry_multiplicity
 _atom_site_fract_x
 _atom_site_fract_y
 _atom_site_fract_z
 _atom_site_occupancy
  Li  Li0  1  0.32002917  0.66003514  0.50084861  1
  Li  Li1  1  0.34128039  0.67065384  0.88868052  1
  Li  Li2  1  0.02029699  0.01015666  0.00396229  1
  Li  Li3  1  0.02234430  0.01119087  0.49694277  1
  Li  Li4  1  0.66010669  0.33008043  0.00015340  1
  Li  Li5  1  0.66558384  0.33280831  0.37987566  1
  Cr  Cr6  1  0.16495159  0.83058072  0.21547405  1
  Cr  Cr7  1  0.16494961  0.33438501  0.21546362  1
  Cr  Cr8  1  0.33470686  0.16731385  0.71615991  1
  Sb  Sb9  1  0.65946690  0.82974936  0.21529289  1
  Sb  Sb10  1  0.83004405  0.66267197  0.71599406  1
  Sb  Sb11  1  0.83005753  0.16739315  0.71599605  1
  O  O12  1  0.14657482  0.83933844  0.60909354  1
  O  O13  1  0.03170660  0.51586910  0.31176535  1
  O  O14  1  0.33195842  0.66600539  0.10487839  1
  O  O15  1  0.99696637  0.99850155  0.31774269  1
  O  O16  1  0.99960172  0.99980035  0.82272856  1
  O  O17  1  0.14656907  0.30724326  0.60909490  1
  O  O18  1  0.47640237  0.96763520  0.32297428  1
  O  O19  1  0.47640995  0.50879268  0.32297025  1
  O  O20  1  0.30463360  0.15233540  0.12036891  1
  O  O21  1  0.69072057  0.84537468  0.60379348  1
  O  O22  1  0.51889067  0.49032175  0.82479827  1
  O  O23  1  0.51890417  0.02859046  0.82480946  1
  O  O24  1  0.66532116  0.33267098  0.60236666  1
  O  O25  1  0.85283304  0.69632239  0.10895017  1
  O  O26  1  0.97587360  0.48794010  0.82771644  1
  O  O27  1  0.85281694  0.15653996  0.10894384  1
