# generated using pymatgen
data_Li2CuP3H8O13
_symmetry_space_group_name_H-M   'P 1'
_cell_length_a   6.72217231
_cell_length_b   9.25941097
_cell_length_c   10.10586138
_cell_angle_alpha   94.22039992
_cell_angle_beta   104.75758596
_cell_angle_gamma   107.15220095
_symmetry_Int_Tables_number   1
_chemical_formula_structural   Li2CuP3H8O13
_chemical_formula_sum   'Li4 Cu2 P6 H16 O26'
_cell_volume   573.64221302
_cell_formula_units_Z   2
loop_
 _symmetry_equiv_pos_site_id
 _symmetry_equiv_pos_as_xyz
  1  'x, y, z'
loop_
 _atom_site_type_symbol
 _atom_site_label
 _atom_site_symmetry_multiplicity
 _atom_site_fract_x
 _atom_site_fract_y
 _atom_site_fract_z
 _atom_site_occupancy
  Li  Li0  1  0.20806380  0.65935392  0.95670266  1
  Li  Li1  1  0.55040365  0.93760201  0.84728883  1
  Li  Li2  1  0.44959635  0.06239799  0.15271117  1
  Li  Li3  1  0.79193620  0.34064608  0.04329734  1
  Cu  Cu4  1  0.63945900  0.75648399  0.60258722  1
  Cu  Cu5  1  0.36054100  0.24351601  0.39741278  1
  P  P6  1  0.08331213  0.98129462  0.83030337  1
  P  P7  1  0.27515606  0.29891689  0.97092512  1
  P  P8  1  0.17750759  0.22544081  0.66959852  1
  P  P9  1  0.82249241  0.77455919  0.33040148  1
  P  P10  1  0.72484394  0.70108311  0.02907488  1
  P  P11  1  0.91668787  0.01870538  0.16969663  1
  H  H12  1  0.03775054  0.45766373  0.68411486  1
  H  H13  1  0.26191411  0.79931152  0.54897871  1
  H  H14  1  0.26157743  0.69596659  0.66385133  1
  H  H15  1  0.08273277  0.42531569  0.31220173  1
  H  H16  1  0.20860798  0.80217561  0.25216546  1
  H  H17  1  0.43573785  0.79012332  0.27633756  1
  H  H18  1  0.33355142  0.44304155  0.21904917  1
  H  H19  1  0.52302164  0.44882992  0.63891432  1
  H  H20  1  0.47697836  0.55117008  0.36108568  1
  H  H21  1  0.66644858  0.55695845  0.78095083  1
  H  H22  1  0.56426215  0.20987668  0.72366244  1
  H  H23  1  0.79139202  0.19782439  0.74783454  1
  H  H24  1  0.91726723  0.57468431  0.68779827  1
  H  H25  1  0.73842257  0.30403341  0.33614867  1
  H  H26  1  0.73808589  0.20068848  0.45102129  1
  H  H27  1  0.96224946  0.54233627  0.31588514  1
  O  O28  1  0.25736812  0.91949670  0.90301443  1
  O  O29  1  0.06599679  0.56665735  0.71750016  1
  O  O30  1  0.04248916  0.75543260  0.38266339  1
  O  O31  1  0.08497333  0.13334017  0.92248773  1
  O  O32  1  0.35762176  0.78607956  0.63586275  1
  O  O33  1  0.30585081  0.33225178  0.81914473  1
  O  O34  1  0.15683726  0.05415959  0.70005881  1
  O  O35  1  0.51796124  0.71916402  0.94313439  1
  O  O36  1  0.32596372  0.81755858  0.20756358  1
  O  O37  1  0.18117586  0.41073150  0.02482999  1
  O  O38  1  0.34040932  0.26542127  0.58838791  1
  O  O39  1  0.15156518  0.11490541  0.21714693  1
  O  O40  1  0.35834749  0.45307669  0.32040485  1
  O  O41  1  0.64165251  0.54692331  0.67959515  1
  O  O42  1  0.84843482  0.88509459  0.78285307  1
  O  O43  1  0.65959068  0.73457873  0.41161209  1
  O  O44  1  0.81882414  0.58926850  0.97517001  1
  O  O45  1  0.67403628  0.18244142  0.79243642  1
  O  O46  1  0.48203876  0.28083598  0.05686561  1
  O  O47  1  0.84316274  0.94584041  0.29994119  1
  O  O48  1  0.69414919  0.66774822  0.18085527  1
  O  O49  1  0.64237824  0.21392044  0.36413725  1
  O  O50  1  0.91502667  0.86665983  0.07751227  1
  O  O51  1  0.95751084  0.24456740  0.61733661  1
  O  O52  1  0.93400321  0.43334265  0.28249984  1
  O  O53  1  0.74263188  0.08050330  0.09698557  1
