# generated using pymatgen
data_LiCr4O12
_symmetry_space_group_name_H-M   'P 1'
_cell_length_a   8.54567033
_cell_length_b   15.63254400
_cell_length_c   8.54567033
_cell_angle_alpha   74.13751496
_cell_angle_beta   90.00000000
_cell_angle_gamma   105.86248504
_symmetry_Int_Tables_number   1
_chemical_formula_structural   LiCr4O12
_chemical_formula_sum   'Li4 Cr16 O48'
_cell_volume   1052.88279570
_cell_formula_units_Z   4
loop_
 _symmetry_equiv_pos_site_id
 _symmetry_equiv_pos_as_xyz
  1  'x, y, z'
loop_
 _atom_site_type_symbol
 _atom_site_label
 _atom_site_symmetry_multiplicity
 _atom_site_fract_x
 _atom_site_fract_y
 _atom_site_fract_z
 _atom_site_occupancy
  Li  Li0  1  0.12483639  0.74967178  0.12516361  1
  Li  Li1  1  0.37483639  0.24967178  0.37516361  1
  Li  Li2  1  0.62516361  0.75032822  0.62483639  1
  Li  Li3  1  0.87516361  0.25032822  0.87483639  1
  Cr  Cr4  1  0.15917487  0.10073960  0.09465530  1
  Cr  Cr5  1  0.40534470  0.60073960  0.05843527  1
  Cr  Cr6  1  0.09058997  0.39609013  0.15956937  1
  Cr  Cr7  1  0.65956937  0.10390987  0.30549916  1
  Cr  Cr8  1  0.55843527  0.89926040  0.19539490  1
  Cr  Cr9  1  0.94434150  0.10390987  0.59058997  1
  Cr  Cr10  1  0.80549916  0.39609013  0.44434150  1
  Cr  Cr11  1  0.69539490  0.60073960  0.34082513  1
  Cr  Cr12  1  0.30460510  0.39926040  0.65917487  1
  Cr  Cr13  1  0.19450084  0.60390987  0.55565850  1
  Cr  Cr14  1  0.05565850  0.89609013  0.40941003  1
  Cr  Cr15  1  0.44156473  0.10073960  0.80460510  1
  Cr  Cr16  1  0.34043063  0.89609013  0.69450084  1
  Cr  Cr17  1  0.90941003  0.60390987  0.84043063  1
  Cr  Cr18  1  0.59465530  0.39926040  0.94156473  1
  Cr  Cr19  1  0.84082513  0.89926040  0.90534470  1
  O  O20  1  0.99111188  0.35971344  0.01922577  1
  O  O21  1  0.76896667  0.17833165  0.14804679  1
  O  O22  1  0.06279767  0.00093973  0.24756546  1
  O  O23  1  0.26833591  0.17819801  0.16961588  1
  O  O24  1  0.49471589  0.36082805  0.11795667  1
  O  O25  1  0.25243454  0.50093973  0.06185694  1
  O  O26  1  0.17362156  0.32166835  0.26896667  1
  O  O27  1  0.33038412  0.67819801  0.09013790  1
  O  O28  1  0.51922577  0.14028656  0.36860156  1
  O  O29  1  0.97878373  0.86082805  0.00528411  1
  O  O30  1  0.96204590  0.42409181  0.28795410  1
  O  O31  1  0.71275670  0.92551340  0.03724330  1
  O  O32  1  0.53724330  0.57448660  0.21275670  1
  O  O33  1  0.78795410  0.07590819  0.46204590  1
  O  O34  1  0.38204333  0.86082805  0.13388883  1
  O  O35  1  0.12106078  0.14028656  0.49111188  1
  O  O36  1  0.84781389  0.67819801  0.23166409  1
  O  O37  1  0.64804679  0.32166835  0.40936599  1
  O  O38  1  0.74850519  0.50093973  0.43720233  1
  O  O39  1  0.36611117  0.36082805  0.52121627  1
  O  O40  1  0.13139844  0.64028656  0.37893922  1
  O  O41  1  0.40986210  0.17819801  0.65218611  1
  O  O42  1  0.09063401  0.82166835  0.32637844  1
  O  O43  1  0.43814306  0.00093973  0.75149481  1
  O  O44  1  0.56185694  0.99906027  0.24850519  1
  O  O45  1  0.90936599  0.17833165  0.67362156  1
  O  O46  1  0.59013790  0.82180199  0.34781389  1
  O  O47  1  0.86860156  0.35971344  0.62106078  1
  O  O48  1  0.63388883  0.63917195  0.47878373  1
  O  O49  1  0.25149481  0.49906027  0.56279767  1
  O  O50  1  0.35195321  0.67833165  0.59063401  1
  O  O51  1  0.15218611  0.32180199  0.76833591  1
  O  O52  1  0.87893922  0.85971344  0.50888812  1
  O  O53  1  0.61795667  0.13917195  0.86611117  1
  O  O54  1  0.21204590  0.92409181  0.53795410  1
  O  O55  1  0.03795410  0.57590819  0.71204590  1
  O  O56  1  0.28724330  0.07448660  0.96275670  1
  O  O57  1  0.46275670  0.42551340  0.78724330  1
  O  O58  1  0.02121627  0.13917195  0.99471589  1
  O  O59  1  0.48077423  0.85971344  0.63139844  1
  O  O60  1  0.66961588  0.32180199  0.90986210  1
  O  O61  1  0.82637844  0.67833165  0.73103333  1
  O  O62  1  0.74756546  0.49906027  0.93814306  1
  O  O63  1  0.50528411  0.63917195  0.88204333  1
  O  O64  1  0.73166409  0.82180199  0.83038412  1
  O  O65  1  0.93720233  0.99906027  0.75243454  1
  O  O66  1  0.23103333  0.82166835  0.85195321  1
  O  O67  1  0.00888812  0.64028656  0.98077423  1
