# generated using pymatgen
data_Mn3V2Cr3O16
_symmetry_space_group_name_H-M   'P 1'
_cell_length_a   5.87299476
_cell_length_b   5.87517174
_cell_length_c   8.83445864
_cell_angle_alpha   90.00905312
_cell_angle_beta   89.51567491
_cell_angle_gamma   119.66746692
_symmetry_Int_Tables_number   1
_chemical_formula_structural   Mn3V2Cr3O16
_chemical_formula_sum   'Mn3 V2 Cr3 O16'
_cell_volume   264.85982510
_cell_formula_units_Z   1
loop_
 _symmetry_equiv_pos_site_id
 _symmetry_equiv_pos_as_xyz
  1  'x, y, z'
loop_
 _atom_site_type_symbol
 _atom_site_label
 _atom_site_symmetry_multiplicity
 _atom_site_fract_x
 _atom_site_fract_y
 _atom_site_fract_z
 _atom_site_occupancy
  Mn  Mn0  1  0.65622576  0.82789952  0.20951946  1
  Mn  Mn1  1  0.82833152  0.65983359  0.71302045  1
  Mn  Mn2  1  0.82820455  0.16811883  0.71275627  1
  V  V3  1  0.33263173  0.66496593  0.50212561  1
  V  V4  1  0.66262511  0.33021981  0.00113688  1
  Cr  Cr5  1  0.16386926  0.82302219  0.21964997  1
  Cr  Cr6  1  0.16929649  0.33938367  0.20890826  1
  Cr  Cr7  1  0.33792752  0.16875193  0.71250952  1
  O  O8  1  0.17391614  0.82385257  0.59639166  1
  O  O9  1  0.05118155  0.53230118  0.34358519  1
  O  O10  1  0.33689911  0.67819977  0.10040434  1
  O  O11  1  0.99555996  0.98960760  0.30367167  1
  O  O12  1  0.98935068  0.99448207  0.81225598  1
  O  O13  1  0.17336606  0.34993367  0.59501875  1
  O  O14  1  0.47866384  0.95310357  0.33932473  1
  O  O15  1  0.48125543  0.53111239  0.33912000  1
  O  O16  1  0.35083772  0.17227933  0.09435118  1
  O  O17  1  0.65255808  0.82697664  0.59692565  1
  O  O18  1  0.52990505  0.48174405  0.84129930  1
  O  O19  1  0.53076518  0.04876147  0.84111434  1
  O  O20  1  0.67632287  0.33850525  0.60185773  1
  O  O21  1  0.82358884  0.64712385  0.09712155  1
  O  O22  1  0.95422166  0.47633396  0.83705778  1
  O  O23  1  0.82249689  0.17368416  0.09659471  1
