# generated using pymatgen
data_C3S2(OF2)2
_symmetry_space_group_name_H-M   'P 1'
_cell_length_a   5.40378232
_cell_length_b   6.37145400
_cell_length_c   24.01801549
_cell_angle_alpha   90.00000000
_cell_angle_beta   90.00000000
_cell_angle_gamma   113.25260724
_symmetry_Int_Tables_number   1
_chemical_formula_structural   C3S2(OF2)2
_chemical_formula_sum   'C12 S8 O8 F16'
_cell_volume   759.76950793
_cell_formula_units_Z   4
loop_
 _symmetry_equiv_pos_site_id
 _symmetry_equiv_pos_as_xyz
  1  'x, y, z'
loop_
 _atom_site_type_symbol
 _atom_site_label
 _atom_site_symmetry_multiplicity
 _atom_site_fract_x
 _atom_site_fract_y
 _atom_site_fract_z
 _atom_site_occupancy
  C  C0  1  0.23881213  0.72510434  0.06151631  1
  C  C1  1  0.76118787  0.27489566  0.93848369  1
  C  C2  1  0.26118787  0.77489566  0.56151631  1
  C  C3  1  0.73881213  0.22510434  0.43848369  1
  C  C4  1  0.07154986  0.88237666  0.32062911  1
  C  C5  1  0.92845014  0.11762334  0.67937089  1
  C  C6  1  0.42845014  0.61762334  0.82062911  1
  C  C7  1  0.57154986  0.38237666  0.17937089  1
  C  C8  1  0.33515010  0.83702706  0.11987149  1
  C  C9  1  0.66484990  0.16297294  0.88012851  1
  C  C10  1  0.16484990  0.66297294  0.61987149  1
  C  C11  1  0.83515010  0.33702706  0.38012851  1
  S  S12  1  0.21927292  0.68578747  0.30487819  1
  S  S13  1  0.78072708  0.31421253  0.69512181  1
  S  S14  1  0.28072708  0.81421253  0.80487819  1
  S  S15  1  0.71927292  0.18578747  0.19512181  1
  S  S16  1  0.81668191  0.47184796  0.61956789  1
  S  S17  1  0.18331809  0.52815204  0.38043211  1
  S  S18  1  0.68331809  0.02815204  0.11956789  1
  S  S19  1  0.31668191  0.97184796  0.88043211  1
  O  O20  1  0.95560640  0.90165890  0.36150794  1
  O  O21  1  0.04439360  0.09834110  0.63849206  1
  O  O22  1  0.54439360  0.59834110  0.86150794  1
  O  O23  1  0.45560640  0.40165890  0.13849206  1
  O  O24  1  0.17731962  0.80342245  0.15803232  1
  O  O25  1  0.82268038  0.19657755  0.84196768  1
  O  O26  1  0.32268038  0.69657755  0.65803232  1
  O  O27  1  0.67731962  0.30342245  0.34196768  1
  F  F28  1  0.60398594  0.52046772  0.22517702  1
  F  F29  1  0.39601406  0.47953228  0.77482298  1
  F  F30  1  0.89601406  0.97953228  0.72517702  1
  F  F31  1  0.10398594  0.02046772  0.27482298  1
  F  F32  1  0.03496419  0.51832578  0.06668985  1
  F  F33  1  0.96503581  0.48167422  0.93331015  1
  F  F34  1  0.46503581  0.98167422  0.56668985  1
  F  F35  1  0.53496419  0.01832578  0.43331015  1
  F  F36  1  0.05834765  0.79795670  0.53231765  1
  F  F37  1  0.94165235  0.20204330  0.46768235  1
  F  F38  1  0.44165235  0.70204330  0.03231765  1
  F  F39  1  0.55834765  0.29795670  0.96768235  1
  F  F40  1  0.14591057  0.86129432  0.03172560  1
  F  F41  1  0.85408943  0.13870568  0.96827440  1
  F  F42  1  0.35408943  0.63870568  0.53172560  1
  F  F43  1  0.64591057  0.36129432  0.46827440  1
