# generated using pymatgen
data_Li4Cr2TeWO12
_symmetry_space_group_name_H-M   'P 1'
_cell_length_a   5.34732053
_cell_length_b   10.69453986
_cell_length_c   9.38460049
_cell_angle_alpha   28.49768299
_cell_angle_beta   51.77239804
_cell_angle_gamma   57.01616805
_symmetry_Int_Tables_number   1
_chemical_formula_structural   Li4Cr2TeWO12
_chemical_formula_sum   'Li4 Cr2 Te1 W1 O12'
_cell_volume   201.15131313
_cell_formula_units_Z   1
loop_
 _symmetry_equiv_pos_site_id
 _symmetry_equiv_pos_as_xyz
  1  'x, y, z'
loop_
 _atom_site_type_symbol
 _atom_site_label
 _atom_site_symmetry_multiplicity
 _atom_site_fract_x
 _atom_site_fract_y
 _atom_site_fract_z
 _atom_site_occupancy
  Li  Li0  1  0.28815380  0.00510357  0.27903332  1
  Li  Li1  1  0.28236716  0.49514243  0.29106084  1
  Li  Li2  1  0.77473095  0.99883266  0.78239156  1
  Li  Li3  1  0.78591469  0.49983878  0.78098699  1
  Cr  Cr4  1  0.49636793  0.99900974  0.50600080  1
  Cr  Cr5  1  0.51059246  0.50431727  0.49452244  1
  Te  Te6  1  0.00161211  0.49943455  0.99950746  1
  W  W7  1  0.99931424  0.00398406  0.00055308  1
  O  O8  1  0.37523119  0.30278694  0.12402166  1
  O  O9  1  0.24317218  0.10997552  0.63632636  1
  O  O10  1  0.13509238  0.31440424  0.73417577  1
  O  O11  1  0.87575098  0.20035848  0.22636156  1
  O  O12  1  0.36071739  0.80325813  0.13338047  1
  O  O13  1  0.73330162  0.37420759  0.37307404  1
  O  O14  1  0.23364672  0.62861644  0.62079864  1
  O  O15  1  0.63570592  0.18702395  0.86199461  1
  O  O16  1  0.11886391  0.81612887  0.74024502  1
  O  O17  1  0.86083102  0.68944985  0.24943863  1
  O  O18  1  0.73829511  0.88440589  0.36429881  1
  O  O19  1  0.62153926  0.68372104  0.87302893  1
