# generated using pymatgen
data_YNb2NO5
_symmetry_space_group_name_H-M   'P 1'
_cell_length_a   15.00866285
_cell_length_b   5.93516134
_cell_length_c   5.28814266
_cell_angle_alpha   90.24490978
_cell_angle_beta   89.77478791
_cell_angle_gamma   90.29280398
_symmetry_Int_Tables_number   1
_chemical_formula_structural   YNb2NO5
_chemical_formula_sum   'Y4 Nb8 N4 O20'
_cell_volume   471.04753697
_cell_formula_units_Z   4
loop_
 _symmetry_equiv_pos_site_id
 _symmetry_equiv_pos_as_xyz
  1  'x, y, z'
loop_
 _atom_site_type_symbol
 _atom_site_label
 _atom_site_symmetry_multiplicity
 _atom_site_fract_x
 _atom_site_fract_y
 _atom_site_fract_z
 _atom_site_occupancy
  Y  Y0  1  0.00386879  0.29762042  0.25045167  1
  Y  Y1  1  0.00022660  0.70312943  0.75951676  1
  Y  Y2  1  0.49700903  0.20965394  0.76085109  1
  Y  Y3  1  0.50129421  0.79956659  0.25380155  1
  Nb  Nb4  1  0.16937134  0.17662029  0.71497600  1
  Nb  Nb5  1  0.17053897  0.82306743  0.23372340  1
  Nb  Nb6  1  0.33004472  0.31756225  0.22865862  1
  Nb  Nb7  1  0.33882214  0.67792570  0.74668091  1
  Nb  Nb8  1  0.66790356  0.32469903  0.26821934  1
  Nb  Nb9  1  0.66425497  0.69621439  0.78308879  1
  Nb  Nb10  1  0.83289747  0.17801735  0.76608422  1
  Nb  Nb11  1  0.83699100  0.80711054  0.28215273  1
  N  N12  1  0.23992274  0.12529762  0.39787768  1
  N  N13  1  0.40166831  0.58314426  0.03155211  1
  N  N14  1  0.58338958  0.89890870  0.89748666  1
  N  N15  1  0.91822824  0.60753906  0.39736605  1
  O  O16  1  0.08562689  0.60976007  0.10344113  1
  O  O17  1  0.08345707  0.38557806  0.60611427  1
  O  O18  1  0.09630381  0.07266707  0.02305285  1
  O  O19  1  0.09567768  0.90938314  0.53203528  1
  O  O20  1  0.24282327  0.86910099  0.90155829  1
  O  O21  1  0.25320649  0.62525353  0.39454249  1
  O  O22  1  0.25397572  0.36536373  0.90218569  1
  O  O23  1  0.39812992  0.41522289  0.53345469  1
  O  O24  1  0.41491102  0.10942157  0.10617379  1
  O  O25  1  0.41703997  0.89346367  0.60145457  1
  O  O26  1  0.58207371  0.12563276  0.39851435  1
  O  O27  1  0.59967129  0.41763526  0.96629463  1
  O  O28  1  0.60168476  0.58831240  0.46527348  1
  O  O29  1  0.74680877  0.35916297  0.58410771  1
  O  O30  1  0.74236292  0.62715674  0.10305324  1
  O  O31  1  0.75390892  0.14349778  0.08376183  1
  O  O32  1  0.75836725  0.87626007  0.60168873  1
  O  O33  1  0.90208335  0.08736609  0.46334541  1
  O  O34  1  0.89772626  0.91375675  0.96046097  1
  O  O35  1  0.91773028  0.37992948  0.89699602  1
