# generated using pymatgen
data_LiNbCrO4
_symmetry_space_group_name_H-M   'P 1'
_cell_length_a   5.94337966
_cell_length_b   6.11167622
_cell_length_c   6.11167622
_cell_angle_alpha   60.78228607
_cell_angle_beta   60.90680791
_cell_angle_gamma   60.90680794
_symmetry_Int_Tables_number   1
_chemical_formula_structural   LiNbCrO4
_chemical_formula_sum   'Li2 Nb2 Cr2 O8'
_cell_volume   160.04004473
_cell_formula_units_Z   2
loop_
 _symmetry_equiv_pos_site_id
 _symmetry_equiv_pos_as_xyz
  1  'x, y, z'
loop_
 _atom_site_type_symbol
 _atom_site_label
 _atom_site_symmetry_multiplicity
 _atom_site_fract_x
 _atom_site_fract_y
 _atom_site_fract_z
 _atom_site_occupancy
  Li  Li0  1  0.12887260  0.12112740  0.12112740  1
  Li  Li1  1  0.87112740  0.87887260  0.87887260  1
  Nb  Nb2  1  0.00000000  0.50000000  0.50000000  1
  Nb  Nb3  1  0.50000000  0.50000000  0.50000000  1
  Cr  Cr4  1  0.50000000  0.00000000  0.50000000  1
  Cr  Cr5  1  0.50000000  0.50000000  0.00000000  1
  O  O6  1  0.25673035  0.26700266  0.26700266  1
  O  O7  1  0.26734871  0.24255524  0.72274734  1
  O  O8  1  0.26734871  0.72274734  0.24255524  1
  O  O9  1  0.70926433  0.26700266  0.26700266  1
  O  O10  1  0.29073567  0.73299734  0.73299734  1
  O  O11  1  0.73265129  0.75744476  0.27725266  1
  O  O12  1  0.73265129  0.27725266  0.75744476  1
  O  O13  1  0.74326965  0.73299734  0.73299734  1
