# generated using pymatgen
data_Li4Nb3Co3(TeO8)2
_symmetry_space_group_name_H-M   'P 1'
_cell_length_a   6.17225145
_cell_length_b   6.11527880
_cell_length_c   10.51760331
_cell_angle_alpha   90.01722081
_cell_angle_beta   90.70062068
_cell_angle_gamma   119.73684235
_symmetry_Int_Tables_number   1
_chemical_formula_structural   Li4Nb3Co3(TeO8)2
_chemical_formula_sum   'Li4 Nb3 Co3 Te2 O16'
_cell_volume   344.67413218
_cell_formula_units_Z   1
loop_
 _symmetry_equiv_pos_site_id
 _symmetry_equiv_pos_as_xyz
  1  'x, y, z'
loop_
 _atom_site_type_symbol
 _atom_site_label
 _atom_site_symmetry_multiplicity
 _atom_site_fract_x
 _atom_site_fract_y
 _atom_site_fract_z
 _atom_site_occupancy
  Li  Li0  1  0.32926648  0.66425869  0.90517526  1
  Li  Li1  1  0.00360341  0.00226672  0.99790202  1
  Li  Li2  1  0.01257224  0.00640543  0.48305058  1
  Li  Li3  1  0.67229943  0.33621062  0.40111410  1
  Nb  Nb4  1  0.63812171  0.81899757  0.23454839  1
  Nb  Nb5  1  0.80520021  0.65045930  0.71884368  1
  Nb  Nb6  1  0.80561750  0.15457474  0.71903516  1
  Co  Co7  1  0.17185063  0.82799472  0.21482214  1
  Co  Co8  1  0.17203605  0.34412606  0.21486372  1
  Co  Co9  1  0.37175552  0.18621659  0.70850206  1
  Te  Te10  1  0.27389834  0.63705347  0.49609874  1
  Te  Te11  1  0.65445927  0.32714498  0.01818768  1
  O  O12  1  0.13696667  0.81887599  0.58955303  1
  O  O13  1  0.03525844  0.51765396  0.35212743  1
  O  O14  1  0.35441015  0.67683679  0.10742088  1
  O  O15  1  0.98982302  0.99517896  0.29835287  1
  O  O16  1  0.99599791  0.99820524  0.81010815  1
  O  O17  1  0.13715611  0.31857080  0.58965339  1
  O  O18  1  0.50893384  0.98629516  0.33359836  1
  O  O19  1  0.50912723  0.52321495  0.33409556  1
  O  O20  1  0.33108055  0.16538772  0.10290718  1
  O  O21  1  0.71373056  0.85665643  0.60364650  1
  O  O22  1  0.52643288  0.52264090  0.82645538  1
  O  O23  1  0.52616843  0.00315008  0.82618407  1
  O  O24  1  0.69772976  0.34855198  0.59740603  1
  O  O25  1  0.82653787  0.66005158  0.10278857  1
  O  O26  1  0.97345904  0.48679812  0.81880563  1
  O  O27  1  0.82650677  0.16652347  0.10259544  1
