# generated using pymatgen
data_Li4CrBi(TeO6)2
_symmetry_space_group_name_H-M   'P 1'
_cell_length_a   5.48819165
_cell_length_b   5.22317848
_cell_length_c   7.58922919
_cell_angle_alpha   90.09768564
_cell_angle_beta   94.06721745
_cell_angle_gamma   90.13367374
_symmetry_Int_Tables_number   1
_chemical_formula_structural   Li4CrBi(TeO6)2
_chemical_formula_sum   'Li4 Cr1 Bi1 Te2 O12'
_cell_volume   217.00249148
_cell_formula_units_Z   1
loop_
 _symmetry_equiv_pos_site_id
 _symmetry_equiv_pos_as_xyz
  1  'x, y, z'
loop_
 _atom_site_type_symbol
 _atom_site_label
 _atom_site_symmetry_multiplicity
 _atom_site_fract_x
 _atom_site_fract_y
 _atom_site_fract_z
 _atom_site_occupancy
  Li  Li0  1  0.95638208  0.49093533  0.24965553  1
  Li  Li1  1  0.94328409  0.50211115  0.80787574  1
  Li  Li2  1  0.40512197  0.00639907  0.81405601  1
  Li  Li3  1  0.41277247  -0.00002539  0.26403154  1
  Cr  Cr4  1  0.99009512  0.00089723  0.00117850  1
  Bi  Bi5  1  0.49615818  0.49844760  0.50572224  1
  Te  Te6  1  0.99556711  0.99893166  0.50031264  1
  Te  Te7  1  0.50049326  0.50096429  0.00156517  1
  O  O8  1  0.81068646  0.67873300  0.04993286  1
  O  O9  1  0.85063128  0.32507710  0.56500078  1
  O  O10  1  0.69083636  0.83243309  0.41695691  1
  O  O11  1  0.69316663  0.21207568  0.92795560  1
  O  O12  1  0.53310689  0.35953510  0.24265303  1
  O  O13  1  0.51490185  0.64807381  0.76192847  1
  O  O14  1  0.31894074  0.80414056  0.05258318  1
  O  O15  1  0.32322693  0.14524300  0.56512340  1
  O  O16  1  0.17225597  0.69618322  0.41389977  1
  O  O17  1  0.21017930  0.30481297  0.93285024  1
  O  O18  1  0.03095865  0.12369456  0.26022719  1
  O  O19  1  0.00883767  0.87133597  0.73769121  1
