# generated using pymatgen
data_Mn3Fe3(TeO8)2
_symmetry_space_group_name_H-M   'P 1'
_cell_length_a   5.99018461
_cell_length_b   6.01350616
_cell_length_c   9.24349927
_cell_angle_alpha   89.04317446
_cell_angle_beta   89.16296028
_cell_angle_gamma   119.61754364
_symmetry_Int_Tables_number   1
_chemical_formula_structural   Mn3Fe3(TeO8)2
_chemical_formula_sum   'Mn3 Fe3 Te2 O16'
_cell_volume   289.32438649
_cell_formula_units_Z   1
loop_
 _symmetry_equiv_pos_site_id
 _symmetry_equiv_pos_as_xyz
  1  'x, y, z'
loop_
 _atom_site_type_symbol
 _atom_site_label
 _atom_site_symmetry_multiplicity
 _atom_site_fract_x
 _atom_site_fract_y
 _atom_site_fract_z
 _atom_site_occupancy
  Mn  Mn0  1  0.65514834  0.82497220  0.21056026  1
  Mn  Mn1  1  0.82571683  0.65684273  0.71170712  1
  Mn  Mn2  1  0.83145038  0.16492322  0.70446937  1
  Fe  Fe3  1  0.16052149  0.82690456  0.20634909  1
  Fe  Fe4  1  0.16244109  0.33468326  0.20968056  1
  Fe  Fe5  1  0.33500348  0.16176129  0.71044627  1
  Te  Te6  1  0.33368870  0.66311356  0.48672849  1
  Te  Te7  1  0.66429964  0.33397955  0.98694473  1
  O  O8  1  0.17625596  0.82518443  0.60052515  1
  O  O9  1  0.04921232  0.52431789  0.35355910  1
  O  O10  1  0.34440927  0.67359549  0.10672970  1
  O  O11  1  0.98335324  0.98933546  0.29839921  1
  O  O12  1  0.98533295  0.98805452  0.79714264  1
  O  O13  1  0.18067901  0.34678247  0.59883963  1
  O  O14  1  0.49100970  0.95597694  0.34294869  1
  O  O15  1  0.49082050  0.53150962  0.34238665  1
  O  O16  1  0.34610736  0.17726825  0.09813950  1
  O  O17  1  0.64778836  0.81145672  0.59796079  1
  O  O18  1  0.52978620  0.49010616  0.84298855  1
  O  O19  1  0.52531106  0.05075585  0.85129653  1
  O  O20  1  0.68142132  0.34430111  0.61004113  1
  O  O21  1  0.81751227  0.64906051  0.10105242  1
  O  O22  1  0.95920530  0.50148629  0.84733365  1
  O  O23  1  0.82352524  0.17382690  0.09948677  1
