# generated using pymatgen
data_Sc2(PO4)3
_symmetry_space_group_name_H-M   'P 1'
_cell_length_a   9.08050666
_cell_length_b   12.59030238
_cell_length_c   9.12322208
_cell_angle_alpha   90.00000000
_cell_angle_beta   90.00000000
_cell_angle_gamma   90.26006280
_symmetry_Int_Tables_number   1
_chemical_formula_structural   Sc2(PO4)3
_chemical_formula_sum   'Sc8 P12 O48'
_cell_volume   1043.01370535
_cell_formula_units_Z   4
loop_
 _symmetry_equiv_pos_site_id
 _symmetry_equiv_pos_as_xyz
  1  'x, y, z'
loop_
 _atom_site_type_symbol
 _atom_site_label
 _atom_site_symmetry_multiplicity
 _atom_site_fract_x
 _atom_site_fract_y
 _atom_site_fract_z
 _atom_site_occupancy
  Sc  Sc0  1  0.25199730  0.11973611  0.46245584  1
  Sc  Sc1  1  0.25066371  0.87903813  0.03640987  1
  Sc  Sc2  1  0.24933629  0.62096187  0.53640987  1
  Sc  Sc3  1  0.24800270  0.38026389  0.96245584  1
  Sc  Sc4  1  0.75199730  0.61973611  0.03754416  1
  Sc  Sc5  1  0.75066371  0.37903813  0.46359013  1
  Sc  Sc6  1  0.74933629  0.12096187  0.96359013  1
  Sc  Sc7  1  0.74800270  0.88026389  0.53754416  1
  P  P8  1  0.03351905  0.49814675  0.25029284  1
  P  P9  1  0.10414361  0.85645651  0.39116231  1
  P  P10  1  0.10607826  0.14223976  0.10595770  1
  P  P11  1  0.39392174  0.35776024  0.60595770  1
  P  P12  1  0.39585639  0.64354349  0.89116231  1
  P  P13  1  0.46648095  0.00185325  0.75029284  1
  P  P14  1  0.53351905  0.99814675  0.24970716  1
  P  P15  1  0.60414361  0.35645651  0.10883769  1
  P  P16  1  0.60607826  0.64223976  0.39404230  1
  P  P17  1  0.89392174  0.85776024  0.89404230  1
  P  P18  1  0.89585639  0.14354349  0.60883769  1
  P  P19  1  0.96648095  0.50185325  0.74970716  1
  O  O20  1  0.06341690  0.42594041  0.83997814  1
  O  O21  1  0.06475847  0.58115864  0.66524774  1
  O  O22  1  0.06289247  0.85781382  0.90890546  1
  O  O23  1  0.06333433  0.14848454  0.58378724  1
  O  O24  1  0.12620087  0.56246503  0.35998994  1
  O  O25  1  0.13897426  0.83618901  0.22837472  1
  O  O26  1  0.13749511  0.43836459  0.14669894  1
  O  O27  1  0.16094655  0.96849224  0.42988762  1
  O  O28  1  0.16560606  0.03219952  0.06287455  1
  O  O29  1  0.14975970  0.16311368  0.26640615  1
  O  O30  1  0.17264725  0.22777739  0.00584318  1
  O  O31  1  0.18092575  0.77386350  0.48829947  1
  O  O32  1  0.31907425  0.72613650  0.98829947  1
  O  O33  1  0.32735275  0.27222261  0.50584318  1
  O  O34  1  0.35024030  0.33688632  0.76640615  1
  O  O35  1  0.33439394  0.46780048  0.56287455  1
  O  O36  1  0.33905345  0.53150776  0.92988762  1
  O  O37  1  0.36250489  0.06163541  0.64669894  1
  O  O38  1  0.36102574  0.66381099  0.72837472  1
  O  O39  1  0.37379913  0.93753497  0.85998994  1
  O  O40  1  0.43666567  0.35151546  0.08378724  1
  O  O41  1  0.43710753  0.64218618  0.40890546  1
  O  O42  1  0.43524153  0.91884136  0.16524774  1
  O  O43  1  0.43658310  0.07405959  0.33997814  1
  O  O44  1  0.56341690  0.92594041  0.66002186  1
  O  O45  1  0.56475847  0.08115864  0.83475226  1
  O  O46  1  0.56289247  0.35781382  0.59109454  1
  O  O47  1  0.56333433  0.64848454  0.91621276  1
  O  O48  1  0.62620087  0.06246503  0.14001006  1
  O  O49  1  0.63897426  0.33618901  0.27162528  1
  O  O50  1  0.63749511  0.93836459  0.35330106  1
  O  O51  1  0.66094655  0.46849224  0.07011238  1
  O  O52  1  0.66560606  0.53219952  0.43712545  1
  O  O53  1  0.64975970  0.66311368  0.23359385  1
  O  O54  1  0.67264725  0.72777739  0.49415682  1
  O  O55  1  0.68092575  0.27386350  0.01170053  1
  O  O56  1  0.81907425  0.22613650  0.51170053  1
  O  O57  1  0.82735275  0.77222261  0.99415682  1
  O  O58  1  0.85024030  0.83688632  0.73359385  1
  O  O59  1  0.83439394  0.96780048  0.93712545  1
  O  O60  1  0.83905345  0.03150776  0.57011238  1
  O  O61  1  0.86250489  0.56163541  0.85330106  1
  O  O62  1  0.86102574  0.16381099  0.77162528  1
  O  O63  1  0.87379913  0.43753497  0.64001006  1
  O  O64  1  0.93666567  0.85151546  0.41621276  1
  O  O65  1  0.93710753  0.14218618  0.09109454  1
  O  O66  1  0.93524153  0.41884136  0.33475226  1
  O  O67  1  0.93658310  0.57405959  0.16002186  1
