# generated using pymatgen
data_SrNb3NO7
_symmetry_space_group_name_H-M   'P 1'
_cell_length_a   9.00618497
_cell_length_b   10.59758563
_cell_length_c   3.83407700
_cell_angle_alpha   79.68089629
_cell_angle_beta   89.98337783
_cell_angle_gamma   90.40867306
_symmetry_Int_Tables_number   1
_chemical_formula_structural   SrNb3NO7
_chemical_formula_sum   'Sr2 Nb6 N2 O14'
_cell_volume   360.01039818
_cell_formula_units_Z   2
loop_
 _symmetry_equiv_pos_site_id
 _symmetry_equiv_pos_as_xyz
  1  'x, y, z'
loop_
 _atom_site_type_symbol
 _atom_site_label
 _atom_site_symmetry_multiplicity
 _atom_site_fract_x
 _atom_site_fract_y
 _atom_site_fract_z
 _atom_site_occupancy
  Sr  Sr0  1  0.24913761  0.96157295  0.02044050  1
  Sr  Sr1  1  0.75000435  0.03461535  0.98772195  1
  Nb  Nb2  1  0.06155893  0.25304553  0.37531993  1
  Nb  Nb3  1  0.24934155  0.48423506  0.75928820  1
  Nb  Nb4  1  0.45578608  0.26837586  0.36685767  1
  Nb  Nb5  1  0.56230041  0.75242237  0.62614387  1
  Nb  Nb6  1  0.76865894  0.53217595  0.23418268  1
  Nb  Nb7  1  0.93552910  0.75209801  0.62523176  1
  N  N8  1  0.74626178  0.85451524  0.57449137  1
  N  N9  1  0.90618169  0.68886963  0.15661891  1
  O  O10  1  0.07985556  0.87962114  0.55875096  1
  O  O11  1  0.08741397  0.30140709  0.84943458  1
  O  O12  1  0.09636760  0.59610076  0.70348138  1
  O  O13  1  0.25039455  0.41864109  0.29159905  1
  O  O14  1  0.24379040  0.14972481  0.42106886  1
  O  O15  1  0.40755535  0.59172683  0.70506941  1
  O  O16  1  0.40251666  0.29587912  0.85199353  1
  O  O17  1  0.41558454  0.87618988  0.56505398  1
  O  O18  1  0.57932324  0.12921879  0.44033207  1
  O  O19  1  0.58530758  0.69755586  0.15351920  1
  O  O20  1  0.59264597  0.40518320  0.29576832  1
  O  O21  1  0.73453757  0.57360513  0.71389271  1
  O  O22  1  0.90802229  0.40303525  0.29857909  1
  O  O23  1  0.92118628  0.12583808  0.44303905  1
