# generated using pymatgen
data_Li3CuS3
_symmetry_space_group_name_H-M   'P 1'
_cell_length_a   10.78597665
_cell_length_b   10.78597665
_cell_length_c   4.49166332
_cell_angle_alpha   90.00000000
_cell_angle_beta   90.00000000
_cell_angle_gamma   90.00000000
_symmetry_Int_Tables_number   1
_chemical_formula_structural   Li3CuS3
_chemical_formula_sum   'Li12 Cu4 S12'
_cell_volume   522.54794855
_cell_formula_units_Z   4
loop_
 _symmetry_equiv_pos_site_id
 _symmetry_equiv_pos_as_xyz
  1  'x, y, z'
loop_
 _atom_site_type_symbol
 _atom_site_label
 _atom_site_symmetry_multiplicity
 _atom_site_fract_x
 _atom_site_fract_y
 _atom_site_fract_z
 _atom_site_occupancy
  Li  Li0  1  0.10951850  0.35893358  0.50000000  1
  Li  Li1  1  0.14106642  0.60951850  0.00000000  1
  Li  Li2  1  0.16189975  0.16189975  0.00000000  1
  Li  Li3  1  0.33810025  0.66189975  0.50000000  1
  Li  Li4  1  0.35893358  0.10951850  0.50000000  1
  Li  Li5  1  0.39048150  0.85893358  0.00000000  1
  Li  Li6  1  0.60951850  0.14106642  0.00000000  1
  Li  Li7  1  0.64106642  0.89048150  0.50000000  1
  Li  Li8  1  0.66189975  0.33810025  0.50000000  1
  Li  Li9  1  0.83810025  0.83810025  0.00000000  1
  Li  Li10  1  0.85893358  0.39048150  0.00000000  1
  Li  Li11  1  0.89048150  0.64106642  0.50000000  1
  Cu  Cu12  1  0.11290435  0.88709565  0.50000000  1
  Cu  Cu13  1  0.38709565  0.38709565  0.00000000  1
  Cu  Cu14  1  0.61290435  0.61290435  0.00000000  1
  Cu  Cu15  1  0.88709565  0.11290435  0.50000000  1
  S  S16  1  0.09468663  0.09468663  0.50000000  1
  S  S17  1  0.11092937  0.67972380  0.50000000  1
  S  S18  1  0.17972380  0.38907063  0.00000000  1
  S  S19  1  0.32027620  0.88907063  0.50000000  1
  S  S20  1  0.38907063  0.17972380  0.00000000  1
  S  S21  1  0.40531337  0.59468663  0.00000000  1
  S  S22  1  0.59468663  0.40531337  0.00000000  1
  S  S23  1  0.61092937  0.82027620  0.00000000  1
  S  S24  1  0.67972380  0.11092937  0.50000000  1
  S  S25  1  0.82027620  0.61092937  0.00000000  1
  S  S26  1  0.88907063  0.32027620  0.50000000  1
  S  S27  1  0.90531337  0.90531337  0.50000000  1
