# generated using pymatgen
data_Mn5(SeO3)8
_symmetry_space_group_name_H-M   'P 1'
_cell_length_a   14.28839370
_cell_length_b   8.13868875
_cell_length_c   10.46814139
_cell_angle_alpha   72.03600181
_cell_angle_beta   98.61113763
_cell_angle_gamma   96.88857414
_symmetry_Int_Tables_number   1
_chemical_formula_structural   Mn5(SeO3)8
_chemical_formula_sum   'Mn10 Se16 O48'
_cell_volume   1141.40349147
_cell_formula_units_Z   2
loop_
 _symmetry_equiv_pos_site_id
 _symmetry_equiv_pos_as_xyz
  1  'x, y, z'
loop_
 _atom_site_type_symbol
 _atom_site_label
 _atom_site_symmetry_multiplicity
 _atom_site_fract_x
 _atom_site_fract_y
 _atom_site_fract_z
 _atom_site_occupancy
  Mn  Mn0  1  0.99836611  0.00166132  0.99599927  1
  Mn  Mn1  1  0.99515135  0.99861489  0.50508038  1
  Mn  Mn2  1  0.03060881  0.30780714  0.22423940  1
  Mn  Mn3  1  0.03413127  0.65054562  0.35409680  1
  Mn  Mn4  1  0.46939119  0.19219286  0.77576060  1
  Mn  Mn5  1  0.50163389  0.49833868  0.00400073  1
  Mn  Mn6  1  0.50484865  0.50138511  0.49491962  1
  Mn  Mn7  1  0.46586873  0.84945438  0.64590320  1
  Mn  Mn8  1  0.52944733  0.81248030  0.22639321  1
  Mn  Mn9  1  0.97055267  0.68751970  0.77360679  1
  Se  Se10  1  0.14439747  0.33402665  0.52525432  1
  Se  Se11  1  0.13135169  0.38796808  0.94416530  1
  Se  Se12  1  0.36864831  0.11203192  0.05583470  1
  Se  Se13  1  0.35560253  0.16597335  0.47474568  1
  Se  Se14  1  0.15026284  0.88305832  0.79048056  1
  Se  Se15  1  0.15963820  0.97748280  0.26143901  1
  Se  Se16  1  0.34036180  0.52251720  0.73856099  1
  Se  Se17  1  0.34973716  0.61694168  0.20951944  1
  Se  Se18  1  0.65048224  0.38446339  0.79119528  1
  Se  Se19  1  0.65873366  0.47076955  0.26572356  1
  Se  Se20  1  0.84126634  0.02923045  0.73427644  1
  Se  Se21  1  0.84951776  0.11553661  0.20880472  1
  Se  Se22  1  0.64253058  0.85828881  0.51305282  1
  Se  Se23  1  0.63271193  0.88799677  0.94452197  1
  Se  Se24  1  0.86728807  0.61200323  0.05547803  1
  Se  Se25  1  0.85746942  0.64171119  0.48694718  1
  O  O26  1  0.05742195  0.16944081  0.58379392  1
  O  O27  1  0.09866210  0.10630978  0.33162797  1
  O  O28  1  0.02700276  0.46632123  0.86017699  1
  O  O29  1  0.11114997  0.16680509  0.96169040  1
  O  O30  1  0.09743022  0.42848595  0.35078936  1
  O  O31  1  0.13113034  0.38803261  0.11110658  1
  O  O32  1  0.11900597  0.49115181  0.58069638  1
  O  O33  1  0.06204389  0.88504657  0.17522966  1
  O  O34  1  0.05211369  0.81013041  0.89041634  1
  O  O35  1  0.07150433  0.80813768  0.65708714  1
  O  O36  1  0.38099403  0.00884819  0.41930362  1
  O  O37  1  0.36886966  0.11196739  0.88889342  1
  O  O38  1  0.40256978  0.07151405  0.64921064  1
  O  O39  1  0.16404630  0.80398878  0.39757324  1
  O  O40  1  0.38885003  0.33319491  0.03830960  1
  O  O41  1  0.27458951  0.76826719  0.15123240  1
  O  O42  1  0.47299724  0.03367877  0.13982301  1
  O  O43  1  0.22541049  0.73173281  0.84876760  1
  O  O44  1  0.40133790  0.39369022  0.66837203  1
  O  O45  1  0.44257805  0.33055919  0.41620608  1
  O  O46  1  0.33595370  0.69601122  0.60242676  1
  O  O47  1  0.42849567  0.69186232  0.34291286  1
  O  O48  1  0.44788631  0.68986959  0.10958366  1
  O  O49  1  0.43795611  0.61495343  0.82477034  1
  O  O50  1  0.56344344  0.38383774  0.17636180  1
  O  O51  1  0.55234203  0.31183242  0.89167292  1
  O  O52  1  0.56968475  0.31574224  0.65626040  1
  O  O53  1  0.67488562  0.31885633  0.40979925  1
  O  O54  1  0.55536982  0.68048257  0.57554541  1
  O  O55  1  0.59518377  0.61144718  0.33366680  1
  O  O56  1  0.77711148  0.27060429  0.15090849  1
  O  O57  1  0.52743660  0.96642429  0.84758298  1
  O  O58  1  0.72288852  0.22939571  0.84909151  1
  O  O59  1  0.61096071  0.66965777  0.95522705  1
  O  O60  1  0.82511438  0.18114367  0.59020075  1
  O  O61  1  0.59895305  0.93901662  0.34570206  1
  O  O62  1  0.62889862  0.89000077  0.10765466  1
  O  O63  1  0.60088677  0.97737107  0.59500283  1
  O  O64  1  0.93031525  0.18425776  0.34373960  1
  O  O65  1  0.94765797  0.18816758  0.10832708  1
  O  O66  1  0.93655656  0.11616226  0.82363820  1
  O  O67  1  0.89911323  0.52262893  0.40499717  1
  O  O68  1  0.87110138  0.60999923  0.89234534  1
  O  O69  1  0.90104695  0.56098338  0.65429794  1
  O  O70  1  0.88903929  0.83034223  0.04477295  1
  O  O71  1  0.97256340  0.53357571  0.15241702  1
  O  O72  1  0.90481623  0.88855282  0.66633320  1
  O  O73  1  0.94463018  0.81951743  0.42445459  1
