# generated using pymatgen
data_Fe7Te(PO4)12
_symmetry_space_group_name_H-M   'P 1'
_cell_length_a   8.77863966
_cell_length_b   8.76975432
_cell_length_c   12.18839193
_cell_angle_alpha   90.13906000
_cell_angle_beta   89.98847842
_cell_angle_gamma   90.05195094
_symmetry_Int_Tables_number   1
_chemical_formula_structural   Fe7Te(PO4)12
_chemical_formula_sum   'Fe7 Te1 P12 O48'
_cell_volume   938.33862700
_cell_formula_units_Z   1
loop_
 _symmetry_equiv_pos_site_id
 _symmetry_equiv_pos_as_xyz
  1  'x, y, z'
loop_
 _atom_site_type_symbol
 _atom_site_label
 _atom_site_symmetry_multiplicity
 _atom_site_fract_x
 _atom_site_fract_y
 _atom_site_fract_z
 _atom_site_occupancy
  Fe  Fe0  1  0.25086076  0.96265892  0.61921424  1
  Fe  Fe1  1  0.24912126  0.53471645  0.38288155  1
  Fe  Fe2  1  0.24928250  0.03619508  0.11960139  1
  Fe  Fe3  1  0.24833148  0.46478496  0.87860887  1
  Fe  Fe4  1  0.75206053  0.53668765  0.11752052  1
  Fe  Fe5  1  0.75219653  0.96222513  0.87880906  1
  Fe  Fe6  1  0.74921309  0.03386663  0.38096448  1
  Te  Te7  1  0.75010723  0.46517331  0.61618028  1
  P  P8  1  0.03614092  0.24787398  0.49957876  1
  P  P9  1  0.46465378  0.74986995  -0.00006394  1
  P  P10  1  0.53569462  0.25046286  0.00069227  1
  P  P11  1  0.96254243  0.74854493  0.49933433  1
  P  P12  1  0.10714374  0.39434715  0.14466538  1
  P  P13  1  0.10807137  0.10526717  0.85461572  1
  P  P14  1  0.39420216  0.60408219  0.64407438  1
  P  P15  1  0.39260817  0.89305786  0.35570628  1
  P  P16  1  0.60609886  0.10942448  0.64351064  1
  P  P17  1  0.60735103  0.39260455  0.35150379  1
  P  P18  1  0.89262173  0.60777052  0.85255910  1
  P  P19  1  0.89236462  0.89363118  0.14413807  1
  O  O20  1  0.05505340  0.63872509  0.42944622  1
  O  O21  1  0.06199843  0.84672870  0.57536091  1
  O  O22  1  0.06767062  0.90593500  0.15092702  1
  O  O23  1  0.06592422  0.59080487  0.84344717  1
  O  O24  1  0.13320931  0.15287912  0.57803992  1
  O  O25  1  0.14152751  0.34417731  0.42886227  1
  O  O26  1  0.16573690  0.43970966  0.03056234  1
  O  O27  1  0.16483188  0.06134726  0.96937134  1
  O  O28  1  0.15202380  0.22817272  0.17036757  1
  O  O29  1  0.15331282  0.27135623  0.83008537  1
  O  O30  1  0.17474033  0.50419210  0.23018581  1
  O  O31  1  0.17935713  0.99420375  0.77145865  1
  O  O32  1  0.32116175  0.00278023  0.27202823  1
  O  O33  1  0.32957077  0.49263054  0.72830832  1
  O  O34  1  0.35633080  0.77087130  0.66851541  1
  O  O35  1  0.34458925  0.72788961  0.33165395  1
  O  O36  1  0.34493222  0.55614212  0.52933429  1
  O  O37  1  0.33786031  0.94045074  0.47033428  1
  O  O38  1  0.36076793  0.84657523  0.07409356  1
  O  O39  1  0.36164947  0.65261149  0.92629173  1
  O  O40  1  0.43154826  0.10101857  0.65272509  1
  O  O41  1  0.43307824  0.40736243  0.34515280  1
  O  O42  1  0.43714164  0.14862187  0.07545957  1
  O  O43  1  0.43712746  0.34984918  0.92517486  1
  O  O44  1  0.56432436  0.65046353  0.07529222  1
  O  O45  1  0.56303984  0.85111699  0.92462333  1
  O  O46  1  0.57743592  0.59648812  0.65466339  1
  O  O47  1  0.56714069  0.90571908  0.34626500  1
  O  O48  1  0.63706374  0.34799573  0.07569577  1
  O  O49  1  0.64050714  0.15283032  0.92745681  1
  O  O50  1  0.66403719  0.07435223  0.52925876  1
  O  O51  1  0.65771264  0.43887690  0.47286796  1
  O  O52  1  0.65380990  0.22794951  0.32825132  1
  O  O53  1  0.65114723  0.28229849  0.67573751  1
  O  O54  1  0.68384877  0.50735563  0.27400696  1
  O  O55  1  0.67815456  0.00395061  0.72803017  1
  O  O56  1  0.82320658  0.00406373  0.22835778  1
  O  O57  1  0.81848686  0.48680929  0.76779464  1
  O  O58  1  0.84881667  0.72727886  0.16997862  1
  O  O59  1  0.84470899  0.76979182  0.82282758  1
  O  O60  1  0.83261211  0.55764411  0.96420654  1
  O  O61  1  0.83627487  0.93673264  0.02924282  1
  O  O62  1  0.85402299  0.65656301  0.58232987  1
  O  O63  1  0.85638140  0.84444190  0.42828276  1
  O  O64  1  0.93327953  0.09279717  0.84832331  1
  O  O65  1  0.93115697  0.40495674  0.14902507  1
  O  O66  1  0.93190757  0.15394073  0.42644363  1
  O  O67  1  0.93911522  0.35730175  0.57975431  1
