# generated using pymatgen
data_Mn2Ni3Sb(PO4)6
_symmetry_space_group_name_H-M   'P 1'
_cell_length_a   8.64101854
_cell_length_b   8.64101786
_cell_length_c   8.64101770
_cell_angle_alpha   60.47072670
_cell_angle_beta   60.47072819
_cell_angle_gamma   60.47072751
_symmetry_Int_Tables_number   1
_chemical_formula_structural   Mn2Ni3Sb(PO4)6
_chemical_formula_sum   'Mn2 Ni3 Sb1 P6 O24'
_cell_volume   461.08012377
_cell_formula_units_Z   1
loop_
 _symmetry_equiv_pos_site_id
 _symmetry_equiv_pos_as_xyz
  1  'x, y, z'
loop_
 _atom_site_type_symbol
 _atom_site_label
 _atom_site_symmetry_multiplicity
 _atom_site_fract_x
 _atom_site_fract_y
 _atom_site_fract_z
 _atom_site_occupancy
  Mn  Mn0  1  0.00621911  0.00621911  0.00621911  1
  Mn  Mn1  1  0.49937356  0.49937356  0.49937356  1
  Ni  Ni2  1  0.14442798  0.14442798  0.14442798  1
  Ni  Ni3  1  0.35669472  0.35669472  0.35669472  1
  Ni  Ni4  1  0.64216864  0.64216864  0.64216864  1
  Sb  Sb5  1  0.85692055  0.85692055  0.85692055  1
  P  P6  1  0.04564665  0.74600624  0.45536448  1
  P  P7  1  0.45536448  0.04564665  0.74600624  1
  P  P8  1  0.74600624  0.45536448  0.04564665  1
  P  P9  1  0.25356885  0.54045971  0.95285286  1
  P  P10  1  0.54045971  0.95285286  0.25356885  1
  P  P11  1  0.95285286  0.25356885  0.54045971  1
  O  O12  1  0.10700867  0.31014470  0.51295974  1
  O  O13  1  0.31014470  0.51295974  0.10700867  1
  O  O14  1  0.06078585  0.90758231  0.26380633  1
  O  O15  1  0.51295974  0.10700867  0.31014470  1
  O  O16  1  0.00917804  0.81321424  0.61408450  1
  O  O17  1  0.24148713  0.58979627  0.44519505  1
  O  O18  1  0.26380633  0.06078585  0.90758231  1
  O  O19  1  0.44519505  0.24148713  0.58979627  1
  O  O20  1  0.18481924  0.39174451  0.98803804  1
  O  O21  1  0.58979627  0.44519505  0.24148713  1
  O  O22  1  0.08722892  0.74407151  0.93530104  1
  O  O23  1  0.39174451  0.98803804  0.18481924  1
  O  O24  1  0.61408450  0.00917804  0.81321424  1
  O  O25  1  0.90758231  0.26380633  0.06078585  1
  O  O26  1  0.40963580  0.55943968  0.75517566  1
  O  O27  1  0.81321424  0.61408450  0.00917804  1
  O  O28  1  0.55943968  0.75517566  0.40963580  1
  O  O29  1  0.74407151  0.93530104  0.08722892  1
  O  O30  1  0.75517566  0.40963580  0.55943968  1
  O  O31  1  0.98803804  0.18481924  0.39174451  1
  O  O32  1  0.49801909  0.89208264  0.67949764  1
  O  O33  1  0.93530104  0.08722892  0.74407151  1
  O  O34  1  0.67949764  0.49801909  0.89208264  1
  O  O35  1  0.89208264  0.67949764  0.49801909  1
