# generated using pymatgen
data_Ti2O3
_symmetry_space_group_name_H-M   'P 1'
_cell_length_a   5.16693664
_cell_length_b   5.16866861
_cell_length_c   9.60760334
_cell_angle_alpha   89.98733516
_cell_angle_beta   90.00452771
_cell_angle_gamma   120.00824169
_symmetry_Int_Tables_number   1
_chemical_formula_structural   Ti2O3
_chemical_formula_sum   'Ti8 O12'
_cell_volume   222.18842758
_cell_formula_units_Z   4
loop_
 _symmetry_equiv_pos_site_id
 _symmetry_equiv_pos_as_xyz
  1  'x, y, z'
loop_
 _atom_site_type_symbol
 _atom_site_label
 _atom_site_symmetry_multiplicity
 _atom_site_fract_x
 _atom_site_fract_y
 _atom_site_fract_z
 _atom_site_occupancy
  Ti  Ti0  1  0.33365447  0.66687546  0.97654773  1
  Ti  Ti1  1  0.33316526  0.66654893  0.25022395  1
  Ti  Ti2  1  0.99999737  0.99998062  0.00004519  1
  Ti  Ti3  1  0.99998252  0.00000512  0.49999705  1
  Ti  Ti4  1  0.33375169  0.66696476  0.52303669  1
  Ti  Ti5  1  0.66683324  0.33343156  0.74982728  1
  Ti  Ti6  1  0.66623056  0.33307457  0.02352380  1
  Ti  Ti7  1  0.66626061  0.33307806  0.47686342  1
  O  O8  1  0.02617786  0.67576424  0.11641713  1
  O  O9  1  0.97406479  0.64991270  0.61641507  1
  O  O10  1  0.02588952  0.35003536  0.38348887  1
  O  O11  1  0.97382514  0.32420975  0.88365846  1
  O  O12  1  0.32402680  0.35040617  0.11660470  1
  O  O13  1  0.35015234  0.32429382  0.61657684  1
  O  O14  1  0.32403545  0.97398654  0.38327538  1
  O  O15  1  0.35043846  0.02618225  0.88344040  1
  O  O16  1  0.64996747  0.67576901  0.38331666  1
  O  O17  1  0.67591214  0.64956755  0.88346928  1
  O  O18  1  0.64949804  0.97377979  0.11661201  1
  O  O19  1  0.67593827  0.02613373  0.61665910  1
