# generated using pymatgen
data_Li2FeWO6
_symmetry_space_group_name_H-M   'P 1'
_cell_length_a   5.42681971
_cell_length_b   5.43570930
_cell_length_c   9.58772663
_cell_angle_alpha   151.76826009
_cell_angle_beta   51.42441061
_cell_angle_gamma   123.41286218
_symmetry_Int_Tables_number   1
_chemical_formula_structural   Li2FeWO6
_chemical_formula_sum   'Li2 Fe1 W1 O6'
_cell_volume   104.59223596
_cell_formula_units_Z   1
loop_
 _symmetry_equiv_pos_site_id
 _symmetry_equiv_pos_as_xyz
  1  'x, y, z'
loop_
 _atom_site_type_symbol
 _atom_site_label
 _atom_site_symmetry_multiplicity
 _atom_site_fract_x
 _atom_site_fract_y
 _atom_site_fract_z
 _atom_site_occupancy
  Li  Li0  1  0.28835001  -0.00001152  0.28729787  1
  Li  Li1  1  0.77688468  0.99996592  0.77740141  1
  Fe  Fe2  1  0.00283754  -0.00002095  0.00384334  1
  W  W3  1  0.50437277  0.00041791  0.50488312  1
  O  O4  1  0.36935524  0.40313225  0.13260151  1
  O  O5  1  0.24242655  0.75489115  0.62061603  1
  O  O6  1  0.13299212  0.35969229  0.72980740  1
  O  O7  1  0.86708671  0.61935333  0.24130544  1
  O  O8  1  0.72817834  0.23487511  0.37037873  1
  O  O9  1  0.62311604  0.62770450  0.86746315  1
