# generated using pymatgen
data_Li3V2(OF)4
_symmetry_space_group_name_H-M   'P 1'
_cell_length_a   4.98778324
_cell_length_b   7.34560063
_cell_length_c   7.75682777
_cell_angle_alpha   101.71229093
_cell_angle_beta   90.10823205
_cell_angle_gamma   90.11610427
_symmetry_Int_Tables_number   1
_chemical_formula_structural   Li3V2(OF)4
_chemical_formula_sum   'Li6 V4 O8 F8'
_cell_volume   278.27818385
_cell_formula_units_Z   2
loop_
 _symmetry_equiv_pos_site_id
 _symmetry_equiv_pos_as_xyz
  1  'x, y, z'
loop_
 _atom_site_type_symbol
 _atom_site_label
 _atom_site_symmetry_multiplicity
 _atom_site_fract_x
 _atom_site_fract_y
 _atom_site_fract_z
 _atom_site_occupancy
  Li  Li0  1  0.73810689  0.96858499  0.08747866  1
  Li  Li1  1  0.75704484  0.63998458  0.37169252  1
  Li  Li2  1  0.76637735  0.17632745  0.39725312  1
  Li  Li3  1  0.25391362  0.85913855  0.63488576  1
  Li  Li4  1  0.26732964  0.32246674  0.60517930  1
  Li  Li5  1  0.23447240  0.53224370  0.90941130  1
  V  V6  1  0.23408705  0.83173020  0.17478220  1
  V  V7  1  0.26094406  0.32675592  0.16703761  1
  V  V8  1  0.72610236  0.67194690  0.83808970  1
  V  V9  1  0.76738950  0.17754856  0.84387122  1
  O  O10  1  0.93453585  0.70092460  0.03088571  1
  O  O11  1  0.55857801  0.19186484  0.03119898  1
  O  O12  1  0.36972486  0.55181163  0.17444087  1
  O  O13  1  0.10276743  0.05056276  0.18755393  1
  O  O14  1  0.87506701  0.95213559  0.82583742  1
  O  O15  1  0.60329907  0.44984970  0.81175566  1
  O  O16  1  0.44648146  0.79078491  0.95383994  1
  O  O17  1  0.04848749  0.30322077  0.95314937  1
  F  F18  1  0.57466428  0.91050634  0.29513556  1
  F  F19  1  0.94212998  0.39525931  0.31301785  1
  F  F20  1  0.08427720  0.79767102  0.39881545  1
  F  F21  1  0.43510343  0.29757092  0.38713330  1
  F  F22  1  0.59025394  0.70246729  0.60735048  1
  F  F23  1  0.93186682  0.20194681  0.61463193  1
  F  F24  1  0.06505973  0.59084058  0.70177844  1
  F  F25  1  0.45392575  0.10585533  0.68379971  1
