# generated using pymatgen
data_Na5Bi2As(CO4)4
_symmetry_space_group_name_H-M   'P 1'
_cell_length_a   10.50969607
_cell_length_b   10.53316043
_cell_length_c   10.50969607
_cell_angle_alpha   59.33705812
_cell_angle_beta   91.27496918
_cell_angle_gamma   120.66294188
_symmetry_Int_Tables_number   1
_chemical_formula_structural   Na5Bi2As(CO4)4
_chemical_formula_sum   'Na10 Bi4 As2 C8 O32'
_cell_volume   815.15142517
_cell_formula_units_Z   2
loop_
 _symmetry_equiv_pos_site_id
 _symmetry_equiv_pos_as_xyz
  1  'x, y, z'
loop_
 _atom_site_type_symbol
 _atom_site_label
 _atom_site_symmetry_multiplicity
 _atom_site_fract_x
 _atom_site_fract_y
 _atom_site_fract_z
 _atom_site_occupancy
  Na  Na0  1  0.68785832  0.36041591  0.07148997  1
  Na  Na1  1  0.32715758  0.25924562  0.31339292  1
  Na  Na2  1  0.92736146  0.24075438  0.93208804  1
  Na  Na3  1  0.92851003  0.86041591  0.31214168  1
  Na  Na4  1  0.06791196  0.74075438  0.07263854  1
  Na  Na5  1  0.06809411  0.13958409  0.67255759  1
  Na  Na6  1  0.68660708  0.75924562  0.67284242  1
  Na  Na7  1  0.31871682  0.25000000  0.93128318  1
  Na  Na8  1  0.32744241  0.63958409  0.93190589  1
  Na  Na9  1  0.06871682  0.75000000  0.68128318  1
  Bi  Bi10  1  0.50124332  0.99311397  0.00323858  1
  Bi  Bi11  1  0.50812935  0.00688603  0.49635255  1
  Bi  Bi12  1  0.50364745  0.50688603  0.49187065  1
  Bi  Bi13  1  0.99676142  0.49311397  0.49875668  1
  As  As14  1  0.12534809  0.25000000  0.12465191  1
  As  As15  1  0.87534809  0.75000000  0.87465191  1
  C  C16  1  0.72021790  0.05729911  0.72537133  1
  C  C17  1  0.71732957  0.44270089  0.33708121  1
  C  C18  1  0.33739674  0.05851841  0.71989919  1
  C  C19  1  0.72158241  0.44148159  0.72112166  1
  C  C20  1  0.66291879  0.94270089  0.28267043  1
  C  C21  1  0.27462867  0.55729911  0.27978210  1
  C  C22  1  0.27887834  0.94148159  0.27841759  1
  C  C23  1  0.28010081  0.55851841  0.66260326  1
  O  O24  1  0.66629166  0.06443032  0.15163329  1
  O  O25  1  0.85177575  0.17981539  0.61170614  1
  O  O26  1  0.70847847  0.32018461  0.32803964  1
  O  O27  1  0.39667024  0.06115348  0.29095106  1
  O  O28  1  0.84836671  0.56443032  0.33370834  1
  O  O29  1  0.32886485  0.38453576  0.05657499  1
  O  O30  1  0.05888925  0.11546424  0.05567091  1
  O  O31  1  0.59393458  0.44212587  0.34947319  1
  O  O32  1  0.70840094  0.05787413  0.84819129  1
  O  O33  1  0.33514714  0.04368217  0.60407203  1
  O  O34  1  0.85224580  0.45631783  0.70853503  1
  O  O35  1  0.06742813  0.39224863  0.04062113  1
  O  O36  1  0.06713023  0.10775137  0.32482050  1
  O  O37  1  0.67196036  0.82018461  0.29152153  1
  O  O38  1  0.38829386  0.67981539  0.14822425  1
  O  O39  1  0.70904894  0.56115348  0.60332976  1
  O  O40  1  0.28393639  0.43556968  0.39813866  1
  O  O41  1  0.60486075  0.31055161  0.85057979  1
  O  O42  1  0.33886860  0.18944839  0.70569087  1
  O  O43  1  0.94432909  0.61546424  0.94111075  1
  O  O44  1  0.94342501  0.88453576  0.67113515  1
  O  O45  1  0.15180871  0.55787413  0.29159906  1
  O  O46  1  0.65052681  0.94212587  0.40606542  1
  O  O47  1  0.29146497  0.95631783  0.14775420  1
  O  O48  1  0.39592797  0.54368217  0.66485286  1
  O  O49  1  0.95937887  0.89224863  0.93257187  1
  O  O50  1  0.67517950  0.60775137  0.93286977  1
  O  O51  1  0.14789446  0.43884652  0.66448324  1
  O  O52  1  0.60186134  0.93556968  0.71606361  1
  O  O53  1  0.29430913  0.68944839  0.66113140  1
  O  O54  1  0.14942021  0.81055161  0.39513925  1
  O  O55  1  0.33551676  0.93884652  0.85210554  1
