# generated using pymatgen
data_Li2Fe3F8
_symmetry_space_group_name_H-M   'P 1'
_cell_length_a   5.35530612
_cell_length_b   12.36141555
_cell_length_c   5.64392161
_cell_angle_alpha   90.00000000
_cell_angle_beta   112.56108339
_cell_angle_gamma   90.00000000
_symmetry_Int_Tables_number   1
_chemical_formula_structural   Li2Fe3F8
_chemical_formula_sum   'Li4 Fe6 F16'
_cell_volume   345.02991782
_cell_formula_units_Z   2
loop_
 _symmetry_equiv_pos_site_id
 _symmetry_equiv_pos_as_xyz
  1  'x, y, z'
loop_
 _atom_site_type_symbol
 _atom_site_label
 _atom_site_symmetry_multiplicity
 _atom_site_fract_x
 _atom_site_fract_y
 _atom_site_fract_z
 _atom_site_occupancy
  Li  Li0  1  0.09560832  0.11677289  0.70154377  1
  Li  Li1  1  0.40439168  0.61677289  0.29845623  1
  Li  Li2  1  0.59560832  0.38322711  0.70154377  1
  Li  Li3  1  0.90439168  0.88322711  0.29845623  1
  Fe  Fe4  1  0.00000000  0.50000000  0.50000000  1
  Fe  Fe5  1  0.23111303  0.83387569  0.88243743  1
  Fe  Fe6  1  0.26888697  0.33387569  0.11756257  1
  Fe  Fe7  1  0.50000000  0.00000000  0.50000000  1
  Fe  Fe8  1  0.73111303  0.66612431  0.88243743  1
  Fe  Fe9  1  0.76888697  0.16612431  0.11756257  1
  F  F10  1  0.13356678  0.69029433  0.02643708  1
  F  F11  1  0.12587458  0.17580593  0.39628810  1
  F  F12  1  0.27309243  0.98002481  0.70527137  1
  F  F13  1  0.27755151  0.41281060  0.78056216  1
  F  F14  1  0.22244849  0.91281060  0.21943784  1
  F  F15  1  0.22690757  0.48002481  0.29472863  1
  F  F16  1  0.37412542  0.67580593  0.60371190  1
  F  F17  1  0.63356678  0.80970567  0.02643708  1
  F  F18  1  0.36643322  0.19029433  0.97356292  1
  F  F19  1  0.62587458  0.32419407  0.39628810  1
  F  F20  1  0.77309243  0.51997519  0.70527137  1
  F  F21  1  0.77755151  0.08718940  0.78056216  1
  F  F22  1  0.72244849  0.58718940  0.21943784  1
  F  F23  1  0.72690757  0.01997519  0.29472863  1
  F  F24  1  0.87412542  0.82419407  0.60371190  1
  F  F25  1  0.86643322  0.30970567  0.97356292  1
