# generated using pymatgen
data_LiMn2PO5
_symmetry_space_group_name_H-M   'P 1'
_cell_length_a   6.45592199
_cell_length_b   7.82908013
_cell_length_c   8.64602611
_cell_angle_alpha   90.00007395
_cell_angle_beta   90.00070325
_cell_angle_gamma   89.99970217
_symmetry_Int_Tables_number   1
_chemical_formula_structural   LiMn2PO5
_chemical_formula_sum   'Li4 Mn8 P4 O20'
_cell_volume   437.00414341
_cell_formula_units_Z   4
loop_
 _symmetry_equiv_pos_site_id
 _symmetry_equiv_pos_as_xyz
  1  'x, y, z'
loop_
 _atom_site_type_symbol
 _atom_site_label
 _atom_site_symmetry_multiplicity
 _atom_site_fract_x
 _atom_site_fract_y
 _atom_site_fract_z
 _atom_site_occupancy
  Li  Li0  1  0.54185781  0.15981806  0.38657074  1
  Li  Li1  1  0.54185582  0.34017431  0.88656682  1
  Li  Li2  1  0.04185527  0.65982240  0.11342712  1
  Li  Li3  1  0.04186400  0.84017584  0.61342199  1
  Mn  Mn4  1  0.98016537  0.01080563  0.99774182  1
  Mn  Mn5  1  0.48017412  0.98920546  0.00226026  1
  Mn  Mn6  1  0.75023773  0.12493292  0.66597667  1
  Mn  Mn7  1  0.75023468  0.37508418  0.16597047  1
  Mn  Mn8  1  0.48016457  0.51080450  0.50227113  1
  Mn  Mn9  1  0.98016603  0.48920203  0.49774663  1
  Mn  Mn10  1  0.25024508  0.62493902  0.83403806  1
  Mn  Mn11  1  0.25023254  0.87505685  0.33401311  1
  P  P12  1  0.25404185  0.16103375  0.65738838  1
  P  P13  1  0.25405692  0.33899470  0.15737898  1
  P  P14  1  0.75404132  0.66104802  0.84262286  1
  P  P15  1  0.75403716  0.83895853  0.34261140  1
  O  O16  1  0.29481680  0.07076034  0.50161627  1
  O  O17  1  0.44498567  0.13702636  0.76625023  1
  O  O18  1  0.06117183  0.07745510  0.73653995  1
  O  O19  1  0.72199783  0.17867201  0.01171929  1
  O  O20  1  0.22305654  0.14499092  0.13046569  1
  O  O21  1  0.22307042  0.35498642  0.63047180  1
  O  O22  1  0.72200277  0.32133797  0.51172544  1
  O  O23  1  0.44497401  0.36296239  0.26625162  1
  O  O24  1  0.06116340  0.42254322  0.23653370  1
  O  O25  1  0.29481849  0.42921761  0.00162578  1
  O  O26  1  0.79481925  0.57078692  0.99837112  1
  O  O27  1  0.94499595  0.63703796  0.73374603  1
  O  O28  1  0.56116786  0.57746600  0.76345367  1
  O  O29  1  0.22199865  0.67865919  0.48827959  1
  O  O30  1  0.72306595  0.64500145  0.36952358  1
  O  O31  1  0.72307021  0.85499532  0.86952015  1
  O  O32  1  0.22200282  0.82134293  0.98829948  1
  O  O33  1  0.94497731  0.86296335  0.23374440  1
  O  O34  1  0.56116258  0.92253365  0.26345844  1
  O  O35  1  0.79481940  0.92922270  0.49837834  1
