# generated using pymatgen
data_Na2CoO3
_symmetry_space_group_name_H-M   'P 1'
_cell_length_a   5.63970599
_cell_length_b   7.95955113
_cell_length_c   10.56049128
_cell_angle_alpha   79.28922622
_cell_angle_beta   90.00000000
_cell_angle_gamma   69.25110948
_symmetry_Int_Tables_number   1
_chemical_formula_structural   Na2CoO3
_chemical_formula_sum   'Na8 Co4 O12'
_cell_volume   434.46607336
_cell_formula_units_Z   4
loop_
 _symmetry_equiv_pos_site_id
 _symmetry_equiv_pos_as_xyz
  1  'x, y, z'
loop_
 _atom_site_type_symbol
 _atom_site_label
 _atom_site_symmetry_multiplicity
 _atom_site_fract_x
 _atom_site_fract_y
 _atom_site_fract_z
 _atom_site_occupancy
  Na  Na0  1  0.24734485  0.14275384  0.33835847  1
  Na  Na1  1  0.16299963  0.34989024  0.62288228  1
  Na  Na2  1  0.48711014  0.34989024  0.12288228  1
  Na  Na3  1  0.60990131  0.14275384  0.83835847  1
  Na  Na4  1  0.39009869  0.85724616  0.16164153  1
  Na  Na5  1  0.51288986  0.65010976  0.87711772  1
  Na  Na6  1  0.83700037  0.65010976  0.37711772  1
  Na  Na7  1  0.75265515  0.85724616  0.66164153  1
  Co  Co8  1  0.96301769  0.75285941  0.02625959  1
  Co  Co9  1  0.28412290  0.75285941  0.52625959  1
  Co  Co10  1  0.71587710  0.24714059  0.47374041  1
  Co  Co11  1  0.03698231  0.24714059  0.97374041  1
  O  O12  1  0.22859919  0.17731948  0.11171984  1
  O  O13  1  0.17099304  0.22497530  0.83475559  1
  O  O14  1  0.05461407  0.66366035  0.55729200  1
  O  O15  1  0.28172658  0.66366035  0.05729200  1
  O  O16  1  0.60403166  0.22497530  0.33475559  1
  O  O17  1  0.40591867  0.82268052  0.38828016  1
  O  O18  1  0.59408133  0.17731948  0.61171984  1
  O  O19  1  0.39596834  0.77502470  0.66524441  1
  O  O20  1  0.71827342  0.33633965  0.94270800  1
  O  O21  1  0.94538593  0.33633965  0.44270800  1
  O  O22  1  0.82900696  0.77502470  0.16524441  1
  O  O23  1  0.77140081  0.82268052  0.88828016  1
