# generated using pymatgen
data_Li8MnNi7(PO4)12
_symmetry_space_group_name_H-M   'P 1'
_cell_length_a   8.69402911
_cell_length_b   8.84826175
_cell_length_c   12.31644251
_cell_angle_alpha   90.15044628
_cell_angle_beta   89.92007418
_cell_angle_gamma   90.04067246
_symmetry_Int_Tables_number   1
_chemical_formula_structural   Li8MnNi7(PO4)12
_chemical_formula_sum   'Li8 Mn1 Ni7 P12 O48'
_cell_volume   947.46310627
_cell_formula_units_Z   1
loop_
 _symmetry_equiv_pos_site_id
 _symmetry_equiv_pos_as_xyz
  1  'x, y, z'
loop_
 _atom_site_type_symbol
 _atom_site_label
 _atom_site_symmetry_multiplicity
 _atom_site_fract_x
 _atom_site_fract_y
 _atom_site_fract_z
 _atom_site_occupancy
  Li  Li0  1  0.21721225  0.72112037  0.18725843  1
  Li  Li1  1  0.21703781  0.77638229  0.81046459  1
  Li  Li2  1  0.28476801  0.22388410  0.31484914  1
  Li  Li3  1  0.28006428  0.27675661  0.68626493  1
  Li  Li4  1  0.71919114  0.72292226  0.31459030  1
  Li  Li5  1  0.71301080  0.78362643  0.68520421  1
  Li  Li6  1  0.78078284  0.22350444  0.18649429  1
  Li  Li7  1  0.78314109  0.27867378  0.81677007  1
  Mn  Mn8  1  0.75311207  0.46214647  0.61118397  1
  Ni  Ni9  1  0.25317855  0.96171726  0.61351835  1
  Ni  Ni10  1  0.25189329  0.53818021  0.38577969  1
  Ni  Ni11  1  0.24623387  0.03748511  0.11646677  1
  Ni  Ni12  1  0.24604040  0.46277046  0.88418395  1
  Ni  Ni13  1  0.75240212  0.53835669  0.11445044  1
  Ni  Ni14  1  0.75390548  0.96205719  0.88646962  1
  Ni  Ni15  1  0.74818037  0.03885271  0.38347914  1
  P  P16  1  0.03459855  0.25139197  0.50057021  1
  P  P17  1  0.46296885  0.74979965  0.99796357  1
  P  P18  1  0.53706094  0.25078065  0.00074419  1
  P  P19  1  0.95786569  0.74554652  0.50034336  1
  P  P20  1  0.10564920  0.39105424  0.14835759  1
  P  P21  1  0.10536114  0.10861075  0.85255003  1
  P  P22  1  0.39835263  0.60516215  0.64645080  1
  P  P23  1  0.39481735  0.89031008  0.35230185  1
  P  P24  1  0.60536981  0.11351749  0.64482737  1
  P  P25  1  0.60738953  0.39162379  0.35748314  1
  P  P26  1  0.89312610  0.60719117  0.84601024  1
  P  P27  1  0.89473235  0.89126062  0.14831305  1
  O  O28  1  0.05220220  0.63841633  0.43024316  1
  O  O29  1  0.05666839  0.84672476  0.57327176  1
  O  O30  1  0.07295935  0.89267743  0.15704789  1
  O  O31  1  0.07002401  0.60709071  0.84061721  1
  O  O32  1  0.14262944  0.16719133  0.57993561  1
  O  O33  1  0.14763623  0.33438916  0.42317714  1
  O  O34  1  0.15089637  0.43897731  0.03283801  1
  O  O35  1  0.15118861  0.06244817  0.96819258  1
  O  O36  1  0.16332574  0.23444362  0.18041081  1
  O  O37  1  0.16449216  0.26500049  0.82120067  1
  O  O38  1  0.16847375  0.51273482  0.22707870  1
  O  O39  1  0.16960287  0.98574877  0.77425402  1
  O  O40  1  0.33389592  0.01274801  0.27385028  1
  O  O41  1  0.33466215  0.48556944  0.72566847  1
  O  O42  1  0.35010503  0.76520876  0.67990039  1
  O  O43  1  0.33572364  0.73417693  0.32058462  1
  O  O44  1  0.34677661  0.55997410  0.53359758  1
  O  O45  1  0.34896210  0.93930431  0.46715030  1
  O  O46  1  0.35064401  0.83160220  0.07777223  1
  O  O47  1  0.34707981  0.66829753  0.92101914  1
  O  O48  1  0.42855988  0.11526905  0.65502677  1
  O  O49  1  0.43020708  0.39383899  0.34862605  1
  O  O50  1  0.44062055  0.14400738  0.06986837  1
  O  O51  1  0.44039867  0.35582067  0.93093515  1
  O  O52  1  0.55896105  0.64027908  0.06554556  1
  O  O53  1  0.55814284  0.85890701  0.92984587  1
  O  O54  1  0.57900608  0.59967740  0.65610501  1
  O  O55  1  0.57240683  0.89317699  0.34288920  1
  O  O56  1  0.64966990  0.33409668  0.07856150  1
  O  O57  1  0.64997754  0.16712135  0.92248768  1
  O  O58  1  0.65318294  0.06399087  0.53065993  1
  O  O59  1  0.65380699  0.43480081  0.47499904  1
  O  O60  1  0.66549680  0.23562974  0.32315286  1
  O  O61  1  0.66758454  0.27397741  0.67548412  1
  O  O62  1  0.67129194  0.51420192  0.28024617  1
  O  O63  1  0.67159397  0.99712308  0.72508188  1
  O  O64  1  0.83356325  0.01479870  0.22699531  1
  O  O65  1  0.82746089  0.48490808  0.76417739  1
  O  O66  1  0.83497684  0.73430503  0.17932496  1
  O  O67  1  0.83111353  0.76364895  0.81766013  1
  O  O68  1  0.84304450  0.55320328  0.95914814  1
  O  O69  1  0.85026522  0.93873020  0.03334668  1
  O  O70  1  0.84661429  0.65835785  0.58020298  1
  O  O71  1  0.85015153  0.83211138  0.42364081  1
  O  O72  1  0.92748246  0.10803886  0.84490968  1
  O  O73  1  0.92739412  0.39383284  0.15573284  1
  O  O74  1  0.93957170  0.14523152  0.43139157  1
  O  O75  1  0.94205921  0.36350621  0.57280150  1
