# generated using pymatgen
data_TbCeO4
_symmetry_space_group_name_H-M   'P 1'
_cell_length_a   7.77316219
_cell_length_b   7.72637813
_cell_length_c   10.85360761
_cell_angle_alpha   45.40926264
_cell_angle_beta   90.03680199
_cell_angle_gamma   59.76617546
_symmetry_Int_Tables_number   1
_chemical_formula_structural   TbCeO4
_chemical_formula_sum   'Tb4 Ce4 O16'
_cell_volume   327.96919493
_cell_formula_units_Z   4
loop_
 _symmetry_equiv_pos_site_id
 _symmetry_equiv_pos_as_xyz
  1  'x, y, z'
loop_
 _atom_site_type_symbol
 _atom_site_label
 _atom_site_symmetry_multiplicity
 _atom_site_fract_x
 _atom_site_fract_y
 _atom_site_fract_z
 _atom_site_occupancy
  Tb  Tb0  1  0.24475819  0.00507524  0.61908930  1
  Tb  Tb1  1  0.24424241  0.49388083  0.62349369  1
  Tb  Tb2  1  0.73928958  0.51190148  0.11414121  1
  Tb  Tb3  1  0.73897342  0.00178284  0.62132834  1
  Ce  Ce4  1  0.24310827  0.50161167  0.12004429  1
  Ce  Ce5  1  0.24151681  0.00553602  0.11908907  1
  Ce  Ce6  1  0.74007630  0.00197269  0.12031654  1
  Ce  Ce7  1  0.74072726  0.50749285  0.61762312  1
  O  O8  1  0.98215432  0.51213029  0.48980889  1
  O  O9  1  0.99173351  0.00203416  0.24487307  1
  O  O10  1  0.99242054  0.51214978  0.23995620  1
  O  O11  1  0.98998054  0.00518597  0.99428877  1
  O  O12  1  0.99028207  0.00660587  0.49310086  1
  O  O13  1  0.98989717  0.00482821  0.74534834  1
  O  O14  1  0.99129064  0.49799761  0.74669158  1
  O  O15  1  0.49191599  0.00289901  0.49121834  1
  O  O16  1  0.49078526  0.49729373  0.99718021  1
  O  O17  1  0.48997773  0.00581236  0.74290535  1
  O  O18  1  0.49590311  0.49946515  0.74562371  1
  O  O19  1  0.49262562  0.00092162  0.00040872  1
  O  O20  1  0.49041056  0.00438612  0.24453760  1
  O  O21  1  0.48745310  0.50775800  0.24279212  1
  O  O22  1  0.48958719  0.51535500  0.48748060  1
  O  O23  1  0.99981342  0.49590652  0.99820307  1
