# generated using pymatgen
data_Ba3Y2F12
_symmetry_space_group_name_H-M   'P 1'
_cell_length_a   10.76766484
_cell_length_b   10.42315281
_cell_length_c   10.81656169
_cell_angle_alpha   90.00000000
_cell_angle_beta   91.38172983
_cell_angle_gamma   90.00000000
_symmetry_Int_Tables_number   1
_chemical_formula_structural   Ba3Y2F12
_chemical_formula_sum   'Ba12 Y8 F48'
_cell_volume   1213.62235372
_cell_formula_units_Z   4
loop_
 _symmetry_equiv_pos_site_id
 _symmetry_equiv_pos_as_xyz
  1  'x, y, z'
loop_
 _atom_site_type_symbol
 _atom_site_label
 _atom_site_symmetry_multiplicity
 _atom_site_fract_x
 _atom_site_fract_y
 _atom_site_fract_z
 _atom_site_occupancy
  Ba  Ba0  1  0.02807396  0.21617734  0.79806317  1
  Ba  Ba1  1  0.02557024  0.61540259  0.67163914  1
  Ba  Ba2  1  0.19279528  0.98968937  0.52118147  1
  Ba  Ba3  1  0.30720472  0.48968937  0.97881853  1
  Ba  Ba4  1  0.47442976  0.11540259  0.82836086  1
  Ba  Ba5  1  0.47192604  0.71617734  0.70193683  1
  Ba  Ba6  1  0.52807396  0.28382266  0.29806317  1
  Ba  Ba7  1  0.52557024  0.88459741  0.17163914  1
  Ba  Ba8  1  0.69279528  0.51031063  0.02118147  1
  Ba  Ba9  1  0.80720472  0.01031063  0.47881853  1
  Ba  Ba10  1  0.97442976  0.38459741  0.32836086  1
  Ba  Ba11  1  0.97192604  0.78382266  0.20193683  1
  Y  Y12  1  0.18728447  0.85345801  0.92596693  1
  Y  Y13  1  0.19769984  0.15791447  0.15761511  1
  Y  Y14  1  0.31271553  0.35345801  0.57403307  1
  Y  Y15  1  0.30230016  0.65791447  0.34238489  1
  Y  Y16  1  0.69769984  0.34208553  0.65761511  1
  Y  Y17  1  0.68728447  0.64654199  0.42596693  1
  Y  Y18  1  0.80230016  0.84208553  0.84238489  1
  Y  Y19  1  0.81271553  0.14654199  0.07403307  1
  F  F20  1  0.99638510  0.76829544  0.89764094  1
  F  F21  1  0.99879491  0.14663550  0.56640468  1
  F  F22  1  0.11104539  0.44758875  0.82904264  1
  F  F23  1  0.12916595  0.43060965  0.53077364  1
  F  F24  1  0.09563422  0.11786209  0.32048190  1
  F  F25  1  0.11163529  0.60129025  0.31653727  1
  F  F26  1  0.11395015  0.97731043  0.07486227  1
  F  F27  1  0.13808049  0.98092775  0.77760921  1
  F  F28  1  0.18401333  0.70742808  0.07104045  1
  F  F29  1  0.21766829  0.35932470  0.20197650  1
  F  F30  1  0.23814606  0.21291859  0.96488886  1
  F  F31  1  0.24202926  0.70210750  0.80449869  1
  F  F32  1  0.25797074  0.20210750  0.69550131  1
  F  F33  1  0.26185394  0.71291859  0.53511114  1
  F  F34  1  0.28233171  0.85932470  0.29802350  1
  F  F35  1  0.31598667  0.20742808  0.42895955  1
  F  F36  1  0.36191951  0.48092775  0.72239079  1
  F  F37  1  0.38604985  0.47731043  0.42513773  1
  F  F38  1  0.38836471  0.10129025  0.18346273  1
  F  F39  1  0.37083405  0.93060965  0.96922636  1
  F  F40  1  0.40436578  0.61786209  0.17951810  1
  F  F41  1  0.38895461  0.94758875  0.67095736  1
  F  F42  1  0.50120509  0.64663550  0.93359532  1
  F  F43  1  0.50361490  0.26829544  0.60235906  1
  F  F44  1  0.49638510  0.73170456  0.39764094  1
  F  F45  1  0.49879491  0.35336450  0.06640468  1
  F  F46  1  0.61104539  0.05241125  0.32904264  1
  F  F47  1  0.59563422  0.38213791  0.82048190  1
  F  F48  1  0.62916595  0.06939035  0.03077364  1
  F  F49  1  0.61163529  0.89870975  0.81653727  1
  F  F50  1  0.61395015  0.52268957  0.57486227  1
  F  F51  1  0.63808049  0.51907225  0.27760921  1
  F  F52  1  0.68401333  0.79257192  0.57104045  1
  F  F53  1  0.71766829  0.14067530  0.70197650  1
  F  F54  1  0.73814606  0.28708141  0.46488886  1
  F  F55  1  0.74202926  0.79789250  0.30449869  1
  F  F56  1  0.75797074  0.29789250  0.19550131  1
  F  F57  1  0.76185394  0.78708141  0.03511114  1
  F  F58  1  0.78233171  0.64067530  0.79802350  1
  F  F59  1  0.81598667  0.29257192  0.92895955  1
  F  F60  1  0.86191951  0.01907225  0.22239079  1
  F  F61  1  0.88604985  0.02268957  0.92513773  1
  F  F62  1  0.88836471  0.39870975  0.68346273  1
  F  F63  1  0.90436578  0.88213791  0.67951810  1
  F  F64  1  0.87083405  0.56939035  0.46922636  1
  F  F65  1  0.88895461  0.55241125  0.17095736  1
  F  F66  1  0.00120509  0.85336450  0.43359532  1
  F  F67  1  0.00361490  0.23170456  0.10235906  1
