# generated using pymatgen
data_Li2V3CoO8
_symmetry_space_group_name_H-M   'P 1'
_cell_length_a   6.39823754
_cell_length_b   6.39823695
_cell_length_c   6.52775981
_cell_angle_alpha   74.07695690
_cell_angle_beta   105.92304127
_cell_angle_gamma   143.54740483
_symmetry_Int_Tables_number   1
_chemical_formula_structural   Li2V3CoO8
_chemical_formula_sum   'Li2 V3 Co1 O8'
_cell_volume   152.00922759
_cell_formula_units_Z   1
loop_
 _symmetry_equiv_pos_site_id
 _symmetry_equiv_pos_as_xyz
  1  'x, y, z'
loop_
 _atom_site_type_symbol
 _atom_site_label
 _atom_site_symmetry_multiplicity
 _atom_site_fract_x
 _atom_site_fract_y
 _atom_site_fract_z
 _atom_site_occupancy
  Li  Li0  1  0.06017441  0.93982559  0.34594631  1
  Li  Li1  1  0.93978592  0.06021408  0.63715791  1
  V  V2  1  0.39213958  0.60786042  0.29764851  1
  V  V3  1  0.61129485  0.38870515  0.72217401  1
  V  V4  1  0.29115004  0.70884996  0.71187089  1
  Co  Co5  1  0.71054886  0.28945114  0.30141651  1
  O  O6  1  0.12108073  0.87891927  0.67088644  1
  O  O7  1  0.24143313  0.75856687  0.36317653  1
  O  O8  1  0.34467296  0.65532704  0.98860038  1
  O  O9  1  0.44020034  0.55979966  0.64028699  1
  O  O10  1  0.54795776  0.45204224  0.35275884  1
  O  O11  1  0.64480744  0.35519256  0.99022586  1
  O  O12  1  0.76632250  0.23367750  0.66171063  1
  O  O13  1  0.88843249  0.11156751  0.31614018  1
