# generated using pymatgen
data_Na9Cu2O7
_symmetry_space_group_name_H-M   'P 1'
_cell_length_a   9.90268935
_cell_length_b   9.90268935
_cell_length_c   9.90268935
_cell_angle_alpha   90.00000000
_cell_angle_beta   90.00000000
_cell_angle_gamma   90.00000000
_symmetry_Int_Tables_number   1
_chemical_formula_structural   Na9Cu2O7
_chemical_formula_sum   'Na36 Cu8 O28'
_cell_volume   971.08996441
_cell_formula_units_Z   4
loop_
 _symmetry_equiv_pos_site_id
 _symmetry_equiv_pos_as_xyz
  1  'x, y, z'
loop_
 _atom_site_type_symbol
 _atom_site_label
 _atom_site_symmetry_multiplicity
 _atom_site_fract_x
 _atom_site_fract_y
 _atom_site_fract_z
 _atom_site_occupancy
  Na  Na0  1  0.01103084  0.29147458  0.83568903  1
  Na  Na1  1  0.03814847  0.78426690  0.17020305  1
  Na  Na2  1  0.06963626  0.06963626  0.06963626  1
  Na  Na3  1  0.10366874  0.60366874  0.89633126  1
  Na  Na4  1  0.16431097  0.51103084  0.20852542  1
  Na  Na5  1  0.17020305  0.03814847  0.78426690  1
  Na  Na6  1  0.20852542  0.16431097  0.51103084  1
  Na  Na7  1  0.21573310  0.67020305  0.46185153  1
  Na  Na8  1  0.23484953  0.23484953  0.23484953  1
  Na  Na9  1  0.26515047  0.76515047  0.73484953  1
  Na  Na10  1  0.28426690  0.32979695  0.96185153  1
  Na  Na11  1  0.29147458  0.83568903  0.01103084  1
  Na  Na12  1  0.32979695  0.96185153  0.28426690  1
  Na  Na13  1  0.33568903  0.48896916  0.70852542  1
  Na  Na14  1  0.39633126  0.39633126  0.39633126  1
  Na  Na15  1  0.43036374  0.93036374  0.56963626  1
  Na  Na16  1  0.46185153  0.21573310  0.67020305  1
  Na  Na17  1  0.48896916  0.70852542  0.33568903  1
  Na  Na18  1  0.51103084  0.20852542  0.16431097  1
  Na  Na19  1  0.53814847  0.71573310  0.82979695  1
  Na  Na20  1  0.56963626  0.43036374  0.93036374  1
  Na  Na21  1  0.60366874  0.89633126  0.10366874  1
  Na  Na22  1  0.66431097  0.98896916  0.79147458  1
  Na  Na23  1  0.67020305  0.46185153  0.21573310  1
  Na  Na24  1  0.70852542  0.33568903  0.48896916  1
  Na  Na25  1  0.71573310  0.82979695  0.53814847  1
  Na  Na26  1  0.73484953  0.26515047  0.76515047  1
  Na  Na27  1  0.76515047  0.73484953  0.26515047  1
  Na  Na28  1  0.78426690  0.17020305  0.03814847  1
  Na  Na29  1  0.79147458  0.66431097  0.98896916  1
  Na  Na30  1  0.82979695  0.53814847  0.71573310  1
  Na  Na31  1  0.83568903  0.01103084  0.29147458  1
  Na  Na32  1  0.89633126  0.10366874  0.60366874  1
  Na  Na33  1  0.93036374  0.56963626  0.43036374  1
  Na  Na34  1  0.96185153  0.28426690  0.32979695  1
  Na  Na35  1  0.98896916  0.79147458  0.66431097  1
  Cu  Cu36  1  0.06788921  0.93211079  0.43211079  1
  Cu  Cu37  1  0.09745201  0.40254799  0.59745201  1
  Cu  Cu38  1  0.40254799  0.59745201  0.09745201  1
  Cu  Cu39  1  0.43211079  0.06788921  0.93211079  1
  Cu  Cu40  1  0.56788921  0.56788921  0.56788921  1
  Cu  Cu41  1  0.59745201  0.09745201  0.40254799  1
  Cu  Cu42  1  0.90254799  0.90254799  0.90254799  1
  Cu  Cu43  1  0.93211079  0.43211079  0.06788921  1
  O  O44  1  0.07571482  0.31313408  0.07601975  1
  O  O45  1  0.08531184  0.83732342  0.91021318  1
  O  O46  1  0.07601975  0.07571482  0.31313408  1
  O  O47  1  0.08978682  0.58531184  0.66267658  1
  O  O48  1  0.16267658  0.41021318  0.41468816  1
  O  O49  1  0.18686592  0.92398025  0.57571482  1
  O  O50  1  0.22030765  0.27969235  0.72030765  1
  O  O51  1  0.27969235  0.72030765  0.22030765  1
  O  O52  1  0.31313408  0.07601975  0.07571482  1
  O  O53  1  0.33732342  0.58978682  0.91468816  1
  O  O54  1  0.41021318  0.41468816  0.16267658  1
  O  O55  1  0.42398025  0.92428518  0.81313408  1
  O  O56  1  0.41468816  0.16267658  0.41021318  1
  O  O57  1  0.42428518  0.68686592  0.57601975  1
  O  O58  1  0.57571482  0.18686592  0.92398025  1
  O  O59  1  0.58531184  0.66267658  0.08978682  1
  O  O60  1  0.57601975  0.42428518  0.68686592  1
  O  O61  1  0.58978682  0.91468816  0.33732342  1
  O  O62  1  0.66267658  0.08978682  0.58531184  1
  O  O63  1  0.68686592  0.57601975  0.42428518  1
  O  O64  1  0.72030765  0.22030765  0.27969235  1
  O  O65  1  0.77969235  0.77969235  0.77969235  1
  O  O66  1  0.81313408  0.42398025  0.92428518  1
  O  O67  1  0.83732342  0.91021318  0.08531184  1
  O  O68  1  0.91021318  0.08531184  0.83732342  1
  O  O69  1  0.92398025  0.57571482  0.18686592  1
  O  O70  1  0.91468816  0.33732342  0.58978682  1
  O  O71  1  0.92428518  0.81313408  0.42398025  1
