# generated using pymatgen
data_Li2MnF4
_symmetry_space_group_name_H-M   'P 1'
_cell_length_a   5.47850308
_cell_length_b   5.47850308
_cell_length_c   6.13432333
_cell_angle_alpha   90.39093372
_cell_angle_beta   89.60906628
_cell_angle_gamma   120.00922304
_symmetry_Int_Tables_number   1
_chemical_formula_structural   Li2MnF4
_chemical_formula_sum   'Li4 Mn2 F8'
_cell_volume   159.42897983
_cell_formula_units_Z   2
loop_
 _symmetry_equiv_pos_site_id
 _symmetry_equiv_pos_as_xyz
  1  'x, y, z'
loop_
 _atom_site_type_symbol
 _atom_site_label
 _atom_site_symmetry_multiplicity
 _atom_site_fract_x
 _atom_site_fract_y
 _atom_site_fract_z
 _atom_site_occupancy
  Li  Li0  1  0.30022032  0.62100853  0.16556941  1
  Li  Li1  1  0.02424947  0.02424947  0.50000000  1
  Li  Li2  1  0.02248342  0.02248342  0.00000000  1
  Li  Li3  1  0.62100853  0.30022032  0.83443059  1
  Mn  Mn4  1  0.40936301  0.71355399  0.67449596  1
  Mn  Mn5  1  0.71355399  0.40936301  0.32550404  1
  F  F6  1  0.35265753  0.89451689  0.95075107  1
  F  F7  1  0.15048839  0.69846634  0.42646402  1
  F  F8  1  0.26595947  0.28761884  0.74107622  1
  F  F9  1  0.79444938  0.73613242  0.74678537  1
  F  F10  1  0.73613242  0.79444938  0.25321463  1
  F  F11  1  0.28761884  0.26595947  0.25892378  1
  F  F12  1  0.69846634  0.15048839  0.57353598  1
  F  F13  1  0.89451689  0.35265753  0.04924893  1
