# generated using pymatgen
data_Li4Mn3Cr3(CoO8)2
_symmetry_space_group_name_H-M   'P 1'
_cell_length_a   5.84848451
_cell_length_b   5.85288905
_cell_length_c   9.64980116
_cell_angle_alpha   90.18114318
_cell_angle_beta   89.38927822
_cell_angle_gamma   120.03111388
_symmetry_Int_Tables_number   1
_chemical_formula_structural   Li4Mn3Cr3(CoO8)2
_chemical_formula_sum   'Li4 Mn3 Cr3 Co2 O16'
_cell_volume   285.95674456
_cell_formula_units_Z   1
loop_
 _symmetry_equiv_pos_site_id
 _symmetry_equiv_pos_as_xyz
  1  'x, y, z'
loop_
 _atom_site_type_symbol
 _atom_site_label
 _atom_site_symmetry_multiplicity
 _atom_site_fract_x
 _atom_site_fract_y
 _atom_site_fract_z
 _atom_site_occupancy
  Li  Li0  1  0.33461959  0.66846616  0.89555591  1
  Li  Li1  1  0.00649405  0.00157648  0.99711297  1
  Li  Li2  1  0.00488970  0.00173206  0.49675402  1
  Li  Li3  1  0.66340239  0.33222918  0.39614436  1
  Mn  Mn4  1  0.65972863  0.82944567  0.21502810  1
  Mn  Mn5  1  0.83241247  0.66363971  0.71437352  1
  Mn  Mn6  1  0.83254218  0.16920598  0.71465814  1
  Cr  Cr7  1  0.16502448  0.82859462  0.21445350  1
  Cr  Cr8  1  0.16410142  0.33496364  0.21366365  1
  Cr  Cr9  1  0.33894896  0.16976921  0.71440920  1
  Co  Co10  1  0.33503947  0.66709192  0.49436866  1
  Co  Co11  1  0.66733579  0.33425544  0.99337738  1
  O  O12  1  0.16267614  0.84481117  0.60574997  1
  O  O13  1  0.03010692  0.51527518  0.32497692  1
  O  O14  1  0.34235221  0.67024054  0.10587760  1
  O  O15  1  0.98661812  0.99365229  0.31342748  1
  O  O16  1  0.99114144  0.99625444  0.81227066  1
  O  O17  1  0.16263372  0.31714414  0.60589115  1
  O  O18  1  0.47646861  0.96145403  0.33037660  1
  O  O19  1  0.47589155  0.51557647  0.33079358  1
  O  O20  1  0.32067533  0.16034164  0.10862306  1
  O  O21  1  0.68575544  0.84258401  0.60548472  1
  O  O22  1  0.51437327  0.48163136  0.82670846  1
  O  O23  1  0.51455320  0.03491596  0.82730652  1
  O  O24  1  0.67948651  0.33924684  0.60759775  1
  O  O25  1  0.84615552  0.68491988  0.10535921  1
  O  O26  1  0.96098578  0.48143468  0.83213904  1
  O  O27  1  0.84558710  0.15984730  0.10535689  1
