# generated using pymatgen
data_Y2Sb2O7
_symmetry_space_group_name_H-M   'P 1'
_cell_length_a   7.55917051
_cell_length_b   7.55954606
_cell_length_c   18.57285267
_cell_angle_alpha   90.00752229
_cell_angle_beta   89.98929898
_cell_angle_gamma   119.99298507
_symmetry_Int_Tables_number   1
_chemical_formula_structural   Y2Sb2O7
_chemical_formula_sum   'Y12 Sb12 O42'
_cell_volume   919.19952551
_cell_formula_units_Z   6
loop_
 _symmetry_equiv_pos_site_id
 _symmetry_equiv_pos_as_xyz
  1  'x, y, z'
loop_
 _atom_site_type_symbol
 _atom_site_label
 _atom_site_symmetry_multiplicity
 _atom_site_fract_x
 _atom_site_fract_y
 _atom_site_fract_z
 _atom_site_occupancy
  Y  Y0  1  0.99997209  0.82145169  0.66689231  1
  Y  Y1  1  0.00026677  0.83474013  0.16672034  1
  Y  Y2  1  0.18119561  0.68104660  0.01141033  1
  Y  Y3  1  0.17849587  0.17852727  0.99998227  1
  Y  Y4  1  0.49956156  0.81810329  0.67825418  1
  Y  Y5  1  0.16594137  0.16564087  0.49999283  1
  Y  Y6  1  0.31887408  0.50004894  0.34475967  1
  Y  Y7  1  0.50002254  0.31890785  0.65528865  1
  Y  Y8  1  0.68133993  0.18183760  0.98847115  1
  Y  Y9  1  0.81818296  0.49963299  0.32178351  1
  Y  Y10  1  0.83489330  0.00026142  0.83326433  1
  Y  Y11  1  0.82149203  0.99989961  0.33326580  1
  Sb  Sb12  1  0.99940575  0.32330108  0.16666910  1
  Sb  Sb13  1  0.99862279  0.29835440  0.66631853  1
  Sb  Sb14  1  0.16407700  0.66550098  0.50075646  1
  Sb  Sb15  1  0.50160157  0.83583217  0.16759788  1
  Sb  Sb16  1  0.33437094  0.49845609  0.83403463  1
  Sb  Sb17  1  0.29854884  0.99897056  0.33355690  1
  Sb  Sb18  1  0.67719654  0.67722345  0.50005954  1
  Sb  Sb19  1  0.32358278  0.99945652  0.83342005  1
  Sb  Sb20  1  0.70047079  0.70150090  0.00020986  1
  Sb  Sb21  1  0.49845435  0.33431606  0.16598326  1
  Sb  Sb22  1  0.66558974  0.16408395  0.49922871  1
  Sb  Sb23  1  0.83586718  0.50162809  0.83241709  1
  O  O24  1  0.01802940  0.85207069  0.28460495  1
  O  O25  1  0.99414289  0.80180568  0.80582335  1
  O  O26  1  0.10612679  0.65653658  0.39388603  1
  O  O27  1  0.05690523  0.44321353  0.80629967  1
  O  O28  1  0.32733776  0.99310497  0.95585643  1
  O  O29  1  0.22644109  0.69480980  0.60632051  1
  O  O30  1  0.00771390  0.33471493  0.28856196  1
  O  O31  1  0.20349173  0.68603137  0.14002203  1
  O  O32  1  0.38622871  0.94300192  0.47284810  1
  O  O33  1  0.46749862  0.77377139  0.27316642  1
  O  O34  1  0.48333869  0.79665663  0.80656076  1
  O  O35  1  0.34403931  0.45044094  0.72719699  1
  O  O36  1  0.14717846  0.16507454  0.61790309  1
  O  O37  1  0.31299079  0.51655025  0.47310402  1
  O  O38  1  0.19803313  0.19315389  0.13980862  1
  O  O39  1  0.16512708  0.14721260  0.38207335  1
  O  O40  1  0.30618305  0.53259218  0.93962899  1
  O  O41  1  0.19315509  0.19808486  0.86032669  1
  O  O42  1  0.55100427  0.89383072  0.06066312  1
  O  O43  1  0.55647576  0.61353444  0.13960201  1
  O  O44  1  0.80709040  0.00509768  0.47307600  1
  O  O45  1  0.66630356  0.67327142  0.62224323  1
  O  O46  1  0.45030412  0.34376647  0.27282872  1
  O  O47  1  0.61354264  0.55644866  0.86037388  1
  O  O48  1  0.33485436  0.00774857  0.71141114  1
  O  O49  1  0.83435190  0.98208629  0.95116162  1
  O  O50  1  0.53232123  0.30589835  0.06040847  1
  O  O51  1  0.67326062  0.66625171  0.37771776  1
  O  O52  1  0.51681581  0.31322491  0.52686859  1
  O  O53  1  0.44343346  0.05696775  0.19368497  1
  O  O54  1  0.69474010  0.22640107  0.39367856  1
  O  O55  1  0.68569361  0.20333114  0.85988035  1
  O  O56  1  0.89411947  0.55040772  0.93922361  1
  O  O57  1  0.98178774  0.83458927  0.04883068  1
  O  O58  1  0.79659736  0.48339741  0.19347793  1
  O  O59  1  0.00488000  0.80685930  0.52685375  1
  O  O60  1  0.77385219  0.46751481  0.72680581  1
  O  O61  1  0.65669113  0.10615601  0.60613498  1
  O  O62  1  0.94292756  0.38628504  0.52726838  1
  O  O63  1  0.80182240  0.99420576  0.19409647  1
  O  O64  1  0.99316274  0.32721961  0.04414775  1
  O  O65  1  0.85198048  0.01795661  0.71536689  1
