# generated using pymatgen
data_Fe6O5F7
_symmetry_space_group_name_H-M   'P 1'
_cell_length_a   4.77820085
_cell_length_b   7.82525632
_cell_length_c   5.69610219
_cell_angle_alpha   94.54160680
_cell_angle_beta   92.10705511
_cell_angle_gamma   88.27199171
_symmetry_Int_Tables_number   1
_chemical_formula_structural   Fe6O5F7
_chemical_formula_sum   'Fe6 O5 F7'
_cell_volume   212.08929743
_cell_formula_units_Z   1
loop_
 _symmetry_equiv_pos_site_id
 _symmetry_equiv_pos_as_xyz
  1  'x, y, z'
loop_
 _atom_site_type_symbol
 _atom_site_label
 _atom_site_symmetry_multiplicity
 _atom_site_fract_x
 _atom_site_fract_y
 _atom_site_fract_z
 _atom_site_occupancy
  Fe  Fe0  1  0.52626848  0.67428906  0.14853178  1
  Fe  Fe1  1  0.51940643  0.00026882  0.52342926  1
  Fe  Fe2  1  0.47003585  0.33318988  0.81288765  1
  Fe  Fe3  1  0.98864847  0.66721644  0.67415299  1
  Fe  Fe4  1  0.01893682  0.33108571  0.33992840  1
  Fe  Fe5  1  0.96412045  0.99572521  0.99415354  1
  O  O6  1  0.80666350  0.77159436  0.95694493  1
  O  O7  1  0.69636858  0.11077222  0.80585026  1
  O  O8  1  0.69514584  0.76909937  0.45555812  1
  O  O9  1  0.30472295  0.56493374  0.87400682  1
  O  O10  1  0.31855930  0.22007883  0.53266164  1
  F  F11  1  0.80109181  0.43849648  0.64021640  1
  F  F12  1  0.80451377  0.09176262  0.29821756  1
  F  F13  1  0.69741902  0.43108173  0.13530454  1
  F  F14  1  0.29711267  0.90550835  0.19949755  1
  F  F15  1  0.19654073  0.21887475  0.02689736  1
  F  F16  1  0.19840261  0.57630220  0.37489478  1
  F  F17  1  0.19604371  0.89971822  0.70686843  1
