# generated using pymatgen
data_Na6CuO4
_symmetry_space_group_name_H-M   'P 1'
_cell_length_a   7.69290965
_cell_length_b   13.35700493
_cell_length_c   5.85500320
_cell_angle_alpha   89.97433487
_cell_angle_beta   90.94900329
_cell_angle_gamma   29.80582166
_symmetry_Int_Tables_number   1
_chemical_formula_structural   Na6CuO4
_chemical_formula_sum   'Na12 Cu2 O8'
_cell_volume   298.87170423
_cell_formula_units_Z   2
loop_
 _symmetry_equiv_pos_site_id
 _symmetry_equiv_pos_as_xyz
  1  'x, y, z'
loop_
 _atom_site_type_symbol
 _atom_site_label
 _atom_site_symmetry_multiplicity
 _atom_site_fract_x
 _atom_site_fract_y
 _atom_site_fract_z
 _atom_site_occupancy
  Na  Na0  1  0.07092568  0.64422485  0.53644524  1
  Na  Na1  1  0.07128838  0.78594566  0.03666898  1
  Na  Na2  1  0.10083696  0.96831528  0.87006447  1
  Na  Na3  1  0.10066255  0.43195053  0.37004550  1
  Na  Na4  1  0.49112269  0.04176870  0.36899102  1
  Na  Na5  1  0.49075774  0.96852259  0.86907484  1
  Na  Na6  1  0.49457166  0.36157998  0.03588338  1
  Na  Na7  1  0.49444858  0.64518713  0.53571775  1
  Na  Na8  1  0.88204669  0.57770985  0.87629873  1
  Na  Na9  1  0.88162686  0.04198133  0.37610671  1
  Na  Na10  1  0.91951659  0.21973048  0.53515350  1
  Na  Na11  1  0.91988650  0.36185358  0.03517871  1
  Cu  Cu12  1  0.48744173  0.84069586  0.26358001  1
  Cu  Cu13  1  0.48812656  0.17279987  0.76354476  1
  O  O14  1  0.06293614  0.12890116  0.15166100  1
  O  O15  1  0.06324649  0.30894192  0.65146377  1
  O  O16  1  0.47696162  0.84280581  0.59935609  1
  O  O17  1  0.47659775  0.18196583  0.09940775  1
  O  O18  1  0.50817699  0.30870284  0.65100112  1
  O  O19  1  0.50857643  0.68412190  0.15063544  1
  O  O20  1  0.92765561  0.88129922  0.64052110  1
  O  O21  1  0.92857979  0.69206164  0.14065213  1
