# generated using pymatgen
data_NaV5O8
_symmetry_space_group_name_H-M   'P 1'
_cell_length_a   3.07420130
_cell_length_b   7.81941637
_cell_length_c   7.33247428
_cell_angle_alpha   73.74463053
_cell_angle_beta   90.00000000
_cell_angle_gamma   78.66325924
_symmetry_Int_Tables_number   1
_chemical_formula_structural   NaV5O8
_chemical_formula_sum   'Na1 V5 O8'
_cell_volume   165.62978657
_cell_formula_units_Z   1
loop_
 _symmetry_equiv_pos_site_id
 _symmetry_equiv_pos_as_xyz
  1  'x, y, z'
loop_
 _atom_site_type_symbol
 _atom_site_label
 _atom_site_symmetry_multiplicity
 _atom_site_fract_x
 _atom_site_fract_y
 _atom_site_fract_z
 _atom_site_occupancy
  Na  Na0  1  0.00000000  0.00000000  0.00000000  1
  V  V1  1  0.15421279  0.69157443  0.43130408  1
  V  V2  1  0.20297862  0.59404375  0.83395472  1
  V  V3  1  0.79702138  0.40595625  0.16604528  1
  V  V4  1  0.84578721  0.30842557  0.56869592  1
  V  V5  1  0.50000000  0.00000000  0.50000000  1
  O  O6  1  0.08185143  0.83629713  0.62637107  1
  O  O7  1  0.57574300  0.84851500  0.30528290  1
  O  O8  1  0.67376819  0.65246263  0.98215567  1
  O  O9  1  0.73095777  0.53808445  0.64309064  1
  O  O10  1  0.26904223  0.46191555  0.35690936  1
  O  O11  1  0.32623181  0.34753737  0.01784433  1
  O  O12  1  0.42425700  0.15148500  0.69471710  1
  O  O13  1  0.91814857  0.16370287  0.37362893  1
