# generated using pymatgen
data_Li9Sn3P8O29
_symmetry_space_group_name_H-M   'P 1'
_cell_length_a   10.13843228
_cell_length_b   10.13383429
_cell_length_c   14.08968254
_cell_angle_alpha   90.00001737
_cell_angle_beta   89.96536180
_cell_angle_gamma   60.01436191
_symmetry_Int_Tables_number   1
_chemical_formula_structural   Li9Sn3P8O29
_chemical_formula_sum   'Li18 Sn6 P16 O58'
_cell_volume   1253.83147963
_cell_formula_units_Z   2
loop_
 _symmetry_equiv_pos_site_id
 _symmetry_equiv_pos_as_xyz
  1  'x, y, z'
loop_
 _atom_site_type_symbol
 _atom_site_label
 _atom_site_symmetry_multiplicity
 _atom_site_fract_x
 _atom_site_fract_y
 _atom_site_fract_z
 _atom_site_occupancy
  Li  Li0  1  0.00000835  0.00001002  0.50001765  1
  Li  Li1  1  0.00000474  0.00000775  0.99998566  1
  Li  Li2  1  0.10150718  0.22917650  0.56206472  1
  Li  Li3  1  0.22902456  0.10150696  0.06209729  1
  Li  Li4  1  0.10148992  0.66933778  0.06206978  1
  Li  Li5  1  0.33356798  0.33331705  0.38120894  1
  Li  Li6  1  0.33364112  0.33306470  0.88125990  1
  Li  Li7  1  0.22899815  0.66946781  0.56208415  1
  Li  Li8  1  0.66955611  0.10140881  0.56222240  1
  Li  Li9  1  0.33044459  0.77096831  0.93778171  1
  Li  Li10  1  0.66953498  0.22908048  0.06223011  1
  Li  Li11  1  0.33046284  0.89862149  0.43778415  1
  Li  Li12  1  0.77099966  0.33052151  0.43788548  1
  Li  Li13  1  0.66639956  0.66673004  0.61873702  1
  Li  Li14  1  0.66642991  0.66687741  0.11879827  1
  Li  Li15  1  0.89849461  0.33068739  0.93794245  1
  Li  Li16  1  0.77103103  0.89845128  0.93790817  1
  Li  Li17  1  0.89853089  0.77079430  0.43793267  1
  Sn  Sn18  1  0.99999348  0.43459489  0.75000677  1
  Sn  Sn19  1  0.00000268  0.56542120  0.24999527  1
  Sn  Sn20  1  0.43465745  0.99993719  0.24993649  1
  Sn  Sn21  1  0.56535285  0.00006175  0.75005783  1
  Sn  Sn22  1  0.43467317  0.56539827  0.74994361  1
  Sn  Sn23  1  0.56534498  0.43458868  0.25006509  1
  P  P24  1  0.08621095  0.22300406  0.34694362  1
  P  P25  1  0.22249190  0.08671551  0.84697192  1
  P  P26  1  0.08627860  0.69078319  0.84694160  1
  P  P27  1  0.33281067  0.33346818  0.11510585  1
  P  P28  1  0.33285056  0.33373227  0.61510843  1
  P  P29  1  0.22246372  0.69080430  0.34696295  1
  P  P30  1  0.30907601  0.77745576  0.15299846  1
  P  P31  1  0.69094093  0.08656385  0.34698966  1
  P  P32  1  0.30909719  0.91342811  0.65299998  1
  P  P33  1  0.69093395  0.22246899  0.84700807  1
  P  P34  1  0.77752878  0.30918957  0.65302586  1
  P  P35  1  0.66717761  0.66658072  0.88488565  1
  P  P36  1  0.66720094  0.66628499  0.38488289  1
  P  P37  1  0.91376257  0.30919620  0.15304730  1
  P  P38  1  0.77756583  0.91325892  0.15303362  1
  P  P39  1  0.91372703  0.77708154  0.65305446  1
  O  O40  1  0.00000762  0.22220447  0.24999681  1
  O  O41  1  0.00971140  0.21875096  0.06822060  1
  O  O42  1  0.06967226  0.23862273  0.84832101  1
  O  O43  1  0.22249615  0.00018445  0.74996472  1
  O  O44  1  0.21856397  0.00986739  0.56812345  1
  O  O45  1  0.23810457  0.07068864  0.34867511  1
  O  O46  1  0.12021135  0.35549470  0.34258663  1
  O  O47  1  0.20143146  0.30776307  0.65318269  1
  O  O48  1  0.12018827  0.52422354  0.84256125  1
  O  O49  1  0.00966374  0.77154445  0.56823974  1
  O  O50  1  0.00002176  0.77778147  0.74999474  1
  O  O51  1  0.06974012  0.69170594  0.34838067  1
  O  O52  1  0.30651483  0.20210262  0.15280115  1
  O  O53  1  0.35431973  0.12136621  0.84321311  1
  O  O54  1  0.20147286  0.49082173  0.15314680  1
  O  O55  1  0.33250574  0.33417098  0.00839690  1
  O  O56  1  0.33249346  0.33328931  0.50840607  1
  O  O57  1  0.30657599  0.49138340  0.65279627  1
  O  O58  1  0.52444983  0.12144245  0.34299321  1
  O  O59  1  0.49029712  0.20263808  0.65292155  1
  O  O60  1  0.23811687  0.69112371  0.84863683  1
  O  O61  1  0.22247215  0.77734319  0.24996527  1
  O  O62  1  0.21853543  0.77156761  0.06810538  1
  O  O63  1  0.22721456  0.78203212  0.43164998  1
  O  O64  1  0.35431835  0.52435036  0.34325829  1
  O  O65  1  0.49027838  0.30709014  0.15290727  1
  O  O66  1  0.30703400  0.76232452  0.65146135  1
  O  O67  1  0.52439230  0.35406901  0.84299205  1
  O  O68  1  0.69294795  0.06939502  0.84854903  1
  O  O69  1  0.22717416  0.99085505  0.93160246  1
  O  O70  1  0.77275367  0.00924803  0.06836505  1
  O  O71  1  0.77758976  0.99977073  0.25004587  1
  O  O72  1  0.30707937  0.93060679  0.15140305  1
  O  O73  1  0.47555853  0.64593223  0.15700289  1
  O  O74  1  0.69289779  0.23763409  0.34861100  1
  O  O75  1  0.50971168  0.69291765  0.84709338  1
  O  O76  1  0.64564796  0.47568874  0.65676358  1
  O  O77  1  0.77284271  0.21799841  0.56839844  1
  O  O78  1  0.78143592  0.22844134  0.93187727  1
  O  O79  1  0.77751473  0.22267860  0.75003580  1
  O  O80  1  0.76192822  0.30881080  0.15132437  1
  O  O81  1  0.50970102  0.79741827  0.34707971  1
  O  O82  1  0.47558335  0.87846894  0.65701039  1
  O  O83  1  0.69346022  0.50867246  0.34721161  1
  O  O84  1  0.66754188  0.66574643  0.99161497  1
  O  O85  1  0.66746464  0.66679992  0.49160293  1
  O  O86  1  0.79857230  0.50917172  0.84682369  1
  O  O87  1  0.64565676  0.87866582  0.15676041  1
  O  O88  1  0.69344070  0.79792602  0.84720975  1
  O  O89  1  0.93027980  0.30834688  0.65166625  1
  O  O90  1  0.99030494  0.22846244  0.43176778  1
  O  O91  1  0.87980649  0.47572410  0.15740032  1
  O  O92  1  0.79853304  0.69230446  0.34683678  1
  O  O93  1  0.87982048  0.64440959  0.65743591  1
  O  O94  1  0.76192649  0.92923205  0.65137168  1
  O  O95  1  0.78147262  0.99004430  0.43191823  1
  O  O96  1  0.93022140  0.76142704  0.15158973  1
  O  O97  1  0.99036016  0.78120612  0.93174889  1
