# generated using pymatgen
data_Li2VPHO5
_symmetry_space_group_name_H-M   'P 1'
_cell_length_a   5.39541680
_cell_length_b   5.59800298
_cell_length_c   7.72747875
_cell_angle_alpha   108.39463033
_cell_angle_beta   108.84468826
_cell_angle_gamma   94.12202793
_symmetry_Int_Tables_number   1
_chemical_formula_structural   Li2VPHO5
_chemical_formula_sum   'Li4 V2 P2 H2 O10'
_cell_volume   205.63753704
_cell_formula_units_Z   2
loop_
 _symmetry_equiv_pos_site_id
 _symmetry_equiv_pos_as_xyz
  1  'x, y, z'
loop_
 _atom_site_type_symbol
 _atom_site_label
 _atom_site_symmetry_multiplicity
 _atom_site_fract_x
 _atom_site_fract_y
 _atom_site_fract_z
 _atom_site_occupancy
  Li  Li0  1  0.46587351  0.13039286  0.83238597  1
  Li  Li1  1  0.79365494  0.42582302  0.80088258  1
  Li  Li2  1  0.20634377  0.57417728  0.19911648  1
  Li  Li3  1  0.53412795  0.86960986  0.16761478  1
  V  V4  1  0.00000932  0.00000358  0.50000073  1
  V  V5  1  0.00000391  -0.00000104  0.00000143  1
  P  P6  1  0.66893083  0.37479706  0.22883812  1
  P  P7  1  0.33106795  0.62520276  0.77116119  1
  H  H8  1  0.33949091  0.07687582  0.35870799  1
  H  H9  1  0.66050732  0.92312332  0.64129194  1
  O  O10  1  0.81627486  0.06141084  0.72415015  1
  O  O11  1  0.73025410  0.22161777  0.36751660  1
  O  O12  1  0.33289631  0.33805697  0.66877067  1
  O  O13  1  0.37939141  0.25314642  0.07276403  1
  O  O14  1  0.86154846  0.35115891  0.11350850  1
  O  O15  1  0.13845003  0.64884082  0.88649193  1
  O  O16  1  0.62060679  0.74685259  0.92723513  1
  O  O17  1  0.66710124  0.66194290  0.33122943  1
  O  O18  1  0.26974521  0.77838382  0.63248397  1
  O  O19  1  0.18372518  0.93858944  0.27585138  1
