# generated using pymatgen
data_Na6Ti2O7
_symmetry_space_group_name_H-M   'P 1'
_cell_length_a   8.47832050
_cell_length_b   8.47832050
_cell_length_c   11.17925683
_cell_angle_alpha   76.90981228
_cell_angle_beta   103.09018772
_cell_angle_gamma   107.67990778
_symmetry_Int_Tables_number   1
_chemical_formula_structural   Na6Ti2O7
_chemical_formula_sum   'Na18 Ti6 O21'
_cell_volume   734.88982386
_cell_formula_units_Z   3
loop_
 _symmetry_equiv_pos_site_id
 _symmetry_equiv_pos_as_xyz
  1  'x, y, z'
loop_
 _atom_site_type_symbol
 _atom_site_label
 _atom_site_symmetry_multiplicity
 _atom_site_fract_x
 _atom_site_fract_y
 _atom_site_fract_z
 _atom_site_occupancy
  Na  Na0  1  0.02469934  0.66349481  0.88404687  1
  Na  Na1  1  0.33650519  0.97530066  0.88404687  1
  Na  Na2  1  0.12855541  0.56410627  0.37968954  1
  Na  Na3  1  0.43589373  0.87144459  0.37968954  1
  Na  Na4  1  0.57859859  0.74872969  0.87949970  1
  Na  Na5  1  0.25127031  0.42140141  0.87949970  1
  Na  Na6  1  0.45958212  0.54041788  0.62177121  1
  Na  Na7  1  0.12953562  0.19359882  0.61816021  1
  Na  Na8  1  0.80640118  0.87046438  0.61816021  1
  Na  Na9  1  0.87046438  0.80640118  0.38183979  1
  Na  Na10  1  0.19359882  0.12953562  0.38183979  1
  Na  Na11  1  0.54041788  0.45958212  0.37822879  1
  Na  Na12  1  0.42140141  0.25127031  0.12050030  1
  Na  Na13  1  0.74872969  0.57859859  0.12050030  1
  Na  Na14  1  0.87144459  0.43589373  0.62031046  1
  Na  Na15  1  0.56410627  0.12855541  0.62031046  1
  Na  Na16  1  0.66349481  0.02469934  0.11595313  1
  Na  Na17  1  0.97530066  0.33650519  0.11595313  1
  Ti  Ti18  1  0.20637048  0.79362952  0.62819510  1
  Ti  Ti19  1  0.11176548  0.88823452  0.13981724  1
  Ti  Ti20  1  0.35510480  0.64489520  0.12906262  1
  Ti  Ti21  1  0.64489520  0.35510480  0.87093738  1
  Ti  Ti22  1  0.88823452  0.11176548  0.86018276  1
  Ti  Ti23  1  0.79362952  0.20637048  0.37180490  1
  O  O24  1  0.27361727  0.72638273  0.79686026  1
  O  O25  1  0.29942071  0.70057929  0.53869082  1
  O  O26  1  0.21208754  0.78791246  0.05372503  1
  O  O27  1  0.73563062  0.97282011  0.76337737  1
  O  O28  1  0.02717989  0.26436938  0.76337737  1
  O  O29  1  0.02574030  0.27590272  0.41150190  1
  O  O30  1  0.72409728  0.97425970  0.41150190  1
  O  O31  1  0.37721699  0.62278301  0.29717466  1
  O  O32  1  0.25353963  0.44055174  0.08262879  1
  O  O33  1  0.55944826  0.74646037  0.08262879  1
  O  O34  1  0.74646037  0.55944826  0.91737121  1
  O  O35  1  0.44055174  0.25353963  0.91737121  1
  O  O36  1  0.62278301  0.37721699  0.70282534  1
  O  O37  1  0.27590272  0.02574030  0.58849810  1
  O  O38  1  0.97425970  0.72409728  0.58849810  1
  O  O39  1  0.00000000  0.00000000  0.00000000  1
  O  O40  1  0.97282011  0.73563062  0.23662263  1
  O  O41  1  0.26436938  0.02717989  0.23662263  1
  O  O42  1  0.78791246  0.21208754  0.94627497  1
  O  O43  1  0.70057929  0.29942071  0.46130918  1
  O  O44  1  0.72638273  0.27361727  0.20313974  1
