# generated using pymatgen
data_Na6Bi2P(CO4)4
_symmetry_space_group_name_H-M   'P 1'
_cell_length_a   10.34045894
_cell_length_b   10.34045896
_cell_length_c   10.34045833
_cell_angle_alpha   59.99999834
_cell_angle_beta   60.00000126
_cell_angle_gamma   60.00000326
_symmetry_Int_Tables_number   1
_chemical_formula_structural   Na6Bi2P(CO4)4
_chemical_formula_sum   'Na12 Bi4 P2 C8 O32'
_cell_volume   781.81577711
_cell_formula_units_Z   2
loop_
 _symmetry_equiv_pos_site_id
 _symmetry_equiv_pos_as_xyz
  1  'x, y, z'
loop_
 _atom_site_type_symbol
 _atom_site_label
 _atom_site_symmetry_multiplicity
 _atom_site_fract_x
 _atom_site_fract_y
 _atom_site_fract_z
 _atom_site_occupancy
  Na  Na0  1  0.07019912  0.67980088  0.07019912  1
  Na  Na1  1  0.07019912  0.07019912  0.67980088  1
  Na  Na2  1  0.67980088  0.07019912  0.07019912  1
  Na  Na3  1  0.07019912  0.67980088  0.67980088  1
  Na  Na4  1  0.32019912  0.92980088  0.32019912  1
  Na  Na5  1  0.32019912  0.32019912  0.92980088  1
  Na  Na6  1  0.67980088  0.67980088  0.07019912  1
  Na  Na7  1  0.67980088  0.07019912  0.67980088  1
  Na  Na8  1  0.32019912  0.92980088  0.92980088  1
  Na  Na9  1  0.92980088  0.32019912  0.32019912  1
  Na  Na10  1  0.92980088  0.32019912  0.92980088  1
  Na  Na11  1  0.92980088  0.92980088  0.32019912  1
  Bi  Bi12  1  0.00000000  0.50000000  0.50000000  1
  Bi  Bi13  1  0.50000000  0.50000000  0.00000000  1
  Bi  Bi14  1  0.50000000  0.00000000  0.50000000  1
  Bi  Bi15  1  0.50000000  0.50000000  0.50000000  1
  P  P16  1  0.12500000  0.12500000  0.12500000  1
  P  P17  1  0.87500000  0.87500000  0.87500000  1
  C  C18  1  0.27263259  0.27263259  0.27263259  1
  C  C19  1  0.27263259  0.27263259  0.68210222  1
  C  C20  1  0.27263259  0.68210222  0.27263259  1
  C  C21  1  0.68210222  0.27263259  0.27263259  1
  C  C22  1  0.31789778  0.72736741  0.72736741  1
  C  C23  1  0.72736741  0.72736741  0.31789778  1
  C  C24  1  0.72736741  0.31789778  0.72736741  1
  C  C25  1  0.72736741  0.72736741  0.72736741  1
  O  O26  1  0.06336180  0.06336180  0.06336180  1
  O  O27  1  0.06336180  0.06336180  0.30991559  1
  O  O28  1  0.06336180  0.30991559  0.06336180  1
  O  O29  1  0.30991559  0.06336180  0.06336180  1
  O  O30  1  0.14367672  0.39581071  0.27964882  1
  O  O31  1  0.27964882  0.14367672  0.39581071  1
  O  O32  1  0.14367672  0.27964882  0.68086375  1
  O  O33  1  0.39581071  0.27964882  0.14367672  1
  O  O34  1  0.14367672  0.68086375  0.39581071  1
  O  O35  1  0.27964882  0.68086375  0.14367672  1
  O  O36  1  0.39581071  0.14367672  0.68086375  1
  O  O37  1  0.27964882  0.39581071  0.68086375  1
  O  O38  1  0.68086375  0.14367672  0.27964882  1
  O  O39  1  0.39581071  0.68086375  0.27964882  1
  O  O40  1  0.68086375  0.39581071  0.14367672  1
  O  O41  1  0.31913625  0.72035118  0.60418929  1
  O  O42  1  0.68086375  0.27964882  0.39581071  1
  O  O43  1  0.31913625  0.60418929  0.85632328  1
  O  O44  1  0.60418929  0.31913625  0.72035118  1
  O  O45  1  0.31913625  0.85632328  0.72035118  1
  O  O46  1  0.72035118  0.60418929  0.31913625  1
  O  O47  1  0.60418929  0.85632328  0.31913625  1
  O  O48  1  0.72035118  0.31913625  0.85632328  1
  O  O49  1  0.85632328  0.31913625  0.60418929  1
  O  O50  1  0.60418929  0.72035118  0.85632328  1
  O  O51  1  0.85632328  0.72035118  0.31913625  1
  O  O52  1  0.72035118  0.85632328  0.60418929  1
  O  O53  1  0.85632328  0.60418929  0.72035118  1
  O  O54  1  0.69008441  0.93663820  0.93663820  1
  O  O55  1  0.93663820  0.69008441  0.93663820  1
  O  O56  1  0.93663820  0.93663820  0.69008441  1
  O  O57  1  0.93663820  0.93663820  0.93663820  1
