# generated using pymatgen
data_Mn6O7F5
_symmetry_space_group_name_H-M   'P 1'
_cell_length_a   4.58756245
_cell_length_b   5.67141501
_cell_length_c   15.31632496
_cell_angle_alpha   90.04375550
_cell_angle_beta   89.63088461
_cell_angle_gamma   89.69334055
_symmetry_Int_Tables_number   1
_chemical_formula_structural   Mn6O7F5
_chemical_formula_sum   'Mn12 O14 F10'
_cell_volume   398.48558779
_cell_formula_units_Z   2
loop_
 _symmetry_equiv_pos_site_id
 _symmetry_equiv_pos_as_xyz
  1  'x, y, z'
loop_
 _atom_site_type_symbol
 _atom_site_label
 _atom_site_symmetry_multiplicity
 _atom_site_fract_x
 _atom_site_fract_y
 _atom_site_fract_z
 _atom_site_occupancy
  Mn  Mn0  1  0.00184316  0.15188231  0.40922897  1
  Mn  Mn1  1  0.01430553  0.84577349  0.24041331  1
  Mn  Mn2  1  0.02176833  0.16303797  0.07933738  1
  Mn  Mn3  1  0.03019998  0.16231047  0.74318258  1
  Mn  Mn4  1  0.01929306  0.83947881  0.57921800  1
  Mn  Mn5  1  0.02493372  0.85578155  0.91192932  1
  Mn  Mn6  1  0.50451919  0.36107859  0.59208820  1
  Mn  Mn7  1  0.49470929  0.33980440  0.92155066  1
  Mn  Mn8  1  0.49691649  0.34793297  0.25461065  1
  Mn  Mn9  1  0.50702556  0.63317266  0.09364042  1
  Mn  Mn10  1  0.51044683  0.65065732  0.42428068  1
  Mn  Mn11  1  0.47936475  0.63780082  0.75109686  1
  O  O12  1  0.21805307  0.11142149  0.30019927  1
  O  O13  1  0.23259501  0.11523328  0.63582247  1
  O  O14  1  0.21910382  0.11799578  0.97062919  1
  O  O15  1  0.23585960  0.88446042  0.13476177  1
  O  O16  1  0.21791039  0.88391108  0.46877541  1
  O  O17  1  0.23716217  0.88678665  0.80108390  1
  O  O18  1  0.28018998  0.39816242  0.14661580  1
  O  O19  1  0.27705653  0.60362791  0.64521639  1
  O  O20  1  0.27648464  0.39779837  0.81295532  1
  O  O21  1  0.72739737  0.38464167  0.02793552  1
  O  O22  1  0.72557508  0.61524697  0.19619855  1
  O  O23  1  0.71545266  0.38042277  0.36408474  1
  O  O24  1  0.72645182  0.61264851  0.53117644  1
  O  O25  1  0.72464140  0.38604381  0.69488785  1
  F  F26  1  0.25357173  0.61671702  0.32057187  1
  F  F27  1  0.25834071  0.37796683  0.48630197  1
  F  F28  1  0.26973895  0.61835758  0.98451373  1
  F  F29  1  0.72825680  0.62515371  0.86145299  1
  F  F30  1  0.76801500  0.12162537  0.18175902  1
  F  F31  1  0.75275152  0.12367977  0.52469926  1
  F  F32  1  0.75664354  0.88080778  0.34653720  1
  F  F33  1  0.75503400  0.86840629  0.02273545  1
  F  F34  1  0.77499815  0.12743836  0.84955657  1
  F  F35  1  0.76338816  0.87273380  0.69095228  1
