# generated using pymatgen
data_LiV6O7F5
_symmetry_space_group_name_H-M   'P 1'
_cell_length_a   6.59720231
_cell_length_b   7.01101789
_cell_length_c   9.26447788
_cell_angle_alpha   90.51338970
_cell_angle_beta   90.00000396
_cell_angle_gamma   89.99999752
_symmetry_Int_Tables_number   1
_chemical_formula_structural   LiV6O7F5
_chemical_formula_sum   'Li2 V12 O14 F10'
_cell_volume   428.49365154
_cell_formula_units_Z   2
loop_
 _symmetry_equiv_pos_site_id
 _symmetry_equiv_pos_as_xyz
  1  'x, y, z'
loop_
 _atom_site_type_symbol
 _atom_site_label
 _atom_site_symmetry_multiplicity
 _atom_site_fract_x
 _atom_site_fract_y
 _atom_site_fract_z
 _atom_site_occupancy
  Li  Li0  1  0.73984880  0.24039717  0.59490727  1
  Li  Li1  1  0.73984980  0.75960383  0.07176173  1
  V  V2  1  0.96979219  0.00000000  0.33333300  1
  V  V3  1  0.50678370  0.00000000  0.83333300  1
  V  V4  1  0.49765987  0.04558550  0.16189866  1
  V  V5  1  0.01344387  0.99549648  0.66126095  1
  V  V6  1  0.49405798  0.48004660  0.00351126  1
  V  V7  1  0.49405798  0.51995340  0.66315474  1
  V  V8  1  0.47967974  0.50000000  0.33333300  1
  V  V9  1  0.01534108  0.47471866  0.50595126  1
  V  V10  1  0.00099105  0.50000000  0.83333300  1
  V  V11  1  0.49765987  0.95441450  0.50476734  1
  V  V12  1  0.01534108  0.52528134  0.16071474  1
  V  V13  1  0.01344387  0.00450352  0.00540605  1
  O  O14  1  0.70840242  0.00519281  0.99792005  1
  O  O15  1  0.67690187  0.00000000  0.33333300  1
  O  O16  1  0.30876476  0.01181187  0.99816018  1
  O  O17  1  0.80264770  0.48741490  0.66590300  1
  O  O18  1  0.80264770  0.51258510  0.00076400  1
  O  O19  1  0.49904775  0.31657758  0.17074111  1
  O  O20  1  0.99218181  0.18766844  0.50120325  1
  O  O21  1  0.49904775  0.68342242  0.49592589  1
  O  O22  1  0.20438972  0.49895715  0.67401681  1
  O  O23  1  0.20438972  0.50104285  0.99265019  1
  O  O24  1  0.18904759  0.50000000  0.33333300  1
  O  O25  1  0.70840242  0.99480719  0.66874595  1
  O  O26  1  0.30876476  0.98818813  0.66850682  1
  O  O27  1  0.99218181  0.81233156  0.16546375  1
  F  F28  1  0.99830106  0.20674220  0.17029162  1
  F  F29  1  0.28483665  1.00000000  0.33333300  1
  F  F30  1  0.79745276  0.50000000  0.33333300  1
  F  F31  1  0.49757092  0.29910615  0.50197916  1
  F  F32  1  0.50844408  0.30254042  0.82558087  1
  F  F33  1  0.99830106  0.79325780  0.49637438  1
  F  F34  1  0.00469343  0.19471221  0.83246823  1
  F  F35  1  0.50844408  0.69745958  0.84108613  1
  F  F36  1  0.49757092  0.70089385  0.16468784  1
  F  F37  1  0.00469343  0.80528779  0.83419877  1
