# generated using pymatgen
data_Cd(C2N3)2
_symmetry_space_group_name_H-M   'P 1'
_cell_length_a   6.61966002
_cell_length_b   7.70977595
_cell_length_c   7.77460304
_cell_angle_alpha   90.00000000
_cell_angle_beta   90.00000000
_cell_angle_gamma   90.00000000
_symmetry_Int_Tables_number   1
_chemical_formula_structural   Cd(C2N3)2
_chemical_formula_sum   'Cd2 C8 N12'
_cell_volume   396.78538415
_cell_formula_units_Z   2
loop_
 _symmetry_equiv_pos_site_id
 _symmetry_equiv_pos_as_xyz
  1  'x, y, z'
loop_
 _atom_site_type_symbol
 _atom_site_label
 _atom_site_symmetry_multiplicity
 _atom_site_fract_x
 _atom_site_fract_y
 _atom_site_fract_z
 _atom_site_occupancy
  C  C0  1  0.75130246  0.15161543  0.64678157  1
  C  C1  1  0.25130246  0.34838457  0.85321843  1
  C  C2  1  0.75130246  0.15161543  0.35321843  1
  C  C3  1  0.25130246  0.34838457  0.14678157  1
  C  C4  1  0.74869754  0.65161543  0.14678157  1
  C  C5  1  0.24869754  0.84838457  0.35321843  1
  C  C6  1  0.24869754  0.84838457  0.64678157  1
  C  C7  1  0.74869754  0.65161543  0.85321843  1
  N  N8  1  0.80852673  0.71578508  0.00000000  1
  N  N9  1  0.30852673  0.78421492  0.50000000  1
  N  N10  1  0.79464004  0.10301960  0.21485273  1
  N  N11  1  0.29464004  0.39698040  0.28514727  1
  N  N12  1  0.70535996  0.60301960  0.28514727  1
  N  N13  1  0.20535996  0.89698040  0.21485273  1
  N  N14  1  0.20535996  0.89698040  0.78514727  1
  N  N15  1  0.70535996  0.60301960  0.71485273  1
  N  N16  1  0.29464004  0.39698040  0.71485273  1
  N  N17  1  0.79464004  0.10301960  0.78514727  1
  N  N18  1  0.69147327  0.21578508  0.50000000  1
  N  N19  1  0.19147327  0.28421492  0.00000000  1
  Cd  Cd20  1  0.50000000  0.50000000  0.50000000  1
  Cd  Cd21  1  0.00000000  0.00000000  0.00000000  1
