# generated using pymatgen
data_Ce(IO3)2
_symmetry_space_group_name_H-M   'P 1'
_cell_length_a   7.27331777
_cell_length_b   11.50103369
_cell_length_c   7.13053193
_cell_angle_alpha   90.00000000
_cell_angle_beta   103.15917719
_cell_angle_gamma   90.00000000
_symmetry_Int_Tables_number   1
_chemical_formula_structural   Ce(IO3)2
_chemical_formula_sum   'Ce4 I8 O24'
_cell_volume   580.81119818
_cell_formula_units_Z   4
loop_
 _symmetry_equiv_pos_site_id
 _symmetry_equiv_pos_as_xyz
  1  'x, y, z'
loop_
 _atom_site_type_symbol
 _atom_site_label
 _atom_site_symmetry_multiplicity
 _atom_site_fract_x
 _atom_site_fract_y
 _atom_site_fract_z
 _atom_site_occupancy
  Ce  Ce0  1  0.28262281  0.56445737  0.50009882  1
  Ce  Ce1  1  0.21737719  0.06445737  0.99990118  1
  Ce  Ce2  1  0.78262281  0.93554263  0.00009882  1
  Ce  Ce3  1  0.71737719  0.43554263  0.49990118  1
  I  I4  1  0.18109280  0.39631953  0.96260006  1
  I  I5  1  0.31890720  0.89631953  0.53739994  1
  I  I6  1  0.17590244  0.24654703  0.45329214  1
  I  I7  1  0.32409756  0.74654703  0.04670786  1
  I  I8  1  0.67590244  0.25345297  0.95329214  1
  I  I9  1  0.82409756  0.75345297  0.54670786  1
  I  I10  1  0.68109280  0.10368047  0.46260006  1
  I  I11  1  0.81890720  0.60368047  0.03739994  1
  O  O12  1  0.05724100  0.39384913  0.45671836  1
  O  O13  1  0.22083836  0.00249863  0.67989763  1
  O  O14  1  0.07545471  0.58268038  0.14634452  1
  O  O15  1  0.28647055  0.76121512  0.67094209  1
  O  O16  1  0.21352945  0.26121512  0.82905791  1
  O  O17  1  0.08318696  0.95073338  0.15360716  1
  O  O18  1  0.27916164  0.50249863  0.82010237  1
  O  O19  1  0.13152430  0.23172010  0.17732687  1
  O  O20  1  0.36847570  0.73172010  0.32267313  1
  O  O21  1  0.55724100  0.10615087  0.95671836  1
  O  O22  1  0.41681304  0.45073338  0.34639284  1
  O  O23  1  0.57545471  0.91731962  0.64634452  1
  O  O24  1  0.42454529  0.08268038  0.35365548  1
  O  O25  1  0.58318696  0.54926662  0.65360716  1
  O  O26  1  0.44275900  0.89384913  0.04328164  1
  O  O27  1  0.63152430  0.26827990  0.67732687  1
  O  O28  1  0.86847570  0.76827990  0.82267313  1
  O  O29  1  0.72083836  0.49750137  0.17989763  1
  O  O30  1  0.91681304  0.04926662  0.84639284  1
  O  O31  1  0.78647055  0.73878488  0.17094209  1
  O  O32  1  0.71352945  0.23878488  0.32905791  1
  O  O33  1  0.92454529  0.41731962  0.85365548  1
  O  O34  1  0.77916164  0.99750137  0.32010237  1
  O  O35  1  0.94275900  0.60615087  0.54328164  1
