# generated using pymatgen
data_Mn6O5F7
_symmetry_space_group_name_H-M   'P 1'
_cell_length_a   5.76398284
_cell_length_b   5.15234956
_cell_length_c   14.60615944
_cell_angle_alpha   94.59800443
_cell_angle_beta   89.90844171
_cell_angle_gamma   89.90569418
_symmetry_Int_Tables_number   1
_chemical_formula_structural   Mn6O5F7
_chemical_formula_sum   'Mn12 O10 F14'
_cell_volume   432.37725292
_cell_formula_units_Z   2
loop_
 _symmetry_equiv_pos_site_id
 _symmetry_equiv_pos_as_xyz
  1  'x, y, z'
loop_
 _atom_site_type_symbol
 _atom_site_label
 _atom_site_symmetry_multiplicity
 _atom_site_fract_x
 _atom_site_fract_y
 _atom_site_fract_z
 _atom_site_occupancy
  Mn  Mn0  1  0.11743794  0.96409170  0.00590143  1
  Mn  Mn1  1  0.85856114  0.50199856  0.16462567  1
  Mn  Mn2  1  0.11473092  0.04827305  0.32645868  1
  Mn  Mn3  1  0.11203762  0.45279632  0.50482565  1
  Mn  Mn4  1  0.90079198  0.00960710  0.66628707  1
  Mn  Mn5  1  0.09456471  0.52585846  0.83617080  1
  Mn  Mn6  1  0.56194119  0.99851085  0.16431098  1
  Mn  Mn7  1  0.42419730  0.46414158  0.00580160  1
  Mn  Mn8  1  0.54738674  0.48241369  0.66403113  1
  Mn  Mn9  1  0.46716918  0.95980183  0.50219058  1
  Mn  Mn10  1  0.42052420  0.53597534  0.32085804  1
  Mn  Mn11  1  0.41191993  0.05506249  0.83862796  1
  O  O12  1  0.19156357  0.26960818  0.92142479  1
  O  O13  1  0.36108842  0.15427250  0.07479414  1
  O  O14  1  0.36380355  0.85085524  0.25792860  1
  O  O15  1  0.36672061  0.63245514  0.57022310  1
  O  O16  1  0.34605367  0.77162725  0.92782783  1
  O  O17  1  0.33323688  0.33844893  0.76240427  1
  O  O18  1  0.34450104  0.24750986  0.40287185  1
  O  O19  1  0.63763625  0.16883632  0.59694916  1
  O  O20  1  0.62120622  0.33213728  0.23132188  1
  O  O21  1  0.62089974  0.66459984  0.09518134  1
  F  F22  1  0.10486400  0.37756320  0.24743153  1
  F  F23  1  0.10830093  0.64049430  0.08796296  1
  F  F24  1  0.15358554  0.13179311  0.57687281  1
  F  F25  1  0.16950942  0.73915503  0.41251613  1
  F  F26  1  0.10807501  0.83709404  0.76017057  1
  F  F27  1  0.65618248  0.26365861  0.91673917  1
  F  F28  1  0.64071170  0.72560829  0.40795879  1
  F  F29  1  0.59621532  0.83471971  0.74325946  1
  F  F30  1  0.90065328  0.23732189  0.41821898  1
  F  F31  1  0.87214339  0.13476400  0.08475937  1
  F  F32  1  0.83251477  0.36856345  0.74578987  1
  F  F33  1  0.86893109  0.65523995  0.58649792  1
  F  F34  1  0.89975087  0.75457175  0.92392244  1
  F  F35  1  0.87058943  0.87057116  0.24688442  1
