# generated using pymatgen
data_LiV6O7F5
_symmetry_space_group_name_H-M   'P 1'
_cell_length_a   6.58826425
_cell_length_b   7.00670221
_cell_length_c   9.28484091
_cell_angle_alpha   90.00061591
_cell_angle_beta   89.99913148
_cell_angle_gamma   90.04508690
_symmetry_Int_Tables_number   1
_chemical_formula_structural   LiV6O7F5
_chemical_formula_sum   'Li2 V12 O14 F10'
_cell_volume   428.60674596
_cell_formula_units_Z   2
loop_
 _symmetry_equiv_pos_site_id
 _symmetry_equiv_pos_as_xyz
  1  'x, y, z'
loop_
 _atom_site_type_symbol
 _atom_site_label
 _atom_site_symmetry_multiplicity
 _atom_site_fract_x
 _atom_site_fract_y
 _atom_site_fract_z
 _atom_site_occupancy
  Li  Li0  1  0.74183896  0.24857756  0.93126632  1
  Li  Li1  1  0.24180462  0.74856896  0.40210089  1
  V  V2  1  0.97417206  0.02089677  0.66929506  1
  V  V3  1  0.50326659  0.00666113  0.16686628  1
  V  V4  1  0.99375589  0.02435113  0.33735411  1
  V  V5  1  0.01365185  0.00020119  0.99525715  1
  V  V6  1  0.49378337  0.52438404  0.99598683  1
  V  V7  1  0.51367500  0.50021922  0.33808282  1
  V  V8  1  0.47421503  0.52090780  0.66405339  1
  V  V9  1  0.01460203  0.48474667  0.83982159  1
  V  V10  1  0.99940917  0.46349183  0.49352606  1
  V  V11  1  0.00327221  0.50663926  0.16647247  1
  V  V12  1  0.49937838  0.96354587  0.83979373  1
  V  V13  1  0.51457592  0.98475391  0.49350006  1
  O  O14  1  0.99426147  0.19850298  0.83824156  1
  O  O15  1  0.99530891  0.19289188  0.50308561  1
  O  O16  1  0.30745311  0.99567037  0.00225862  1
  O  O17  1  0.30173095  0.99632589  0.33284403  1
  O  O18  1  0.80177040  0.49632176  0.00048907  1
  O  O19  1  0.80747193  0.49563762  0.33109056  1
  O  O20  1  0.49425235  0.69850720  0.49510294  1
  O  O21  1  0.49533020  0.69292312  0.83026143  1
  O  O22  1  0.20763998  0.50134545  0.32986223  1
  O  O23  1  0.20363206  0.50569419  0.00607818  1
  O  O24  1  0.18546146  0.50121698  0.66302117  1
  O  O25  1  0.70761254  0.00135916  0.00346960  1
  O  O26  1  0.70360579  0.00570483  0.32726681  1
  O  O27  1  0.68543335  0.00123181  0.67031063  1
  F  F28  1  0.78930372  0.49052773  0.66810567  1
  F  F29  1  0.49979187  0.30621184  0.83457163  1
  F  F30  1  0.50170263  0.30030418  0.50357169  1
  F  F31  1  0.50677559  0.31015807  0.16331340  1
  F  F32  1  0.99973186  0.80622533  0.49876979  1
  F  F33  1  0.00172567  0.80028583  0.82977967  1
  F  F34  1  0.00462520  0.20255034  0.16151467  1
  F  F35  1  0.50472034  0.70261557  0.17181483  1
  F  F36  1  0.28927954  0.99050133  0.66510772  1
  F  F37  1  0.00663601  0.81016918  0.17001572  1
