# generated using pymatgen
data_Na4Ni2P(CO4)4
_symmetry_space_group_name_H-M   'P 1'
_cell_length_a   9.94947046
_cell_length_b   9.76889876
_cell_length_c   9.94947006
_cell_angle_alpha   60.73564187
_cell_angle_beta   92.29612043
_cell_angle_gamma   60.73564276
_symmetry_Int_Tables_number   1
_chemical_formula_structural   Na4Ni2P(CO4)4
_chemical_formula_sum   'Na8 Ni4 P2 C8 O32'
_cell_volume   684.70307160
_cell_formula_units_Z   2
loop_
 _symmetry_equiv_pos_site_id
 _symmetry_equiv_pos_as_xyz
  1  'x, y, z'
loop_
 _atom_site_type_symbol
 _atom_site_label
 _atom_site_symmetry_multiplicity
 _atom_site_fract_x
 _atom_site_fract_y
 _atom_site_fract_z
 _atom_site_occupancy
  Na  Na0  1  0.08813306  0.82373389  0.83813306  1
  Na  Na1  1  0.08728445  0.25000000  0.83728445  1
  Na  Na2  1  0.33728445  0.75000000  0.58728445  1
  Na  Na3  1  0.33813306  0.32373389  0.58813306  1
  Na  Na4  1  0.66186694  0.67626611  0.41186694  1
  Na  Na5  1  0.66271555  0.25000000  0.41271555  1
  Na  Na6  1  0.91271555  0.75000000  0.16271555  1
  Na  Na7  1  0.91186694  0.17626611  0.16186694  1
  Ni  Ni8  1  0.00000000  0.50000000  0.00000000  1
  Ni  Ni9  1  0.50000000  0.00000000  0.50000000  1
  Ni  Ni10  1  0.50000000  0.50000000  0.00000000  1
  Ni  Ni11  1  0.50000000  0.00000000  0.00000000  1
  P  P12  1  0.12500000  0.75000000  0.37500000  1
  P  P13  1  0.87500000  0.25000000  0.62500000  1
  C  C14  1  0.35393774  0.93290770  0.77847014  1
  C  C15  1  0.27847014  0.43290770  0.85393774  1
  C  C16  1  0.71315456  0.93290770  0.78862216  1
  C  C17  1  0.71137784  0.56709230  0.78684544  1
  C  C18  1  0.28862216  0.43290770  0.21315456  1
  C  C19  1  0.28684544  0.06709230  0.21137784  1
  C  C20  1  0.72152986  0.56709230  0.14606226  1
  C  C21  1  0.64606226  0.06709230  0.22152986  1
  O  O22  1  0.34698697  0.79623287  0.88997497  1
  O  O23  1  0.06260232  0.88077833  0.43559412  1
  O  O24  1  0.36168517  0.94872158  0.64323490  1
  O  O25  1  0.14323490  0.44872158  0.86168517  1
  O  O26  1  0.68959325  0.94872158  0.90804352  1
  O  O27  1  0.29978297  0.55646451  0.84645294  1
  O  O28  1  0.05661835  0.88077833  0.18362755  1
  O  O29  1  0.06440588  0.61922167  0.43739768  1
  O  O30  1  0.40291745  0.94353549  0.35624748  1
  O  O31  1  0.59195648  0.55127842  0.81040675  1
  O  O32  1  0.38997497  0.29623287  0.84698697  1
  O  O33  1  0.31637245  0.61922167  0.44338165  1
  O  O34  1  0.85678016  0.79623287  0.81379217  1
  O  O35  1  0.68620783  0.70376713  0.64321984  1
  O  O36  1  0.34645294  0.05646451  0.79978297  1
  O  O37  1  0.14375252  0.55646451  0.09708255  1
  O  O38  1  0.85624748  0.44353549  0.90291745  1
  O  O39  1  0.65354706  0.94353549  0.20021703  1
  O  O40  1  0.31379217  0.29623287  0.35678016  1
  O  O41  1  0.14321984  0.20376713  0.18620783  1
  O  O42  1  0.68362755  0.38077833  0.55661835  1
  O  O43  1  0.61002503  0.70376713  0.15301303  1
  O  O44  1  0.40804352  0.44872158  0.18959325  1
  O  O45  1  0.59708255  0.05646451  0.64375252  1
  O  O46  1  0.93559412  0.38077833  0.56260232  1
  O  O47  1  0.94338165  0.11922167  0.81637245  1
  O  O48  1  0.70021703  0.44353549  0.15354706  1
  O  O49  1  0.31040675  0.05127842  0.09195648  1
  O  O50  1  0.85676510  0.55127842  0.13831483  1
  O  O51  1  0.63831483  0.05127842  0.35676510  1
  O  O52  1  0.93739768  0.11922167  0.56440588  1
  O  O53  1  0.65301303  0.20376713  0.11002503  1
