# generated using pymatgen
data_Fe3(O2F)2
_symmetry_space_group_name_H-M   'P 1'
_cell_length_a   7.08184944
_cell_length_b   5.63701883
_cell_length_c   5.60498378
_cell_angle_alpha   76.93387977
_cell_angle_beta   73.21165794
_cell_angle_gamma   73.82075597
_symmetry_Int_Tables_number   1
_chemical_formula_structural   Fe3(O2F)2
_chemical_formula_sum   'Fe6 O8 F4'
_cell_volume   203.13736487
_cell_formula_units_Z   2
loop_
 _symmetry_equiv_pos_site_id
 _symmetry_equiv_pos_as_xyz
  1  'x, y, z'
loop_
 _atom_site_type_symbol
 _atom_site_label
 _atom_site_symmetry_multiplicity
 _atom_site_fract_x
 _atom_site_fract_y
 _atom_site_fract_z
 _atom_site_occupancy
  Fe  Fe0  1  0.83333300  0.66666700  0.66666700  1
  Fe  Fe1  1  0.66914665  0.36317210  0.29819116  1
  Fe  Fe2  1  0.33333300  0.66666700  0.66666700  1
  Fe  Fe3  1  0.15733386  0.35158497  0.33244649  1
  Fe  Fe4  1  0.50933314  0.98174903  0.00088651  1
  Fe  Fe5  1  0.99752035  0.97016090  0.03514184  1
  O  O6  1  0.29671068  0.88695283  0.90302932  1
  O  O7  1  0.96511323  0.23146006  0.23066578  1
  O  O8  1  0.62600947  0.57509048  0.56012128  1
  O  O9  1  0.04065753  0.75824352  0.77321172  1
  O  O10  1  0.36995632  0.44638017  0.43030468  1
  O  O11  1  0.70155377  0.10187294  0.10266722  1
  O  O12  1  0.67371718  0.64505950  0.00829060  1
  O  O13  1  0.99294982  0.68827450  0.32504240  1
  F  F14  1  0.66520843  0.03500978  0.63608527  1
  F  F15  1  0.33771102  0.35009833  0.97204712  1
  F  F16  1  0.32895598  0.98323567  0.36128588  1
  F  F17  1  0.00145857  0.29832422  0.69724873  1
