# generated using pymatgen
data_NiGe3O8
_symmetry_space_group_name_H-M   'P 1'
_cell_length_a   8.12040318
_cell_length_b   8.12043025
_cell_length_c   8.12042115
_cell_angle_alpha   90.00054209
_cell_angle_beta   89.99985261
_cell_angle_gamma   89.99812479
_symmetry_Int_Tables_number   1
_chemical_formula_structural   NiGe3O8
_chemical_formula_sum   'Ni4 Ge12 O32'
_cell_volume   535.47005208
_cell_formula_units_Z   4
loop_
 _symmetry_equiv_pos_site_id
 _symmetry_equiv_pos_as_xyz
  1  'x, y, z'
loop_
 _atom_site_type_symbol
 _atom_site_label
 _atom_site_symmetry_multiplicity
 _atom_site_fract_x
 _atom_site_fract_y
 _atom_site_fract_z
 _atom_site_occupancy
  Ni  Ni0  1  0.12505305  0.87499591  0.37499783  1
  Ni  Ni1  1  0.37495634  0.12504570  0.87496156  1
  Ni  Ni2  1  0.62504393  0.62510072  0.62502652  1
  Ni  Ni3  1  0.87498456  0.37492040  0.12506228  1
  Ge  Ge4  1  0.12799855  0.12187081  0.62496633  1
  Ge  Ge5  1  0.12492266  0.37205232  0.87819321  1
  Ge  Ge6  1  0.12188131  0.62496521  0.12799751  1
  Ge  Ge7  1  0.37814156  0.37505130  0.62798582  1
  Ge  Ge8  1  0.37500616  0.62802535  0.37810106  1
  Ge  Ge9  1  0.37191989  0.87802163  0.12507835  1
  Ge  Ge10  1  0.62807396  0.37805277  0.37495511  1
  Ge  Ge11  1  0.62512652  0.12813874  0.12201998  1
  Ge  Ge12  1  0.62199786  0.87491041  0.87187706  1
  Ge  Ge13  1  0.87803329  0.12507620  0.37189746  1
  Ge  Ge14  1  0.87495438  0.87192861  0.62194784  1
  Ge  Ge15  1  0.87198726  0.62190344  0.87499767  1
  O  O16  1  0.11553688  0.10787508  0.38717679  1
  O  O17  1  0.11284248  0.88451016  0.60786882  1
  O  O18  1  0.11141907  0.61140698  0.88859206  1
  O  O19  1  0.14217041  0.13443023  0.86288931  1
  O  O20  1  0.10786733  0.38716921  0.11549589  1
  O  O21  1  0.13855258  0.36145090  0.63855542  1
  O  O22  1  0.13712356  0.64217125  0.36555493  1
  O  O23  1  0.13447118  0.86290422  0.14215368  1
  O  O24  1  0.36554263  0.13711219  0.64216915  1
  O  O25  1  0.36290325  0.35782437  0.86555660  1
  O  O26  1  0.36144979  0.63857984  0.13856344  1
  O  O27  1  0.39211615  0.61281456  0.61552340  1
  O  O28  1  0.35784182  0.86554971  0.36285616  1
  O  O29  1  0.38856845  0.38857832  0.38860062  1
  O  O30  1  0.38714088  0.11552346  0.10786461  1
  O  O31  1  0.38447085  0.89212964  0.88716210  1
  O  O32  1  0.61549266  0.39210441  0.61286539  1
  O  O33  1  0.61283455  0.61552753  0.39213890  1
  O  O34  1  0.61142676  0.88856308  0.11143142  1
  O  O35  1  0.64213677  0.36552947  0.13711491  1
  O  O36  1  0.60786902  0.11285098  0.88446187  1
  O  O37  1  0.63857037  0.13857013  0.36141444  1
  O  O38  1  0.63712258  0.85783264  0.63448156  1
  O  O39  1  0.63443770  0.63713475  0.85785392  1
  O  O40  1  0.86554004  0.36287961  0.35784047  1
  O  O41  1  0.86285597  0.14216451  0.13445567  1
  O  O42  1  0.86141847  0.86145307  0.86143964  1
  O  O43  1  0.89212445  0.88715030  0.38447140  1
  O  O44  1  0.85783949  0.63445889  0.63711623  1
  O  O45  1  0.88857800  0.11143970  0.61144735  1
  O  O46  1  0.88717950  0.38448790  0.89211614  1
  O  O47  1  0.88447510  0.60790338  0.11284212  1
