# generated using pymatgen
data_Na3Sb5O14
_symmetry_space_group_name_H-M   'P 1'
_cell_length_a   24.41592792
_cell_length_b   7.21709789
_cell_length_c   7.41116690
_cell_angle_alpha   90.00000000
_cell_angle_beta   90.00000000
_cell_angle_gamma   90.00000000
_symmetry_Int_Tables_number   1
_chemical_formula_structural   Na3Sb5O14
_chemical_formula_sum   'Na12 Sb20 O56'
_cell_volume   1305.93759323
_cell_formula_units_Z   4
loop_
 _symmetry_equiv_pos_site_id
 _symmetry_equiv_pos_as_xyz
  1  'x, y, z'
loop_
 _atom_site_type_symbol
 _atom_site_label
 _atom_site_symmetry_multiplicity
 _atom_site_fract_x
 _atom_site_fract_y
 _atom_site_fract_z
 _atom_site_occupancy
  Na  Na0  1  0.02933571  0.19474277  0.50000000  1
  Na  Na1  1  0.12638202  0.57467161  0.50000000  1
  Na  Na2  1  0.19322218  0.69231668  0.00000000  1
  Na  Na3  1  0.30677782  0.19231668  0.00000000  1
  Na  Na4  1  0.37361798  0.07467161  0.50000000  1
  Na  Na5  1  0.47066429  0.69474277  0.50000000  1
  Na  Na6  1  0.52933571  0.30525723  0.50000000  1
  Na  Na7  1  0.62638202  0.92532839  0.50000000  1
  Na  Na8  1  0.69322218  0.80768332  0.00000000  1
  Na  Na9  1  0.80677782  0.30768332  0.00000000  1
  Na  Na10  1  0.87361798  0.42532839  0.50000000  1
  Na  Na11  1  0.97066429  0.80525723  0.50000000  1
  Sb  Sb12  1  0.05823999  0.42195253  0.00000000  1
  Sb  Sb13  1  0.06146173  0.90861142  0.00000000  1
  Sb  Sb14  1  0.14602709  0.10688254  0.26401734  1
  Sb  Sb15  1  0.14602709  0.10688254  0.73598266  1
  Sb  Sb16  1  0.24157584  0.80863933  0.50000000  1
  Sb  Sb17  1  0.25842416  0.30863933  0.50000000  1
  Sb  Sb18  1  0.35397291  0.60688254  0.26401734  1
  Sb  Sb19  1  0.35397291  0.60688254  0.73598266  1
  Sb  Sb20  1  0.43853827  0.40861142  0.00000000  1
  Sb  Sb21  1  0.44176001  0.92195253  0.00000000  1
  Sb  Sb22  1  0.55823999  0.07804747  0.00000000  1
  Sb  Sb23  1  0.56146173  0.59138858  0.00000000  1
  Sb  Sb24  1  0.64602709  0.39311746  0.26401734  1
  Sb  Sb25  1  0.64602709  0.39311746  0.73598266  1
  Sb  Sb26  1  0.74157584  0.69136067  0.50000000  1
  Sb  Sb27  1  0.75842416  0.19136067  0.50000000  1
  Sb  Sb28  1  0.85397291  0.89311746  0.26401734  1
  Sb  Sb29  1  0.85397291  0.89311746  0.73598266  1
  Sb  Sb30  1  0.93853827  0.09138858  0.00000000  1
  Sb  Sb31  1  0.94176001  0.57804747  0.00000000  1
  O  O32  1  0.00000000  0.50000000  0.17951175  1
  O  O33  1  0.00000000  0.50000000  0.82048825  1
  O  O34  1  0.01809168  0.16301076  0.00000000  1
  O  O35  1  0.07205943  0.96153986  0.25861806  1
  O  O36  1  0.07205943  0.96153986  0.74138194  1
  O  O37  1  0.09604665  0.66620803  0.00000000  1
  O  O38  1  0.10635549  0.34353939  0.19716866  1
  O  O39  1  0.10635549  0.34353939  0.80283134  1
  O  O40  1  0.12137730  0.19245062  0.50000000  1
  O  O41  1  0.14340966  0.01976881  0.00000000  1
  O  O42  1  0.18145067  0.86306273  0.31674839  1
  O  O43  1  0.18145067  0.86306273  0.68325161  1
  O  O44  1  0.21545603  0.24150231  0.72962619  1
  O  O45  1  0.21545603  0.24150231  0.27037381  1
  O  O46  1  0.21676725  0.54497987  0.50000000  1
  O  O47  1  0.28323275  0.04497987  0.50000000  1
  O  O48  1  0.28454397  0.74150231  0.27037381  1
  O  O49  1  0.28454397  0.74150231  0.72962619  1
  O  O50  1  0.31854933  0.36306273  0.31674839  1
  O  O51  1  0.31854933  0.36306273  0.68325161  1
  O  O52  1  0.35659034  0.51976881  0.00000000  1
  O  O53  1  0.37862270  0.69245062  0.50000000  1
  O  O54  1  0.39364451  0.84353939  0.19716866  1
  O  O55  1  0.39364451  0.84353939  0.80283134  1
  O  O56  1  0.40395335  0.16620803  0.00000000  1
  O  O57  1  0.42794057  0.46153986  0.25861806  1
  O  O58  1  0.42794057  0.46153986  0.74138194  1
  O  O59  1  0.48190832  0.66301076  0.00000000  1
  O  O60  1  0.50000000  0.00000000  0.17951175  1
  O  O61  1  0.50000000  0.00000000  0.82048825  1
  O  O62  1  0.51809168  0.33698924  0.00000000  1
  O  O63  1  0.57205943  0.53846014  0.25861806  1
  O  O64  1  0.57205943  0.53846014  0.74138194  1
  O  O65  1  0.59604665  0.83379197  0.00000000  1
  O  O66  1  0.60635549  0.15646061  0.19716866  1
  O  O67  1  0.60635549  0.15646061  0.80283134  1
  O  O68  1  0.62137730  0.30754938  0.50000000  1
  O  O69  1  0.64340966  0.48023119  0.00000000  1
  O  O70  1  0.68145067  0.63693727  0.31674839  1
  O  O71  1  0.68145067  0.63693727  0.68325161  1
  O  O72  1  0.71545603  0.25849769  0.72962619  1
  O  O73  1  0.71545603  0.25849769  0.27037381  1
  O  O74  1  0.71676725  0.95502013  0.50000000  1
  O  O75  1  0.78323275  0.45502013  0.50000000  1
  O  O76  1  0.78454397  0.75849769  0.27037381  1
  O  O77  1  0.78454397  0.75849769  0.72962619  1
  O  O78  1  0.81854933  0.13693727  0.31674839  1
  O  O79  1  0.81854933  0.13693727  0.68325161  1
  O  O80  1  0.85659034  0.98023119  0.00000000  1
  O  O81  1  0.87862270  0.80754938  0.50000000  1
  O  O82  1  0.89364451  0.65646061  0.19716866  1
  O  O83  1  0.89364451  0.65646061  0.80283134  1
  O  O84  1  0.90395335  0.33379197  0.00000000  1
  O  O85  1  0.92794057  0.03846014  0.25861806  1
  O  O86  1  0.92794057  0.03846014  0.74138194  1
  O  O87  1  0.98190832  0.83698924  0.00000000  1
