# generated using pymatgen
data_FeOF
_symmetry_space_group_name_H-M   'P 1'
_cell_length_a   5.22197049
_cell_length_b   5.59112868
_cell_length_c   5.22197017
_cell_angle_alpha   117.83890618
_cell_angle_beta   60.00000268
_cell_angle_gamma   117.83890541
_symmetry_Int_Tables_number   1
_chemical_formula_structural   FeOF
_chemical_formula_sum   'Fe3 O3 F3'
_cell_volume   111.19689629
_cell_formula_units_Z   3
loop_
 _symmetry_equiv_pos_site_id
 _symmetry_equiv_pos_as_xyz
  1  'x, y, z'
loop_
 _atom_site_type_symbol
 _atom_site_label
 _atom_site_symmetry_multiplicity
 _atom_site_fract_x
 _atom_site_fract_y
 _atom_site_fract_z
 _atom_site_occupancy
  Fe  Fe0  1  0.13920825  0.41762474  0.13920825  1
  Fe  Fe1  1  0.35792515  0.07377444  0.35792515  1
  Fe  Fe2  1  0.67326876  0.01980627  0.67326876  1
  O  O3  1  0.06413695  0.22593019  0.41007322  1
  O  O4  1  0.41007322  0.22593019  0.75172002  1
  O  O5  1  0.75172002  0.22593019  0.06413695  1
  F  F6  1  0.30722585  0.75246766  0.93910203  1
  F  F7  1  0.50613978  0.75246766  0.30722585  1
  F  F8  1  0.93910203  0.75246766  0.50613978  1
