# generated using pymatgen
data_Na5CuO4
_symmetry_space_group_name_H-M   'P 1'
_cell_length_a   10.48581705
_cell_length_b   5.98733958
_cell_length_c   17.96321924
_cell_angle_alpha   90.00000000
_cell_angle_beta   90.00000000
_cell_angle_gamma   90.00000000
_symmetry_Int_Tables_number   1
_chemical_formula_structural   Na5CuO4
_chemical_formula_sum   'Na40 Cu8 O32'
_cell_volume   1127.76947904
_cell_formula_units_Z   8
loop_
 _symmetry_equiv_pos_site_id
 _symmetry_equiv_pos_as_xyz
  1  'x, y, z'
loop_
 _atom_site_type_symbol
 _atom_site_label
 _atom_site_symmetry_multiplicity
 _atom_site_fract_x
 _atom_site_fract_y
 _atom_site_fract_z
 _atom_site_occupancy
  Na  Na0  1  0.06414393  0.07562087  0.43414021  1
  Na  Na1  1  0.06414393  0.42437913  0.93414021  1
  Na  Na2  1  0.07909378  0.60273563  0.75151683  1
  Na  Na3  1  0.07909378  0.89726437  0.25151683  1
  Na  Na4  1  0.15758568  0.91452916  0.00163003  1
  Na  Na5  1  0.15758568  0.58547084  0.50163003  1
  Na  Na6  1  0.17087128  0.10170766  0.82876472  1
  Na  Na7  1  0.17087128  0.39829234  0.32876472  1
  Na  Na8  1  0.20399331  0.57847281  0.13841494  1
  Na  Na9  1  0.20399331  0.92152719  0.63841494  1
  Na  Na10  1  0.29600669  0.07847281  0.13841494  1
  Na  Na11  1  0.29600669  0.42152719  0.63841494  1
  Na  Na12  1  0.32912872  0.60170766  0.82876472  1
  Na  Na13  1  0.32912872  0.89829234  0.32876472  1
  Na  Na14  1  0.34241432  0.41452916  0.00163003  1
  Na  Na15  1  0.34241432  0.08547084  0.50163003  1
  Na  Na16  1  0.42090622  0.39726437  0.25151683  1
  Na  Na17  1  0.42090622  0.10273563  0.75151683  1
  Na  Na18  1  0.43585607  0.92437913  0.93414021  1
  Na  Na19  1  0.43585607  0.57562087  0.43414021  1
  Na  Na20  1  0.56414393  0.07562087  0.06585979  1
  Na  Na21  1  0.56414393  0.42437913  0.56585979  1
  Na  Na22  1  0.57909378  0.89726437  0.24848317  1
  Na  Na23  1  0.57909378  0.60273563  0.74848317  1
  Na  Na24  1  0.65758568  0.58547084  0.99836997  1
  Na  Na25  1  0.65758568  0.91452916  0.49836997  1
  Na  Na26  1  0.67087128  0.39829234  0.17123528  1
  Na  Na27  1  0.67087128  0.10170766  0.67123528  1
  Na  Na28  1  0.70399331  0.57847281  0.36158506  1
  Na  Na29  1  0.70399331  0.92152719  0.86158506  1
  Na  Na30  1  0.79600669  0.07847281  0.36158506  1
  Na  Na31  1  0.79600669  0.42152719  0.86158506  1
  Na  Na32  1  0.82912872  0.60170766  0.67123528  1
  Na  Na33  1  0.82912872  0.89829234  0.17123528  1
  Na  Na34  1  0.84241432  0.41452916  0.49836997  1
  Na  Na35  1  0.84241432  0.08547084  0.99836997  1
  Na  Na36  1  0.92090622  0.10273563  0.74848317  1
  Na  Na37  1  0.92090622  0.39726437  0.24848317  1
  Na  Na38  1  0.93585607  0.92437913  0.56585979  1
  Na  Na39  1  0.93585607  0.57562087  0.06585979  1
  Cu  Cu40  1  0.03864418  0.17737615  0.12256882  1
  Cu  Cu41  1  0.03864418  0.32262385  0.62256882  1
  Cu  Cu42  1  0.46135582  0.67737615  0.12256882  1
  Cu  Cu43  1  0.46135582  0.82262385  0.62256882  1
  Cu  Cu44  1  0.53864418  0.17737615  0.37743118  1
  Cu  Cu45  1  0.53864418  0.32262385  0.87743118  1
  Cu  Cu46  1  0.96135582  0.67737615  0.37743118  1
  Cu  Cu47  1  0.96135582  0.82262385  0.87743118  1
  O  O48  1  0.04215907  0.85813178  0.12123214  1
  O  O49  1  0.04215907  0.64186822  0.62123214  1
  O  O50  1  0.13119630  0.26840464  0.21114039  1
  O  O51  1  0.13119630  0.23159536  0.71114039  1
  O  O52  1  0.13854078  0.31114542  0.04603678  1
  O  O53  1  0.13854078  0.18885458  0.54603678  1
  O  O54  1  0.14050796  0.75715629  0.37475619  1
  O  O55  1  0.14050796  0.74284371  0.87475619  1
  O  O56  1  0.35949204  0.25715629  0.37475619  1
  O  O57  1  0.35949204  0.24284371  0.87475619  1
  O  O58  1  0.36145922  0.81114542  0.04603678  1
  O  O59  1  0.36145922  0.68885458  0.54603678  1
  O  O60  1  0.36880370  0.73159536  0.71114039  1
  O  O61  1  0.36880370  0.76840464  0.21114039  1
  O  O62  1  0.45784093  0.35813178  0.12123214  1
  O  O63  1  0.45784093  0.14186822  0.62123214  1
  O  O64  1  0.54215907  0.85813178  0.37876786  1
  O  O65  1  0.54215907  0.64186822  0.87876786  1
  O  O66  1  0.63119630  0.23159536  0.78885961  1
  O  O67  1  0.63119630  0.26840464  0.28885961  1
  O  O68  1  0.63854078  0.18885458  0.95396322  1
  O  O69  1  0.63854078  0.31114542  0.45396322  1
  O  O70  1  0.64050796  0.75715629  0.12524381  1
  O  O71  1  0.64050796  0.74284371  0.62524381  1
  O  O72  1  0.85949204  0.24284371  0.62524381  1
  O  O73  1  0.85949204  0.25715629  0.12524381  1
  O  O74  1  0.86145922  0.81114542  0.45396322  1
  O  O75  1  0.86145922  0.68885458  0.95396322  1
  O  O76  1  0.86880370  0.73159536  0.78885961  1
  O  O77  1  0.86880370  0.76840464  0.28885961  1
  O  O78  1  0.95784093  0.35813178  0.37876786  1
  O  O79  1  0.95784093  0.14186822  0.87876786  1
