# generated using pymatgen
data_Li2Mn(BO3)2
_symmetry_space_group_name_H-M   'P 1'
_cell_length_a   3.00255187
_cell_length_b   14.60742563
_cell_length_c   9.15740735
_cell_angle_alpha   90.00000000
_cell_angle_beta   92.55580290
_cell_angle_gamma   90.00000000
_symmetry_Int_Tables_number   1
_chemical_formula_structural   Li2Mn(BO3)2
_chemical_formula_sum   'Li8 Mn4 B8 O24'
_cell_volume   401.24026935
_cell_formula_units_Z   4
loop_
 _symmetry_equiv_pos_site_id
 _symmetry_equiv_pos_as_xyz
  1  'x, y, z'
loop_
 _atom_site_type_symbol
 _atom_site_label
 _atom_site_symmetry_multiplicity
 _atom_site_fract_x
 _atom_site_fract_y
 _atom_site_fract_z
 _atom_site_occupancy
  Li  Li0  1  0.27666635  0.95985518  0.88785116  1
  Li  Li1  1  0.30170164  0.74763282  0.89309779  1
  Li  Li2  1  0.27666635  0.54014482  0.38785116  1
  Li  Li3  1  0.30170164  0.75236718  0.39309779  1
  Li  Li4  1  0.69829836  0.24763282  0.60690221  1
  Li  Li5  1  0.72333365  0.45985518  0.61214884  1
  Li  Li6  1  0.69829836  0.25236718  0.10690221  1
  Li  Li7  1  0.72333365  0.04014482  0.11214884  1
  Mn  Mn8  1  0.17822624  0.36750678  0.87710196  1
  Mn  Mn9  1  0.17822624  0.13249322  0.37710196  1
  Mn  Mn10  1  0.82177376  0.86750678  0.62289804  1
  Mn  Mn11  1  0.82177376  0.63249322  0.12289804  1
  B  B12  1  0.15587349  0.57622570  0.83900738  1
  B  B13  1  0.14488823  0.15740597  0.89521520  1
  B  B14  1  0.15587349  0.92377430  0.33900738  1
  B  B15  1  0.14488823  0.34259403  0.39521520  1
  B  B16  1  0.85511177  0.65740597  0.60478480  1
  B  B17  1  0.84412651  0.07622570  0.66099262  1
  B  B18  1  0.85511177  0.84259403  0.10478480  1
  B  B19  1  0.84412651  0.42377430  0.16099262  1
  O  O20  1  0.01631120  0.65235370  0.75463105  1
  O  O21  1  0.15854475  0.49041446  0.78779694  1
  O  O22  1  0.01631120  0.84764630  0.25463105  1
  O  O23  1  0.18428786  0.24511548  0.95840590  1
  O  O24  1  0.15854475  0.00958554  0.28779694  1
  O  O25  1  0.18428786  0.25488452  0.45840590  1
  O  O26  1  0.25512295  0.08481025  0.97545675  1
  O  O27  1  0.29010625  0.60035319  0.98377223  1
  O  O28  1  0.33333164  0.84141365  0.74343945  1
  O  O29  1  0.25512295  0.41518975  0.47545675  1
  O  O30  1  0.29010625  0.89964681  0.48377223  1
  O  O31  1  0.33333164  0.65858635  0.24343945  1
  O  O32  1  0.66666836  0.34141365  0.75656055  1
  O  O33  1  0.70989375  0.10035319  0.51622777  1
  O  O34  1  0.74487705  0.58481025  0.52454325  1
  O  O35  1  0.66666836  0.15858635  0.25656055  1
  O  O36  1  0.70989375  0.39964681  0.01622777  1
  O  O37  1  0.74487705  0.91518975  0.02454325  1
  O  O38  1  0.81571214  0.74511548  0.54159410  1
  O  O39  1  0.84145525  0.99041446  0.71220306  1
  O  O40  1  0.81571214  0.75488452  0.04159410  1
  O  O41  1  0.98368880  0.15235370  0.74536895  1
  O  O42  1  0.84145525  0.50958554  0.21220306  1
  O  O43  1  0.98368880  0.34764630  0.24536895  1
