# generated using pymatgen
data_Li2CrPHO5
_symmetry_space_group_name_H-M   'P 1'
_cell_length_a   5.55521484
_cell_length_b   5.58051402
_cell_length_c   7.37103286
_cell_angle_alpha   107.32993939
_cell_angle_beta   106.08867464
_cell_angle_gamma   89.82149317
_symmetry_Int_Tables_number   1
_chemical_formula_structural   Li2CrPHO5
_chemical_formula_sum   'Li4 Cr2 P2 H2 O10'
_cell_volume   208.80498755
_cell_formula_units_Z   2
loop_
 _symmetry_equiv_pos_site_id
 _symmetry_equiv_pos_as_xyz
  1  'x, y, z'
loop_
 _atom_site_type_symbol
 _atom_site_label
 _atom_site_symmetry_multiplicity
 _atom_site_fract_x
 _atom_site_fract_y
 _atom_site_fract_z
 _atom_site_occupancy
  Li  Li0  1  0.46265853  0.11571913  0.81698918  1
  Li  Li1  1  0.79271820  0.43451176  0.80833028  1
  Li  Li2  1  0.20725623  0.56543695  0.19169066  1
  Li  Li3  1  0.53730943  0.88432271  0.18307035  1
  Cr  Cr4  1  0.00006211  0.00002561  0.49998222  1
  Cr  Cr5  1  0.99991078  0.99987780  0.99996575  1
  P  P6  1  0.67154082  0.37261927  0.23105052  1
  P  P7  1  0.32852696  0.62726269  0.76893313  1
  H  H8  1  0.30580587  0.08935605  0.35854803  1
  H  H9  1  0.69417245  0.91069040  0.64143596  1
  O  O10  1  0.82042820  0.05209116  0.72593046  1
  O  O11  1  0.73346976  0.20752733  0.37196162  1
  O  O12  1  0.35265454  0.34919702  0.66284493  1
  O  O13  1  0.41037171  0.25916861  0.07705470  1
  O  O14  1  0.87828894  0.35270210  0.11802703  1
  O  O15  1  0.12165280  0.64722735  0.88196053  1
  O  O16  1  0.58959305  0.74089838  0.92298341  1
  O  O17  1  0.64743008  0.65091500  0.33719970  1
  O  O18  1  0.26653137  0.79251451  0.62804613  1
  O  O19  1  0.17961716  0.94786317  0.27400041  1
