# generated using pymatgen
data_Fe3(O2F)2
_symmetry_space_group_name_H-M   'P 1'
_cell_length_a   4.73863510
_cell_length_b   4.73863510
_cell_length_c   9.04199690
_cell_angle_alpha   89.57009717
_cell_angle_beta   90.42990283
_cell_angle_gamma   95.24483322
_symmetry_Int_Tables_number   1
_chemical_formula_structural   Fe3(O2F)2
_chemical_formula_sum   'Fe6 O8 F4'
_cell_volume   202.17448839
_cell_formula_units_Z   2
loop_
 _symmetry_equiv_pos_site_id
 _symmetry_equiv_pos_as_xyz
  1  'x, y, z'
loop_
 _atom_site_type_symbol
 _atom_site_label
 _atom_site_symmetry_multiplicity
 _atom_site_fract_x
 _atom_site_fract_y
 _atom_site_fract_z
 _atom_site_occupancy
  Fe  Fe0  1  0.99269734  0.00730266  0.00630514  1
  Fe  Fe1  1  0.00000000  0.00000000  0.33333300  1
  Fe  Fe2  1  0.00730266  0.99269734  0.66036186  1
  Fe  Fe3  1  0.53567521  0.46432479  0.16720946  1
  Fe  Fe4  1  0.50000000  0.50000000  0.83333300  1
  Fe  Fe5  1  0.46432479  0.53567521  0.49945754  1
  O  O6  1  0.18040921  0.81959079  0.49602538  1
  O  O7  1  0.31353499  0.29995865  0.99347438  1
  O  O8  1  0.30353835  0.30353835  0.33333300  1
  O  O9  1  0.29995865  0.31353499  0.67319162  1
  O  O10  1  0.70004135  0.68646501  0.99347438  1
  O  O11  1  0.69646165  0.69646165  0.33333300  1
  O  O12  1  0.68646501  0.70004135  0.67319162  1
  O  O13  1  0.81959079  0.18040921  0.17064162  1
  F  F14  1  0.19745021  0.80254979  0.16403470  1
  F  F15  1  0.19006533  0.80993467  0.83542126  1
  F  F16  1  0.80993467  0.19006533  0.83124574  1
  F  F17  1  0.80254979  0.19745021  0.50263130  1
