# generated using pymatgen
data_Mn6O7F5
_symmetry_space_group_name_H-M   'P 1'
_cell_length_a   4.55933409
_cell_length_b   5.63795432
_cell_length_c   15.33124142
_cell_angle_alpha   89.78975146
_cell_angle_beta   89.74227896
_cell_angle_gamma   89.86082526
_symmetry_Int_Tables_number   1
_chemical_formula_structural   Mn6O7F5
_chemical_formula_sum   'Mn12 O14 F10'
_cell_volume   394.08663819
_cell_formula_units_Z   2
loop_
 _symmetry_equiv_pos_site_id
 _symmetry_equiv_pos_as_xyz
  1  'x, y, z'
loop_
 _atom_site_type_symbol
 _atom_site_label
 _atom_site_symmetry_multiplicity
 _atom_site_fract_x
 _atom_site_fract_y
 _atom_site_fract_z
 _atom_site_occupancy
  Mn  Mn0  1  0.02991766  0.15961801  0.41008600  1
  Mn  Mn1  1  0.00177205  0.84396082  0.24257175  1
  Mn  Mn2  1  0.00253698  0.15238783  0.07625716  1
  Mn  Mn3  1  0.01728020  0.16639347  0.74541541  1
  Mn  Mn4  1  0.00177149  0.85092885  0.57595556  1
  Mn  Mn5  1  0.05475116  0.85180113  0.91194335  1
  Mn  Mn6  1  0.49536474  0.34600176  0.58636016  1
  Mn  Mn7  1  0.49032103  0.35626144  0.92499000  1
  Mn  Mn8  1  0.51030878  0.35085246  0.25797713  1
  Mn  Mn9  1  0.50148598  0.64822437  0.08669982  1
  Mn  Mn10  1  0.50310923  0.63725736  0.42726008  1
  Mn  Mn11  1  0.49347596  0.63448556  0.75413811  1
  O  O12  1  0.22041902  0.11616955  0.30064556  1
  O  O13  1  0.21392307  0.10813323  0.63501649  1
  O  O14  1  0.24242345  0.11556521  0.97007387  1
  O  O15  1  0.21401831  0.88585204  0.13325829  1
  O  O16  1  0.23535945  0.88818596  0.46880182  1
  O  O17  1  0.23674747  0.88922735  0.80327821  1
  O  O18  1  0.28156383  0.39361252  0.47868905  1
  O  O19  1  0.28533950  0.39695023  0.81699435  1
  O  O20  1  0.28688147  0.60969298  0.97786178  1
  O  O21  1  0.72320738  0.37874209  0.02949905  1
  O  O22  1  0.71422343  0.61704219  0.19716790  1
  O  O23  1  0.73254169  0.38920653  0.36411565  1
  O  O24  1  0.72071895  0.62042690  0.53053385  1
  O  O25  1  0.71766427  0.37892161  0.69448357  1
  F  F26  1  0.24879816  0.38261556  0.15374249  1
  F  F27  1  0.25837664  0.62032004  0.32063517  1
  F  F28  1  0.23397193  0.60879943  0.64455811  1
  F  F29  1  0.76345883  0.61644536  0.86660427  1
  F  F30  1  0.74641119  0.11426957  0.18125472  1
  F  F31  1  0.77213299  0.12246544  0.51560754  1
  F  F32  1  0.75373684  0.87348684  0.35678887  1
  F  F33  1  0.77979650  0.87583156  0.01194903  1
  F  F34  1  0.76962900  0.12896052  0.85850779  1
  F  F35  1  0.74656136  0.87090524  0.69027604  1
