# generated using pymatgen
data_Fe2O3F
_symmetry_space_group_name_H-M   'P 1'
_cell_length_a   4.70778113
_cell_length_b   23.39590681
_cell_length_c   3.00931690
_cell_angle_alpha   90.00000000
_cell_angle_beta   90.00000000
_cell_angle_gamma   92.50890163
_symmetry_Int_Tables_number   1
_chemical_formula_structural   Fe2O3F
_chemical_formula_sum   'Fe10 O15 F5'
_cell_volume   331.13689350
_cell_formula_units_Z   5
loop_
 _symmetry_equiv_pos_site_id
 _symmetry_equiv_pos_as_xyz
  1  'x, y, z'
loop_
 _atom_site_type_symbol
 _atom_site_label
 _atom_site_symmetry_multiplicity
 _atom_site_fract_x
 _atom_site_fract_y
 _atom_site_fract_z
 _atom_site_occupancy
  Fe  Fe0  1  0.95890698  -0.00040193  0.00000000  1
  Fe  Fe1  1  0.06370708  0.19548920  0.00000000  1
  Fe  Fe2  1  0.03302297  0.39649478  0.00000000  1
  Fe  Fe3  1  0.00661254  0.59647503  0.00000000  1
  Fe  Fe4  1  0.98703905  0.79557955  0.00000000  1
  Fe  Fe5  1  0.54561054  0.10552555  0.50000000  1
  Fe  Fe6  1  0.50738473  0.30305008  0.50000000  1
  Fe  Fe7  1  0.48173621  0.50268024  0.50000000  1
  Fe  Fe8  1  0.46579766  0.70341165  0.50000000  1
  Fe  Fe9  1  0.44107268  0.90432713  0.50000000  1
  O  O10  1  0.24302481  0.15952687  0.50000000  1
  O  O11  1  0.20475170  0.35903151  0.50000000  1
  O  O12  1  0.18818478  0.55998398  0.50000000  1
  O  O13  1  0.13880022  0.96379124  0.50000000  1
  O  O14  1  0.17635097  0.76253148  0.50000000  1
  O  O15  1  0.31287943  0.45891176  0.00000000  1
  O  O16  1  0.29768104  0.66035777  0.00000000  1
  O  O17  1  0.27271685  0.86326391  0.00000000  1
  O  O18  1  0.34839674  0.25973318  0.00000000  1
  O  O19  1  0.73910446  0.13989170  0.00000000  1
  O  O20  1  0.71170802  0.33755212  0.00000000  1
  O  O21  1  0.67664301  0.73881589  0.00000000  1
  O  O22  1  0.63377177  0.94114249  0.00000000  1
  O  O23  1  0.69362062  0.53670182  0.00000000  1
  O  O24  1  0.80698652  0.04149619  0.50000000  1
  F  F25  1  0.31974970  0.06147718  0.00000000  1
  F  F26  1  0.85439315  0.23729642  0.50000000  1
  F  F27  1  0.81568886  0.43674020  0.50000000  1
  F  F28  1  0.79619520  0.63855083  0.50000000  1
  F  F29  1  0.77845972  0.84057320  0.50000000  1
