# generated using pymatgen
data_Mn6O7F5
_symmetry_space_group_name_H-M   'P 1'
_cell_length_a   4.56245232
_cell_length_b   5.64424543
_cell_length_c   15.29040579
_cell_angle_alpha   89.79260654
_cell_angle_beta   89.64903171
_cell_angle_gamma   89.37962466
_symmetry_Int_Tables_number   1
_chemical_formula_structural   Mn6O7F5
_chemical_formula_sum   'Mn12 O14 F10'
_cell_volume   393.71947036
_cell_formula_units_Z   2
loop_
 _symmetry_equiv_pos_site_id
 _symmetry_equiv_pos_as_xyz
  1  'x, y, z'
loop_
 _atom_site_type_symbol
 _atom_site_label
 _atom_site_symmetry_multiplicity
 _atom_site_fract_x
 _atom_site_fract_y
 _atom_site_fract_z
 _atom_site_occupancy
  Mn  Mn0  1  0.01493106  0.15153293  0.40557462  1
  Mn  Mn1  1  0.02255047  0.83614400  0.24276826  1
  Mn  Mn2  1  0.99674738  0.15470896  0.07954001  1
  Mn  Mn3  1  0.02368762  0.16555774  0.74618933  1
  Mn  Mn4  1  0.99375980  0.84826305  0.57529123  1
  Mn  Mn5  1  0.05147056  0.85379337  0.91363650  1
  Mn  Mn6  1  0.50616055  0.34740920  0.59015010  1
  Mn  Mn7  1  0.48772819  0.35399390  0.92538246  1
  Mn  Mn8  1  0.50204180  0.36676960  0.25970760  1
  Mn  Mn9  1  0.50284464  0.64816733  0.08642230  1
  Mn  Mn10  1  0.49738395  0.65195949  0.42026590  1
  Mn  Mn11  1  0.49459328  0.63808128  0.75541993  1
  O  O12  1  0.23782799  0.11325907  0.30008340  1
  O  O13  1  0.21605320  0.11097842  0.63555797  1
  O  O14  1  0.23708945  0.11597005  0.97170116  1
  O  O15  1  0.21404568  0.88489123  0.13378765  1
  O  O16  1  0.21943073  0.88923351  0.46636986  1
  O  O17  1  0.23797422  0.89013825  0.80513251  1
  O  O18  1  0.27806198  0.60322059  0.31300969  1
  O  O19  1  0.28750132  0.39728419  0.81732041  1
  O  O20  1  0.28524375  0.61118674  0.97813749  1
  O  O21  1  0.72100284  0.37752101  0.03015237  1
  O  O22  1  0.72455535  0.61199153  0.19482374  1
  O  O23  1  0.72495759  0.38273913  0.36162355  1
  O  O24  1  0.71300249  0.61880497  0.52980593  1
  O  O25  1  0.72448262  0.38323050  0.69661485  1
  F  F26  1  0.25535467  0.38122980  0.15322041  1
  F  F27  1  0.25478991  0.37966816  0.48484389  1
  F  F28  1  0.23668798  0.61135540  0.64546122  1
  F  F29  1  0.76385442  0.61779952  0.86791919  1
  F  F30  1  0.74750627  0.12753797  0.19088256  1
  F  F31  1  0.75533669  0.11918717  0.51195865  1
  F  F32  1  0.77406939  0.87557730  0.34718374  1
  F  F33  1  0.77803973  0.87948868  0.01419649  1
  F  F34  1  0.77059369  0.12699346  0.85889321  1
  F  F35  1  0.74863475  0.87433452  0.69097181  1
