# generated using pymatgen
data_Gd2Zr2O7
_symmetry_space_group_name_H-M   'P 1'
_cell_length_a   7.50909432
_cell_length_b   6.98550643
_cell_length_c   13.30387563
_cell_angle_alpha   90.00000000
_cell_angle_beta   115.20772334
_cell_angle_gamma   90.00000000
_symmetry_Int_Tables_number   1
_chemical_formula_structural   Gd2Zr2O7
_chemical_formula_sum   'Gd8 Zr8 O28'
_cell_volume   631.39575382
_cell_formula_units_Z   4
loop_
 _symmetry_equiv_pos_site_id
 _symmetry_equiv_pos_as_xyz
  1  'x, y, z'
loop_
 _atom_site_type_symbol
 _atom_site_label
 _atom_site_symmetry_multiplicity
 _atom_site_fract_x
 _atom_site_fract_y
 _atom_site_fract_z
 _atom_site_occupancy
  Gd  Gd0  1  0.16334191  0.88995684  0.63873059  1
  Gd  Gd1  1  0.33665809  0.38995684  0.86126941  1
  Gd  Gd2  1  0.13288433  0.67935101  0.38696083  1
  Gd  Gd3  1  0.36711567  0.17935101  0.11303917  1
  Gd  Gd4  1  0.63288433  0.82064899  0.88696083  1
  Gd  Gd5  1  0.86711567  0.32064899  0.61303917  1
  Gd  Gd6  1  0.66334191  0.61004316  0.13873059  1
  Gd  Gd7  1  0.83665809  0.11004316  0.36126941  1
  Zr  Zr8  1  0.14738118  0.85839020  0.89841173  1
  Zr  Zr9  1  0.35261882  0.35839020  0.60158827  1
  Zr  Zr10  1  0.33378232  0.11240399  0.38624051  1
  Zr  Zr11  1  0.16621768  0.61240399  0.11375949  1
  Zr  Zr12  1  0.83378232  0.38759601  0.88624051  1
  Zr  Zr13  1  0.66621768  0.88759601  0.61375949  1
  Zr  Zr14  1  0.64738118  0.64160980  0.39841173  1
  Zr  Zr15  1  0.85261882  0.14160980  0.10158827  1
  O  O16  1  0.94277946  0.68002070  0.93588588  1
  O  O17  1  0.19826920  0.22898093  0.67469667  1
  O  O18  1  0.30948209  0.10314982  0.93183349  1
  O  O19  1  0.06516226  0.06095368  0.25207912  1
  O  O20  1  0.00511090  0.60681014  0.20285440  1
  O  O21  1  0.19051791  0.60314982  0.56816651  1
  O  O22  1  0.30173080  0.72898093  0.82530333  1
  O  O23  1  0.15861022  0.99896692  0.47117436  1
  O  O24  1  0.26303308  0.38118872  0.42373106  1
  O  O25  1  0.56516226  0.43904632  0.75207912  1
  O  O26  1  0.55722054  0.18002070  0.56411412  1
  O  O27  1  0.50511090  0.89318986  0.70285440  1
  O  O28  1  0.65861022  0.50103308  0.97117436  1
  O  O29  1  0.76303308  0.11881128  0.92373106  1
  O  O30  1  0.23696692  0.88118872  0.07626894  1
  O  O31  1  0.34138978  0.49896692  0.02882564  1
  O  O32  1  0.49488910  0.10681014  0.29714560  1
  O  O33  1  0.44277946  0.81997930  0.43588588  1
  O  O34  1  0.43483774  0.56095368  0.24792088  1
  O  O35  1  0.73696692  0.61881128  0.57626894  1
  O  O36  1  0.84138978  0.00103308  0.52882564  1
  O  O37  1  0.69826920  0.27101907  0.17469667  1
  O  O38  1  0.80948209  0.39685018  0.43183349  1
  O  O39  1  0.99488910  0.39318986  0.79714560  1
  O  O40  1  0.93483774  0.93904632  0.74792088  1
  O  O41  1  0.69051791  0.89685018  0.06816651  1
  O  O42  1  0.80173080  0.77101907  0.32530333  1
  O  O43  1  0.05722054  0.31997930  0.06411412  1
