# generated using pymatgen
data_Li11V6O5F19
_symmetry_space_group_name_H-M   'P 1'
_cell_length_a   5.13056402
_cell_length_b   5.46044414
_cell_length_c   16.20455721
_cell_angle_alpha   81.01879209
_cell_angle_beta   90.06980347
_cell_angle_gamma   88.52744528
_symmetry_Int_Tables_number   1
_chemical_formula_structural   Li11V6O5F19
_chemical_formula_sum   'Li11 V6 O5 F19'
_cell_volume   448.25296337
_cell_formula_units_Z   1
loop_
 _symmetry_equiv_pos_site_id
 _symmetry_equiv_pos_as_xyz
  1  'x, y, z'
loop_
 _atom_site_type_symbol
 _atom_site_label
 _atom_site_symmetry_multiplicity
 _atom_site_fract_x
 _atom_site_fract_y
 _atom_site_fract_z
 _atom_site_occupancy
  Li  Li0  1  0.50897648  0.24042023  0.44132656  1
  Li  Li1  1  0.99750495  0.39800021  0.10070343  1
  Li  Li2  1  0.48574497  0.28023403  0.20462404  1
  Li  Li3  1  0.01175787  0.09096538  0.77122179  1
  Li  Li4  1  0.50950063  0.11816194  0.89033703  1
  Li  Li5  1  0.99870977  0.24917803  0.56855297  1
  Li  Li6  1  0.99778596  0.71570859  0.44367454  1
  Li  Li7  1  0.49839671  0.85656557  0.11357788  1
  Li  Li8  1  0.98939478  0.58020051  0.89947763  1
  Li  Li9  1  0.49894791  0.54943914  0.77802572  1
  Li  Li10  1  0.50803217  0.79561389  0.55819548  1
  V  V11  1  0.01261680  0.35131651  0.33359257  1
  V  V12  1  0.50121620  0.16821821  0.66515658  1
  V  V13  1  0.48172890  0.81735347  0.33590821  1
  V  V14  1  0.49558525  0.49112175  0.99802875  1
  V  V15  1  0.99544631  0.99208467  0.99896837  1
  V  V16  1  0.99962489  0.66693030  0.66651452  1
  O  O17  1  0.19425165  0.35291123  0.69339273  1
  O  O18  1  0.30550599  0.51725891  0.37045541  1
  O  O19  1  0.19075555  0.67757929  0.02783543  1
  O  O20  1  0.79697966  0.30526783  0.96482115  1
  O  O21  1  0.80034171  0.97653066  0.63407094  1
  F  F22  1  0.17531472  0.00893514  0.37844671  1
  F  F23  1  0.31085234  0.16506484  0.04646353  1
  F  F24  1  0.67345706  0.17618076  0.31050799  1
  F  F25  1  0.35578269  0.15055089  0.54920297  1
  F  F26  1  0.12750483  0.35895924  0.21831587  1
  F  F27  1  0.64839520  0.19002155  0.77952759  1
  F  F28  1  0.14843536  0.00546790  0.88193131  1
  F  F29  1  0.86293618  0.34699033  0.45111761  1
  F  F30  1  0.63518990  0.50147112  0.11576397  1
  F  F31  1  0.68916806  0.49273044  0.61740796  1
  F  F32  1  0.81757750  0.67087238  0.30233079  1
  F  F33  1  0.14965770  0.68263115  0.55051188  1
  F  F34  1  0.85724148  0.65572594  0.78253417  1
  F  F35  1  0.34549207  0.47404296  0.88339981  1
  F  F36  1  0.39706935  0.91895585  0.22005171  1
  F  F37  1  0.84104597  0.99424015  0.10904916  1
  F  F38  1  0.63986338  0.84780024  0.44661086  1
  F  F39  1  0.31669057  0.83930514  0.71168145  1
  F  F40  1  0.68540855  0.81581465  0.95041191  1
