# generated using pymatgen
data_Co4TeO8
_symmetry_space_group_name_H-M   'P 1'
_cell_length_a   10.72430259
_cell_length_b   10.72430237
_cell_length_c   14.96484646
_cell_angle_alpha   18.63101662
_cell_angle_beta   18.63101696
_cell_angle_gamma   32.32310126
_symmetry_Int_Tables_number   1
_chemical_formula_structural   Co4TeO8
_chemical_formula_sum   'Co4 Te1 O8'
_cell_volume   150.23387740
_cell_formula_units_Z   1
loop_
 _symmetry_equiv_pos_site_id
 _symmetry_equiv_pos_as_xyz
  1  'x, y, z'
loop_
 _atom_site_type_symbol
 _atom_site_label
 _atom_site_symmetry_multiplicity
 _atom_site_fract_x
 _atom_site_fract_y
 _atom_site_fract_z
 _atom_site_occupancy
  Co  Co0  1  0.00000000  0.00000000  0.00000000  1
  Co  Co1  1  0.00000000  0.50000000  0.00000000  1
  Co  Co2  1  0.50000000  0.00000000  0.00000000  1
  Co  Co3  1  0.00000000  0.00000000  0.50000000  1
  Te  Te4  1  0.50000000  0.50000000  0.00000000  1
  O  O5  1  0.04129574  0.04129574  0.21148655  1
  O  O6  1  0.03091186  0.49314774  0.24535753  1
  O  O7  1  0.49314774  0.03091186  0.24535753  1
  O  O8  1  0.95870426  0.95870426  0.78851345  1
  O  O9  1  0.55858868  0.55858868  0.18954801  1
  O  O10  1  0.96908814  0.50685226  0.75464247  1
  O  O11  1  0.50685226  0.96908814  0.75464247  1
  O  O12  1  0.44141132  0.44141132  0.81045199  1
