# generated using pymatgen
data_Hf2N2O
_symmetry_space_group_name_H-M   'P 1'
_cell_length_a   13.78789619
_cell_length_b   3.26584427
_cell_length_c   8.10978533
_cell_angle_alpha   90.00000000
_cell_angle_beta   98.60845135
_cell_angle_gamma   90.00000000
_symmetry_Int_Tables_number   1
_chemical_formula_structural   Hf2N2O
_chemical_formula_sum   'Hf12 N12 O6'
_cell_volume   361.06254685
_cell_formula_units_Z   6
loop_
 _symmetry_equiv_pos_site_id
 _symmetry_equiv_pos_as_xyz
  1  'x, y, z'
loop_
 _atom_site_type_symbol
 _atom_site_label
 _atom_site_symmetry_multiplicity
 _atom_site_fract_x
 _atom_site_fract_y
 _atom_site_fract_z
 _atom_site_occupancy
  Hf  Hf0  1  0.00660368  0.25000000  0.17924255  1
  Hf  Hf1  1  0.11863415  0.25000000  0.54406954  1
  Hf  Hf2  1  0.22182733  0.75000000  0.18108052  1
  Hf  Hf3  1  0.28385928  0.75000000  0.81917019  1
  Hf  Hf4  1  0.38797521  0.25000000  0.49132265  1
  Hf  Hf5  1  0.43398234  0.25000000  0.13308667  1
  Hf  Hf6  1  0.57504699  0.75000000  0.88496462  1
  Hf  Hf7  1  0.61609268  0.75000000  0.51695243  1
  Hf  Hf8  1  0.71988487  0.25000000  0.18461383  1
  Hf  Hf9  1  0.78159723  0.25000000  0.82245110  1
  Hf  Hf10  1  0.88019231  0.75000000  0.45289677  1
  Hf  Hf11  1  0.98225173  0.75000000  0.80932070  1
  N  N12  1  0.18055972  0.25000000  0.31781109  1
  N  N13  1  0.28283452  0.25000000  0.65119972  1
  N  N14  1  0.26721852  0.25000000  0.00708019  1
  N  N15  1  0.37321469  0.75000000  0.29130811  1
  N  N16  1  0.62762630  0.25000000  0.69917113  1
  N  N17  1  0.56929898  0.25000000  0.04464844  1
  N  N18  1  0.72890311  0.75000000  0.98942335  1
  N  N19  1  0.71494696  0.75000000  0.35175589  1
  N  N20  1  0.81818799  0.75000000  0.68080444  1
  N  N21  1  0.92936575  0.25000000  0.94162584  1
  N  N22  1  0.87323907  0.25000000  0.27793486  1
  N  N23  1  0.97561590  0.25000000  0.61604432  1
  O  O24  1  0.03283910  0.75000000  0.37702673  1
  O  O25  1  0.13129433  0.75000000  0.71581974  1
  O  O26  1  0.07164813  0.75000000  0.05996698  1
  O  O27  1  0.42402474  0.75000000  0.95688161  1
  O  O28  1  0.46025064  0.75000000  0.62211844  1
  O  O29  1  0.53098374  0.25000000  0.38020755  1
