# generated using pymatgen
data_NaNi4F10
_symmetry_space_group_name_H-M   'P 1'
_cell_length_a   3.98440073
_cell_length_b   8.36182603
_cell_length_c   6.60204682
_cell_angle_alpha   90.00000000
_cell_angle_beta   89.43377723
_cell_angle_gamma   90.00000000
_symmetry_Int_Tables_number   1
_chemical_formula_structural   NaNi4F10
_chemical_formula_sum   'Na1 Ni4 F10'
_cell_volume   219.94876662
_cell_formula_units_Z   1
loop_
 _symmetry_equiv_pos_site_id
 _symmetry_equiv_pos_as_xyz
  1  'x, y, z'
loop_
 _atom_site_type_symbol
 _atom_site_label
 _atom_site_symmetry_multiplicity
 _atom_site_fract_x
 _atom_site_fract_y
 _atom_site_fract_z
 _atom_site_occupancy
  Na  Na0  1  0.50000000  0.73440756  0.50000000  1
  Ni  Ni1  1  -0.00000000  0.22101434  0.00000000  1
  Ni  Ni2  1  -0.00000000  0.05838565  0.50000000  1
  Ni  Ni3  1  0.50000000  0.52196430  0.00000000  1
  Ni  Ni4  1  0.50000000  0.34451195  0.50000000  1
  F  F5  1  -0.00000000  0.30438379  0.50000000  1
  F  F6  1  0.48695470  0.51250502  0.29879358  1
  F  F7  1  0.01339113  0.06529186  0.21022358  1
  F  F8  1  0.50000000  0.10458333  0.50000000  1
  F  F9  1  0.50000000  0.26937984  0.00000000  1
  F  F10  1  0.50000000  0.74027803  0.00000000  1
  F  F11  1  0.98660887  0.06529186  0.78977642  1
  F  F12  1  0.51304530  0.51250502  0.70120642  1
  F  F13  1  -0.00000000  0.46186397  0.00000000  1
  F  F14  1  -0.00000000  0.83363347  0.50000000  1
