# generated using pymatgen
data_LaAlO3
_symmetry_space_group_name_H-M   'P 1'
_cell_length_a   7.90093684
_cell_length_b   8.05499292
_cell_length_c   10.79773998
_cell_angle_alpha   39.11070358
_cell_angle_beta   82.62754051
_cell_angle_gamma   77.29536486
_symmetry_Int_Tables_number   1
_chemical_formula_structural   LaAlO3
_chemical_formula_sum   'La6 Al6 O18'
_cell_volume   421.87866244
_cell_formula_units_Z   6
loop_
 _symmetry_equiv_pos_site_id
 _symmetry_equiv_pos_as_xyz
  1  'x, y, z'
loop_
 _atom_site_type_symbol
 _atom_site_label
 _atom_site_symmetry_multiplicity
 _atom_site_fract_x
 _atom_site_fract_y
 _atom_site_fract_z
 _atom_site_occupancy
  La  La0  1  0.09972046  0.88618455  0.22280326  1
  La  La1  1  0.25292810  0.11217687  0.41558041  1
  La  La2  1  0.42314931  0.93104451  0.87884420  1
  La  La3  1  0.58026536  0.06727530  0.12213261  1
  La  La4  1  0.75133671  0.88842390  0.58394316  1
  La  La5  1  0.90326450  0.11312709  0.77777288  1
  Al  Al6  1  0.22383748  0.55597349  0.91083229  1
  Al  Al7  1  0.10492253  0.51129308  0.68935971  1
  Al  Al8  1  0.47671245  0.56277329  0.64258798  1
  Al  Al9  1  0.52834084  0.43697864  0.35808528  1
  Al  Al10  1  0.78089849  0.44275851  0.08980120  1
  Al  Al11  1  0.90007172  0.48916934  0.31027935  1
  O  O12  1  0.08852457  0.37241720  0.44501498  1
  O  O13  1  0.07149148  0.69992048  0.72501111  1
  O  O14  1  0.14628120  0.16134868  0.88414068  1
  O  O15  1  0.18394105  0.75275172  0.93382551  1
  O  O16  1  0.25487474  0.20848696  0.13892782  1
  O  O17  1  0.27783844  0.64036725  0.53376614  1
  O  O18  1  0.44863066  0.13780489  0.55348234  1
  O  O19  1  0.42702791  0.57629231  0.80371587  1
  O  O20  1  0.41661887  0.76562879  0.19740644  1
  O  O21  1  0.57848932  0.42203623  0.19783586  1
  O  O22  1  0.58759788  0.23372808  0.80291849  1
  O  O23  1  0.55638223  0.86190979  0.44687437  1
  O  O24  1  0.72745286  0.36010690  0.46658023  1
  O  O25  1  0.74942590  0.79015028  0.86132374  1
  O  O26  1  0.82060658  0.24408179  0.06850358  1
  O  O27  1  0.93355907  0.30057315  0.27479548  1
  O  O28  1  0.85717392  0.83903263  0.11540874  1
  O  O29  1  0.91706336  0.63033429  0.55288027  1
