# generated using pymatgen
data_Li3MnCu3O8
_symmetry_space_group_name_H-M   'P 1'
_cell_length_a   10.30394856
_cell_length_b   10.30627032
_cell_length_c   14.59818482
_cell_angle_alpha   19.20845644
_cell_angle_beta   19.19821916
_cell_angle_gamma   33.09705072
_symmetry_Int_Tables_number   1
_chemical_formula_structural   Li3MnCu3O8
_chemical_formula_sum   'Li3 Mn1 Cu3 O8'
_cell_volume   145.27891583
_cell_formula_units_Z   1
loop_
 _symmetry_equiv_pos_site_id
 _symmetry_equiv_pos_as_xyz
  1  'x, y, z'
loop_
 _atom_site_type_symbol
 _atom_site_label
 _atom_site_symmetry_multiplicity
 _atom_site_fract_x
 _atom_site_fract_y
 _atom_site_fract_z
 _atom_site_occupancy
  Li  Li0  1  0.99998298  0.49998129  0.50002431  1
  Li  Li1  1  0.49998567  0.99998937  0.50001606  1
  Li  Li2  1  0.50000279  0.50000818  0.49999539  1
  Mn  Mn3  1  -0.00000410  0.00000941  0.00000000  1
  Cu  Cu4  1  0.00000157  0.49999552  -0.00000007  1
  Cu  Cu5  1  0.49999460  0.00000171  -0.00000232  1
  Cu  Cu6  1  0.49999101  0.49999420  0.00000771  1
  O  O7  1  0.00038678  0.99990172  0.26011375  1
  O  O8  1  0.00012644  0.52824406  0.24131418  1
  O  O9  1  0.52774241  0.99992576  0.24175754  1
  O  O10  1  0.99960277  0.00009000  0.73989303  1
  O  O11  1  0.47191263  0.47175123  0.29778669  1
  O  O12  1  0.99988829  0.47177962  0.75866399  1
  O  O13  1  0.47228746  0.00007971  0.75821938  1
  O  O14  1  0.52809869  0.52824823  0.70221035  1
