# generated using pymatgen
data_Na5CrO4
_symmetry_space_group_name_H-M   'P 1'
_cell_length_a   7.62236106
_cell_length_b   7.25077954
_cell_length_c   5.35257189
_cell_angle_alpha   90.00124890
_cell_angle_beta   89.99985511
_cell_angle_gamma   90.00131732
_symmetry_Int_Tables_number   1
_chemical_formula_structural   Na5CrO4
_chemical_formula_sum   'Na10 Cr2 O8'
_cell_volume   295.82626226
_cell_formula_units_Z   2
loop_
 _symmetry_equiv_pos_site_id
 _symmetry_equiv_pos_as_xyz
  1  'x, y, z'
loop_
 _atom_site_type_symbol
 _atom_site_label
 _atom_site_symmetry_multiplicity
 _atom_site_fract_x
 _atom_site_fract_y
 _atom_site_fract_z
 _atom_site_occupancy
  Na  Na0  1  0.05791512  0.01139292  0.74320025  1
  Na  Na1  1  0.05791277  0.48860787  0.74319221  1
  Na  Na2  1  0.25000302  0.75000048  0.18200485  1
  Na  Na3  1  0.44208260  0.48860225  0.74319035  1
  Na  Na4  1  0.44208909  0.01138767  0.74319902  1
  Na  Na5  1  0.55783407  0.51125803  0.25682413  1
  Na  Na6  1  0.55784285  0.98873566  0.25682205  1
  Na  Na7  1  0.74999436  0.24999336  0.81802949  1
  Na  Na8  1  0.94214839  0.51126655  0.25682084  1
  Na  Na9  1  0.94217083  0.98874473  0.25682165  1
  Cr  Cr10  1  0.24999573  0.25001532  0.21793129  1
  Cr  Cr11  1  0.75000550  0.74999625  0.78179689  1
  O  O12  1  0.02229047  0.25003887  0.03372319  1
  O  O13  1  0.24995943  0.47563097  0.40080999  1
  O  O14  1  0.25003791  0.02438811  0.40080998  1
  O  O15  1  0.47770650  0.24997181  0.03372926  1
  O  O16  1  0.52245566  0.74997029  0.96647507  1
  O  O17  1  0.74997131  0.52418639  0.59907451  1
  O  O18  1  0.75003200  0.97579538  0.59906981  1
  O  O19  1  0.97755238  0.75001711  0.96647518  1
