# generated using pymatgen
data_LiFeF3
_symmetry_space_group_name_H-M   'P 1'
_cell_length_a   7.83895652
_cell_length_b   3.03144087
_cell_length_c   9.99044612
_cell_angle_alpha   90.00760585
_cell_angle_beta   90.01229907
_cell_angle_gamma   89.99719969
_symmetry_Int_Tables_number   1
_chemical_formula_structural   LiFeF3
_chemical_formula_sum   'Li4 Fe4 F12'
_cell_volume   237.40629154
_cell_formula_units_Z   4
loop_
 _symmetry_equiv_pos_site_id
 _symmetry_equiv_pos_as_xyz
  1  'x, y, z'
loop_
 _atom_site_type_symbol
 _atom_site_label
 _atom_site_symmetry_multiplicity
 _atom_site_fract_x
 _atom_site_fract_y
 _atom_site_fract_z
 _atom_site_occupancy
  Li  Li0  1  0.00259286  0.74998240  0.31397839  1
  Li  Li1  1  0.49719709  0.25004256  0.81403344  1
  Li  Li2  1  0.50268100  0.74995692  0.18597731  1
  Li  Li3  1  0.99746702  0.25000646  0.68600277  1
  Fe  Fe4  1  0.19048518  0.24994022  0.01347949  1
  Fe  Fe5  1  0.30951709  0.74999439  0.51339940  1
  Fe  Fe6  1  0.69056924  0.25001946  0.48660452  1
  Fe  Fe7  1  0.80941127  0.75005622  0.98649560  1
  F  F8  1  0.97352701  0.24999967  0.88896732  1
  F  F9  1  0.17531354  0.24994542  0.41246036  1
  F  F10  1  0.14943943  0.74998553  0.66422512  1
  F  F11  1  0.35067981  0.24996489  0.16423885  1
  F  F12  1  0.32466111  0.74985182  0.91253693  1
  F  F13  1  0.52656585  0.74998010  0.38900306  1
  F  F14  1  0.47351444  0.25003132  0.61098989  1
  F  F15  1  0.67528652  0.25013949  0.08747974  1
  F  F16  1  0.64921504  0.75003017  0.83572864  1
  F  F17  1  0.85065403  0.25000087  0.33582732  1
  F  F18  1  0.82480025  0.75006729  0.58754992  1
  F  F19  1  0.02642222  0.75000480  0.11102190  1
