# generated using pymatgen
data_Li4MnCo2O7
_symmetry_space_group_name_H-M   'P 1'
_cell_length_a   2.91525800
_cell_length_b   5.88890749
_cell_length_c   15.06005669
_cell_angle_alpha   84.17061244
_cell_angle_beta   84.44577779
_cell_angle_gamma   89.99999492
_symmetry_Int_Tables_number   1
_chemical_formula_structural   Li4MnCo2O7
_chemical_formula_sum   'Li8 Mn2 Co4 O14'
_cell_volume   255.98909357
_cell_formula_units_Z   2
loop_
 _symmetry_equiv_pos_site_id
 _symmetry_equiv_pos_as_xyz
  1  'x, y, z'
loop_
 _atom_site_type_symbol
 _atom_site_label
 _atom_site_symmetry_multiplicity
 _atom_site_fract_x
 _atom_site_fract_y
 _atom_site_fract_z
 _atom_site_occupancy
  Li  Li0  1  0.42590948  0.20948536  0.14818003  1
  Li  Li1  1  0.28052980  0.64656721  0.43893939  1
  Li  Li2  1  0.14804120  0.06771879  0.70391761  1
  Li  Li3  1  0.85179816  0.92269263  0.29640369  1
  Li  Li4  1  0.71428600  0.35714300  0.57142900  1
  Li  Li5  1  0.57677384  0.79159237  0.84645331  1
  Li  Li6  1  0.00266152  0.50480064  0.99467697  1
  Li  Li7  1  0.71428600  0.85714300  0.57142900  1
  Mn  Mn8  1  0.00318597  0.00419565  0.99362806  1
  Mn  Mn9  1  0.42538503  0.71009035  0.14922894  1
  Co  Co10  1  0.85088475  0.42394959  0.29823049  1
  Co  Co11  1  0.57768725  0.29033541  0.84462651  1
  Co  Co12  1  0.27921500  0.12897260  0.44156900  1
  Co  Co13  1  0.14935600  0.58531340  0.70128800  1
  O  O14  1  0.50327059  0.23303150  0.99345881  1
  O  O15  1  0.35293065  0.65292468  0.29413870  1
  O  O16  1  0.22014873  0.11125839  0.55970255  1
  O  O17  1  0.92675548  0.93795785  0.14649003  1
  O  O18  1  0.78472283  0.37420729  0.43055334  1
  O  O19  1  0.64470499  0.80440939  0.71058903  1
  O  O20  1  0.07827297  0.52338175  0.84345507  1
  O  O21  1  0.35029903  0.19090425  0.29940293  1
  O  O22  1  0.20842327  0.60302661  0.58315445  1
  O  O23  1  0.07564035  0.06136132  0.84871830  1
  O  O24  1  0.78386601  0.90987661  0.43226797  1
  O  O25  1  0.64384817  0.34007871  0.71230366  1
  O  O26  1  0.50181652  0.77632715  0.99636697  1
  O  O27  1  0.92530041  0.48125450  0.14939819  1
