# generated using pymatgen
data_Fe4O5F3
_symmetry_space_group_name_H-M   'P 1'
_cell_length_a   4.77356416
_cell_length_b   10.01232688
_cell_length_c   6.06488368
_cell_angle_alpha   72.19201667
_cell_angle_beta   89.85174585
_cell_angle_gamma   85.46441701
_symmetry_Int_Tables_number   1
_chemical_formula_structural   Fe4O5F3
_chemical_formula_sum   'Fe8 O10 F6'
_cell_volume   275.04399661
_cell_formula_units_Z   2
loop_
 _symmetry_equiv_pos_site_id
 _symmetry_equiv_pos_as_xyz
  1  'x, y, z'
loop_
 _atom_site_type_symbol
 _atom_site_label
 _atom_site_symmetry_multiplicity
 _atom_site_fract_x
 _atom_site_fract_y
 _atom_site_fract_z
 _atom_site_occupancy
  Fe  Fe0  1  0.44410190  0.23540919  0.64176980  1
  Fe  Fe1  1  0.50011764  0.74657540  0.87992694  1
  Fe  Fe2  1  0.55491041  0.77135030  0.36099228  1
  Fe  Fe3  1  0.51522595  0.27111087  0.10569136  1
  Fe  Fe4  1  0.02744595  0.99210352  0.50247516  1
  Fe  Fe5  1  0.97608643  0.49358018  0.75711676  1
  Fe  Fe6  1  0.99990116  0.00610876  0.99851933  1
  Fe  Fe7  1  0.98955073  0.48909500  0.25085904  1
  O  O8  1  0.79871050  0.40920099  0.04602694  1
  O  O9  1  0.83771298  0.91186477  0.29293203  1
  O  O10  1  0.69728436  0.65558192  0.17307149  1
  O  O11  1  0.69171718  0.15288547  0.92264551  1
  O  O12  1  0.69669052  0.65531576  0.67126309  1
  O  O13  1  0.31796314  0.85122814  0.07511353  1
  O  O14  1  0.32766649  0.84548272  0.57511515  1
  O  O15  1  0.28575662  0.34956721  0.82536673  1
  O  O16  1  0.30087701  0.34294967  0.32976411  1
  O  O17  1  0.17839389  0.08756606  0.70636239  1
  F  F18  1  0.79000090  0.39812159  0.54927957  1
  F  F19  1  0.80844964  0.90090052  0.79586969  1
  F  F20  1  0.69952127  0.14852181  0.42631311  1
  F  F21  1  0.19287957  0.59780202  0.95200922  1
  F  F22  1  0.20462609  0.10222354  0.20395230  1
  F  F23  1  0.16441168  0.58545459  0.45756545  1
