# generated using pymatgen
data_Na2VO3
_symmetry_space_group_name_H-M   'P 1'
_cell_length_a   5.52339158
_cell_length_b   9.76281208
_cell_length_c   5.52377483
_cell_angle_alpha   101.10118089
_cell_angle_beta   71.38095933
_cell_angle_gamma   78.90590967
_symmetry_Int_Tables_number   1
_chemical_formula_structural   Na2VO3
_chemical_formula_sum   'Na8 V4 O12'
_cell_volume   266.46815998
_cell_formula_units_Z   4
loop_
 _symmetry_equiv_pos_site_id
 _symmetry_equiv_pos_as_xyz
  1  'x, y, z'
loop_
 _atom_site_type_symbol
 _atom_site_label
 _atom_site_symmetry_multiplicity
 _atom_site_fract_x
 _atom_site_fract_y
 _atom_site_fract_z
 _atom_site_occupancy
  Na  Na0  1  0.00622147  0.98822358  0.49448263  1
  Na  Na1  1  0.57235011  0.84281736  0.42638860  1
  Na  Na2  1  0.16523785  0.65641920  0.33308164  1
  Na  Na3  1  0.74447281  0.51086049  0.25589474  1
  Na  Na4  1  0.25553052  0.48819605  0.74464539  1
  Na  Na5  1  0.33247470  0.34298402  0.16513973  1
  Na  Na6  1  0.42559120  0.15625165  0.57174448  1
  Na  Na7  1  0.49463587  0.01100724  0.00593241  1
  V  V8  1  0.06604100  0.82744189  0.92807904  1
  V  V9  1  0.64381933  0.67166309  0.85029519  1
  V  V10  1  0.84954744  0.32745159  0.64399626  1
  V  V11  1  0.92775476  0.17169612  0.06599766  1
  O  O12  1  0.33787081  0.81436317  0.12008430  1
  O  O13  1  0.83605901  0.80507156  0.70581344  1
  O  O14  1  0.39142277  0.69417215  0.65036689  1
  O  O15  1  0.90253689  0.68482391  0.05527435  1
  O  O16  1  0.54839093  0.51046162  0.95180491  1
  O  O17  1  0.95115698  0.48872400  0.54894932  1
  O  O18  1  0.05472767  0.31425581  0.90250986  1
  O  O19  1  0.64967147  0.30498624  0.39139632  1
  O  O20  1  0.70527644  0.19404331  0.83589927  1
  O  O21  1  0.11951924  0.18498132  0.33768249  1
  O  O22  1  0.19058997  0.01051302  0.80982704  1
  O  O23  1  0.80964676  0.98867062  0.19093003  1
