# generated using pymatgen
data_MnCr(PO4)2
_symmetry_space_group_name_H-M   'P 1'
_cell_length_a   8.40077529
_cell_length_b   8.60464655
_cell_length_c   8.60464730
_cell_angle_alpha   59.99999794
_cell_angle_beta   59.19391271
_cell_angle_gamma   59.19391051
_symmetry_Int_Tables_number   1
_chemical_formula_structural   MnCr(PO4)2
_chemical_formula_sum   'Mn3 Cr3 P6 O24'
_cell_volume   434.38032060
_cell_formula_units_Z   3
loop_
 _symmetry_equiv_pos_site_id
 _symmetry_equiv_pos_as_xyz
  1  'x, y, z'
loop_
 _atom_site_type_symbol
 _atom_site_label
 _atom_site_symmetry_multiplicity
 _atom_site_fract_x
 _atom_site_fract_y
 _atom_site_fract_z
 _atom_site_occupancy
  Mn  Mn0  1  0.06579129  0.64473624  0.64473624  1
  Mn  Mn1  1  0.43442630  0.85519157  0.85519157  1
  Mn  Mn2  1  0.93547658  0.35484114  0.35484114  1
  Cr  Cr3  1  0.00133572  0.99955443  0.99955443  1
  Cr  Cr4  1  0.57309590  0.14230137  0.14230137  1
  Cr  Cr5  1  0.50056368  0.49981177  0.49981177  1
  P  P6  1  0.25084057  0.24937487  0.54667603  1
  P  P7  1  0.25084057  0.95310853  0.24937487  1
  P  P8  1  0.25084057  0.54667603  0.95310853  1
  P  P9  1  0.74959965  0.45181135  0.04885297  1
  P  P10  1  0.74959965  0.04885297  0.74973604  1
  P  P11  1  0.74959965  0.74973604  0.45181135  1
  O  O12  1  0.06180810  0.10597424  0.31980243  1
  O  O13  1  0.06180810  0.51241624  0.10597424  1
  O  O14  1  0.06180810  0.31980243  0.51241624  1
  O  O15  1  0.21745447  0.09512839  0.75048645  1
  O  O16  1  0.43485690  0.17732345  0.39140844  1
  O  O17  1  0.28538104  0.40491586  0.56028376  1
  O  O18  1  0.21745447  0.93693069  0.09512839  1
  O  O19  1  0.28538104  0.74941834  0.40491586  1
  O  O20  1  0.56244654  0.60522147  0.01031008  1
  O  O21  1  0.28538104  0.56028376  0.74941834  1
  O  O22  1  0.78079599  0.24745005  0.06521717  1
  O  O23  1  0.56244654  0.01031008  0.82202191  1
  O  O24  1  0.43485690  0.99641121  0.17732345  1
  O  O25  1  0.21745447  0.75048645  0.93693069  1
  O  O26  1  0.71523917  0.43535301  0.25252731  1
  O  O27  1  0.43485690  0.39140844  0.99641121  1
  O  O28  1  0.71523917  0.25252731  0.59688051  1
  O  O29  1  0.78079599  0.06521717  0.90653679  1
  O  O30  1  0.71523917  0.59688051  0.43535301  1
  O  O31  1  0.56244654  0.82202191  0.60522147  1
  O  O32  1  0.78079599  0.90653679  0.24745005  1
  O  O33  1  0.93801608  0.67728047  0.48838343  1
  O  O34  1  0.93801608  0.48838343  0.89632002  1
  O  O35  1  0.93801608  0.89632002  0.67728047  1
