# generated using pymatgen
data_Li2TiCr3O8
_symmetry_space_group_name_H-M   'P 1'
_cell_length_a   6.00738414
_cell_length_b   5.99756155
_cell_length_c   6.01812133
_cell_angle_alpha   59.03578902
_cell_angle_beta   121.14774789
_cell_angle_gamma   120.98326016
_symmetry_Int_Tables_number   1
_chemical_formula_structural   Li2TiCr3O8
_chemical_formula_sum   'Li2 Ti1 Cr3 O8'
_cell_volume   149.71256878
_cell_formula_units_Z   1
loop_
 _symmetry_equiv_pos_site_id
 _symmetry_equiv_pos_as_xyz
  1  'x, y, z'
loop_
 _atom_site_type_symbol
 _atom_site_label
 _atom_site_symmetry_multiplicity
 _atom_site_fract_x
 _atom_site_fract_y
 _atom_site_fract_z
 _atom_site_occupancy
  Li  Li0  1  0.00003112  0.00004278  0.49997302  1
  Li  Li1  1  0.50003683  0.50002317  0.50001661  1
  Ti  Ti2  1  -0.00003720  0.00005141  0.99990620  1
  Cr  Cr3  1  0.49997374  0.50009981  -0.00002004  1
  Cr  Cr4  1  0.49996799  0.99984981  0.49998299  1
  Cr  Cr5  1  0.00010337  0.50008924  0.49998505  1
  O  O6  1  0.74668137  0.27129419  0.27650171  1
  O  O7  1  0.25791735  0.23211633  0.23888134  1
  O  O8  1  0.76919480  0.74166951  0.24348543  1
  O  O9  1  0.77107772  0.24353083  0.73350465  1
  O  O10  1  0.22886892  0.75637485  0.26644766  1
  O  O11  1  0.23084010  0.25838793  0.75658388  1
  O  O12  1  0.74207828  0.76775290  0.76128412  1
  O  O13  1  0.25326662  0.72871722  0.72346839  1
