# generated using pymatgen
data_LiMn2Cr2O8
_symmetry_space_group_name_H-M   'P 1'
_cell_length_a   5.86255355
_cell_length_b   10.29680076
_cell_length_c   10.11933056
_cell_angle_alpha   70.82917258
_cell_angle_beta   90.38480205
_cell_angle_gamma   89.92466879
_symmetry_Int_Tables_number   1
_chemical_formula_structural   LiMn2Cr2O8
_chemical_formula_sum   'Li4 Mn8 Cr8 O32'
_cell_volume   576.96591401
_cell_formula_units_Z   4
loop_
 _symmetry_equiv_pos_site_id
 _symmetry_equiv_pos_as_xyz
  1  'x, y, z'
loop_
 _atom_site_type_symbol
 _atom_site_label
 _atom_site_symmetry_multiplicity
 _atom_site_fract_x
 _atom_site_fract_y
 _atom_site_fract_z
 _atom_site_occupancy
  Li  Li0  1  0.50065835  0.74880945  0.24890209  1
  Li  Li1  1  0.73695590  0.24726048  0.99530399  1
  Li  Li2  1  0.00009345  0.99854650  0.50205580  1
  Li  Li3  1  0.00100405  0.51036430  0.99721649  1
  Mn  Mn4  1  0.00625329  0.50292676  0.50064008  1
  Mn  Mn5  1  0.99836552  0.99607833  -0.00010578  1
  Mn  Mn6  1  0.24643005  0.49785111  0.75073349  1
  Mn  Mn7  1  0.24915020  0.00428996  0.24507292  1
  Mn  Mn8  1  0.49967487  0.50284853  0.99981655  1
  Mn  Mn9  1  0.49868712  0.99931216  0.50170822  1
  Mn  Mn10  1  0.75020868  0.00038392  0.75180085  1
  Mn  Mn11  1  0.74873623  0.00046301  0.24876213  1
  Cr  Cr12  1  0.25536662  0.99864713  0.75738618  1
  Cr  Cr13  1  0.25151269  0.49735236  0.25384597  1
  Cr  Cr14  1  0.49749619  0.75016560  0.75033006  1
  Cr  Cr15  1  0.49800568  0.24803387  0.25220063  1
  Cr  Cr16  1  0.74119828  0.50252622  0.74014306  1
  Cr  Cr17  1  0.75190201  0.49432236  0.25724455  1
  Cr  Cr18  1  0.00441765  0.24986570  0.74686369  1
  Cr  Cr19  1  0.00137779  0.75069012  0.24929053  1
  O  O20  1  0.00313787  0.39865124  0.37281943  1
  O  O21  1  0.99629998  0.89635760  0.87149085  1
  O  O22  1  0.99106267  0.10434980  0.12832289  1
  O  O23  1  0.22304499  0.38818214  0.63106340  1
  O  O24  1  0.21886486  0.10840997  0.87268446  1
  O  O25  1  0.27446366  0.89120136  0.62731044  1
  O  O26  1  0.22851798  0.61476539  0.36705258  1
  O  O27  1  0.27329455  0.61082316  0.87176355  1
  O  O28  1  0.22600548  0.88544793  0.13312768  1
  O  O29  1  0.27371118  0.11002338  0.37076215  1
  O  O30  1  0.27521745  0.39045090  0.12890688  1
  O  O31  1  0.50420963  0.10139974  0.63152316  1
  O  O32  1  0.50040643  0.39590259  0.87101672  1
  O  O33  1  0.49752888  0.89715898  0.35998637  1
  O  O34  1  0.50006300  0.88848784  0.85047455  1
  O  O35  1  0.49451269  0.61085462  0.65036765  1
  O  O36  1  0.50511284  0.38621058  0.34926229  1
  O  O37  1  0.50193469  0.60384495  0.13626209  1
  O  O38  1  0.50431188  0.11650373  0.14369801  1
  O  O39  1  0.72468022  0.88902161  0.62986020  1
  O  O40  1  0.72448439  0.60922608  0.87175081  1
  O  O41  1  0.78506800  0.39161552  0.62776871  1
  O  O42  1  0.78204319  0.11531711  0.87218666  1
  O  O43  1  0.72488329  0.10812628  0.37272703  1
  O  O44  1  0.72277260  0.38429548  0.12433980  1
  O  O45  1  0.77825523  0.61496381  0.36760972  1
  O  O46  1  0.77184813  0.88413254  0.13399574  1
  O  O47  1  0.99198039  0.38791087  0.85570339  1
  O  O48  1  0.00090242  0.10660260  0.64741148  1
  O  O49  1  0.00496536  0.60327827  0.63161461  1
  O  O50  1  0.00378645  0.89361691  0.35249378  1
  O  O51  1  0.99780901  0.60723017  0.14838841  1
