# generated using pymatgen
data_Fe3OF5
_symmetry_space_group_name_H-M   'P 1'
_cell_length_a   4.84939540
_cell_length_b   7.93134854
_cell_length_c   5.82929668
_cell_angle_alpha   93.76598804
_cell_angle_beta   91.03656222
_cell_angle_gamma   88.80117406
_symmetry_Int_Tables_number   1
_chemical_formula_structural   Fe3OF5
_chemical_formula_sum   'Fe6 O2 F10'
_cell_volume   223.64331856
_cell_formula_units_Z   2
loop_
 _symmetry_equiv_pos_site_id
 _symmetry_equiv_pos_as_xyz
  1  'x, y, z'
loop_
 _atom_site_type_symbol
 _atom_site_label
 _atom_site_symmetry_multiplicity
 _atom_site_fract_x
 _atom_site_fract_y
 _atom_site_fract_z
 _atom_site_occupancy
  Fe  Fe0  1  0.52480243  0.66683091  0.19048539  1
  Fe  Fe1  1  0.50000000  0.00000000  0.50000000  1
  Fe  Fe2  1  0.47519757  0.33316909  0.80951461  1
  Fe  Fe3  1  0.98113083  0.67465220  0.65421808  1
  Fe  Fe4  1  0.01886917  0.32534780  0.34578192  1
  Fe  Fe5  1  0.00000000  0.00000000  0.00000000  1
  O  O6  1  0.68309345  0.78173131  0.46294329  1
  O  O7  1  0.31690655  0.21826869  0.53705671  1
  F  F8  1  0.79844481  0.43157295  0.64066596  1
  F  F9  1  0.79886276  0.76388481  0.97196734  1
  F  F10  1  0.79081794  0.09940280  0.29362617  1
  F  F11  1  0.69859854  0.09965332  0.79849625  1
  F  F12  1  0.69705691  0.43221606  0.12891733  1
  F  F13  1  0.30294309  0.56778394  0.87108267  1
  F  F14  1  0.30140146  0.90034668  0.20150375  1
  F  F15  1  0.20113724  0.23611519  0.02803266  1
  F  F16  1  0.20155519  0.56842705  0.35933404  1
  F  F17  1  0.20918206  0.90059720  0.70637383  1
