# generated using pymatgen
data_Li6Mn3(PO4)4
_symmetry_space_group_name_H-M   'P 1'
_cell_length_a   8.33815920
_cell_length_b   9.10423663
_cell_length_c   13.74444668
_cell_angle_alpha   96.75463995
_cell_angle_beta   90.14895604
_cell_angle_gamma   89.18290981
_symmetry_Int_Tables_number   1
_chemical_formula_structural   Li6Mn3(PO4)4
_chemical_formula_sum   'Li18 Mn9 P12 O48'
_cell_volume   1036.02838276
_cell_formula_units_Z   3
loop_
 _symmetry_equiv_pos_site_id
 _symmetry_equiv_pos_as_xyz
  1  'x, y, z'
loop_
 _atom_site_type_symbol
 _atom_site_label
 _atom_site_symmetry_multiplicity
 _atom_site_fract_x
 _atom_site_fract_y
 _atom_site_fract_z
 _atom_site_occupancy
  Li  Li0  1  0.42327694  0.11577777  0.97008568  1
  Li  Li1  1  0.08653467  0.63429102  0.97006723  1
  Li  Li2  1  0.13539997  0.23499327  0.84213484  1
  Li  Li3  1  0.37941338  0.73704892  0.85132667  1
  Li  Li4  1  0.63346648  0.91884414  0.83019214  1
  Li  Li5  1  0.89874448  0.04702855  0.70169889  1
  Li  Li6  1  0.09312258  0.29487260  0.63072714  1
  Li  Li7  1  0.44241388  0.77852886  0.65132433  1
  Li  Li8  1  0.37863772  0.41841655  0.51387319  1
  Li  Li9  1  0.86172744  0.09458322  0.49046192  1
  Li  Li10  1  0.63983112  0.58616619  0.48495073  1
  Li  Li11  1  0.59146228  0.23083126  0.39400113  1
  Li  Li12  1  0.23107377  0.40694150  0.27602151  1
  Li  Li13  1  0.09018232  0.91798385  0.27605743  1
  Li  Li14  1  0.37419732  0.05771073  0.17823716  1
  Li  Li15  1  0.13196105  0.59398565  0.17347182  1
  Li  Li16  1  0.85319039  0.75618656  0.15932784  1
  Li  Li17  1  0.90723880  0.39729357  0.06263116  1
  Mn  Mn18  1  0.49201805  0.34322721  0.82655067  1
  Mn  Mn19  1  0.85925789  0.43824647  0.81501174  1
  Mn  Mn20  1  0.00291998  0.83756707  0.83347264  1
  Mn  Mn21  1  0.50941223  0.98666484  0.49561483  1
  Mn  Mn22  1  0.99628878  0.50241488  0.49193107  1
  Mn  Mn23  1  0.12909016  0.89345211  0.50810975  1
  Mn  Mn24  1  0.00005797  0.15516263  0.16745116  1
  Mn  Mn25  1  0.62889357  0.27034288  0.15980913  1
  Mn  Mn26  1  0.50176735  0.67212089  0.16461127  1
  P  P27  1  0.79883048  0.14599850  0.94129534  1
  P  P28  1  0.70036220  0.64677582  0.94892131  1
  P  P29  1  0.29584605  0.02095666  0.72316982  1
  P  P30  1  0.20352920  0.52641710  0.72156915  1
  P  P31  1  0.70466079  0.30155428  0.60475114  1
  P  P32  1  0.79652503  0.80678011  0.61300492  1
  P  P33  1  0.20645406  0.18423914  0.38756621  1
  P  P34  1  0.30528325  0.67683311  0.38795099  1
  P  P35  1  0.80617892  0.48382597  0.27579506  1
  P  P36  1  0.70360025  0.97721111  0.27962252  1
  P  P37  1  0.29254843  0.35693249  0.05496247  1
  P  P38  1  0.20203469  0.86008955  0.05725158  1
  O  O39  1  0.28706100  0.29745911  0.94430790  1
  O  O40  1  0.20800403  0.80284652  0.94496348  1
  O  O41  1  0.62172505  0.15103698  0.90485980  1
  O  O42  1  0.90949728  0.25248009  0.89187819  1
  O  O43  1  0.65254566  0.48227444  0.91604598  1
  O  O44  1  0.88179025  0.64755598  0.90775549  1
  O  O45  1  0.59395370  0.75550261  0.90116274  1
  O  O46  1  0.85980120  0.98642424  0.92215476  1
  O  O47  1  0.11571310  0.02221259  0.75687946  1
  O  O48  1  0.09444029  0.40894702  0.76541248  1
  O  O49  1  0.37137313  0.52962172  0.77029406  1
  O  O50  1  0.35057207  0.18161116  0.74382800  1
  O  O51  1  0.12998654  0.68195902  0.74025256  1
  O  O52  1  0.40238552  0.91078748  0.77313513  1
  O  O53  1  0.69234740  0.34593054  0.71787570  1
  O  O54  1  0.79258099  0.86339215  0.72488549  1
  O  O55  1  0.21043179  0.46957741  0.60966624  1
  O  O56  1  0.65370758  0.13891985  0.58310802  1
  O  O57  1  0.30594402  0.96439289  0.60994836  1
  O  O58  1  0.60377889  0.40159579  0.54545385  1
  O  O59  1  0.86653549  0.65092559  0.59037091  1
  O  O60  1  0.88702159  0.30451273  0.57374233  1
  O  O61  1  0.62287415  0.80625736  0.56955650  1
  O  O62  1  0.90266177  0.92491507  0.56870443  1
  O  O63  1  0.08879630  0.08526963  0.43739782  1
  O  O64  1  0.37723169  0.18040814  0.43291141  1
  O  O65  1  0.15080845  0.34900516  0.39883237  1
  O  O66  1  0.42246897  0.57921683  0.43778037  1
  O  O67  1  0.13342477  0.67706807  0.43679868  1
  O  O68  1  0.70389617  0.03554052  0.39124272  1
  O  O69  1  0.34805541  0.84489363  0.40263198  1
  O  O70  1  0.80235356  0.51835199  0.38809867  1
  O  O71  1  0.20752613  0.12855837  0.27500450  1
  O  O72  1  0.28914660  0.61892646  0.27695797  1
  O  O73  1  0.59079380  0.08957910  0.23336024  1
  O  O74  1  0.85616086  0.31631384  0.24851284  1
  O  O75  1  0.63127297  0.48856460  0.23124722  1
  O  O76  1  0.64375182  0.81942744  0.25923685  1
  O  O77  1  0.91909942  0.58141557  0.22443182  1
  O  O78  1  0.87836643  0.97846344  0.23698689  1
  O  O79  1  0.12404805  0.36182377  0.10670404  1
  O  O80  1  0.40112960  0.24065789  0.10194994  1
  O  O81  1  0.14402106  0.02242856  0.07150038  1
  O  O82  1  0.08296172  0.75569511  0.10283514  1
  O  O83  1  0.35607641  0.51441796  0.07271782  1
  O  O84  1  0.36800045  0.85490501  0.10784070  1
  O  O85  1  0.80520534  0.20466267  0.05427548  1
  O  O86  1  0.70563859  0.67412386  0.06097871  1
