# generated using pymatgen
data_Cu3As
_symmetry_space_group_name_H-M   'P 1'
_cell_length_a   7.19066158
_cell_length_b   7.19066158
_cell_length_c   7.40477177
_cell_angle_alpha   90.00000000
_cell_angle_beta   90.00000000
_cell_angle_gamma   119.99999999
_symmetry_Int_Tables_number   1
_chemical_formula_structural   Cu3As
_chemical_formula_sum   'Cu18 As6'
_cell_volume   331.57364872
_cell_formula_units_Z   6
loop_
 _symmetry_equiv_pos_site_id
 _symmetry_equiv_pos_as_xyz
  1  'x, y, z'
loop_
 _atom_site_type_symbol
 _atom_site_label
 _atom_site_symmetry_multiplicity
 _atom_site_fract_x
 _atom_site_fract_y
 _atom_site_fract_z
 _atom_site_occupancy
  Cu  Cu0  1  0.00000000  0.00000000  0.75000000  1
  Cu  Cu1  1  0.00000000  0.00000000  0.25000000  1
  Cu  Cu2  1  0.33333333  0.66666667  0.65355430  1
  Cu  Cu3  1  0.66666667  0.33333333  0.84644570  1
  Cu  Cu4  1  0.66666667  0.33333333  0.34644570  1
  Cu  Cu5  1  0.33333333  0.66666667  0.15355430  1
  Cu  Cu6  1  0.37005371  0.05402651  0.08091961  1
  Cu  Cu7  1  0.94597349  0.31602721  0.08091961  1
  Cu  Cu8  1  0.68397279  0.62994629  0.08091961  1
  Cu  Cu9  1  0.31602721  0.94597349  0.41908039  1
  Cu  Cu10  1  0.62994629  0.68397279  0.41908039  1
  Cu  Cu11  1  0.05402651  0.37005371  0.41908039  1
  Cu  Cu12  1  0.62994629  0.94597349  0.91908039  1
  Cu  Cu13  1  0.05402651  0.68397279  0.91908039  1
  Cu  Cu14  1  0.31602721  0.37005371  0.91908039  1
  Cu  Cu15  1  0.68397279  0.05402651  0.58091961  1
  Cu  Cu16  1  0.37005371  0.31602721  0.58091961  1
  Cu  Cu17  1  0.94597349  0.62994629  0.58091961  1
  As  As18  1  0.66326985  0.66326985  0.75000000  1
  As  As19  1  0.00000000  0.33673015  0.75000000  1
  As  As20  1  0.33673015  0.00000000  0.75000000  1
  As  As21  1  0.33673015  0.33673015  0.25000000  1
  As  As22  1  0.00000000  0.66326985  0.25000000  1
  As  As23  1  0.66326985  0.00000000  0.25000000  1
