# generated using pymatgen
data_LiMn2(BO3)2
_symmetry_space_group_name_H-M   'P 1'
_cell_length_a   5.35127268
_cell_length_b   9.07267761
_cell_length_c   11.32720878
_cell_angle_alpha   67.12149192
_cell_angle_beta   79.13060729
_cell_angle_gamma   90.60099792
_symmetry_Int_Tables_number   1
_chemical_formula_structural   LiMn2(BO3)2
_chemical_formula_sum   'Li4 Mn8 B8 O24'
_cell_volume   495.44832658
_cell_formula_units_Z   4
loop_
 _symmetry_equiv_pos_site_id
 _symmetry_equiv_pos_as_xyz
  1  'x, y, z'
loop_
 _atom_site_type_symbol
 _atom_site_label
 _atom_site_symmetry_multiplicity
 _atom_site_fract_x
 _atom_site_fract_y
 _atom_site_fract_z
 _atom_site_occupancy
  Li  Li0  1  0.29461238  0.15821015  0.65716427  1
  Li  Li1  1  0.06026256  0.93934361  0.16343191  1
  Li  Li2  1  0.40453949  0.54238398  0.91928163  1
  Li  Li3  1  0.65312296  0.77552065  0.40621498  1
  Mn  Mn4  1  0.10264026  0.28379862  0.14114811  1
  Mn  Mn5  1  0.65013548  0.13442722  0.37860021  1
  Mn  Mn6  1  0.39176916  0.21204172  0.88990279  1
  Mn  Mn7  1  0.15700084  0.64085428  0.38318082  1
  Mn  Mn8  1  0.82329510  0.37689772  0.63689560  1
  Mn  Mn9  1  0.58221062  0.74697610  0.12575509  1
  Mn  Mn10  1  0.34423832  0.82874601  0.62208367  1
  Mn  Mn11  1  0.91336508  0.75796467  0.86690964  1
  B  B12  1  0.59004254  0.08525288  0.14230068  1
  B  B13  1  0.84005055  0.03337458  0.62653395  1
  B  B14  1  0.12160703  0.63272878  0.11422060  1
  B  B15  1  0.64978815  0.47426940  0.37650574  1
  B  B16  1  0.36636662  0.50371030  0.62379830  1
  B  B17  1  0.90245081  0.41130109  0.87646248  1
  B  B18  1  0.13813499  0.97954584  0.37547673  1
  B  B19  1  0.38986733  0.88013210  0.86770209  1
  O  O20  1  0.35955049  0.12007687  0.09946296  1
  O  O21  1  0.04170021  0.12688885  0.35029690  1
  O  O22  1  0.94757922  0.16345844  0.63204051  1
  O  O23  1  0.69987726  0.18916906  0.18964242  1
  O  O24  1  0.61797153  0.03486916  0.57285820  1
  O  O25  1  0.25197574  0.51006634  0.10789553  1
  O  O26  1  0.29123049  0.02036789  0.84555739  1
  O  O27  1  0.54890353  0.34716579  0.36540517  1
  O  O28  1  0.20823392  0.73909786  0.16451118  1
  O  O29  1  0.44619899  0.34869139  0.67107718  1
  O  O30  1  0.90056590  0.67147350  0.06353926  1
  O  O31  1  0.13011170  0.52216049  0.58985064  1
  O  O32  1  0.83971971  0.47630721  0.44469038  1
  O  O33  1  0.12897558  0.37370574  0.92182855  1
  O  O34  1  0.56058210  0.63053922  0.31730266  1
  O  O35  1  0.79402335  0.30983314  0.82628563  1
  O  O36  1  0.00801892  0.85732423  0.36272908  1
  O  O37  1  0.51912639  0.63679054  0.60045627  1
  O  O38  1  0.71291758  0.95711350  0.13629860  1
  O  O39  1  0.77634231  0.53870027  0.88187029  1
  O  O40  1  0.37622594  0.95201123  0.41373559  1
  O  O41  1  0.29034861  0.76166217  0.83155681  1
  O  O42  1  0.94001591  0.88156138  0.67925280  1
  O  O43  1  0.59699937  0.83753305  0.93019773  1
