# generated using pymatgen
data_Li7Mn2(CoO4)3
_symmetry_space_group_name_H-M   'P 1'
_cell_length_a   2.98540635
_cell_length_b   5.05122816
_cell_length_c   14.62990306
_cell_angle_alpha   98.25133135
_cell_angle_beta   85.61262683
_cell_angle_gamma   91.77833485
_symmetry_Int_Tables_number   1
_chemical_formula_structural   Li7Mn2(CoO4)3
_chemical_formula_sum   'Li7 Mn2 Co3 O12'
_cell_volume   217.64988533
_cell_formula_units_Z   1
loop_
 _symmetry_equiv_pos_site_id
 _symmetry_equiv_pos_as_xyz
  1  'x, y, z'
loop_
 _atom_site_type_symbol
 _atom_site_label
 _atom_site_symmetry_multiplicity
 _atom_site_fract_x
 _atom_site_fract_y
 _atom_site_fract_z
 _atom_site_occupancy
  Li  Li0  1  0.91471845  0.41314726  0.17445174  1
  Li  Li1  1  0.26424339  0.74599085  0.49114748  1
  Li  Li2  1  0.58482721  0.08352012  0.83236255  1
  Li  Li3  1  0.40242361  0.92067615  0.17551952  1
  Li  Li4  1  0.75194855  0.25351974  0.49221526  1
  Li  Li5  1  0.08183879  0.58314588  0.83430345  1
  Li  Li6  1  0.33333300  0.33333300  0.33333300  1
  Mn  Mn7  1  0.99774369  0.00028008  0.00169048  1
  Mn  Mn8  1  0.66892331  0.66638692  0.66497652  1
  Co  Co9  1  0.49958509  0.50004567  0.00180945  1
  Co  Co10  1  0.83333300  0.83333300  0.33333300  1
  Co  Co11  1  0.16708191  0.16662133  0.66485755  1
  O  O12  1  0.41986690  0.21242743  0.08099704  1
  O  O13  1  0.79446860  0.57896175  0.40712374  1
  O  O14  1  0.09083655  0.87746347  0.74373779  1
  O  O15  1  0.96412704  0.70587869  0.07591972  1
  O  O16  1  0.31012218  0.01864171  0.40547326  1
  O  O17  1  0.62893264  0.37641560  0.74153723  1
  O  O18  1  0.35654482  0.64802529  0.26119374  1
  O  O19  1  0.70253996  0.96078831  0.59074728  1
  O  O20  1  0.03773336  0.29025040  0.92512877  1
  O  O21  1  0.87219840  0.08770525  0.25954326  1
  O  O22  1  0.24680010  0.45423957  0.58566996  1
  O  O23  1  0.57582945  0.78920253  0.92292821  1
