# generated using pymatgen
data_Li2V3CrO8
_symmetry_space_group_name_H-M   'P 1'
_cell_length_a   5.97346696
_cell_length_b   5.99229060
_cell_length_c   6.01817910
_cell_angle_alpha   120.45230710
_cell_angle_beta   60.23236844
_cell_angle_gamma   89.36650488
_symmetry_Int_Tables_number   1
_chemical_formula_structural   Li2V3CrO8
_chemical_formula_sum   'Li2 V3 Cr1 O8'
_cell_volume   150.93956754
_cell_formula_units_Z   1
loop_
 _symmetry_equiv_pos_site_id
 _symmetry_equiv_pos_as_xyz
  1  'x, y, z'
loop_
 _atom_site_type_symbol
 _atom_site_label
 _atom_site_symmetry_multiplicity
 _atom_site_fract_x
 _atom_site_fract_y
 _atom_site_fract_z
 _atom_site_occupancy
  Li  Li0  1  0.49998861  -0.00001664  0.49999184  1
  Li  Li1  1  0.00000530  -0.00001297  0.49999914  1
  V  V2  1  0.49991924  0.50006587  0.50000291  1
  V  V3  1  0.00004813  0.50007242  0.50003746  1
  V  V4  1  0.50002673  -0.00007435  -0.00003569  1
  Cr  Cr5  1  0.00001669  -0.00011889  -0.00014630  1
  O  O6  1  0.73155990  0.74483156  0.52566012  1
  O  O7  1  0.72508861  0.24805185  0.04173066  1
  O  O8  1  0.23845225  0.74140371  0.52560108  1
  O  O9  1  0.74566595  0.78322383  0.98644154  1
  O  O10  1  0.25433154  0.21680607  0.01360402  1
  O  O11  1  0.76152050  0.25863450  0.47447957  1
  O  O12  1  0.27493509  0.75196079  0.95830171  1
  O  O13  1  0.26844047  0.25517125  0.47433393  1
