# generated using pymatgen
data_MnOF
_symmetry_space_group_name_H-M   'P 1'
_cell_length_a   4.63671666
_cell_length_b   5.65178106
_cell_length_c   10.31061623
_cell_angle_alpha   89.96376458
_cell_angle_beta   91.03329362
_cell_angle_gamma   88.15238715
_symmetry_Int_Tables_number   1
_chemical_formula_structural   MnOF
_chemical_formula_sum   'Mn8 O8 F8'
_cell_volume   270.01240543
_cell_formula_units_Z   8
loop_
 _symmetry_equiv_pos_site_id
 _symmetry_equiv_pos_as_xyz
  1  'x, y, z'
loop_
 _atom_site_type_symbol
 _atom_site_label
 _atom_site_symmetry_multiplicity
 _atom_site_fract_x
 _atom_site_fract_y
 _atom_site_fract_z
 _atom_site_occupancy
  Mn  Mn0  1  0.97530077  0.15101098  0.62544752  1
  Mn  Mn1  1  0.04582996  0.86050115  0.37266599  1
  Mn  Mn2  1  0.02244851  0.17637497  0.12407749  1
  Mn  Mn3  1  0.97363869  0.84310801  0.86521498  1
  Mn  Mn4  1  0.47065608  0.34334010  0.88330651  1
  Mn  Mn5  1  0.53989698  0.35708243  0.37867185  1
  Mn  Mn6  1  0.52055591  0.61981609  0.12521275  1
  Mn  Mn7  1  0.48512100  0.65114330  0.62739023  1
  O  O8  1  0.19824038  0.11731274  0.95655909  1
  O  O9  1  0.18576742  0.88408731  0.70654857  1
  O  O10  1  0.31875179  0.38984843  0.21783694  1
  O  O11  1  0.29409369  0.62253490  0.45694827  1
  O  O12  1  0.71773980  0.37119339  0.03761397  1
  O  O13  1  0.73301219  0.39148494  0.54657262  1
  O  O14  1  0.68147961  0.61379728  0.79564521  1
  O  O15  1  0.82555360  0.12322363  0.28983860  1
  F  F16  1  0.25452454  0.11005936  0.46636170  1
  F  F17  1  0.27853018  0.88384260  0.19853839  1
  F  F18  1  0.22625450  0.37742219  0.71951170  1
  F  F19  1  0.22681707  0.61042196  0.96914098  1
  F  F20  1  0.79523889  0.63127668  0.28841219  1
  F  F21  1  0.75779691  0.86070787  0.03551738  1
  F  F22  1  0.71263618  0.10922016  0.78085215  1
  F  F23  1  0.76011835  0.90119052  0.53211393  1
