# generated using pymatgen
data_Fe3(O2F)2
_symmetry_space_group_name_H-M   'P 1'
_cell_length_a   4.77240159
_cell_length_b   7.65431920
_cell_length_c   5.66201819
_cell_angle_alpha   95.93323360
_cell_angle_beta   95.19231641
_cell_angle_gamma   86.99748217
_symmetry_Int_Tables_number   1
_chemical_formula_structural   Fe3(O2F)2
_chemical_formula_sum   'Fe6 O8 F4'
_cell_volume   204.68509660
_cell_formula_units_Z   2
loop_
 _symmetry_equiv_pos_site_id
 _symmetry_equiv_pos_as_xyz
  1  'x, y, z'
loop_
 _atom_site_type_symbol
 _atom_site_label
 _atom_site_symmetry_multiplicity
 _atom_site_fract_x
 _atom_site_fract_y
 _atom_site_fract_z
 _atom_site_occupancy
  Fe  Fe0  1  0.50000000  0.66666700  0.16666700  1
  Fe  Fe1  1  0.45952424  0.98840140  0.52404640  1
  Fe  Fe2  1  0.54047576  0.34493160  0.80928660  1
  Fe  Fe3  1  0.00000000  0.66666700  0.66666700  1
  Fe  Fe4  1  0.98813333  0.33237120  0.34697228  1
  Fe  Fe5  1  0.01186667  0.00096280  0.98636072  1
  O  O6  1  0.82073649  0.44486031  0.62456959  1
  O  O7  1  0.69562490  0.10262313  0.79275520  1
  O  O8  1  0.69007582  0.76708154  0.46609603  1
  O  O9  1  0.69661733  0.43812201  0.12698939  1
  O  O10  1  0.30992418  0.56625146  0.86723697  1
  O  O11  1  0.30437510  0.23070987  0.54057780  1
  O  O12  1  0.30338267  0.89521099  0.20634361  1
  O  O13  1  0.17926351  0.88847369  0.70876441  1
  F  F14  1  0.80265229  0.76931072  0.96709230  1
  F  F15  1  0.81259202  0.09972132  0.28332536  1
  F  F16  1  0.18740798  0.23361268  0.05000764  1
  F  F17  1  0.19734771  0.56402328  0.36624170  1
