# generated using pymatgen
data_V3CrO10
_symmetry_space_group_name_H-M   'P 1'
_cell_length_a   6.59807257
_cell_length_b   6.59856049
_cell_length_c   4.46643108
_cell_angle_alpha   89.99925395
_cell_angle_beta   89.99893185
_cell_angle_gamma   90.00080660
_symmetry_Int_Tables_number   1
_chemical_formula_structural   V3CrO10
_chemical_formula_sum   'V3 Cr1 O10'
_cell_volume   194.45849805
_cell_formula_units_Z   1
loop_
 _symmetry_equiv_pos_site_id
 _symmetry_equiv_pos_as_xyz
  1  'x, y, z'
loop_
 _atom_site_type_symbol
 _atom_site_label
 _atom_site_symmetry_multiplicity
 _atom_site_fract_x
 _atom_site_fract_y
 _atom_site_fract_z
 _atom_site_occupancy
  V  V0  1  0.25000343  0.25000498  0.62082591  1
  V  V1  1  0.74998828  0.74999854  0.37918560  1
  V  V2  1  0.75000564  0.24999856  0.50000498  1
  Cr  Cr3  1  0.24999973  0.74999277  0.50001286  1
  O  O4  1  0.03393147  0.75000064  0.28212355  1
  O  O5  1  0.25000280  0.24999810  0.25921964  1
  O  O6  1  0.24999900  0.53392812  0.71785314  1
  O  O7  1  0.25000076  0.96608319  0.71786830  1
  O  O8  1  0.46605149  0.75000101  0.28215575  1
  O  O9  1  0.53116407  0.24999816  0.71791572  1
  O  O10  1  0.75000655  0.03117404  0.28209597  1
  O  O11  1  0.75000458  0.46882556  0.28209725  1
  O  O12  1  0.75000359  0.74999956  0.74072144  1
  O  O13  1  0.96883860  0.24999676  0.71791990  1
