# generated using pymatgen
data_LiCrPH2O5
_symmetry_space_group_name_H-M   'P 1'
_cell_length_a   9.86693984
_cell_length_b   7.29328340
_cell_length_c   6.05726360
_cell_angle_alpha   90.00000000
_cell_angle_beta   94.20468725
_cell_angle_gamma   90.00000000
_symmetry_Int_Tables_number   1
_chemical_formula_structural   LiCrPH2O5
_chemical_formula_sum   'Li4 Cr4 P4 H8 O20'
_cell_volume   434.72193744
_cell_formula_units_Z   4
loop_
 _symmetry_equiv_pos_site_id
 _symmetry_equiv_pos_as_xyz
  1  'x, y, z'
loop_
 _atom_site_type_symbol
 _atom_site_label
 _atom_site_symmetry_multiplicity
 _atom_site_fract_x
 _atom_site_fract_y
 _atom_site_fract_z
 _atom_site_occupancy
  Li  Li0  1  0.35064459  0.55966052  0.57875531  1
  Li  Li1  1  0.35064459  0.94033948  0.07875531  1
  Li  Li2  1  0.64935541  0.05965952  0.92124469  1
  Li  Li3  1  0.64935541  0.44033948  0.42124469  1
  Cr  Cr4  1  0.01265318  0.80556398  0.79159927  1
  Cr  Cr5  1  0.01265318  0.69443602  0.29159927  1
  Cr  Cr6  1  0.98734682  0.30556398  0.70840073  1
  Cr  Cr7  1  0.98734682  0.19443602  0.20840073  1
  P  P8  1  0.20175976  0.47161058  0.99601399  1
  P  P9  1  0.20175976  0.02838942  0.49601399  1
  P  P10  1  0.79824024  0.97161058  0.50398601  1
  P  P11  1  0.79824024  0.52838942  0.00398601  1
  H  H12  1  0.41561691  0.26698206  0.85564172  1
  H  H13  1  0.44202767  0.10414367  0.68986399  1
  H  H14  1  0.41561691  0.23301794  0.35564172  1
  H  H15  1  0.44202767  0.39585633  0.18986399  1
  H  H16  1  0.55797233  0.60414367  0.81013601  1
  H  H17  1  0.58438309  0.76698206  0.64435828  1
  H  H18  1  0.55797233  0.89585633  0.31013601  1
  H  H19  1  0.58438309  0.73301794  0.14435828  1
  O  O20  1  0.09212115  0.54490030  0.80816185  1
  O  O21  1  0.09212115  0.95509970  0.30816185  1
  O  O22  1  0.15339490  0.22576784  0.54646342  1
  O  O23  1  0.15339490  0.27423216  0.04646342  1
  O  O24  1  0.19761329  0.89693079  0.69756855  1
  O  O25  1  0.19761329  0.60306921  0.19756855  1
  O  O26  1  0.34167183  0.47084949  0.90440376  1
  O  O27  1  0.34167183  0.02915051  0.40440376  1
  O  O28  1  0.45992390  0.14421364  0.84472409  1
  O  O29  1  0.45992390  0.35578636  0.34472409  1
  O  O30  1  0.54007610  0.64421364  0.65527591  1
  O  O31  1  0.54007610  0.85578636  0.15527591  1
  O  O32  1  0.65832817  0.97084949  0.59559624  1
  O  O33  1  0.65832817  0.52915051  0.09559624  1
  O  O34  1  0.80238671  0.39693079  0.80243145  1
  O  O35  1  0.80238671  0.10306921  0.30243145  1
  O  O36  1  0.84660510  0.72576784  0.95353658  1
  O  O37  1  0.84660510  0.77423216  0.45353658  1
  O  O38  1  0.90787885  0.04490030  0.69183815  1
  O  O39  1  0.90787885  0.45509970  0.19183815  1
