# generated using pymatgen
data_LiMn(PO3)4
_symmetry_space_group_name_H-M   'P 1'
_cell_length_a   7.96272103
_cell_length_b   8.69642121
_cell_length_c   9.23567699
_cell_angle_alpha   118.59506440
_cell_angle_beta   115.53642779
_cell_angle_gamma   62.75373434
_symmetry_Int_Tables_number   1
_chemical_formula_structural   LiMn(PO3)4
_chemical_formula_sum   'Li2 Mn2 P8 O24'
_cell_volume   480.47374671
_cell_formula_units_Z   2
loop_
 _symmetry_equiv_pos_site_id
 _symmetry_equiv_pos_as_xyz
  1  'x, y, z'
loop_
 _atom_site_type_symbol
 _atom_site_label
 _atom_site_symmetry_multiplicity
 _atom_site_fract_x
 _atom_site_fract_y
 _atom_site_fract_z
 _atom_site_occupancy
  Li  Li0  1  0.00000000  0.50000000  0.50000000  1
  Li  Li1  1  0.00000000  0.00000000  0.00000000  1
  Mn  Mn2  1  0.67609557  0.75000000  0.75000000  1
  Mn  Mn3  1  0.32390443  0.25000000  0.25000000  1
  P  P4  1  0.69845989  0.86624464  0.13802847  1
  P  P5  1  0.34589153  0.80877751  0.10391446  1
  P  P6  1  0.05075358  0.69122249  0.39608554  1
  P  P7  1  0.42667606  0.63375536  0.36197153  1
  P  P8  1  0.57332394  0.36624464  0.63802847  1
  P  P9  1  0.94924642  0.30877751  0.60391446  1
  P  P10  1  0.65410847  0.19122249  0.89608554  1
  P  P11  1  0.30154011  0.13375536  0.86197153  1
  O  O12  1  0.28018802  0.01191359  0.21427814  1
  O  O13  1  0.79256970  0.78962542  0.99373664  1
  O  O14  1  0.86907165  0.82288416  0.29724665  1
  O  O15  1  0.56410257  0.74608656  0.08605307  1
  O  O16  1  0.40987629  0.93224574  0.80421935  1
  O  O17  1  0.22413607  0.75391344  0.41394693  1
  O  O18  1  0.39470917  0.67711584  0.20275335  1
  O  O19  1  0.02184630  0.74308319  0.56358031  1
  O  O20  1  0.58845847  0.71037458  0.50626336  1
  O  O21  1  0.20134918  0.75691681  0.93641969  1
  O  O22  1  0.07782247  0.48808641  0.28572186  1
  O  O23  1  0.53790269  0.56775426  0.69578065  1
  O  O24  1  0.46209731  0.43224574  0.30421935  1
  O  O25  1  0.92217753  0.51191359  0.71427814  1
  O  O26  1  0.79865082  0.24308319  0.06358031  1
  O  O27  1  0.41154153  0.28962542  0.49373664  1
  O  O28  1  0.97815370  0.25691681  0.43641969  1
  O  O29  1  0.60529083  0.32288416  0.79724665  1
  O  O30  1  0.77586393  0.24608656  0.58605307  1
  O  O31  1  0.59012371  0.06775426  0.19578065  1
  O  O32  1  0.43589743  0.25391344  0.91394693  1
  O  O33  1  0.13092835  0.17711584  0.70275335  1
  O  O34  1  0.20743030  0.21037458  0.00626336  1
  O  O35  1  0.71981198  0.98808641  0.78572186  1
