# generated using pymatgen
data_Mn6O5F7
_symmetry_space_group_name_H-M   'P 1'
_cell_length_a   4.71596611
_cell_length_b   5.75376223
_cell_length_c   15.63529124
_cell_angle_alpha   90.35600264
_cell_angle_beta   90.24049400
_cell_angle_gamma   86.83601346
_symmetry_Int_Tables_number   1
_chemical_formula_structural   Mn6O5F7
_chemical_formula_sum   'Mn12 O10 F14'
_cell_volume   423.59850827
_cell_formula_units_Z   2
loop_
 _symmetry_equiv_pos_site_id
 _symmetry_equiv_pos_as_xyz
  1  'x, y, z'
loop_
 _atom_site_type_symbol
 _atom_site_label
 _atom_site_symmetry_multiplicity
 _atom_site_fract_x
 _atom_site_fract_y
 _atom_site_fract_z
 _atom_site_occupancy
  Mn  Mn0  1  0.99130852  0.15206643  0.41278000  1
  Mn  Mn1  1  0.03972889  0.83379775  0.24353550  1
  Mn  Mn2  1  0.02067183  0.17513093  0.08799675  1
  Mn  Mn3  1  0.03257574  0.16915986  0.74839950  1
  Mn  Mn4  1  0.00737682  0.85353912  0.57808918  1
  Mn  Mn5  1  0.01263893  0.84714753  0.90959030  1
  Mn  Mn6  1  0.48408367  0.31822293  0.59569808  1
  Mn  Mn7  1  0.50548586  0.35070261  0.91931024  1
  Mn  Mn8  1  0.50550238  0.36102719  0.25511703  1
  Mn  Mn9  1  0.49591146  0.63706099  0.08716692  1
  Mn  Mn10  1  0.48296711  0.65019902  0.41412604  1
  Mn  Mn11  1  0.48887721  0.64114450  0.75212171  1
  O  O12  1  0.20666080  0.10849790  0.63907943  1
  O  O13  1  0.23989748  0.88208647  0.14004523  1
  O  O14  1  0.21574472  0.89002599  0.46486582  1
  O  O15  1  0.23355774  0.88832326  0.80182338  1
  O  O16  1  0.29414211  0.39575471  0.14758211  1
  O  O17  1  0.28361575  0.61724300  0.30700512  1
  O  O18  1  0.28568772  0.39692928  0.81372533  1
  O  O19  1  0.71872627  0.38512196  0.02655985  1
  O  O20  1  0.71926713  0.38326974  0.36321679  1
  O  O21  1  0.72027089  0.37968863  0.69681525  1
  F  F22  1  0.23177098  0.11990261  0.30788411  1
  F  F23  1  0.23733768  0.11705579  0.97051697  1
  F  F24  1  0.25189616  0.38006616  0.48370431  1
  F  F25  1  0.24399672  0.60808168  0.64073254  1
  F  F26  1  0.25498927  0.61220239  0.97571235  1
  F  F27  1  0.76213874  0.61458575  0.19217161  1
  F  F28  1  0.70740436  0.62533214  0.52505401  1
  F  F29  1  0.73207337  0.61714739  0.86635597  1
  F  F30  1  0.77140326  0.11565672  0.20047578  1
  F  F31  1  0.74997335  0.11923421  0.51732885  1
  F  F32  1  0.78458840  0.87854118  0.34662793  1
  F  F33  1  0.76283417  0.87975957  0.02412456  1
  F  F34  1  0.78204805  0.13001210  0.85536566  1
  F  F35  1  0.74284547  0.86628152  0.68929379  1
