# generated using pymatgen
data_Li7Mn2(CoO4)3
_symmetry_space_group_name_H-M   'P 1'
_cell_length_a   3.01281981
_cell_length_b   4.99504042
_cell_length_c   14.63845823
_cell_angle_alpha   82.58741358
_cell_angle_beta   84.09336058
_cell_angle_gamma   90.00000405
_symmetry_Int_Tables_number   1
_chemical_formula_structural   Li7Mn2(CoO4)3
_chemical_formula_sum   'Li7 Mn2 Co3 O12'
_cell_volume   217.27591462
_cell_formula_units_Z   1
loop_
 _symmetry_equiv_pos_site_id
 _symmetry_equiv_pos_as_xyz
  1  'x, y, z'
loop_
 _atom_site_type_symbol
 _atom_site_label
 _atom_site_symmetry_multiplicity
 _atom_site_fract_x
 _atom_site_fract_y
 _atom_site_fract_z
 _atom_site_occupancy
  Li  Li0  1  0.75416163  0.75789951  0.49167674  1
  Li  Li1  1  0.58590671  0.92313620  0.82818559  1
  Li  Li2  1  0.40884214  0.08070869  0.18231672  1
  Li  Li3  1  0.08551103  0.42101521  0.82897695  1
  Li  Li4  1  0.91080311  0.57286251  0.17839479  1
  Li  Li5  1  0.25413221  0.24711178  0.49173559  1
  Li  Li6  1  0.83276193  0.16631503  0.33447514  1
  Mn  Mn7  1  0.99918535  0.99849062  0.00162929  1
  Mn  Mn8  1  0.49956251  0.49916352  0.00087498  1
  Co  Co9  1  0.66791061  0.33463888  0.66417978  1
  Co  Co10  1  0.33280747  0.66550974  0.33438405  1
  Co  Co11  1  0.16801816  0.83417078  0.66396468  1
  O  O12  1  0.62899175  0.62048880  0.74201650  1
  O  O13  1  0.46202252  0.78721742  0.07595396  1
  O  O14  1  0.29574320  0.92453193  0.40851460  1
  O  O15  1  0.96038942  0.28376151  0.07922016  1
  O  O16  1  0.79680422  0.48063338  0.40639257  1
  O  O17  1  0.12838679  0.11989485  0.74322643  1
  O  O18  1  0.86942829  0.85314053  0.26114341  1
  O  O19  1  0.70618743  0.04800388  0.58762415  1
  O  O20  1  0.53810025  0.21572644  0.92380049  1
  O  O21  1  0.20549867  0.54409456  0.58900165  1
  O  O22  1  0.03856412  0.71443847  0.92287276  1
  O  O23  1  0.37028048  0.40704576  0.25943904  1
