# generated using pymatgen
data_Li2VF5
_symmetry_space_group_name_H-M   'P 1'
_cell_length_a   14.52497523
_cell_length_b   13.75571418
_cell_length_c   5.30800069
_cell_angle_alpha   90.00000000
_cell_angle_beta   90.00000000
_cell_angle_gamma   83.31356604
_symmetry_Int_Tables_number   1
_chemical_formula_structural   Li2VF5
_chemical_formula_sum   'Li24 V12 F60'
_cell_volume   1053.33243692
_cell_formula_units_Z   12
loop_
 _symmetry_equiv_pos_site_id
 _symmetry_equiv_pos_as_xyz
  1  'x, y, z'
loop_
 _atom_site_type_symbol
 _atom_site_label
 _atom_site_symmetry_multiplicity
 _atom_site_fract_x
 _atom_site_fract_y
 _atom_site_fract_z
 _atom_site_occupancy
  Li  Li0  1  0.02362120  0.57115933  0.69457195  1
  Li  Li1  1  0.02362120  0.07115933  0.80542805  1
  Li  Li2  1  0.07345948  0.71543591  0.29998424  1
  Li  Li3  1  0.07345948  0.21543591  0.20001576  1
  Li  Li4  1  0.23515634  0.61306867  0.79427619  1
  Li  Li5  1  0.23515634  0.11306867  0.70572381  1
  Li  Li6  1  0.28767723  0.74493061  0.21202162  1
  Li  Li7  1  0.28767723  0.24493061  0.28797838  1
  Li  Li8  1  0.37962606  0.94025374  0.73561326  1
  Li  Li9  1  0.37962606  0.44025374  0.76438674  1
  Li  Li10  1  0.42279750  0.55717257  0.29814037  1
  Li  Li11  1  0.42279750  0.05717257  0.20185963  1
  Li  Li12  1  0.57720250  0.94282743  0.79814037  1
  Li  Li13  1  0.57720250  0.44282743  0.70185963  1
  Li  Li14  1  0.62037394  0.55974626  0.23561326  1
  Li  Li15  1  0.62037394  0.05974626  0.26438674  1
  Li  Li16  1  0.71232277  0.75506939  0.71202162  1
  Li  Li17  1  0.71232277  0.25506939  0.78797838  1
  Li  Li18  1  0.76484366  0.88693133  0.29427619  1
  Li  Li19  1  0.76484366  0.38693133  0.20572381  1
  Li  Li20  1  0.92654052  0.78456409  0.79998424  1
  Li  Li21  1  0.92654052  0.28456409  0.70001576  1
  Li  Li22  1  0.97637880  0.92884067  0.19457195  1
  Li  Li23  1  0.97637880  0.42884067  0.30542805  1
  V  V24  1  0.13144597  0.84938740  0.71549906  1
  V  V25  1  0.13144597  0.34938740  0.78450094  1
  V  V26  1  0.20846653  0.98904155  0.25387465  1
  V  V27  1  0.20846653  0.48904155  0.24612535  1
  V  V28  1  0.45539492  0.67956089  0.75407116  1
  V  V29  1  0.45539492  0.17956089  0.74592884  1
  V  V30  1  0.54460508  0.82043911  0.25407116  1
  V  V31  1  0.54460508  0.32043911  0.24592884  1
  V  V32  1  0.79153347  0.51095845  0.75387465  1
  V  V33  1  0.79153347  0.01095845  0.74612535  1
  V  V34  1  0.86855403  0.65061260  0.21549906  1
  V  V35  1  0.86855403  0.15061260  0.28450094  1
  F  F36  1  0.03480053  0.85064738  0.46697949  1
  F  F37  1  0.03545315  0.82719645  0.96330429  1
  F  F38  1  0.03480053  0.35064738  0.03302051  1
  F  F39  1  0.03545315  0.32719645  0.53669571  1
  F  F40  1  0.14284125  0.70540038  0.66345424  1
  F  F41  1  0.14284125  0.20540038  0.83654576  1
  F  F42  1  0.08468771  0.50446284  0.39092784  1
  F  F43  1  0.08468771  0.00446284  0.10907216  1
  F  F44  1  0.13260976  0.49987827  0.88627392  1
  F  F45  1  0.13260976  -0.00012173  0.61372608  1
  F  F46  1  0.21439258  0.85503496  0.00294478  1
  F  F47  1  0.21439258  0.35503496  0.49705522  1
  F  F48  1  0.22816391  0.85398027  0.45970245  1
  F  F49  1  0.22816391  0.35398027  0.04029755  1
  F  F50  1  0.19026295  0.63471449  0.18559835  1
  F  F51  1  0.19026295  0.13471449  0.31440165  1
  F  F52  1  0.28078594  0.51677988  0.54604038  1
  F  F53  1  0.32974323  0.49572342  0.08110819  1
  F  F54  1  0.28078594  0.01677988  0.95395962  1
  F  F55  1  0.32974323  0.99572342  0.41889181  1
  F  F56  1  0.33441359  0.68157120  0.90980438  1
  F  F57  1  0.38155157  0.69483624  0.44063236  1
  F  F58  1  0.33441359  0.18157120  0.59019562  1
  F  F59  1  0.38155157  0.19483624  0.05936764  1
  F  F60  1  0.45982815  0.53795916  0.68750335  1
  F  F61  1  0.43701636  0.82019414  0.02389933  1
  F  F62  1  0.45982815  0.03795916  0.81249665  1
  F  F63  1  0.43701636  0.32019414  0.47610067  1
  F  F64  1  0.48020616  0.85795402  0.56253310  1
  F  F65  1  0.48020616  0.35795402  0.93746690  1
  F  F66  1  0.51979384  0.64204598  0.06253310  1
  F  F67  1  0.51979384  0.14204598  0.43746690  1
  F  F68  1  0.56298364  0.67980586  0.52389933  1
  F  F69  1  0.54017185  0.96204084  0.18750335  1
  F  F70  1  0.56298364  0.17980586  0.97610067  1
  F  F71  1  0.54017185  0.46204084  0.31249665  1
  F  F72  1  0.61844843  0.80516376  0.94063236  1
  F  F73  1  0.66558641  0.81842880  0.40980438  1
  F  F74  1  0.61844843  0.30516376  0.55936764  1
  F  F75  1  0.66558641  0.31842880  0.09019562  1
  F  F76  1  0.67025677  0.00427658  0.58110819  1
  F  F77  1  0.71921406  0.98322012  0.04604038  1
  F  F78  1  0.67025677  0.50427658  0.91889181  1
  F  F79  1  0.71921406  0.48322012  0.45395962  1
  F  F80  1  0.80973705  0.86528551  0.68559835  1
  F  F81  1  0.80973705  0.36528551  0.81440165  1
  F  F82  1  0.77183609  0.64601973  0.95970245  1
  F  F83  1  0.77183609  0.14601973  0.54029755  1
  F  F84  1  0.78560742  0.64496504  0.50294478  1
  F  F85  1  0.78560742  0.14496504  0.99705522  1
  F  F86  1  0.86738924  0.00012173  0.38627392  1
  F  F87  1  0.86738924  0.50012173  0.11372608  1
  F  F88  1  0.91531229  0.99553716  0.89092784  1
  F  F89  1  0.91531229  0.49553716  0.60907216  1
  F  F90  1  0.85715875  0.79459962  0.16345424  1
  F  F91  1  0.85715875  0.29459962  0.33654576  1
  F  F92  1  0.96454685  0.67280355  0.46330429  1
  F  F93  1  0.96519947  0.64935262  0.96697949  1
  F  F94  1  0.96454685  0.17280355  0.03669571  1
  F  F95  1  0.96519947  0.14935262  0.53302051  1
