# generated using pymatgen
data_Fe10O9F11
_symmetry_space_group_name_H-M   'P 1'
_cell_length_a   4.77055870
_cell_length_b   4.77376517
_cell_length_c   15.47769451
_cell_angle_alpha   90.11147571
_cell_angle_beta   90.13058151
_cell_angle_gamma   93.27107474
_symmetry_Int_Tables_number   1
_chemical_formula_structural   Fe10O9F11
_chemical_formula_sum   'Fe10 O9 F11'
_cell_volume   351.90573815
_cell_formula_units_Z   1
loop_
 _symmetry_equiv_pos_site_id
 _symmetry_equiv_pos_as_xyz
  1  'x, y, z'
loop_
 _atom_site_type_symbol
 _atom_site_label
 _atom_site_symmetry_multiplicity
 _atom_site_fract_x
 _atom_site_fract_y
 _atom_site_fract_z
 _atom_site_occupancy
  Fe  Fe0  1  0.00141496  0.99945426  0.00201092  1
  Fe  Fe1  1  0.97893055  0.96665452  0.20649807  1
  Fe  Fe2  1  0.03996714  0.01680539  0.39305188  1
  Fe  Fe3  1  0.99982820  0.97766531  0.60234844  1
  Fe  Fe4  1  0.03903888  0.01679673  0.79372315  1
  Fe  Fe5  1  0.51376080  0.50828011  0.09552636  1
  Fe  Fe6  1  0.49744826  0.47736390  0.50528778  1
  Fe  Fe7  1  0.47349651  0.52588238  0.30042944  1
  Fe  Fe8  1  0.46031229  0.51719473  0.69397948  1
  Fe  Fe9  1  0.49571634  0.48643839  0.90452751  1
  O  O10  1  0.20083568  0.80312670  0.30600445  1
  O  O11  1  0.18749115  0.81030288  0.70088715  1
  O  O12  1  0.30204036  0.29564138  0.00040544  1
  O  O13  1  0.31892746  0.31846407  0.40232165  1
  O  O14  1  0.29057899  0.29319539  0.59921978  1
  O  O15  1  0.31668049  0.32107760  0.80152651  1
  O  O16  1  0.70508639  0.69876095  0.99627497  1
  O  O17  1  0.67080154  0.67271153  0.19820578  1
  O  O18  1  0.69046413  0.69179656  0.59909651  1
  F  F19  1  0.19690313  0.79317217  0.09536219  1
  F  F20  1  0.19528275  0.80518693  0.49869145  1
  F  F21  1  0.19855167  0.81229770  0.89844537  1
  F  F22  1  0.28678223  0.29185775  0.19719225  1
  F  F23  1  0.70927382  0.71059215  0.40391043  1
  F  F24  1  0.70633796  0.71274727  0.80286098  1
  F  F25  1  0.79988924  0.19167409  0.09691677  1
  F  F26  1  0.81227463  0.18555328  0.49870241  1
  F  F27  1  0.79288270  0.21121631  0.30713164  1
  F  F28  1  0.81588133  0.19251420  0.89740484  1
  F  F29  1  0.80312041  0.19557235  0.70205642  1
