# generated using pymatgen
data_LiVPHO5
_symmetry_space_group_name_H-M   'P 1'
_cell_length_a   5.38484434
_cell_length_b   6.06150022
_cell_length_c   6.62209387
_cell_angle_alpha   74.60051964
_cell_angle_beta   104.02586217
_cell_angle_gamma   80.71991979
_symmetry_Int_Tables_number   1
_chemical_formula_structural   LiVPHO5
_chemical_formula_sum   'Li2 V2 P2 H2 O10'
_cell_volume   196.20411742
_cell_formula_units_Z   2
loop_
 _symmetry_equiv_pos_site_id
 _symmetry_equiv_pos_as_xyz
  1  'x, y, z'
loop_
 _atom_site_type_symbol
 _atom_site_label
 _atom_site_symmetry_multiplicity
 _atom_site_fract_x
 _atom_site_fract_y
 _atom_site_fract_z
 _atom_site_occupancy
  Li  Li0  1  0.00000000  0.00000000  0.50000000  1
  Li  Li1  1  0.00000000  0.00000000  0.00000000  1
  V  V2  1  0.23758827  0.38305644  0.73089539  1
  V  V3  1  0.76241173  0.61694356  0.26910461  1
  P  P4  1  0.66530316  0.56071413  0.77030528  1
  P  P5  1  0.33469684  0.43928587  0.22969472  1
  H  H6  1  0.31938945  0.93804049  0.84749028  1
  H  H7  1  0.68061055  0.06195951  0.15250972  1
  O  O8  1  0.37076111  0.68028169  0.63598843  1
  O  O9  1  0.76076606  0.67084348  0.95019742  1
  O  O10  1  0.17327287  0.07349623  0.75713243  1
  O  O11  1  0.15045148  0.41078481  0.38232835  1
  O  O12  1  0.34185985  0.70286212  0.14373421  1
  O  O13  1  0.65814015  0.29713788  0.85626579  1
  O  O14  1  0.84954852  0.58921519  0.61767165  1
  O  O15  1  0.82672713  0.92650377  0.24286757  1
  O  O16  1  0.23923394  0.32915652  0.04980258  1
  O  O17  1  0.62923889  0.31971831  0.36401157  1
