# generated using pymatgen
data_Mn6O5F7
_symmetry_space_group_name_H-M   'P 1'
_cell_length_a   5.50112015
_cell_length_b   5.24929275
_cell_length_c   14.82292434
_cell_angle_alpha   96.55612602
_cell_angle_beta   91.47662174
_cell_angle_gamma   89.69571452
_symmetry_Int_Tables_number   1
_chemical_formula_structural   Mn6O5F7
_chemical_formula_sum   'Mn12 O10 F14'
_cell_volume   425.09983475
_cell_formula_units_Z   2
loop_
 _symmetry_equiv_pos_site_id
 _symmetry_equiv_pos_as_xyz
  1  'x, y, z'
loop_
 _atom_site_type_symbol
 _atom_site_label
 _atom_site_symmetry_multiplicity
 _atom_site_fract_x
 _atom_site_fract_y
 _atom_site_fract_z
 _atom_site_occupancy
  Mn  Mn0  1  0.09359729  0.95932674  0.00080468  1
  Mn  Mn1  1  0.84752508  0.49546871  0.16606371  1
  Mn  Mn2  1  0.11908994  0.04042243  0.32746527  1
  Mn  Mn3  1  0.92786565  0.48505423  0.50717963  1
  Mn  Mn4  1  0.02914408  0.94194151  0.67262920  1
  Mn  Mn5  1  0.10847561  0.50485555  0.84201548  1
  Mn  Mn6  1  0.54556235  0.99181767  0.16641356  1
  Mn  Mn7  1  0.39936690  0.44163667  0.01067109  1
  Mn  Mn8  1  0.42670510  0.54036241  0.66397373  1
  Mn  Mn9  1  0.49209079  0.08410592  0.49703592  1
  Mn  Mn10  1  0.44368315  0.54247910  0.32852120  1
  Mn  Mn11  1  0.51663655  0.97527676  0.84346200  1
  O  O12  1  0.17957562  0.25606319  0.92341143  1
  O  O13  1  0.23204559  0.74833677  0.75844756  1
  O  O14  1  0.34830316  0.13126439  0.07278902  1
  O  O15  1  0.36873865  0.84287620  0.26387051  1
  O  O16  1  0.16569623  0.67980306  0.59379746  1
  O  O17  1  0.31558932  0.72665692  0.93229709  1
  O  O18  1  0.34007602  0.26402783  0.40010912  1
  O  O19  1  0.60911778  0.38271815  0.56404763  1
  O  O20  1  0.60850761  0.33083631  0.23209263  1
  O  O21  1  0.60194222  0.65750695  0.09878876  1
  F  F22  1  0.09686992  0.37025796  0.25035705  1
  F  F23  1  0.08550734  0.63390439  0.08672090  1
  F  F24  1  0.15201365  0.17202915  0.57804961  1
  F  F25  1  0.30128140  0.78452891  0.42993760  1
  F  F26  1  0.41978593  0.24866325  0.74412238  1
  F  F27  1  0.65894879  0.28956044  0.92043155  1
  F  F28  1  0.76255243  0.64712781  0.40005948  1
  F  F29  1  0.71562872  0.73782749  0.73697434  1
  F  F30  1  0.86713943  0.15128333  0.41372771  1
  F  F31  1  0.85746148  0.13401601  0.08440960  1
  F  F32  1  0.93680892  0.24475716  0.75534844  1
  F  F33  1  0.70142275  0.89651077  0.57593821  1
  F  F34  1  0.85382232  0.79723693  0.91451369  1
  F  F35  1  0.87142224  0.86946095  0.24352374  1
