# generated using pymatgen
data_LiFeP2O7
_symmetry_space_group_name_H-M   'P 1'
_cell_length_a   9.73130021
_cell_length_b   9.80888926
_cell_length_c   11.14129058
_cell_angle_alpha   89.63173738
_cell_angle_beta   101.50941160
_cell_angle_gamma   90.33327748
_symmetry_Int_Tables_number   1
_chemical_formula_structural   LiFeP2O7
_chemical_formula_sum   'Li8 Fe8 P16 O56'
_cell_volume   1042.05530557
_cell_formula_units_Z   8
loop_
 _symmetry_equiv_pos_site_id
 _symmetry_equiv_pos_as_xyz
  1  'x, y, z'
loop_
 _atom_site_type_symbol
 _atom_site_label
 _atom_site_symmetry_multiplicity
 _atom_site_fract_x
 _atom_site_fract_y
 _atom_site_fract_z
 _atom_site_occupancy
  Li  Li0  1  0.09037233  0.10797914  0.02699299  1
  Li  Li1  1  0.40511542  0.60721021  0.97069876  1
  Li  Li2  1  0.38541321  0.20508698  0.54341882  1
  Li  Li3  1  0.59026689  0.39657842  0.02929116  1
  Li  Li4  1  0.64780335  0.09448227  0.04932269  1
  Li  Li5  1  0.91001003  0.89039308  0.97197637  1
  Li  Li6  1  0.84202884  0.57733765  0.47154712  1
  Li  Li7  1  0.88558921  0.28361763  0.54724779  1
  Fe  Fe8  1  0.21064404  0.91301041  0.66474279  1
  Fe  Fe9  1  0.24765902  0.20322207  0.82396359  1
  Fe  Fe10  1  0.25233991  0.70981305  0.17453993  1
  Fe  Fe11  1  0.29033024  0.42542496  0.33170068  1
  Fe  Fe12  1  0.70408608  0.58989000  0.67850545  1
  Fe  Fe13  1  0.75034753  0.29558227  0.82334417  1
  Fe  Fe14  1  0.75317262  0.78837627  0.17627796  1
  Fe  Fe15  1  0.78997134  0.07179630  0.33558656  1
  P  P16  1  0.02308012  0.44646371  0.75063077  1
  P  P17  1  0.11531698  0.71210956  0.88155615  1
  P  P18  1  0.06101343  0.92234765  0.23788972  1
  P  P19  1  0.12254511  0.14535091  0.42583177  1
  P  P20  1  0.37791302  0.64416130  0.57159404  1
  P  P21  1  0.43673389  0.42469487  0.76123237  1
  P  P22  1  0.52657371  0.05692670  0.75456756  1
  P  P23  1  0.38290565  0.21080519  0.11895021  1
  P  P24  1  0.61357907  0.79368013  0.88432909  1
  P  P25  1  0.47561330  0.94468195  0.25335711  1
  P  P26  1  0.56143204  0.57603929  0.23749825  1
  P  P27  1  0.62179471  0.35241333  0.42315661  1
  P  P28  1  0.87793084  0.85737421  0.57393927  1
  P  P29  1  0.93654385  0.07399689  0.76187867  1
  P  P30  1  0.88483306  0.28725834  0.11608024  1
  P  P31  1  0.97598709  0.55273909  0.24615815  1
  O  O32  1  0.01627401  0.42129163  0.61705898  1
  O  O33  1  0.03240947  0.85121830  0.56669305  1
  O  O34  1  0.08841979  0.08405605  0.73591137  1
  O  O35  1  0.10381084  0.58667122  0.78606994  1
  O  O36  1  0.10769961  0.33998196  0.83783827  1
  O  O37  1  0.18201939  0.82465885  0.81560289  1
  O  O38  1  0.22108336  0.66411394  0.00007896  1
  O  O39  1  0.02589646  0.26055386  0.09068592  1
  O  O40  1  0.12452257  0.05814906  0.30473743  1
  O  O41  1  0.05938334  0.94068796  0.10365775  1
  O  O42  1  0.12876412  0.53624605  0.22094901  1
  O  O43  1  0.18877510  0.28226836  0.40211090  1
  O  O44  1  0.15630607  0.80321363  0.28914660  1
  O  O45  1  0.21411996  0.07450893  0.53495976  1
  O  O46  1  0.29357352  0.56456450  0.46546710  1
  O  O47  1  0.34581204  0.30234078  0.70555633  1
  O  O48  1  0.32066022  0.78316888  0.59581655  1
  O  O49  1  0.37257851  0.03992689  0.77957675  1
  O  O50  1  0.36925915  0.55866192  0.69673417  1
  O  O51  1  0.43602237  0.43540283  0.89568623  1
  O  O52  1  0.47337118  0.76291188  0.91128478  1
  O  O53  1  0.27645516  0.16447377  0.00054326  1
  O  O54  1  0.32671998  0.32928834  0.18299258  1
  O  O55  1  0.39415031  0.08795275  0.21564959  1
  O  O56  1  0.41105804  0.58857399  0.26534581  1
  O  O57  1  0.39448315  0.84303687  0.15818657  1
  O  O58  1  0.46958102  0.34033641  0.43829905  1
  O  O59  1  0.53426411  0.09956512  0.62774648  1
  O  O60  1  0.47838012  0.91750410  0.38396915  1
  O  O61  1  0.53542153  0.64989680  0.57057979  1
  O  O62  1  0.61433153  0.15038366  0.85597178  1
  O  O63  1  0.59058263  0.41470217  0.73549110  1
  O  O64  1  0.60122724  0.91138543  0.78113732  1
  O  O65  1  0.68459647  0.67837319  0.82687355  1
  O  O66  1  0.71735431  0.85272140  0.00135535  1
  O  O67  1  0.52510953  0.23266717  0.08769748  1
  O  O68  1  0.56305373  0.56805011  0.10291467  1
  O  O69  1  0.62038927  0.43365755  0.29627513  1
  O  O70  1  0.62805048  0.96500172  0.21698430  1
  O  O71  1  0.68883892  0.21538714  0.40443826  1
  O  O72  1  0.66614165  0.68712204  0.29663365  1
  O  O73  1  0.71922540  0.43384486  0.52310874  1
  O  O74  1  0.79005142  0.93457612  0.46714439  1
  O  O75  1  0.84457606  0.19575747  0.70450032  1
  O  O76  1  0.82093872  0.71364795  0.59474913  1
  O  O77  1  0.86943466  0.46071324  0.77997822  1
  O  O78  1  0.93140189  0.06392618  0.89561630  1
  O  O79  1  0.86759021  0.93883638  0.69778123  1
  O  O80  1  0.97376823  0.73990145  0.90687165  1
  O  O81  1  0.77618339  0.33505469  0.99823791  1
  O  O82  1  0.81330479  0.16917346  0.17489993  1
  O  O83  1  0.89314221  0.65680170  0.15375508  1
  O  O84  1  0.89308863  0.40974770  0.21205500  1
  O  O85  1  0.90817945  0.91083566  0.26505697  1
  O  O86  1  0.96700780  0.15986407  0.43387488  1
  O  O87  1  0.97080694  0.57893508  0.37626180  1
