# generated using pymatgen
data_Fe10O9F11
_symmetry_space_group_name_H-M   'P 1'
_cell_length_a   4.75999876
_cell_length_b   4.75999876
_cell_length_c   15.49677625
_cell_angle_alpha   90.14487721
_cell_angle_beta   90.14487721
_cell_angle_gamma   92.21053054
_symmetry_Int_Tables_number   1
_chemical_formula_structural   Fe10O9F11
_chemical_formula_sum   'Fe10 O9 F11'
_cell_volume   350.85595360
_cell_formula_units_Z   1
loop_
 _symmetry_equiv_pos_site_id
 _symmetry_equiv_pos_as_xyz
  1  'x, y, z'
loop_
 _atom_site_type_symbol
 _atom_site_label
 _atom_site_symmetry_multiplicity
 _atom_site_fract_x
 _atom_site_fract_y
 _atom_site_fract_z
 _atom_site_occupancy
  Fe  Fe0  1  0.01533796  0.99394113  0.99714434  1
  Fe  Fe1  1  0.98040588  0.96413680  0.20892840  1
  Fe  Fe2  1  0.03586320  0.01959412  0.39107160  1
  Fe  Fe3  1  0.00605887  0.98466204  0.60285566  1
  Fe  Fe4  1  0.02457148  0.97542852  0.80000000  1
  Fe  Fe5  1  0.51930518  0.50242805  0.09766156  1
  Fe  Fe6  1  0.49757195  0.48069482  0.50233844  1
  Fe  Fe7  1  0.47659258  0.52340742  0.30000000  1
  Fe  Fe8  1  0.47649091  0.52316268  0.68784795  1
  Fe  Fe9  1  0.47683732  0.52350909  0.91215205  1
  O  O10  1  0.20056979  0.79943021  0.30000000  1
  O  O11  1  0.18895422  0.80649473  0.70165455  1
  O  O12  1  0.19350527  0.81104578  0.89834545  1
  O  O13  1  0.30410219  0.30268350  0.00326831  1
  O  O14  1  0.32311630  0.32146484  0.40075872  1
  O  O15  1  0.29753099  0.29606902  0.59866823  1
  O  O16  1  0.70393098  0.70246901  0.00133177  1
  O  O17  1  0.67853516  0.67688370  0.19924128  1
  O  O18  1  0.69731650  0.69589781  0.59673169  1
  F  F19  1  0.19449351  0.79862440  0.09961522  1
  F  F20  1  0.20137560  0.80550649  0.50038478  1
  F  F21  1  0.28800009  0.29015328  0.19796873  1
  F  F22  1  0.30598237  0.31368330  0.80010582  1
  F  F23  1  0.70984672  0.71199991  0.40203127  1
  F  F24  1  0.68631670  0.69401763  0.79989418  1
  F  F25  1  0.80980673  0.18627183  0.09967000  1
  F  F26  1  0.81372817  0.19019327  0.50033000  1
  F  F27  1  0.78617000  0.21383000  0.30000000  1
  F  F28  1  0.80593593  0.19825358  0.89512921  1
  F  F29  1  0.80174642  0.19406407  0.70487079  1
