# generated using pymatgen
data_Ni5Te(PO4)6
_symmetry_space_group_name_H-M   'P 1'
_cell_length_a   8.50249494
_cell_length_b   8.65209923
_cell_length_c   8.65209869
_cell_angle_alpha   59.99999919
_cell_angle_beta   59.41622148
_cell_angle_gamma   59.41622429
_symmetry_Int_Tables_number   1
_chemical_formula_structural   Ni5Te(PO4)6
_chemical_formula_sum   'Ni5 Te1 P6 O24'
_cell_volume   446.05182502
_cell_formula_units_Z   1
loop_
 _symmetry_equiv_pos_site_id
 _symmetry_equiv_pos_as_xyz
  1  'x, y, z'
loop_
 _atom_site_type_symbol
 _atom_site_label
 _atom_site_symmetry_multiplicity
 _atom_site_fract_x
 _atom_site_fract_y
 _atom_site_fract_z
 _atom_site_occupancy
  Ni  Ni0  1  0.02137778  0.99287374  0.99287374  1
  Ni  Ni1  1  0.07271844  0.64242752  0.64242752  1
  Ni  Ni2  1  0.49794479  0.50068474  0.50068474  1
  Ni  Ni3  1  0.43093858  0.85635414  0.85635414  1
  Ni  Ni4  1  0.92128197  0.35957301  0.35957301  1
  Te  Te5  1  0.57430041  0.14189986  0.14189986  1
  P  P6  1  0.24330731  0.25567196  0.54903802  1
  P  P7  1  0.24330731  0.95198271  0.25567196  1
  P  P8  1  0.24330731  0.54903802  0.95198271  1
  P  P9  1  0.74593716  0.46182603  0.04915662  1
  P  P10  1  0.74593716  0.04915662  0.74308019  1
  P  P11  1  0.74593716  0.74308019  0.46182603  1
  O  O12  1  0.06893954  0.10853280  0.32328150  1
  O  O13  1  0.06893954  0.49924616  0.10853280  1
  O  O14  1  0.06893954  0.32328150  0.49924616  1
  O  O15  1  0.22672324  0.09020172  0.73887895  1
  O  O16  1  0.44307831  0.18478673  0.38364549  1
  O  O17  1  0.28232478  0.40597872  0.55679771  1
  O  O18  1  0.22672324  0.94419508  0.09020172  1
  O  O19  1  0.28232478  0.75489979  0.40597872  1
  O  O20  1  0.55960470  0.60854489  0.01452207  1
  O  O21  1  0.28232478  0.55679771  0.75489979  1
  O  O22  1  0.77228963  0.25221804  0.06007306  1
  O  O23  1  0.55960470  0.01452207  0.81732834  1
  O  O24  1  0.44307831  0.98848947  0.18478673  1
  O  O25  1  0.22672324  0.73887895  0.94419508  1
  O  O26  1  0.71892065  0.43293971  0.25067550  1
  O  O27  1  0.44307831  0.38364549  0.98848947  1
  O  O28  1  0.71892065  0.25067550  0.59746414  1
  O  O29  1  0.77228963  0.06007306  0.91541926  1
  O  O30  1  0.71892065  0.59746414  0.43293971  1
  O  O31  1  0.55960470  0.81732834  0.60854489  1
  O  O32  1  0.77228963  0.91541926  0.25221804  1
  O  O33  1  0.93268668  0.68685136  0.48596789  1
  O  O34  1  0.93268668  0.48596789  0.89449407  1
  O  O35  1  0.93268668  0.89449407  0.68685136  1
