# generated using pymatgen
data_Fe4O3F5
_symmetry_space_group_name_H-M   'P 1'
_cell_length_a   4.81504640
_cell_length_b   10.09325150
_cell_length_c   6.16886336
_cell_angle_alpha   72.21623129
_cell_angle_beta   89.80645538
_cell_angle_gamma   88.89699312
_symmetry_Int_Tables_number   1
_chemical_formula_structural   Fe4O3F5
_chemical_formula_sum   'Fe8 O6 F10'
_cell_volume   285.42380836
_cell_formula_units_Z   2
loop_
 _symmetry_equiv_pos_site_id
 _symmetry_equiv_pos_as_xyz
  1  'x, y, z'
loop_
 _atom_site_type_symbol
 _atom_site_label
 _atom_site_symmetry_multiplicity
 _atom_site_fract_x
 _atom_site_fract_y
 _atom_site_fract_z
 _atom_site_occupancy
  Fe  Fe0  1  0.42681925  0.24547587  0.62643758  1
  Fe  Fe1  1  0.53390758  0.72861403  0.88727546  1
  Fe  Fe2  1  0.57318175  0.75452413  0.37356242  1
  Fe  Fe3  1  0.46609242  0.27138597  0.11272454  1
  Fe  Fe4  1  0.00000000  0.00000000  0.50000000  1
  Fe  Fe5  1  0.99852417  0.50032026  0.73406541  1
  Fe  Fe6  1  0.00000000  0.00000000  0.00000000  1
  Fe  Fe7  1  0.00147583  0.49967974  0.26593459  1
  O  O8  1  0.82244728  0.90769033  0.30923630  1
  O  O9  1  0.71425099  0.64970197  0.17565365  1
  O  O10  1  0.70590811  0.64772280  0.67633938  1
  O  O11  1  0.28574901  0.35029803  0.82434635  1
  O  O12  1  0.29409189  0.35227720  0.32366062  1
  O  O13  1  0.17755272  0.09230967  0.69076370  1
  F  F14  1  0.78596583  0.38991086  0.55435777  1
  F  F15  1  0.79787078  0.39913191  0.05042135  1
  F  F16  1  0.78496372  0.89863605  0.78629736  1
  F  F17  1  0.68610254  0.15693236  0.41623586  1
  F  F18  1  0.66955707  0.15956449  0.92261031  1
  F  F19  1  0.33044293  0.84043551  0.07738969  1
  F  F20  1  0.31389746  0.84306764  0.58376414  1
  F  F21  1  0.20212922  0.60086809  0.94957865  1
  F  F22  1  0.21503628  0.10136395  0.21370264  1
  F  F23  1  0.21403417  0.61008914  0.44564223  1
