# generated using pymatgen
data_Fe4O5F3
_symmetry_space_group_name_H-M   'P 1'
_cell_length_a   4.78683408
_cell_length_b   10.05421622
_cell_length_c   6.02906367
_cell_angle_alpha   72.55377492
_cell_angle_beta   89.99761207
_cell_angle_gamma   84.41999040
_symmetry_Int_Tables_number   1
_chemical_formula_structural   Fe4O5F3
_chemical_formula_sum   'Fe8 O10 F6'
_cell_volume   275.37671377
_cell_formula_units_Z   2
loop_
 _symmetry_equiv_pos_site_id
 _symmetry_equiv_pos_as_xyz
  1  'x, y, z'
loop_
 _atom_site_type_symbol
 _atom_site_label
 _atom_site_symmetry_multiplicity
 _atom_site_fract_x
 _atom_site_fract_y
 _atom_site_fract_z
 _atom_site_occupancy
  Fe  Fe0  1  0.53745393  0.27017395  0.61496395  1
  Fe  Fe1  1  0.49065854  0.74577246  0.87710093  1
  Fe  Fe2  1  0.53324897  0.76589008  0.36705231  1
  Fe  Fe3  1  0.49509055  0.24552319  0.12726997  1
  Fe  Fe4  1  0.98682506  0.99355383  0.49790170  1
  Fe  Fe5  1  0.99235965  0.49586240  0.74478701  1
  Fe  Fe6  1  0.98685439  0.99357107  0.00847771  1
  Fe  Fe7  1  0.99247327  0.49589806  0.25930115  1
  O  O8  1  0.81343854  0.40964581  0.54516356  1
  O  O9  1  0.81204141  0.90476200  0.29759967  1
  O  O10  1  0.69581554  0.15403809  0.42006496  1
  O  O11  1  0.69469856  0.65312245  0.16259586  1
  O  O12  1  0.69581887  0.15402248  0.92592418  1
  O  O13  1  0.69470876  0.65309291  0.68433511  1
  O  O14  1  0.30330365  0.84567055  0.06796842  1
  O  O15  1  0.30334589  0.84566318  0.58629354  1
  O  O16  1  0.30899520  0.34858386  0.83358624  1
  O  O17  1  0.30902894  0.34858157  0.31792406  1
  F  F18  1  0.80985537  0.40241362  0.04881539  1
  F  F19  1  0.79897228  0.90225699  0.79883652  1
  F  F20  1  0.18880001  0.59290160  0.95352604  1
  F  F21  1  0.19445710  0.09337267  0.20330357  1
  F  F22  1  0.18963719  0.59699850  0.45151931  1
  F  F23  1  0.17211834  0.08862769  0.70568784  1
