# generated using pymatgen
data_Mn3Nb2Co3O16
_symmetry_space_group_name_H-M   'P 1'
_cell_length_a   5.75409644
_cell_length_b   5.77383839
_cell_length_c   9.32594656
_cell_angle_alpha   90.10619762
_cell_angle_beta   90.81438146
_cell_angle_gamma   120.02653854
_symmetry_Int_Tables_number   1
_chemical_formula_structural   Mn3Nb2Co3O16
_chemical_formula_sum   'Mn3 Nb2 Co3 O16'
_cell_volume   268.21431326
_cell_formula_units_Z   1
loop_
 _symmetry_equiv_pos_site_id
 _symmetry_equiv_pos_as_xyz
  1  'x, y, z'
loop_
 _atom_site_type_symbol
 _atom_site_label
 _atom_site_symmetry_multiplicity
 _atom_site_fract_x
 _atom_site_fract_y
 _atom_site_fract_z
 _atom_site_occupancy
  Mn  Mn0  1  0.66363263  0.82986056  0.21475611  1
  Mn  Mn1  1  0.83219313  0.66396416  0.71564767  1
  Mn  Mn2  1  0.83212978  0.16876169  0.71572410  1
  Nb  Nb3  1  0.32060309  0.65817878  0.49683738  1
  Nb  Nb4  1  0.65360101  0.32425772  0.99895545  1
  Co  Co5  1  0.16991835  0.83189592  0.21510588  1
  Co  Co6  1  0.16942018  0.33760017  0.21353483  1
  Co  Co7  1  0.33856567  0.16948388  0.71324004  1
  O  O8  1  0.16597810  0.83708668  0.59948379  1
  O  O9  1  0.03974547  0.52120016  0.32913857  1
  O  O10  1  0.32423456  0.66547951  0.11245490  1
  O  O11  1  0.01153157  0.00140639  0.30921537  1
  O  O12  1  0.00405603  0.00250221  0.81394015  1
  O  O13  1  0.16523831  0.32883029  0.59979995  1
  O  O14  1  0.48187691  0.96488499  0.33085833  1
  O  O15  1  0.48442635  0.52118256  0.33183911  1
  O  O16  1  0.32703437  0.16329205  0.10241757  1
  O  O17  1  0.66990962  0.83586116  0.59744123  1
  O  O18  1  0.52121958  0.48296940  0.83191840  1
  O  O19  1  0.52069129  0.03857189  0.83172994  1
  O  O20  1  0.66672178  0.33341693  0.60894099  1
  O  O21  1  0.83536489  0.66964872  0.09999476  1
  O  O22  1  0.96828444  0.48463184  0.83298371  1
  O  O23  1  0.83362388  0.16523035  0.09976377  1
