# generated using pymatgen
data_Li3Mn5Cr2O12
_symmetry_space_group_name_H-M   'P 1'
_cell_length_a   5.23144761
_cell_length_b   5.23144790
_cell_length_c   10.07266149
_cell_angle_alpha   84.67300750
_cell_angle_beta   95.32699244
_cell_angle_gamma   58.30797416
_symmetry_Int_Tables_number   1
_chemical_formula_structural   Li3Mn5Cr2O12
_chemical_formula_sum   'Li3 Mn5 Cr2 O12'
_cell_volume   230.26359754
_cell_formula_units_Z   1
loop_
 _symmetry_equiv_pos_site_id
 _symmetry_equiv_pos_as_xyz
  1  'x, y, z'
loop_
 _atom_site_type_symbol
 _atom_site_label
 _atom_site_symmetry_multiplicity
 _atom_site_fract_x
 _atom_site_fract_y
 _atom_site_fract_z
 _atom_site_occupancy
  Li  Li0  1  0.31676534  0.84620712  0.98368085  1
  Li  Li1  1  0.84620712  0.31676534  0.51631915  1
  Li  Li2  1  0.91819374  0.91819374  0.75000000  1
  Mn  Mn3  1  0.08179418  0.08179418  0.25000000  1
  Mn  Mn4  1  0.41663389  0.41663389  0.25000000  1
  Mn  Mn5  1  0.57652212  0.57652212  0.75000000  1
  Mn  Mn6  1  0.51585993  0.00115919  0.51047683  1
  Mn  Mn7  1  0.00115919  0.51585993  0.98952317  1
  Cr  Cr8  1  0.25594610  0.25594610  0.75000000  1
  Cr  Cr9  1  0.75039352  0.75039352  0.25000000  1
  O  O10  1  0.12038158  0.36253177  0.36432450  1
  O  O11  1  0.05751718  0.76438294  0.14023079  1
  O  O12  1  0.36253177  0.12038158  0.13567550  1
  O  O13  1  0.28804921  0.54954270  0.85694439  1
  O  O14  1  0.54954270  0.28804921  0.64305561  1
  O  O15  1  0.24642646  0.96058365  0.63662826  1
  O  O16  1  0.76438294  0.05751718  0.35976921  1
  O  O17  1  0.45592239  0.73260989  0.35600283  1
  O  O18  1  0.60297867  0.85084243  0.86320990  1
  O  O19  1  0.73260989  0.45592239  0.14399717  1
  O  O20  1  0.96058365  0.24642646  0.86337174  1
  O  O21  1  0.85084243  0.60297867  0.63679010  1
