# generated using pymatgen
data_Li7Mn2(CoO4)3
_symmetry_space_group_name_H-M   'P 1'
_cell_length_a   3.00951867
_cell_length_b   5.01828458
_cell_length_c   14.65201125
_cell_angle_alpha   97.73381075
_cell_angle_beta   85.10562659
_cell_angle_gamma   91.51054479
_symmetry_Int_Tables_number   1
_chemical_formula_structural   Li7Mn2(CoO4)3
_chemical_formula_sum   'Li7 Mn2 Co3 O12'
_cell_volume   218.44662411
_cell_formula_units_Z   1
loop_
 _symmetry_equiv_pos_site_id
 _symmetry_equiv_pos_as_xyz
  1  'x, y, z'
loop_
 _atom_site_type_symbol
 _atom_site_label
 _atom_site_symmetry_multiplicity
 _atom_site_fract_x
 _atom_site_fract_y
 _atom_site_fract_z
 _atom_site_occupancy
  Li  Li0  1  0.90421831  0.42335520  0.17672865  1
  Li  Li1  1  0.24730135  0.75590468  0.49387456  1
  Li  Li2  1  0.58714908  0.08164293  0.82978358  1
  Li  Li3  1  0.41261057  0.91265162  0.17704391  1
  Li  Li4  1  0.76107884  0.24601946  0.49344823  1
  Li  Li5  1  0.08772071  0.58030914  0.82975840  1
  Li  Li6  1  0.83352955  0.83315168  0.33442507  1
  Mn  Mn7  1  0.99773098  -0.00001340  0.00122113  1
  Mn  Mn8  1  0.49785473  0.50003981  0.00152577  1
  Co  Co9  1  0.33325596  0.33326315  0.33445737  1
  Co  Co10  1  0.66901249  0.66603720  0.66423312  1
  Co  Co11  1  0.16926156  0.16607126  0.66388263  1
  O  O12  1  0.42296736  0.20934295  0.07764884  1
  O  O13  1  0.80959590  0.51730538  0.40584482  1
  O  O14  1  0.13716937  0.88176814  0.74207482  1
  O  O15  1  0.92114792  0.71385999  0.08043323  1
  O  O16  1  0.29302852  0.07596746  0.40877327  1
  O  O17  1  0.63703583  0.38045884  0.74232685  1
  O  O18  1  0.37334874  0.59177065  0.25957140  1
  O  O19  1  0.69941880  0.95161934  0.58660472  1
  O  O20  1  0.07597789  0.28797064  0.92221783  1
  O  O21  1  0.85702188  0.14888858  0.26228586  1
  O  O22  1  0.19752117  0.45535473  0.58911900  1
  O  O23  1  0.57504249  0.78726056  0.92271694  1
