# generated using pymatgen
data_Li4Mn5Sn(PO4)6
_symmetry_space_group_name_H-M   'P 1'
_cell_length_a   8.65459682
_cell_length_b   9.08214104
_cell_length_c   9.06975956
_cell_angle_alpha   59.97666936
_cell_angle_beta   58.83108079
_cell_angle_gamma   58.80602505
_symmetry_Int_Tables_number   1
_chemical_formula_structural   Li4Mn5Sn(PO4)6
_chemical_formula_sum   'Li4 Mn5 Sn1 P6 O24'
_cell_volume   494.82456636
_cell_formula_units_Z   1
loop_
 _symmetry_equiv_pos_site_id
 _symmetry_equiv_pos_as_xyz
  1  'x, y, z'
loop_
 _atom_site_type_symbol
 _atom_site_label
 _atom_site_symmetry_multiplicity
 _atom_site_fract_x
 _atom_site_fract_y
 _atom_site_fract_z
 _atom_site_occupancy
  Li  Li0  1  0.25030836  0.84979767  0.64813868  1
  Li  Li1  1  0.78745261  0.14992712  0.35582886  1
  Li  Li2  1  0.78540053  0.71082034  0.14632871  1
  Li  Li3  1  0.78867756  0.35916352  0.70387881  1
  Mn  Mn4  1  0.02321969  0.99553048  0.00008845  1
  Mn  Mn5  1  0.04706648  0.64651135  0.65232144  1
  Mn  Mn6  1  0.49137555  0.49563898  0.50047942  1
  Mn  Mn7  1  0.45766626  0.84655564  0.84885509  1
  Mn  Mn8  1  0.96667735  0.34692782  0.34094765  1
  Sn  Sn9  1  0.54723020  0.15477655  0.14870530  1
  P  P10  1  0.24144854  0.25535714  0.55938507  1
  P  P11  1  0.24375076  0.94406738  0.25388635  1
  P  P12  1  0.24242773  0.56128949  0.94210531  1
  P  P13  1  0.74463748  0.44506427  0.05634403  1
  P  P14  1  0.76097592  0.05284524  0.75103689  1
  P  P15  1  0.72874561  0.75663046  0.44831102  1
  O  O16  1  0.05517602  0.09461176  0.31919829  1
  O  O17  1  0.05410407  0.53206408  0.08985557  1
  O  O18  1  0.05286514  0.33128198  0.52534397  1
  O  O19  1  0.22693470  0.08941804  0.73542215  1
  O  O20  1  0.42098621  0.19327139  0.39445625  1
  O  O21  1  0.27640271  0.39645620  0.57359152  1
  O  O22  1  0.23280632  0.92354432  0.10086597  1
  O  O23  1  0.27746536  0.76385026  0.41062334  1
  O  O24  1  0.56278988  0.58930703  0.01881145  1
  O  O25  1  0.27842284  0.57595971  0.74987430  1
  O  O26  1  0.76398678  0.24241978  0.09092413  1
  O  O27  1  0.59404063  0.99677226  0.81592984  1
  O  O28  1  0.42343296  0.99724668  0.18203388  1
  O  O29  1  0.22642599  0.74837721  0.92325601  1
  O  O30  1  0.72658889  0.42338151  0.24819042  1
  O  O31  1  0.42261136  0.39907474  0.98815459  1
  O  O32  1  0.73338703  0.24421099  0.59927468  1
  O  O33  1  0.76408389  0.09348218  0.90448606  1
  O  O34  1  0.72849138  0.60013631  0.41846907  1
  O  O35  1  0.53267761  0.82236385  0.58889142  1
  O  O36  1  0.75679570  0.90665901  0.24715689  1
  O  O37  1  0.89681756  0.71012862  0.49424696  1
  O  O38  1  0.92806141  0.47141107  0.90377761  1
  O  O39  1  0.95758893  0.90666755  0.69752457  1
