# generated using pymatgen
data_LiMn2(BO3)2
_symmetry_space_group_name_H-M   'P 1'
_cell_length_a   5.35828413
_cell_length_b   9.09079991
_cell_length_c   11.52986711
_cell_angle_alpha   65.85392109
_cell_angle_beta   78.59864446
_cell_angle_gamma   90.37182517
_symmetry_Int_Tables_number   1
_chemical_formula_structural   LiMn2(BO3)2
_chemical_formula_sum   'Li4 Mn8 B8 O24'
_cell_volume   499.97807521
_cell_formula_units_Z   4
loop_
 _symmetry_equiv_pos_site_id
 _symmetry_equiv_pos_as_xyz
  1  'x, y, z'
loop_
 _atom_site_type_symbol
 _atom_site_label
 _atom_site_symmetry_multiplicity
 _atom_site_fract_x
 _atom_site_fract_y
 _atom_site_fract_z
 _atom_site_occupancy
  Li  Li0  1  0.28726338  0.14624467  0.67260430  1
  Li  Li1  1  0.56982150  0.44165009  0.14902223  1
  Li  Li2  1  0.07590100  0.92186724  0.16333675  1
  Li  Li3  1  0.66068275  0.78662245  0.41572229  1
  Mn  Mn4  1  0.08434357  0.25968113  0.13120488  1
  Mn  Mn5  1  0.64728854  0.15447976  0.38545343  1
  Mn  Mn6  1  0.39713845  0.20710732  0.88729129  1
  Mn  Mn7  1  0.16774950  0.62991870  0.37545243  1
  Mn  Mn8  1  0.82306446  0.37884673  0.63568320  1
  Mn  Mn9  1  0.59919835  0.78939747  0.11815027  1
  Mn  Mn10  1  0.34210521  0.82895344  0.63064531  1
  Mn  Mn11  1  0.91075193  0.74620100  0.87335498  1
  B  B12  1  0.60554476  0.10866068  0.13317799  1
  B  B13  1  0.83844457  0.03006218  0.63635668  1
  B  B14  1  0.10234180  0.60480288  0.12170907  1
  B  B15  1  0.65266783  0.50125451  0.37086421  1
  B  B16  1  0.36513914  0.50579226  0.62282826  1
  B  B17  1  0.89560147  0.39635899  0.88190960  1
  B  B18  1  0.15377092  0.97979153  0.36826229  1
  B  B19  1  0.38717811  0.87544389  0.87008451  1
  O  O20  1  0.36471711  0.11663021  0.09844681  1
  O  O21  1  0.05518407  0.13276692  0.32207716  1
  O  O22  1  0.95305133  0.16464391  0.63290985  1
  O  O23  1  0.68945720  0.22757133  0.16884611  1
  O  O24  1  0.61158867  0.03108253  0.59122553  1
  O  O25  1  0.21758781  0.47030565  0.12911080  1
  O  O26  1  0.27115954  0.01045087  0.86040069  1
  O  O27  1  0.56844880  0.38741192  0.33788351  1
  O  O28  1  0.19128945  0.71045732  0.16977217  1
  O  O29  1  0.44374435  0.34811770  0.67349932  1
  O  O30  1  0.88199184  0.64601512  0.06868170  1
  O  O31  1  0.13637553  0.52242267  0.58159740  1
  O  O32  1  0.83969175  0.47825045  0.44446655  1
  O  O33  1  0.09401090  0.32602346  0.94601656  1
  O  O34  1  0.56173383  0.65530238  0.32906764  1
  O  O35  1  0.79370928  0.30538587  0.82373421  1
  O  O36  1  0.03469880  0.85347891  0.35765966  1
  O  O37  1  0.51268885  0.63787083  0.60543095  1
  O  O38  1  0.75095102  0.98955027  0.12936973  1
  O  O39  1  0.80339047  0.53249264  0.87787991  1
  O  O40  1  0.36960298  0.96076112  0.42296866  1
  O  O41  1  0.28925512  0.75992321  0.83413146  1
  O  O42  1  0.95114255  0.88107866  0.68390262  1
  O  O43  1  0.60593049  0.84280111  0.92071201  1
