# generated using pymatgen
data_LiFeO2
_symmetry_space_group_name_H-M   'P 1'
_cell_length_a   5.25793666
_cell_length_b   10.78418076
_cell_length_c   13.48682998
_cell_angle_alpha   90.00000000
_cell_angle_beta   90.00000000
_cell_angle_gamma   90.00000000
_symmetry_Int_Tables_number   1
_chemical_formula_structural   LiFeO2
_chemical_formula_sum   'Li16 Fe16 O32'
_cell_volume   764.73750786
_cell_formula_units_Z   16
loop_
 _symmetry_equiv_pos_site_id
 _symmetry_equiv_pos_as_xyz
  1  'x, y, z'
loop_
 _atom_site_type_symbol
 _atom_site_label
 _atom_site_symmetry_multiplicity
 _atom_site_fract_x
 _atom_site_fract_y
 _atom_site_fract_z
 _atom_site_occupancy
  Li  Li0  1  0.20385428  0.78651840  0.30650587  1
  Li  Li1  1  0.20385428  0.71348160  0.80650587  1
  Li  Li2  1  0.31558302  0.45869517  0.43926875  1
  Li  Li3  1  0.31558302  0.04130483  0.93926875  1
  Li  Li4  1  0.18441698  0.95869517  0.43926875  1
  Li  Li5  1  0.18441698  0.54130483  0.93926875  1
  Li  Li6  1  0.29614572  0.28651840  0.30650587  1
  Li  Li7  1  0.29614572  0.21348160  0.80650587  1
  Li  Li8  1  0.70385428  0.78651840  0.19349413  1
  Li  Li9  1  0.70385428  0.71348160  0.69349413  1
  Li  Li10  1  0.81558302  0.45869517  0.06073125  1
  Li  Li11  1  0.81558302  0.04130483  0.56073125  1
  Li  Li12  1  0.68441698  0.95869517  0.06073125  1
  Li  Li13  1  0.68441698  0.54130483  0.56073125  1
  Li  Li14  1  0.79614572  0.28651840  0.19349413  1
  Li  Li15  1  0.79614572  0.21348160  0.69349413  1
  Fe  Fe16  1  0.19796737  0.79114468  0.06161622  1
  Fe  Fe17  1  0.19796737  0.70885532  0.56161622  1
  Fe  Fe18  1  0.15976037  0.03920040  0.18492978  1
  Fe  Fe19  1  0.15976037  0.46079960  0.68492978  1
  Fe  Fe20  1  0.34023963  0.53920040  0.18492978  1
  Fe  Fe21  1  0.34023963  0.96079960  0.68492978  1
  Fe  Fe22  1  0.30203263  0.29114468  0.06161622  1
  Fe  Fe23  1  0.30203263  0.20885532  0.56161622  1
  Fe  Fe24  1  0.69796737  0.79114468  0.43838378  1
  Fe  Fe25  1  0.69796737  0.70885532  0.93838378  1
  Fe  Fe26  1  0.65976037  0.46079960  0.81507022  1
  Fe  Fe27  1  0.65976037  0.03920040  0.31507022  1
  Fe  Fe28  1  0.84023963  0.53920040  0.31507022  1
  Fe  Fe29  1  0.84023963  0.96079960  0.81507022  1
  Fe  Fe30  1  0.80203263  0.29114468  0.43838378  1
  Fe  Fe31  1  0.80203263  0.20885532  0.93838378  1
  O  O32  1  0.16558360  0.28350326  0.44595910  1
  O  O33  1  0.16558360  0.21649674  0.94595910  1
  O  O34  1  0.18072547  0.48057200  0.30290008  1
  O  O35  1  0.18072547  0.01942800  0.80290008  1
  O  O36  1  0.19994597  0.46065820  0.07007719  1
  O  O37  1  0.19994597  0.03934180  0.57007719  1
  O  O38  1  0.32971085  0.71630883  0.17969847  1
  O  O39  1  0.32971085  0.78369117  0.67969847  1
  O  O40  1  0.17028915  0.28369117  0.67969847  1
  O  O41  1  0.17028915  0.21630883  0.17969847  1
  O  O42  1  0.30005403  0.96065820  0.07007719  1
  O  O43  1  0.30005403  0.53934180  0.57007719  1
  O  O44  1  0.31927453  0.51942800  0.80290008  1
  O  O45  1  0.31927453  0.98057200  0.30290008  1
  O  O46  1  0.33441640  0.78350326  0.44595910  1
  O  O47  1  0.33441640  0.71649674  0.94595910  1
  O  O48  1  0.66558360  0.28350326  0.05404090  1
  O  O49  1  0.66558360  0.21649674  0.55404090  1
  O  O50  1  0.68072547  0.01942800  0.69709992  1
  O  O51  1  0.68072547  0.48057200  0.19709992  1
  O  O52  1  0.69994597  0.03934180  0.92992281  1
  O  O53  1  0.69994597  0.46065820  0.42992281  1
  O  O54  1  0.82971085  0.71630883  0.32030153  1
  O  O55  1  0.82971085  0.78369117  0.82030153  1
  O  O56  1  0.67028915  0.21630883  0.32030153  1
  O  O57  1  0.67028915  0.28369117  0.82030153  1
  O  O58  1  0.80005403  0.53934180  0.92992281  1
  O  O59  1  0.80005403  0.96065820  0.42992281  1
  O  O60  1  0.81927453  0.51942800  0.69709992  1
  O  O61  1  0.81927453  0.98057200  0.19709992  1
  O  O62  1  0.83441640  0.71649674  0.55404090  1
  O  O63  1  0.83441640  0.78350326  0.05404090  1
