# generated using pymatgen
data_Mn6O5F7
_symmetry_space_group_name_H-M   'P 1'
_cell_length_a   4.72404598
_cell_length_b   5.73637256
_cell_length_c   15.64523413
_cell_angle_alpha   90.76268000
_cell_angle_beta   90.05802460
_cell_angle_gamma   86.95765565
_symmetry_Int_Tables_number   1
_chemical_formula_structural   Mn6O5F7
_chemical_formula_sum   'Mn12 O10 F14'
_cell_volume   423.33336688
_cell_formula_units_Z   2
loop_
 _symmetry_equiv_pos_site_id
 _symmetry_equiv_pos_as_xyz
  1  'x, y, z'
loop_
 _atom_site_type_symbol
 _atom_site_label
 _atom_site_symmetry_multiplicity
 _atom_site_fract_x
 _atom_site_fract_y
 _atom_site_fract_z
 _atom_site_occupancy
  Mn  Mn0  1  0.02681562  0.16500879  0.41737522  1
  Mn  Mn1  1  0.03753862  0.83110075  0.24561917  1
  Mn  Mn2  1  0.00182945  0.14756398  0.07745835  1
  Mn  Mn3  1  0.01720985  0.17958820  0.75249840  1
  Mn  Mn4  1  0.00614371  0.83732779  0.57599163  1
  Mn  Mn5  1  0.01893838  0.85812279  0.90997039  1
  Mn  Mn6  1  0.49898405  0.34803998  0.58676642  1
  Mn  Mn7  1  0.47513466  0.32941032  0.92180528  1
  Mn  Mn8  1  0.52206013  0.35737488  0.26028801  1
  Mn  Mn9  1  0.49466219  0.64811625  0.08190661  1
  Mn  Mn10  1  0.47553819  0.63842670  0.41568463  1
  Mn  Mn11  1  0.49492563  0.64286054  0.75681112  1
  O  O12  1  0.20837697  0.10406176  0.96911083  1
  O  O13  1  0.23027919  0.88257421  0.13149273  1
  O  O14  1  0.23008894  0.88535278  0.46709827  1
  O  O15  1  0.22529661  0.89211977  0.80497202  1
  O  O16  1  0.29099904  0.60742484  0.30872917  1
  O  O17  1  0.27672474  0.38954695  0.47901334  1
  O  O18  1  0.28070865  0.40130460  0.81606918  1
  O  O19  1  0.70114848  0.36983333  0.02848629  1
  O  O20  1  0.74005492  0.39383899  0.36414335  1
  O  O21  1  0.71921883  0.38675017  0.69515769  1
  F  F22  1  0.24498222  0.11081157  0.30210037  1
  F  F23  1  0.22629379  0.11191554  0.63786114  1
  F  F24  1  0.27351545  0.38587441  0.15238717  1
  F  F25  1  0.25336958  0.60512796  0.64302540  1
  F  F26  1  0.24667975  0.60366362  0.97958354  1
  F  F27  1  0.73835755  0.62359883  0.18672466  1
  F  F28  1  0.71158229  0.62427643  0.52409654  1
  F  F29  1  0.75332576  0.62680731  0.86770317  1
  F  F30  1  0.77931318  0.12817403  0.19307261  1
  F  F31  1  0.76351651  0.12141384  0.52772650  1
  F  F32  1  0.77786212  0.89253584  0.35588450  1
  F  F33  1  0.76045473  0.87065514  0.01473494  1
  F  F34  1  0.74664540  0.12572250  0.85641271  1
  F  F35  1  0.75142684  0.87367561  0.69223562  1
