# generated using pymatgen
data_Li6TiNi3(PO4)6
_symmetry_space_group_name_H-M   'P 1'
_cell_length_a   8.60191050
_cell_length_b   8.65884532
_cell_length_c   8.63950311
_cell_angle_alpha   61.41137990
_cell_angle_beta   61.18166037
_cell_angle_gamma   61.28443174
_symmetry_Int_Tables_number   1
_chemical_formula_structural   Li6TiNi3(PO4)6
_chemical_formula_sum   'Li6 Ti1 Ni3 P6 O24'
_cell_volume   468.23501995
_cell_formula_units_Z   1
loop_
 _symmetry_equiv_pos_site_id
 _symmetry_equiv_pos_as_xyz
  1  'x, y, z'
loop_
 _atom_site_type_symbol
 _atom_site_label
 _atom_site_symmetry_multiplicity
 _atom_site_fract_x
 _atom_site_fract_y
 _atom_site_fract_z
 _atom_site_occupancy
  Li  Li0  1  0.02296449  0.01585212  0.00111113  1
  Li  Li1  1  0.74390531  0.15756468  0.35149013  1
  Li  Li2  1  0.47914004  0.50345903  0.48770321  1
  Li  Li3  1  0.29414423  0.84988610  0.64248845  1
  Li  Li4  1  0.65050829  0.29992501  0.83984960  1
  Li  Li5  1  0.84358324  0.64681194  0.29846900  1
  Ti  Ti6  1  0.85134250  0.85197631  0.85355513  1
  Ni  Ni7  1  0.14266887  0.14619535  0.14139334  1
  Ni  Ni8  1  0.35755082  0.35881854  0.35595335  1
  Ni  Ni9  1  0.64604845  0.64755301  0.64692106  1
  P  P10  1  0.04638382  0.75011067  0.44792126  1
  P  P11  1  0.44990625  0.04448559  0.74903028  1
  P  P12  1  0.75001878  0.45124086  0.04182258  1
  P  P13  1  0.24749428  0.54757705  0.95310187  1
  P  P14  1  0.54931092  0.96221282  0.24889391  1
  P  P15  1  0.95400596  0.24484976  0.53936153  1
  O  O16  1  0.13478908  0.26247080  0.50718010  1
  O  O17  1  0.27601048  0.52043887  0.12646156  1
  O  O18  1  0.05860456  0.91369476  0.26301691  1
  O  O19  1  0.55319538  0.11954285  0.28123068  1
  O  O20  1  0.23391044  0.59171950  0.44530305  1
  O  O21  1  0.98704657  0.81602963  0.61484367  1
  O  O22  1  0.25888197  0.08203384  0.89996288  1
  O  O23  1  0.47359039  0.22023156  0.57767883  1
  O  O24  1  0.59444136  0.44673436  0.23454011  1
  O  O25  1  0.18014321  0.39210043  0.00053093  1
  O  O26  1  0.10254421  0.74777961  0.89865100  1
  O  O27  1  0.38464919  0.01777677  0.19102550  1
  O  O28  1  0.61460234  0.97871149  0.82167677  1
  O  O29  1  0.90239565  0.25811761  0.07185036  1
  O  O30  1  0.82114673  0.61325421  0.98193563  1
  O  O31  1  0.42120445  0.54351383  0.77220293  1
  O  O32  1  0.54373126  0.78030417  0.42174922  1
  O  O33  1  0.74609868  0.89784985  0.09932052  1
  O  O34  1  0.96211502  0.18718781  0.39191868  1
  O  O35  1  0.77758230  0.42483540  0.54407806  1
  O  O36  1  0.46794929  0.88477035  0.70167575  1
  O  O37  1  0.89878206  0.10082392  0.74198940  1
  O  O38  1  0.68998765  0.47632756  0.88860453  1
  O  O39  1  0.88762149  0.69423098  0.47450608  1
