# generated using pymatgen
data_LiMnP2O7
_symmetry_space_group_name_H-M   'P 1'
_cell_length_a   9.74321323
_cell_length_b   9.70019871
_cell_length_c   11.18617197
_cell_angle_alpha   89.50920403
_cell_angle_beta   101.02405270
_cell_angle_gamma   90.44555079
_symmetry_Int_Tables_number   1
_chemical_formula_structural   LiMnP2O7
_chemical_formula_sum   'Li8 Mn8 P16 O56'
_cell_volume   1037.65026384
_cell_formula_units_Z   8
loop_
 _symmetry_equiv_pos_site_id
 _symmetry_equiv_pos_as_xyz
  1  'x, y, z'
loop_
 _atom_site_type_symbol
 _atom_site_label
 _atom_site_symmetry_multiplicity
 _atom_site_fract_x
 _atom_site_fract_y
 _atom_site_fract_z
 _atom_site_occupancy
  Li  Li0  1  0.41311749  0.59753414  0.97904164  1
  Li  Li1  1  0.33330246  0.91441124  0.45787749  1
  Li  Li2  1  0.38998766  0.21680483  0.54872252  1
  Li  Li3  1  0.84367235  0.58559482  0.95650311  1
  Li  Li4  1  0.64497416  0.10293777  0.04751441  1
  Li  Li5  1  0.91615352  0.90255536  0.97570291  1
  Li  Li6  1  0.83721619  0.58142072  0.46266416  1
  Li  Li7  1  0.89027453  0.28452671  0.54748958  1
  Mn  Mn8  1  0.20211465  0.92674128  0.67585020  1
  Mn  Mn9  1  0.27055460  0.21727369  0.83893986  1
  Mn  Mn10  1  0.22154719  0.72386879  0.16764821  1
  Mn  Mn11  1  0.30836985  0.42919108  0.33103312  1
  Mn  Mn12  1  0.69927544  0.57353418  0.67359291  1
  Mn  Mn13  1  0.77811917  0.27704013  0.83995878  1
  Mn  Mn14  1  0.71728676  0.77808043  0.16584240  1
  Mn  Mn15  1  0.80754538  0.06778860  0.33160188  1
  P  P16  1  0.02810847  0.44523787  0.75351367  1
  P  P17  1  0.11636847  0.70904518  0.88595673  1
  P  P18  1  0.06514836  0.93026425  0.24250283  1
  P  P19  1  0.13035539  0.15474870  0.42133505  1
  P  P20  1  0.37734710  0.64217428  0.57181820  1
  P  P21  1  0.43379306  0.42608465  0.75898213  1
  P  P22  1  0.52595999  0.05440295  0.75567509  1
  P  P23  1  0.37996359  0.21237627  0.11699815  1
  P  P24  1  0.61224276  0.79181891  0.88891906  1
  P  P25  1  0.46641152  0.94028479  0.24248796  1
  P  P26  1  0.56649154  0.56924666  0.24213615  1
  P  P27  1  0.63196263  0.34027152  0.41796365  1
  P  P28  1  0.87789696  0.85540944  0.57830037  1
  P  P29  1  0.93073408  0.07719835  0.75779869  1
  P  P30  1  0.89059685  0.28796197  0.11590718  1
  P  P31  1  0.96629402  0.56111261  0.23903806  1
  O  O32  1  0.01668212  0.42273586  0.62087236  1
  O  O33  1  0.03587478  0.84942960  0.57566515  1
  O  O34  1  0.07853449  0.08794143  0.73092438  1
  O  O35  1  0.10968546  0.34171553  0.84317988  1
  O  O36  1  0.10447285  0.59090866  0.78457782  1
  O  O37  1  0.17915688  0.83088360  0.82705532  1
  O  O38  1  0.22293821  0.65730722  0.99967251  1
  O  O39  1  0.02839873  0.25746554  0.08606455  1
  O  O40  1  0.12411045  0.07746487  0.29248690  1
  O  O41  1  0.06760719  0.91315807  0.10960836  1
  O  O42  1  0.11395512  0.55944677  0.20269518  1
  O  O43  1  0.20028542  0.29276265  0.40649742  1
  O  O44  1  0.17102918  0.82296653  0.31096414  1
  O  O45  1  0.22537887  0.06623051  0.51935410  1
  O  O46  1  0.29552287  0.56095222  0.46493037  1
  O  O47  1  0.34352457  0.30346818  0.69767128  1
  O  O48  1  0.32145308  0.78571575  0.58654036  1
  O  O49  1  0.37158694  0.04151118  0.78609588  1
  O  O50  1  0.36290384  0.56351779  0.69656031  1
  O  O51  1  0.42158505  0.42672744  0.89067041  1
  O  O52  1  0.47172351  0.76470298  0.91687811  1
  O  O53  1  0.27106400  0.16355598  0.00425162  1
  O  O54  1  0.31885208  0.33005462  0.18233361  1
  O  O55  1  0.39028712  0.08609277  0.21428127  1
  O  O56  1  0.41738844  0.57915225  0.27120738  1
  O  O57  1  0.37982283  0.83713760  0.15330118  1
  O  O58  1  0.52440975  0.08754275  0.62578729  1
  O  O59  1  0.48296634  0.32866391  0.43932478  1
  O  O60  1  0.53675131  0.64866358  0.57034252  1
  O  O61  1  0.47793551  0.91428414  0.37445067  1
  O  O62  1  0.61082258  0.15075622  0.85367085  1
  O  O63  1  0.58487019  0.42011929  0.73025816  1
  O  O64  1  0.59911383  0.90665658  0.78229662  1
  O  O65  1  0.68733236  0.67204601  0.84074774  1
  O  O66  1  0.71765674  0.85846126  0.00129116  1
  O  O67  1  0.52170364  0.23506075  0.08777208  1
  O  O68  1  0.57259584  0.58801332  0.10945049  1
  O  O69  1  0.62678220  0.42220145  0.28985671  1
  O  O70  1  0.61381234  0.94962871  0.20062582  1
  O  O71  1  0.69522926  0.20047968  0.39941514  1
  O  O72  1  0.67045302  0.67976171  0.30992886  1
  O  O73  1  0.72972362  0.42505093  0.51455408  1
  O  O74  1  0.79672306  0.93226528  0.46864175  1
  O  O75  1  0.83587257  0.19669075  0.69456296  1
  O  O76  1  0.82193198  0.70844294  0.59597532  1
  O  O77  1  0.87506059  0.46020588  0.79094366  1
  O  O78  1  0.91100616  0.07851157  0.88881105  1
  O  O79  1  0.86155667  0.93537438  0.70041269  1
  O  O80  1  0.97347443  0.72980814  0.91535483  1
  O  O81  1  0.78274983  0.34776417  0.00288789  1
  O  O82  1  0.81336551  0.16874177  0.17276938  1
  O  O83  1  0.90165102  0.40795244  0.21700564  1
  O  O84  1  0.87121473  0.65286310  0.14123924  1
  O  O85  1  0.91446190  0.91907030  0.27111952  1
  O  O86  1  0.98095488  0.16835830  0.44053464  1
  O  O87  1  0.96882886  0.59497691  0.36800149  1
