# generated using pymatgen
data_Ce7Pt3
_symmetry_space_group_name_H-M   'P 1'
_cell_length_a   6.22509171
_cell_length_b   9.48900779
_cell_length_c   9.48900779
_cell_angle_alpha   120.00000020
_cell_angle_beta   90.00000000
_cell_angle_gamma   90.00000000
_symmetry_Int_Tables_number   1
_chemical_formula_structural   Ce7Pt3
_chemical_formula_sum   'Ce14 Pt6'
_cell_volume   485.42036337
_cell_formula_units_Z   2
loop_
 _symmetry_equiv_pos_site_id
 _symmetry_equiv_pos_as_xyz
  1  'x, y, z'
loop_
 _atom_site_type_symbol
 _atom_site_label
 _atom_site_symmetry_multiplicity
 _atom_site_fract_x
 _atom_site_fract_y
 _atom_site_fract_z
 _atom_site_occupancy
  Ce  Ce0  1  0.83560302  0.86645902  0.73291804  1
  Ce  Ce1  1  0.83560302  0.86645902  0.13354098  1
  Ce  Ce2  1  0.33560302  0.13354098  0.26708196  1
  Ce  Ce3  1  0.83560302  0.26708196  0.13354098  1
  Ce  Ce4  1  0.33560302  0.13354098  0.86645902  1
  Ce  Ce5  1  0.33560302  0.73291804  0.86645902  1
  Ce  Ce6  1  0.78817774  0.66666700  0.33333300  1
  Ce  Ce7  1  0.28817774  0.33333300  0.66666700  1
  Ce  Ce8  1  0.77869126  0.19944018  0.39888035  1
  Ce  Ce9  1  0.77869126  0.19944018  0.80055982  1
  Ce  Ce10  1  0.27869126  0.80055982  0.60111965  1
  Ce  Ce11  1  0.77869126  0.60111965  0.80055982  1
  Ce  Ce12  1  0.27869126  0.80055982  0.19944018  1
  Ce  Ce13  1  0.27869126  0.39888035  0.19944018  1
  Pt  Pt14  1  0.54631314  0.50877530  0.01755061  1
  Pt  Pt15  1  0.54631314  0.50877530  0.49122470  1
  Pt  Pt16  1  0.04631314  0.49122470  0.98244939  1
  Pt  Pt17  1  0.54631314  0.98244939  0.49122470  1
  Pt  Pt18  1  0.04631314  0.49122470  0.50877530  1
  Pt  Pt19  1  0.04631314  0.01755061  0.50877530  1
