# generated using pymatgen
data_Li2Nb(PO3)5
_symmetry_space_group_name_H-M   'P 1'
_cell_length_a   5.36533375
_cell_length_b   13.56458220
_cell_length_c   8.89206503
_cell_angle_alpha   90.00000000
_cell_angle_beta   101.97499006
_cell_angle_gamma   90.00000000
_symmetry_Int_Tables_number   1
_chemical_formula_structural   Li2Nb(PO3)5
_chemical_formula_sum   'Li4 Nb2 P10 O30'
_cell_volume   633.06811415
_cell_formula_units_Z   2
loop_
 _symmetry_equiv_pos_site_id
 _symmetry_equiv_pos_as_xyz
  1  'x, y, z'
loop_
 _atom_site_type_symbol
 _atom_site_label
 _atom_site_symmetry_multiplicity
 _atom_site_fract_x
 _atom_site_fract_y
 _atom_site_fract_z
 _atom_site_occupancy
  Li  Li0  1  0.05679602  0.12152650  0.08663227  1
  Li  Li1  1  0.05679602  0.37847350  0.08663227  1
  Li  Li2  1  0.94320398  0.62152650  0.91336773  1
  Li  Li3  1  0.94320398  0.87847350  0.91336773  1
  Nb  Nb4  1  0.50000000  0.00000000  0.50000000  1
  Nb  Nb5  1  0.50000000  0.50000000  0.50000000  1
  P  P6  1  0.99583225  0.64179656  0.48534695  1
  P  P7  1  0.99583225  0.85820344  0.48534695  1
  P  P8  1  0.33652609  0.07792072  0.81893119  1
  P  P9  1  0.33652609  0.42207928  0.81893119  1
  P  P10  1  0.45799765  0.75000000  0.98376404  1
  P  P11  1  0.54200235  0.25000000  0.01623596  1
  P  P12  1  0.66347391  0.57792072  0.18106881  1
  P  P13  1  0.66347391  0.92207928  0.18106881  1
  P  P14  1  0.00416775  0.35820344  0.51465305  1
  P  P15  1  0.00416775  0.14179656  0.51465305  1
  O  O16  1  0.06282072  0.25000000  0.46111257  1
  O  O17  1  0.18610643  0.03785267  0.92854630  1
  O  O18  1  0.18610643  0.46214733  0.92854630  1
  O  O19  1  0.19739684  0.75000000  0.88348942  1
  O  O20  1  0.14957116  0.14347894  0.69047827  1
  O  O21  1  0.14957116  0.35652106  0.69047827  1
  O  O22  1  0.12619019  0.42648874  0.41725834  1
  O  O23  1  0.12619019  0.07351126  0.41725834  1
  O  O24  1  0.27819757  0.63205943  0.48994346  1
  O  O25  1  0.27819757  0.86794057  0.48994346  1
  O  O26  1  0.54146052  0.15816610  0.89730259  1
  O  O27  1  0.54146052  0.34183390  0.89730259  1
  O  O28  1  0.48490717  0.00771681  0.73748408  1
  O  O29  1  0.48490717  0.49228319  0.73748408  1
  O  O30  1  0.29979552  0.25000000  0.07615114  1
  O  O31  1  0.70020448  0.75000000  0.92384886  1
  O  O32  1  0.51509283  0.50771681  0.26251592  1
  O  O33  1  0.51509283  0.99228319  0.26251592  1
  O  O34  1  0.45853948  0.65816610  0.10269741  1
  O  O35  1  0.45853948  0.84183390  0.10269741  1
  O  O36  1  0.72180243  0.13205943  0.51005654  1
  O  O37  1  0.72180243  0.36794057  0.51005654  1
  O  O38  1  0.87380981  0.57351126  0.58274166  1
  O  O39  1  0.87380981  0.92648874  0.58274166  1
  O  O40  1  0.85042884  0.64347894  0.30952173  1
  O  O41  1  0.85042884  0.85652106  0.30952173  1
  O  O42  1  0.80260316  0.25000000  0.11651058  1
  O  O43  1  0.81389357  0.53785267  0.07145370  1
  O  O44  1  0.81389357  0.96214733  0.07145370  1
  O  O45  1  0.93717928  0.75000000  0.53888743  1
