# generated using pymatgen
data_LiCuS
_symmetry_space_group_name_H-M   'P 1'
_cell_length_a   4.09975365
_cell_length_b   6.17385232
_cell_length_c   3.82945688
_cell_angle_alpha   90.00000000
_cell_angle_beta   90.00000000
_cell_angle_gamma   90.00000000
_symmetry_Int_Tables_number   1
_chemical_formula_structural   LiCuS
_chemical_formula_sum   'Li2 Cu2 S2'
_cell_volume   96.92843077
_cell_formula_units_Z   2
loop_
 _symmetry_equiv_pos_site_id
 _symmetry_equiv_pos_as_xyz
  1  'x, y, z'
loop_
 _atom_site_type_symbol
 _atom_site_label
 _atom_site_symmetry_multiplicity
 _atom_site_fract_x
 _atom_site_fract_y
 _atom_site_fract_z
 _atom_site_occupancy
  Li  Li0  1  0.47666102  0.01578233  0.00000000  1
  Li  Li1  1  0.52333898  0.51578233  0.50000000  1
  Cu  Cu2  1  0.94358689  0.33469118  0.00000000  1
  Cu  Cu3  1  0.05641311  0.83469118  0.50000000  1
  S  S4  1  0.19337084  0.65730648  0.00000000  1
  S  S5  1  0.80662916  0.15730648  0.50000000  1
