# generated using pymatgen
data_Li3NiPCO7
_symmetry_space_group_name_H-M   'P 1'
_cell_length_a   8.50219526
_cell_length_b   9.76934357
_cell_length_c   6.34142763
_cell_angle_alpha   90.00000000
_cell_angle_beta   90.00000000
_cell_angle_gamma   84.95494476
_symmetry_Int_Tables_number   1
_chemical_formula_structural   Li3NiPCO7
_chemical_formula_sum   'Li12 Ni4 P4 C4 O28'
_cell_volume   524.68386722
_cell_formula_units_Z   4
loop_
 _symmetry_equiv_pos_site_id
 _symmetry_equiv_pos_as_xyz
  1  'x, y, z'
loop_
 _atom_site_type_symbol
 _atom_site_label
 _atom_site_symmetry_multiplicity
 _atom_site_fract_x
 _atom_site_fract_y
 _atom_site_fract_z
 _atom_site_occupancy
  Li  Li0  1  0.10013926  0.38335484  0.25130031  1
  Li  Li1  1  0.10013926  0.88335484  0.24869969  1
  Li  Li2  1  0.27956061  0.11935648  0.00970167  1
  Li  Li3  1  0.27956061  0.61935648  0.49029833  1
  Li  Li4  1  0.34785384  0.39017694  0.74728960  1
  Li  Li5  1  0.34785384  0.89017694  0.75271040  1
  Li  Li6  1  0.65214616  0.10982306  0.24728960  1
  Li  Li7  1  0.65214616  0.60982306  0.25271040  1
  Li  Li8  1  0.72043939  0.38064352  0.50970167  1
  Li  Li9  1  0.72043939  0.88064352  0.99029833  1
  Li  Li10  1  0.89986074  0.11664516  0.75130031  1
  Li  Li11  1  0.89986074  0.61664516  0.74869969  1
  Ni  Ni12  1  0.27300805  0.12516779  0.49055147  1
  Ni  Ni13  1  0.27300805  0.62516779  0.00944853  1
  Ni  Ni14  1  0.72699295  0.37483221  0.99055147  1
  Ni  Ni15  1  0.72699295  0.87483221  0.50944853  1
  P  P16  1  0.40915815  0.36054109  0.25188196  1
  P  P17  1  0.40915815  0.86054109  0.24811804  1
  P  P18  1  0.59084185  0.13945891  0.75188196  1
  P  P19  1  0.59084185  0.63945891  0.74811804  1
  C  C20  1  0.03861359  0.35226576  0.75047059  1
  C  C21  1  0.03861359  0.85226576  0.74952941  1
  C  C22  1  0.96138641  0.14773424  0.25047059  1
  C  C23  1  0.96138641  0.64773424  0.24952941  1
  O  O24  1  0.06928692  0.47705439  0.75566889  1
  O  O25  1  0.11000112  0.18041146  0.26244010  1
  O  O26  1  0.06928692  0.97705439  0.74433111  1
  O  O27  1  0.14832988  0.25150975  0.73349289  1
  O  O28  1  0.11000112  0.68041146  0.23755990  1
  O  O29  1  0.14832988  0.75150975  0.76650711  1
  O  O30  1  0.30894761  0.41580813  0.05799573  1
  O  O31  1  0.31554665  0.41719301  0.44451479  1
  O  O32  1  0.31554665  0.91719301  0.05548521  1
  O  O33  1  0.30894761  0.91580813  0.44200427  1
  O  O34  1  0.41991333  0.09552145  0.74113996  1
  O  O35  1  0.41898310  0.19935188  0.25620168  1
  O  O36  1  0.41991333  0.59552145  0.75886004  1
  O  O37  1  0.41898310  0.69935188  0.24379832  1
  O  O38  1  0.58101690  0.30064812  0.75620168  1
  O  O39  1  0.58008667  0.40447855  0.24113996  1
  O  O40  1  0.58101690  0.80064812  0.74379832  1
  O  O41  1  0.58008667  0.90447855  0.25886004  1
  O  O42  1  0.68445335  0.08280699  0.94451479  1
  O  O43  1  0.69105239  0.08419187  0.55799573  1
  O  O44  1  0.68445335  0.58280699  0.55548521  1
  O  O45  1  0.69105239  0.58419187  0.94200427  1
  O  O46  1  0.85167012  0.24849025  0.23349289  1
  O  O47  1  0.88999888  0.31958854  0.76244010  1
  O  O48  1  0.85167012  0.74849025  0.26650711  1
  O  O49  1  0.93071308  0.02294561  0.25566889  1
  O  O50  1  0.88999888  0.81958854  0.73755990  1
  O  O51  1  0.93071308  0.52294561  0.24433111  1
