# generated using pymatgen
data_LiFeSiO4
_symmetry_space_group_name_H-M   'P 1'
_cell_length_a   8.67365065
_cell_length_b   8.67365065
_cell_length_c   8.67365029
_cell_angle_alpha   107.98245384
_cell_angle_beta   107.98245375
_cell_angle_gamma   107.98245799
_symmetry_Int_Tables_number   1
_chemical_formula_structural   LiFeSiO4
_chemical_formula_sum   'Li6 Fe6 Si6 O24'
_cell_volume   528.19910009
_cell_formula_units_Z   6
loop_
 _symmetry_equiv_pos_site_id
 _symmetry_equiv_pos_as_xyz
  1  'x, y, z'
loop_
 _atom_site_type_symbol
 _atom_site_label
 _atom_site_symmetry_multiplicity
 _atom_site_fract_x
 _atom_site_fract_y
 _atom_site_fract_z
 _atom_site_occupancy
  Li  Li0  1  0.12700836  0.91323720  0.74152498  1
  Li  Li1  1  0.25847502  0.87299164  0.08676280  1
  Li  Li2  1  0.08676280  0.25847502  0.87299164  1
  Li  Li3  1  0.91323720  0.74152498  0.12700836  1
  Li  Li4  1  0.74152498  0.12700836  0.91323720  1
  Li  Li5  1  0.87299164  0.08676280  0.25847502  1
  Fe  Fe6  1  0.39347740  0.80796757  0.57420700  1
  Fe  Fe7  1  0.19203243  0.42579300  0.60652260  1
  Fe  Fe8  1  0.42579300  0.60652260  0.19203243  1
  Fe  Fe9  1  0.57420700  0.39347740  0.80796757  1
  Fe  Fe10  1  0.80796757  0.57420700  0.39347740  1
  Fe  Fe11  1  0.60652260  0.19203243  0.42579300  1
  Si  Si12  1  0.05199748  0.46011103  0.22920336  1
  Si  Si13  1  0.53988897  0.77079664  0.94800252  1
  Si  Si14  1  0.77079664  0.94800252  0.53988897  1
  Si  Si15  1  0.22920336  0.05199748  0.46011103  1
  Si  Si16  1  0.46011103  0.22920336  0.05199748  1
  Si  Si17  1  0.94800252  0.53988897  0.77079664  1
  O  O18  1  0.31918633  0.02633714  0.98073889  1
  O  O19  1  0.01926111  0.68081367  0.97366286  1
  O  O20  1  0.25749130  0.93658166  0.57877502  1
  O  O21  1  0.42122498  0.74250870  0.06341834  1
  O  O22  1  0.63298373  0.95169061  0.63740056  1
  O  O23  1  0.27574258  0.61411755  0.32267851  1
  O  O24  1  0.06341834  0.42122498  0.74250870  1
  O  O25  1  0.38588245  0.67732149  0.72425742  1
  O  O26  1  0.04830939  0.36259944  0.36701627  1
  O  O27  1  0.36259944  0.36701627  0.04830939  1
  O  O28  1  0.67732149  0.72425742  0.38588245  1
  O  O29  1  0.97366286  0.01926111  0.68081367  1
  O  O30  1  0.02633714  0.98073889  0.31918633  1
  O  O31  1  0.32267851  0.27574258  0.61411755  1
  O  O32  1  0.63740056  0.63298373  0.95169061  1
  O  O33  1  0.95169061  0.63740056  0.63298373  1
  O  O34  1  0.61411755  0.32267851  0.27574258  1
  O  O35  1  0.93658166  0.57877502  0.25749130  1
  O  O36  1  0.72425742  0.38588245  0.67732149  1
  O  O37  1  0.36701627  0.04830939  0.36259944  1
  O  O38  1  0.57877502  0.25749130  0.93658166  1
  O  O39  1  0.74250870  0.06341834  0.42122498  1
  O  O40  1  0.98073889  0.31918633  0.02633714  1
  O  O41  1  0.68081367  0.97366286  0.01926111  1
