# generated using pymatgen
data_LiNi3P3O11
_symmetry_space_group_name_H-M   'P 1'
_cell_length_a   7.72916675
_cell_length_b   8.94507179
_cell_length_c   11.19640119
_cell_angle_alpha   90.00000000
_cell_angle_beta   98.34485435
_cell_angle_gamma   90.00000000
_symmetry_Int_Tables_number   1
_chemical_formula_structural   LiNi3P3O11
_chemical_formula_sum   'Li4 Ni12 P12 O44'
_cell_volume   765.90047897
_cell_formula_units_Z   4
loop_
 _symmetry_equiv_pos_site_id
 _symmetry_equiv_pos_as_xyz
  1  'x, y, z'
loop_
 _atom_site_type_symbol
 _atom_site_label
 _atom_site_symmetry_multiplicity
 _atom_site_fract_x
 _atom_site_fract_y
 _atom_site_fract_z
 _atom_site_occupancy
  Li  Li0  1  0.11277490  0.26128788  0.50396102  1
  Li  Li1  1  0.11277490  0.23871212  0.00396102  1
  Li  Li2  1  0.88722510  0.76128788  0.99603898  1
  Li  Li3  1  0.88722510  0.73871212  0.49603898  1
  Ni  Ni4  1  0.07480216  0.62891897  0.75940989  1
  Ni  Ni5  1  0.07480216  0.87108103  0.25940989  1
  Ni  Ni6  1  0.45139789  0.63935055  0.93130287  1
  Ni  Ni7  1  0.43187754  0.62259713  0.65903240  1
  Ni  Ni8  1  0.45139789  0.86064945  0.43130287  1
  Ni  Ni9  1  0.56812246  0.12259713  0.84096760  1
  Ni  Ni10  1  0.43187754  0.87740287  0.15903240  1
  Ni  Ni11  1  0.54860211  0.13935055  0.56869713  1
  Ni  Ni12  1  0.56812246  0.37740287  0.34096760  1
  Ni  Ni13  1  0.54860211  0.36064945  0.06869713  1
  Ni  Ni14  1  0.92519784  0.12891897  0.74059011  1
  Ni  Ni15  1  0.92519784  0.37108103  0.24059011  1
  P  P16  1  0.21568990  0.93071411  0.90327755  1
  P  P17  1  0.22327385  0.93590232  0.64702376  1
  P  P18  1  0.21568990  0.56928589  0.40327755  1
  P  P19  1  0.31495115  0.32385211  0.79002393  1
  P  P20  1  0.22327385  0.56409768  0.14702376  1
  P  P21  1  0.31495115  0.17614789  0.29002393  1
  P  P22  1  0.68504885  0.82385211  0.70997607  1
  P  P23  1  0.77672615  0.43590232  0.85297624  1
  P  P24  1  0.68504885  0.67614789  0.20997607  1
  P  P25  1  0.78431010  0.43071411  0.59672245  1
  P  P26  1  0.77672615  0.06409768  0.35297624  1
  P  P27  1  0.78431010  0.06928589  0.09672245  1
  O  O28  1  0.03568017  0.00328336  0.88202432  1
  O  O29  1  0.05135588  0.01959574  0.62137275  1
  O  O30  1  0.03568017  0.49671664  0.38202432  1
  O  O31  1  0.12575760  0.27522666  0.76942192  1
  O  O32  1  0.21480472  0.75723765  0.89777152  1
  O  O33  1  0.05135588  0.48040426  0.12137275  1
  O  O34  1  0.12575760  0.22477334  0.26942192  1
  O  O35  1  0.20806751  0.76347574  0.64640923  1
  O  O36  1  0.21480472  0.74276235  0.39777152  1
  O  O37  1  0.31854796  0.50201283  0.78436010  1
  O  O38  1  0.31556161  0.98067165  0.78631281  1
  O  O39  1  0.20806751  0.73652426  0.14640923  1
  O  O40  1  0.32545041  0.50994917  0.51588785  1
  O  O41  1  0.40472723  0.26670424  0.91745961  1
  O  O42  1  0.34934585  0.98710502  0.56071581  1
  O  O43  1  0.31854796  0.99798717  0.28436010  1
  O  O44  1  0.31556161  0.51932835  0.28631281  1
  O  O45  1  0.42910680  0.25404397  0.70077730  1
  O  O46  1  0.32545041  0.99005083  0.01588785  1
  O  O47  1  0.40472723  0.23329576  0.41745961  1
  O  O48  1  0.34934585  0.51289498  0.06071581  1
  O  O49  1  0.42910680  0.24595603  0.20077730  1
  O  O50  1  0.57089320  0.75404397  0.79922270  1
  O  O51  1  0.65065415  0.48710502  0.93928419  1
  O  O52  1  0.59527277  0.76670424  0.58254039  1
  O  O53  1  0.67454959  0.00994917  0.98411215  1
  O  O54  1  0.57089320  0.74595603  0.29922270  1
  O  O55  1  0.68443839  0.48067165  0.71368719  1
  O  O56  1  0.68145204  0.00201283  0.71563990  1
  O  O57  1  0.65065415  0.01289498  0.43928419  1
  O  O58  1  0.59527277  0.73329576  0.08254039  1
  O  O59  1  0.67454959  0.49005083  0.48411215  1
  O  O60  1  0.79193249  0.26347574  0.85359077  1
  O  O61  1  0.68443839  0.01932835  0.21368719  1
  O  O62  1  0.68145204  0.49798717  0.21563990  1
  O  O63  1  0.78519528  0.25723765  0.60222848  1
  O  O64  1  0.79193249  0.23652426  0.35359077  1
  O  O65  1  0.87424240  0.77522666  0.73057808  1
  O  O66  1  0.94864412  0.51959574  0.87862725  1
  O  O67  1  0.78519528  0.24276235  0.10222848  1
  O  O68  1  0.87424240  0.72477334  0.23057808  1
  O  O69  1  0.96431983  0.50328336  0.61797568  1
  O  O70  1  0.94864412  0.98040426  0.37862725  1
  O  O71  1  0.96431983  0.99671664  0.11797568  1
