# generated using pymatgen
data_Li7Mn2(CoO4)3
_symmetry_space_group_name_H-M   'P 1'
_cell_length_a   3.00626378
_cell_length_b   14.45225950
_cell_length_c   5.01074655
_cell_angle_alpha   92.36660801
_cell_angle_beta   88.46528431
_cell_angle_gamma   91.24712061
_symmetry_Int_Tables_number   1
_chemical_formula_structural   Li7Mn2(CoO4)3
_chemical_formula_sum   'Li7 Mn2 Co3 O12'
_cell_volume   217.39319816
_cell_formula_units_Z   1
loop_
 _symmetry_equiv_pos_site_id
 _symmetry_equiv_pos_as_xyz
  1  'x, y, z'
loop_
 _atom_site_type_symbol
 _atom_site_label
 _atom_site_symmetry_multiplicity
 _atom_site_fract_x
 _atom_site_fract_y
 _atom_site_fract_z
 _atom_site_occupancy
  Li  Li0  1  -0.00099470  0.17675474  0.67662831  1
  Li  Li1  1  0.50857448  0.49344073  0.50063299  1
  Li  Li2  1  0.00266074  0.83002355  0.33366991  1
  Li  Li3  1  0.49081967  0.17645329  0.16508307  1
  Li  Li4  1  0.99471947  0.49383737  0.98984021  1
  Li  Li5  1  0.50274165  0.82987203  0.83446284  1
  Li  Li6  1  0.50065695  0.33459324  0.83391450  1
  Mn  Mn7  1  0.99870598  0.00181944  0.00111679  1
  Mn  Mn8  1  0.49836777  0.00155891  0.50086995  1
  Co  Co9  1  0.00146922  0.66347929  0.66540265  1
  Co  Co10  1  0.00024564  0.33453815  0.33347324  1
  Co  Co11  1  0.50197048  0.66369009  0.16604155  1
  O  O12  1  0.46006409  0.08097733  0.82599726  1
  O  O13  1  0.99679030  0.40847276  0.62783175  1
  O  O14  1  0.50746025  0.74200542  0.48965192  1
  O  O15  1  0.96001547  0.07822548  0.32880211  1
  O  O16  1  0.51373692  0.40562730  0.18642441  1
  O  O17  1  0.00762886  0.74157218  0.98828654  1
  O  O18  1  0.48664328  0.26282218  0.48121472  1
  O  O19  1  -0.00701600  0.58840951  0.33966330  1
  O  O20  1  0.53886251  0.92259565  0.17449772  1
  O  O21  1  0.00336593  0.26020491  0.03870642  1
  O  O22  1  0.49402195  0.58587180  0.84219291  1
  O  O23  1  0.03848907  0.92315464  0.67559494  1
