# generated using pymatgen
data_Li3VPCO7
_symmetry_space_group_name_H-M   'P 1'
_cell_length_a   8.51075505
_cell_length_b   4.98557300
_cell_length_c   13.24247665
_cell_angle_alpha   90.33769072
_cell_angle_beta   90.88387018
_cell_angle_gamma   85.07393076
_symmetry_Int_Tables_number   1
_chemical_formula_structural   Li3VPCO7
_chemical_formula_sum   'Li12 V4 P4 C4 O28'
_cell_volume   559.74346175
_cell_formula_units_Z   4
loop_
 _symmetry_equiv_pos_site_id
 _symmetry_equiv_pos_as_xyz
  1  'x, y, z'
loop_
 _atom_site_type_symbol
 _atom_site_label
 _atom_site_symmetry_multiplicity
 _atom_site_fract_x
 _atom_site_fract_y
 _atom_site_fract_z
 _atom_site_occupancy
  Li  Li0  1  0.09707583  0.77240740  0.12764723  1
  Li  Li1  1  0.10090627  0.77392428  0.63007665  1
  Li  Li2  1  0.28099461  0.24844269  0.51900331  1
  Li  Li3  1  0.27749457  0.25401350  0.24216236  1
  Li  Li4  1  0.28701727  0.23379207  0.73605381  1
  Li  Li5  1  0.35325677  0.77479888  0.86631264  1
  Li  Li6  1  0.71774520  0.75351612  0.97802119  1
  Li  Li7  1  0.71594879  0.75037161  0.26731718  1
  Li  Li8  1  0.72071991  0.74519562  0.49058587  1
  Li  Li9  1  0.71708503  0.74975882  0.76516465  1
  Li  Li10  1  0.90103645  0.22558471  0.37761230  1
  Li  Li11  1  0.89496381  0.23548544  0.86996961  1
  V  V12  1  0.25985354  0.24329462  0.99244819  1
  V  V13  1  0.32789019  0.79044818  0.37559053  1
  V  V14  1  0.66952480  0.20542264  0.12484115  1
  V  V15  1  0.67121552  0.20723704  0.62520873  1
  P  P16  1  0.41024211  0.72123213  0.12290413  1
  P  P17  1  0.40908147  0.72090078  0.62695850  1
  P  P18  1  0.58921936  0.27839248  0.37491685  1
  P  P19  1  0.58857816  0.27923739  0.87413916  1
  C  C20  1  0.03451213  0.69159274  0.37370604  1
  C  C21  1  0.04117888  0.71633366  0.88270043  1
  C  C22  1  0.96522402  0.30718991  0.62502538  1
  C  C23  1  0.96221186  0.30506370  0.12560413  1
  O  O24  1  0.06895041  0.96756889  0.88706506  1
  O  O25  1  0.07259070  0.93860441  0.37289540  1
  O  O26  1  0.10966997  0.36154655  0.12227993  1
  O  O27  1  0.11035751  0.36417069  0.62614278  1
  O  O28  1  0.14856225  0.49930131  0.37250025  1
  O  O29  1  0.15757484  0.52979049  0.88438351  1
  O  O30  1  0.30689635  0.82768382  0.53424027  1
  O  O31  1  0.31268830  0.83304123  0.03074994  1
  O  O32  1  0.30703323  0.81379182  0.21493823  1
  O  O33  1  0.30915994  0.82016745  0.71834106  1
  O  O34  1  0.42287434  0.17609532  0.37244858  1
  O  O35  1  0.42234528  0.17380626  0.87016765  1
  O  O36  1  0.43156090  0.40536207  0.62386968  1
  O  O37  1  0.42597263  0.40386660  0.11491874  1
  O  O38  1  0.56822645  0.59303160  0.37555291  1
  O  O39  1  0.57355002  0.59113698  0.87523558  1
  O  O40  1  0.57787272  0.81617536  0.12914478  1
  O  O41  1  0.57642526  0.82216541  0.62634868  1
  O  O42  1  0.69234616  0.17168573  0.46620499  1
  O  O43  1  0.69161852  0.17519128  0.28383567  1
  O  O44  1  0.69152073  0.17019497  0.78419957  1
  O  O45  1  0.68914127  0.16700939  0.96657325  1
  O  O46  1  0.85085102  0.49812917  0.12755080  1
  O  O47  1  0.85021920  0.49874089  0.62314537  1
  O  O48  1  0.88882380  0.63506102  0.37558750  1
  O  O49  1  0.89689913  0.64479988  0.87466434  1
  O  O50  1  0.92602660  0.05858098  0.12682568  1
  O  O51  1  0.92726391  0.05966001  0.62622078  1
