# generated using pymatgen
data_Li5Fe(P2O7)2
_symmetry_space_group_name_H-M   'P 1'
_cell_length_a   8.71647806
_cell_length_b   9.19847612
_cell_length_c   7.01211190
_cell_angle_alpha   79.35164357
_cell_angle_beta   109.94608014
_cell_angle_gamma   100.53892683
_symmetry_Int_Tables_number   1
_chemical_formula_structural   Li5Fe(P2O7)2
_chemical_formula_sum   'Li10 Fe2 P8 O28'
_cell_volume   515.00258313
_cell_formula_units_Z   2
loop_
 _symmetry_equiv_pos_site_id
 _symmetry_equiv_pos_as_xyz
  1  'x, y, z'
loop_
 _atom_site_type_symbol
 _atom_site_label
 _atom_site_symmetry_multiplicity
 _atom_site_fract_x
 _atom_site_fract_y
 _atom_site_fract_z
 _atom_site_occupancy
  Li  Li0  1  0.17965404  0.72977451  0.69098384  1
  Li  Li1  1  0.25452276  0.42080638  0.73926839  1
  Li  Li2  1  0.27044244  0.89563514  0.24015295  1
  Li  Li3  1  0.51888285  0.85614187  0.95161687  1
  Li  Li4  1  0.48652465  0.65385178  0.57831079  1
  Li  Li5  1  0.51347535  0.34614822  0.42168921  1
  Li  Li6  1  0.48111715  0.14385813  0.04838313  1
  Li  Li7  1  0.72955756  0.10436486  0.75984705  1
  Li  Li8  1  0.74547724  0.57919362  0.26073161  1
  Li  Li9  1  0.82034596  0.27022549  0.30901616  1
  Fe  Fe10  1  0.13997163  0.24319792  0.14000416  1
  Fe  Fe11  1  0.86002837  0.75680208  0.85999584  1
  P  P12  1  0.10935757  0.02845728  0.82566863  1
  P  P13  1  0.09937844  0.54998952  0.29332207  1
  P  P14  1  0.34118745  0.05103200  0.59382298  1
  P  P15  1  0.37682856  0.56859386  0.12937365  1
  P  P16  1  0.62317144  0.43140614  0.87062635  1
  P  P17  1  0.65881255  0.94896800  0.40617702  1
  P  P18  1  0.90062156  0.45001048  0.70667793  1
  P  P19  1  0.89064243  0.97154272  0.17433137  1
  O  O20  1  0.05139017  0.37032672  0.82628519  1
  O  O21  1  0.11455427  0.85777657  0.88316929  1
  O  O22  1  0.06366046  0.94113003  0.23329370  1
  O  O23  1  0.06645746  0.38075950  0.27460298  1
  O  O24  1  0.23324227  0.12115991  0.99386990  1
  O  O25  1  0.18070056  0.57908627  0.51460699  1
  O  O26  1  0.17616085  0.08258148  0.63362924  1
  O  O27  1  0.37661763  0.65453188  0.92229838  1
  O  O28  1  0.32122012  0.88879967  0.55864706  1
  O  O29  1  0.23319899  0.62892786  0.17979594  1
  O  O30  1  0.33689937  0.16724721  0.40301496  1
  O  O31  1  0.32948470  0.39843937  0.12558017  1
  O  O32  1  0.49079901  0.08007058  0.78482739  1
  O  O33  1  0.46495439  0.40812842  0.69176887  1
  O  O34  1  0.53504561  0.59187158  0.30823113  1
  O  O35  1  0.50920099  0.91992942  0.21517261  1
  O  O36  1  0.67051530  0.60156063  0.87441983  1
  O  O37  1  0.66310063  0.83275279  0.59698504  1
  O  O38  1  0.76680101  0.37107214  0.82020406  1
  O  O39  1  0.67877988  0.11120033  0.44135294  1
  O  O40  1  0.62338237  0.34546812  0.07770162  1
  O  O41  1  0.82383915  0.91741852  0.36637076  1
  O  O42  1  0.81929944  0.42091373  0.48539301  1
  O  O43  1  0.76675773  0.87884009  0.00613010  1
  O  O44  1  0.93354254  0.61924050  0.72539702  1
  O  O45  1  0.93633954  0.05886997  0.76670630  1
  O  O46  1  0.88544573  0.14222343  0.11683071  1
  O  O47  1  0.94860983  0.62967328  0.17371481  1
