# generated using pymatgen
data_Li3V4O11F
_symmetry_space_group_name_H-M   'P 1'
_cell_length_a   4.99064999
_cell_length_b   4.99140907
_cell_length_c   10.01822288
_cell_angle_alpha   89.49412659
_cell_angle_beta   97.97861076
_cell_angle_gamma   62.53267966
_symmetry_Int_Tables_number   1
_chemical_formula_structural   Li3V4O11F
_chemical_formula_sum   'Li3 V4 O11 F1'
_cell_volume   218.52768691
_cell_formula_units_Z   1
loop_
 _symmetry_equiv_pos_site_id
 _symmetry_equiv_pos_as_xyz
  1  'x, y, z'
loop_
 _atom_site_type_symbol
 _atom_site_label
 _atom_site_symmetry_multiplicity
 _atom_site_fract_x
 _atom_site_fract_y
 _atom_site_fract_z
 _atom_site_occupancy
  Li  Li0  1  0.54326466  0.49237419  0.01728390  1
  Li  Li1  1  0.22277658  0.89786835  0.47603155  1
  Li  Li2  1  0.87306295  0.90242459  0.02476507  1
  V  V3  1  0.44235975  0.11520450  0.76455497  1
  V  V4  1  0.24802392  0.49213199  0.27712893  1
  V  V5  1  0.80721749  0.46748207  0.73623812  1
  V  V6  1  0.57248188  0.84022893  0.22388284  1
  O  O7  1  0.05269035  0.20141129  0.64183921  1
  O  O8  1  0.10790086  0.45960726  0.84799277  1
  O  O9  1  0.32403012  0.13458315  0.34903260  1
  O  O10  1  0.72734046  0.21387704  0.85594476  1
  O  O11  1  0.52531926  0.16964033  0.13586657  1
  O  O12  1  0.26634169  0.78091132  0.13267880  1
  O  O13  1  0.48942526  0.83765964  0.87464185  1
  O  O14  1  0.55025969  0.54446820  0.36015488  1
  O  O15  1  0.65316394  0.84925522  0.64736461  1
  O  O16  1  0.86579057  0.56798031  0.13709497  1
  O  O17  1  0.95564048  0.75939933  0.35772230  1
  F  F18  1  0.41714812  0.48108327  0.64030830  1
