# generated using pymatgen
data_Li7(CoO3)2
_symmetry_space_group_name_H-M   'P 1'
_cell_length_a   5.27671636
_cell_length_b   5.59214637
_cell_length_c   5.76203905
_cell_angle_alpha   118.46543467
_cell_angle_beta   89.85052865
_cell_angle_gamma   88.48419586
_symmetry_Int_Tables_number   1
_chemical_formula_structural   Li7(CoO3)2
_chemical_formula_sum   'Li7 Co2 O6'
_cell_volume   149.39704837
_cell_formula_units_Z   1
loop_
 _symmetry_equiv_pos_site_id
 _symmetry_equiv_pos_as_xyz
  1  'x, y, z'
loop_
 _atom_site_type_symbol
 _atom_site_label
 _atom_site_symmetry_multiplicity
 _atom_site_fract_x
 _atom_site_fract_y
 _atom_site_fract_z
 _atom_site_occupancy
  Li  Li0  1  0.90932026  0.49989230  0.80758485  1
  Li  Li1  1  0.82850007  0.02278014  0.17149936  1
  Li  Li2  1  0.50877673  0.21825204  0.98163455  1
  Li  Li3  1  0.42897119  0.70867085  0.03839412  1
  Li  Li4  1  0.13610595  0.96251952  0.81210888  1
  Li  Li5  1  0.07572413  0.41327394  0.18360400  1
  Li  Li6  1  0.09106835  0.90002639  0.38388409  1
  Co  Co7  1  0.36179745  0.31793525  0.50824865  1
  Co  Co8  1  0.65423896  0.70933629  0.49722655  1
  O  O9  1  0.76775331  0.94343094  0.82099083  1
  O  O10  1  0.77662544  0.67709939  0.18103197  1
  O  O11  1  0.72761122  0.35425107  0.47339000  1
  O  O12  1  0.28820374  0.67331267  0.47900101  1
  O  O13  1  0.24010395  0.34553270  0.83967468  1
  O  O14  1  0.22346324  0.04680150  0.16707548  1
