# generated using pymatgen
data_Eu2Al2O5
_symmetry_space_group_name_H-M   'P 1'
_cell_length_a   7.58310313
_cell_length_b   3.77668011
_cell_length_c   3.77629195
_cell_angle_alpha   89.99324701
_cell_angle_beta   89.99750624
_cell_angle_gamma   89.99718275
_symmetry_Int_Tables_number   1
_chemical_formula_structural   Eu2Al2O5
_chemical_formula_sum   'Eu2 Al2 O5'
_cell_volume   108.14905344
_cell_formula_units_Z   1
loop_
 _symmetry_equiv_pos_site_id
 _symmetry_equiv_pos_as_xyz
  1  'x, y, z'
loop_
 _atom_site_type_symbol
 _atom_site_label
 _atom_site_symmetry_multiplicity
 _atom_site_fract_x
 _atom_site_fract_y
 _atom_site_fract_z
 _atom_site_occupancy
  Eu  Eu0  1  0.99999867  -0.00000015  0.99999406  1
  Eu  Eu1  1  0.49999475  0.99998889  0.99999724  1
  Al  Al2  1  0.26003458  0.50009226  0.50007946  1
  Al  Al3  1  0.73996493  0.49990719  0.49992245  1
  O  O4  1  0.22577215  0.49988059  -0.00003459  1
  O  O5  1  0.77422991  0.50012643  0.00003780  1
  O  O6  1  0.49999943  0.50000214  0.50000396  1
  O  O7  1  0.22592834  -0.00004741  0.49992185  1
  O  O8  1  0.77407523  0.00005006  0.50007776  1
