# generated using pymatgen
data_LiNi(PO3)4
_symmetry_space_group_name_H-M   'P 1'
_cell_length_a   7.47446310
_cell_length_b   7.47446310
_cell_length_c   18.24461740
_cell_angle_alpha   90.00000000
_cell_angle_beta   90.00000000
_cell_angle_gamma   100.64373615
_symmetry_Int_Tables_number   1
_chemical_formula_structural   LiNi(PO3)4
_chemical_formula_sum   'Li4 Ni4 P16 O48'
_cell_volume   1001.74583828
_cell_formula_units_Z   4
loop_
 _symmetry_equiv_pos_site_id
 _symmetry_equiv_pos_as_xyz
  1  'x, y, z'
loop_
 _atom_site_type_symbol
 _atom_site_label
 _atom_site_symmetry_multiplicity
 _atom_site_fract_x
 _atom_site_fract_y
 _atom_site_fract_z
 _atom_site_occupancy
  Li  Li0  1  0.20487141  0.11124823  0.39422706  1
  Li  Li1  1  0.88875177  0.79512859  0.60577294  1
  Li  Li2  1  0.79512859  0.88875177  0.89422706  1
  Li  Li3  1  0.11124823  0.20487141  0.10577294  1
  Ni  Ni4  1  0.57228853  0.96755867  0.63918633  1
  Ni  Ni5  1  0.03244133  0.42771147  0.36081367  1
  Ni  Ni6  1  0.42771147  0.03244133  0.13918633  1
  Ni  Ni7  1  0.96755867  0.57228853  0.86081367  1
  P  P8  1  0.04304820  0.76346418  0.10057623  1
  P  P9  1  0.23653582  0.95695180  0.89942377  1
  P  P10  1  0.29346451  0.77740513  0.75811156  1
  P  P11  1  0.22259487  0.70653549  0.24188844  1
  P  P12  1  0.37403614  0.62596386  0.50000000  1
  P  P13  1  0.24857443  0.34211801  0.93890885  1
  P  P14  1  0.65788199  0.75142557  0.06109115  1
  P  P15  1  0.35394719  0.35394719  0.25000000  1
  P  P16  1  0.64605281  0.64605281  0.75000000  1
  P  P17  1  0.34211801  0.24857443  0.56109115  1
  P  P18  1  0.75142557  0.65788199  0.43890885  1
  P  P19  1  0.62596386  0.37403614  0.00000000  1
  P  P20  1  0.77740513  0.29346451  0.74188844  1
  P  P21  1  0.70653549  0.22259487  0.25811156  1
  P  P22  1  0.76346418  0.04304820  0.39942377  1
  P  P23  1  0.95695180  0.23653582  0.60057623  1
  O  O24  1  0.04701363  0.84236448  0.89919691  1
  O  O25  1  0.15763552  0.95298637  0.10080309  1
  O  O26  1  0.34884057  0.94185184  0.96641955  1
  O  O27  1  0.05814816  0.65115943  0.03358045  1
  O  O28  1  0.32870692  0.89582712  0.23429985  1
  O  O29  1  0.10417288  0.67129308  0.76570015  1
  O  O30  1  0.08571559  0.65436397  0.17220853  1
  O  O31  1  0.34563603  0.91428441  0.82779147  1
  O  O32  1  0.11442678  0.66667509  0.31112083  1
  O  O33  1  0.33332491  0.88557322  0.68887917  1
  O  O34  1  0.41720375  0.80020559  0.54332412  1
  O  O35  1  0.19979441  0.58279625  0.45667588  1
  O  O36  1  0.50461187  0.80512030  0.10335974  1
  O  O37  1  0.19487970  0.49538813  0.89664026  1
  O  O38  1  0.35854822  0.56369116  0.23127817  1
  O  O39  1  0.43630884  0.64145178  0.76872183  1
  O  O40  1  0.78591338  0.83599370  0.38503334  1
  O  O41  1  0.16400630  0.21408662  0.61496666  1
  O  O42  1  0.53160276  0.61302978  0.44117893  1
  O  O43  1  0.38697022  0.46839724  0.55882107  1
  O  O44  1  0.69661017  0.75462997  0.68101926  1
  O  O45  1  0.24537003  0.30338983  0.31898074  1
  O  O46  1  0.16917413  0.29307916  0.01261974  1
  O  O47  1  0.70692084  0.83082587  0.98738026  1
  O  O48  1  0.29307916  0.16917413  0.48738026  1
  O  O49  1  0.83082587  0.70692084  0.51261974  1
  O  O50  1  0.30338983  0.24537003  0.18101926  1
  O  O51  1  0.75462997  0.69661017  0.81898074  1
  O  O52  1  0.61302978  0.53160276  0.05882107  1
  O  O53  1  0.46839724  0.38697022  0.94117893  1
  O  O54  1  0.21408662  0.16400630  0.88503334  1
  O  O55  1  0.83599370  0.78591338  0.11496666  1
  O  O56  1  0.64145178  0.43630884  0.73127817  1
  O  O57  1  0.56369116  0.35854822  0.26872183  1
  O  O58  1  0.80512030  0.50461187  0.39664026  1
  O  O59  1  0.49538813  0.19487970  0.60335974  1
  O  O60  1  0.80020559  0.41720375  0.95667588  1
  O  O61  1  0.58279625  0.19979441  0.04332412  1
  O  O62  1  0.66667509  0.11442678  0.18887917  1
  O  O63  1  0.88557322  0.33332491  0.81112083  1
  O  O64  1  0.65436397  0.08571559  0.32779147  1
  O  O65  1  0.91428441  0.34563603  0.67220853  1
  O  O66  1  0.89582712  0.32870692  0.26570015  1
  O  O67  1  0.67129308  0.10417288  0.73429985  1
  O  O68  1  0.65115943  0.05814816  0.46641955  1
  O  O69  1  0.94185184  0.34884057  0.53358045  1
  O  O70  1  0.95298637  0.15763552  0.39919691  1
  O  O71  1  0.84236448  0.04701363  0.60080309  1
