# generated using pymatgen
data_LiNi(PO3)4
_symmetry_space_group_name_H-M   'P 1'
_cell_length_a   7.60728299
_cell_length_b   13.15096396
_cell_length_c   9.63990480
_cell_angle_alpha   90.00000000
_cell_angle_beta   80.86442325
_cell_angle_gamma   90.00000000
_symmetry_Int_Tables_number   1
_chemical_formula_structural   LiNi(PO3)4
_chemical_formula_sum   'Li4 Ni4 P16 O48'
_cell_volume   952.17290968
_cell_formula_units_Z   4
loop_
 _symmetry_equiv_pos_site_id
 _symmetry_equiv_pos_as_xyz
  1  'x, y, z'
loop_
 _atom_site_type_symbol
 _atom_site_label
 _atom_site_symmetry_multiplicity
 _atom_site_fract_x
 _atom_site_fract_y
 _atom_site_fract_z
 _atom_site_occupancy
  Li  Li0  1  0.89003378  0.29121600  0.41351421  1
  Li  Li1  1  0.60996622  0.79121600  0.08648579  1
  Li  Li2  1  0.39003378  0.20878400  0.91351421  1
  Li  Li3  1  0.10996622  0.70878400  0.58648579  1
  Ni  Ni4  1  0.89901163  0.20420268  0.99812437  1
  Ni  Ni5  1  0.60098837  0.70420268  0.50187563  1
  Ni  Ni6  1  0.39901163  0.29579732  0.49812437  1
  Ni  Ni7  1  0.10098837  0.79579732  0.00187563  1
  P  P8  1  0.09093530  0.61236339  0.26408326  1
  P  P9  1  0.11131824  0.13506508  0.71149258  1
  P  P10  1  0.21068057  0.91505211  0.71997361  1
  P  P11  1  0.27523132  0.89855278  0.23633622  1
  P  P12  1  0.22476868  0.39855278  0.26366378  1
  P  P13  1  0.28931943  0.41505211  0.78002639  1
  P  P14  1  0.38868176  0.63506508  0.78850742  1
  P  P15  1  0.40906470  0.11236339  0.23591674  1
  P  P16  1  0.59093530  0.88763661  0.76408326  1
  P  P17  1  0.61131824  0.36493492  0.21149258  1
  P  P18  1  0.71068057  0.58494789  0.21997361  1
  P  P19  1  0.77523132  0.60144722  0.73633622  1
  P  P20  1  0.72476868  0.10144722  0.76366378  1
  P  P21  1  0.78931943  0.08494789  0.28002639  1
  P  P22  1  0.88868176  0.86493492  0.28850742  1
  P  P23  1  0.90906470  0.38763661  0.73591674  1
  O  O24  1  0.08918431  0.86626103  0.32727504  1
  O  O25  1  0.06961992  0.89289690  0.84641896  1
  O  O26  1  0.10503736  0.43596871  0.72397159  1
  O  O27  1  0.07153768  0.33522899  0.23169966  1
  O  O28  1  0.12158118  0.68539563  0.14369226  1
  O  O29  1  0.11086308  0.14152482  0.86837762  1
  O  O30  1  0.12597565  0.64579292  0.40448490  1
  O  O31  1  0.26226236  0.89557776  0.07995485  1
  O  O32  1  0.21278320  0.51378846  0.21302936  1
  O  O33  1  0.18052405  0.02505063  0.65483054  1
  O  O34  1  0.20956995  0.21558033  0.62216614  1
  O  O35  1  0.27627038  0.34038117  0.89802393  1
  O  O36  1  0.22372962  0.84038117  0.60197607  1
  O  O37  1  0.28721680  0.01378846  0.28697064  1
  O  O38  1  0.29043005  0.71558033  0.87783386  1
  O  O39  1  0.23773764  0.39557776  0.42004515  1
  O  O40  1  0.31947595  0.52505063  0.84516946  1
  O  O41  1  0.37402435  0.14579292  0.09551510  1
  O  O42  1  0.38913692  0.64152482  0.63162238  1
  O  O43  1  0.37841882  0.18539563  0.35630774  1
  O  O44  1  0.42846232  0.83522899  0.26830034  1
  O  O45  1  0.39496264  0.93596871  0.77602841  1
  O  O46  1  0.41081569  0.36626103  0.17272496  1
  O  O47  1  0.43038008  0.39289690  0.65358104  1
  O  O48  1  0.56961992  0.60710310  0.34641896  1
  O  O49  1  0.58918431  0.63373897  0.82727504  1
  O  O50  1  0.60503736  0.06403129  0.22397159  1
  O  O51  1  0.57153768  0.16477101  0.73169966  1
  O  O52  1  0.62158118  0.81460437  0.64369226  1
  O  O53  1  0.61086308  0.35847518  0.36837762  1
  O  O54  1  0.62597565  0.85420708  0.90448490  1
  O  O55  1  0.68052405  0.47494937  0.15483054  1
  O  O56  1  0.76226236  0.60442224  0.57995485  1
  O  O57  1  0.70956995  0.28441967  0.12216614  1
  O  O58  1  0.71278320  0.98621154  0.71302936  1
  O  O59  1  0.77627038  0.15961883  0.39802393  1
  O  O60  1  0.72372962  0.65961883  0.10197607  1
  O  O61  1  0.79043005  0.78441967  0.37783386  1
  O  O62  1  0.81947595  0.97494937  0.34516946  1
  O  O63  1  0.78721680  0.48621154  0.78697064  1
  O  O64  1  0.73773764  0.10442224  0.92004515  1
  O  O65  1  0.87402435  0.35420708  0.59551510  1
  O  O66  1  0.88913692  0.85847518  0.13162238  1
  O  O67  1  0.87841882  0.31460437  0.85630774  1
  O  O68  1  0.92846232  0.66477101  0.76830034  1
  O  O69  1  0.89496264  0.56403129  0.27602841  1
  O  O70  1  0.93038008  0.10710310  0.15358104  1
  O  O71  1  0.91081569  0.13373897  0.67272496  1
