# generated using pymatgen
data_Li3Mn3FeO8
_symmetry_space_group_name_H-M   'P 1'
_cell_length_a   10.23689330
_cell_length_b   10.40987017
_cell_length_c   14.65036917
_cell_angle_alpha   19.37148957
_cell_angle_beta   19.57189049
_cell_angle_gamma   33.51333728
_symmetry_Int_Tables_number   1
_chemical_formula_structural   Li3Mn3FeO8
_chemical_formula_sum   'Li3 Mn3 Fe1 O8'
_cell_volume   150.61906621
_cell_formula_units_Z   1
loop_
 _symmetry_equiv_pos_site_id
 _symmetry_equiv_pos_as_xyz
  1  'x, y, z'
loop_
 _atom_site_type_symbol
 _atom_site_label
 _atom_site_symmetry_multiplicity
 _atom_site_fract_x
 _atom_site_fract_y
 _atom_site_fract_z
 _atom_site_occupancy
  Li  Li0  1  0.99998665  0.49998182  0.50002419  1
  Li  Li1  1  0.49999481  0.99998316  0.50001606  1
  Li  Li2  1  0.49996708  0.49996286  0.50004725  1
  Mn  Mn3  1  -0.00001360  0.49998972  0.00002675  1
  Mn  Mn4  1  0.50002984  -0.00000719  -0.00000909  1
  Mn  Mn5  1  0.50009655  0.50008499  0.99984255  1
  Fe  Fe6  1  0.00000395  0.00004769  -0.00002860  1
  O  O7  1  0.04485117  -0.00000098  0.22003132  1
  O  O8  1  0.98287721  0.48629895  0.28336000  1
  O  O9  1  0.47875044  0.99868222  0.28034942  1
  O  O10  1  0.95516987  0.00000642  0.77996088  1
  O  O11  1  0.49469056  0.51149856  0.25848727  1
  O  O12  1  0.01709033  0.51370345  0.71664820  1
  O  O13  1  0.52119279  0.00127420  0.71971834  1
  O  O14  1  0.50531336  0.48849512  0.74152545  1
