# generated using pymatgen
data_La18Ni12O41
_symmetry_space_group_name_H-M   'P 1'
_cell_length_a   11.82995374
_cell_length_b   7.78940574
_cell_length_c   11.82995374
_cell_angle_alpha   81.02382653
_cell_angle_beta   62.74725404
_cell_angle_gamma   98.97617347
_symmetry_Int_Tables_number   1
_chemical_formula_structural   La18Ni12O41
_chemical_formula_sum   'La18 Ni12 O41'
_cell_volume   924.55948429
_cell_formula_units_Z   1
loop_
 _symmetry_equiv_pos_site_id
 _symmetry_equiv_pos_as_xyz
  1  'x, y, z'
loop_
 _atom_site_type_symbol
 _atom_site_label
 _atom_site_symmetry_multiplicity
 _atom_site_fract_x
 _atom_site_fract_y
 _atom_site_fract_z
 _atom_site_occupancy
  La  La0  1  0.81687065  0.24001099  0.82582338  1
  La  La1  1  0.82434422  0.75911651  0.81568783  1
  La  La2  1  0.50931365  0.90953632  0.84850979  1
  La  La3  1  0.51743181  0.42377860  0.84089735  1
  La  La4  1  0.84797784  0.08950569  0.51034599  1
  La  La5  1  0.84222394  0.57545146  0.51819063  1
  La  La6  1  0.99771162  0.75256763  0.00228838  1
  La  La7  1  0.67366425  0.06621328  0.32633575  1
  La  La8  1  0.32231762  0.89324027  0.67768238  1
  La  La9  1  0.32428293  0.42458082  0.67571707  1
  La  La10  1  0.66808904  0.59230693  0.33191096  1
  La  La11  1  0.00172128  0.25530700  0.99827872  1
  La  La12  1  0.15149021  0.90953632  0.49068635  1
  La  La13  1  0.48180937  0.57545146  0.15777606  1
  La  La14  1  0.15910265  0.42377860  0.48256819  1
  La  La15  1  0.48965401  0.08950569  0.15202216  1
  La  La16  1  0.17417662  0.24001099  0.18312935  1
  La  La17  1  0.18431217  0.75911651  0.17565578  1
  Ni  Ni18  1  0.26367185  0.58215360  0.93437384  1
  Ni  Ni19  1  0.93293867  0.91505224  0.26535067  1
  Ni  Ni20  1  0.59787884  0.25081931  0.59628233  1
  Ni  Ni21  1  0.59806059  0.75121808  0.59530467  1
  Ni  Ni22  1  0.26504686  0.08529248  0.92755176  1
  Ni  Ni23  1  0.92959278  0.41772333  0.26429047  1
  Ni  Ni24  1  0.07244724  0.08529248  0.73495314  1
  Ni  Ni25  1  0.06562616  0.58215360  0.73632815  1
  Ni  Ni26  1  0.73464933  0.91505224  0.06706133  1
  Ni  Ni27  1  0.40371767  0.25081931  0.40212116  1
  Ni  Ni28  1  0.73570953  0.41772333  0.07040722  1
  Ni  Ni29  1  0.40469533  0.75121808  0.40193941  1
  O  O30  1  0.91316532  0.00141794  0.90871790  1
  O  O31  1  0.88389296  0.49737248  0.89431806  1
  O  O32  1  0.64645820  0.94715436  0.94252494  1
  O  O33  1  0.97900950  0.61990202  0.61148603  1
  O  O34  1  0.95164673  0.04870431  0.63861304  1
  O  O35  1  0.60521862  0.38077848  0.98390525  1
  O  O36  1  0.72210900  0.28489795  0.69209133  1
  O  O37  1  0.68654012  0.71754500  0.72308860  1
  O  O38  1  0.43620031  0.16718955  0.76172974  1
  O  O39  1  0.27699822  0.32873988  0.94075047  1
  O  O40  1  0.77889051  0.83376151  0.44266950  1
  O  O41  1  0.60275237  0.00980798  0.60301383  1
  O  O42  1  0.93986345  0.65290090  0.27801081  1
  O  O43  1  0.58054112  0.48912850  0.58468296  1
  O  O44  1  0.25204755  0.83830073  0.91911423  1
  O  O45  1  0.41970272  0.66794158  0.75440142  1
  O  O46  1  0.92258261  0.17952794  0.25294852  1
  O  O47  1  0.74747051  0.33027722  0.41797086  1
  O  O48  1  0.14732205  0.54221663  0.85267795  1
  O  O49  1  0.81192695  0.87980024  0.18807305  1
  O  O50  1  0.18160944  0.12567384  0.81839056  1
  O  O51  1  0.52738212  0.79367997  0.47261788  1
  O  O52  1  0.86194635  0.46593751  0.13805365  1
  O  O53  1  0.41531704  0.48912850  0.41945888  1
  O  O54  1  0.74705148  0.17952794  0.07741739  1
  O  O55  1  0.24559858  0.66794158  0.58029728  1
  O  O56  1  0.58202914  0.33027722  0.25252949  1
  O  O57  1  0.08088577  0.83830073  0.74795245  1
  O  O58  1  0.23827026  0.16718955  0.56379969  1
  O  O59  1  0.55733050  0.83376151  0.22110949  1
  O  O60  1  0.05924953  0.32873988  0.72300178  1
  O  O61  1  0.39698617  0.00980798  0.39724763  1
  O  O62  1  0.72198919  0.65290090  0.06013655  1
  O  O63  1  0.30790867  0.28489795  0.27789100  1
  O  O64  1  0.27691140  0.71754500  0.31345988  1
  O  O65  1  0.05747506  0.94715436  0.35354180  1
  O  O66  1  0.38851397  0.61990202  0.02099050  1
  O  O67  1  0.01609475  0.38077848  0.39478138  1
  O  O68  1  0.36138696  0.04870431  0.04835327  1
  O  O69  1  0.10568194  0.49737248  0.11610704  1
  O  O70  1  0.09128210  0.00141794  0.08683468  1
