# generated using pymatgen
data_Li7Mn2(CoO4)3
_symmetry_space_group_name_H-M   'P 1'
_cell_length_a   3.00348246
_cell_length_b   14.43399184
_cell_length_c   5.00821330
_cell_angle_alpha   92.33248633
_cell_angle_beta   87.88025008
_cell_angle_gamma   91.68430726
_symmetry_Int_Tables_number   1
_chemical_formula_structural   Li7Mn2(CoO4)3
_chemical_formula_sum   'Li7 Mn2 Co3 O12'
_cell_volume   216.70436675
_cell_formula_units_Z   1
loop_
 _symmetry_equiv_pos_site_id
 _symmetry_equiv_pos_as_xyz
  1  'x, y, z'
loop_
 _atom_site_type_symbol
 _atom_site_label
 _atom_site_symmetry_multiplicity
 _atom_site_fract_x
 _atom_site_fract_y
 _atom_site_fract_z
 _atom_site_occupancy
  Li  Li0  1  0.99873712  0.16646879  0.66283968  1
  Li  Li1  1  0.50198728  0.50821252  0.50544113  1
  Li  Li2  1  0.00692400  0.82491331  0.33522850  1
  Li  Li3  1  0.50330020  0.16856519  0.17162406  1
  Li  Li4  1  0.99291570  0.50847252  0.00071824  1
  Li  Li5  1  0.49502875  0.82205978  0.82107208  1
  Li  Li6  1  0.99970319  0.66635492  0.66676381  1
  Mn  Mn7  1  0.00164320  0.99883024  0.99932484  1
  Mn  Mn8  1  0.49890562  0.33447843  0.83380969  1
  Co  Co9  1  0.50193788  0.99836562  0.49970339  1
  Co  Co10  1  0.99803719  0.33532751  0.33380041  1
  Co  Co11  1  0.49990828  0.66694188  0.16718700  1
  O  O12  1  0.47563957  0.07505355  0.82425747  1
  O  O13  1  0.96647951  0.41366719  0.65602286  1
  O  O14  1  0.49436225  0.74173855  0.46151182  1
  O  O15  1  0.96649639  0.07524042  0.33091885  1
  O  O16  1  0.51074691  0.41007084  0.16186293  1
  O  O17  1  0.01328819  0.73976924  0.01641754  1
  O  O18  1  0.49126201  0.25624692  0.50878590  1
  O  O19  1  0.98682792  0.59472897  0.31722316  1
  O  O20  1  0.52419704  0.92477804  0.17210493  1
  O  O21  1  0.03303352  0.25471281  0.01146255  1
  O  O22  1  0.50585203  0.59250551  0.87374069  1
  O  O23  1  0.03278626  0.92249722  0.66817848  1
