# generated using pymatgen
data_Li3Cr3FeO8
_symmetry_space_group_name_H-M   'P 1'
_cell_length_a   10.34813730
_cell_length_b   10.34547023
_cell_length_c   14.66150292
_cell_angle_alpha   19.14866679
_cell_angle_beta   19.22577381
_cell_angle_gamma   33.06936419
_symmetry_Int_Tables_number   1
_chemical_formula_structural   Li3Cr3FeO8
_chemical_formula_sum   'Li3 Cr3 Fe1 O8'
_cell_volume   146.85582254
_cell_formula_units_Z   1
loop_
 _symmetry_equiv_pos_site_id
 _symmetry_equiv_pos_as_xyz
  1  'x, y, z'
loop_
 _atom_site_type_symbol
 _atom_site_label
 _atom_site_symmetry_multiplicity
 _atom_site_fract_x
 _atom_site_fract_y
 _atom_site_fract_z
 _atom_site_occupancy
  Li  Li0  1  0.00000313  0.49999247  0.49999981  1
  Li  Li1  1  0.50000329  0.99999834  0.49999718  1
  Li  Li2  1  0.49999646  0.49999241  0.50000624  1
  Cr  Cr3  1  0.00001796  0.50004306  -0.00002081  1
  Cr  Cr4  1  0.49997847  0.00002489  0.99999419  1
  Cr  Cr5  1  0.50004593  0.50000256  0.99997064  1
  Fe  Fe6  1  0.00000457  0.99999027  -0.00000172  1
  O  O7  1  -0.00010851  0.99910730  0.25952311  1
  O  O8  1  -0.00005915  0.52815502  0.24302446  1
  O  O9  1  0.52298177  0.99900036  0.24715628  1
  O  O10  1  0.00009390  0.00089698  0.74048400  1
  O  O11  1  0.47433450  0.47320186  0.29681126  1
  O  O12  1  0.00003814  0.47182922  0.75699636  1
  O  O13  1  0.47700596  0.00097550  0.75286445  1
  O  O14  1  0.52566359  0.52679074  0.70319554  1
