# generated using pymatgen
data_LiCoPO4
_symmetry_space_group_name_H-M   'P 1'
_cell_length_a   8.49532952
_cell_length_b   7.52190290
_cell_length_c   14.63559849
_cell_angle_alpha   90.00000000
_cell_angle_beta   90.31332936
_cell_angle_gamma   90.00000000
_symmetry_Int_Tables_number   1
_chemical_formula_structural   LiCoPO4
_chemical_formula_sum   'Li12 Co12 P12 O48'
_cell_volume   935.21603504
_cell_formula_units_Z   12
loop_
 _symmetry_equiv_pos_site_id
 _symmetry_equiv_pos_as_xyz
  1  'x, y, z'
loop_
 _atom_site_type_symbol
 _atom_site_label
 _atom_site_symmetry_multiplicity
 _atom_site_fract_x
 _atom_site_fract_y
 _atom_site_fract_z
 _atom_site_occupancy
  Li  Li0  1  0.06873158  0.66429704  0.40536665  1
  Li  Li1  1  0.07477657  0.82557729  0.75995993  1
  Li  Li2  1  0.09676142  0.66450243  0.08381929  1
  Li  Li3  1  0.40323858  0.16450243  0.41618071  1
  Li  Li4  1  0.42522343  0.32557729  0.74004007  1
  Li  Li5  1  0.43126842  0.16429704  0.09463335  1
  Li  Li6  1  0.56873158  0.83570296  0.90536665  1
  Li  Li7  1  0.57477657  0.67442271  0.25995993  1
  Li  Li8  1  0.59676142  0.83549757  0.58381929  1
  Li  Li9  1  0.90323858  0.33549757  0.91618071  1
  Li  Li10  1  0.92522343  0.17442271  0.24004007  1
  Li  Li11  1  0.93126842  0.33570296  0.59463335  1
  Co  Co12  1  0.24294297  0.95189719  0.92598056  1
  Co  Co13  1  0.24008370  0.04059790  0.58570157  1
  Co  Co14  1  0.25481302  0.40785694  0.25187381  1
  Co  Co15  1  0.24518698  0.90785694  0.24812619  1
  Co  Co16  1  0.25991630  0.54059790  0.91429843  1
  Co  Co17  1  0.25705703  0.45189719  0.57401944  1
  Co  Co18  1  0.74294297  0.54810281  0.42598056  1
  Co  Co19  1  0.74008370  0.45940210  0.08570157  1
  Co  Co20  1  0.75481302  0.09214306  0.75187381  1
  Co  Co21  1  0.74518698  0.59214306  0.74812619  1
  Co  Co22  1  0.75991630  0.95940210  0.41429843  1
  Co  Co23  1  0.75705703  0.04810281  0.07401944  1
  P  P24  1  0.05095482  0.26135209  0.41238532  1
  P  P25  1  0.09589138  0.22558037  0.77140924  1
  P  P26  1  0.10860741  0.26173150  0.06967133  1
  P  P27  1  0.39139259  0.76173150  0.43032867  1
  P  P28  1  0.40410862  0.72558037  0.72859076  1
  P  P29  1  0.44904518  0.76135209  0.08761468  1
  P  P30  1  0.55095482  0.23864791  0.91238532  1
  P  P31  1  0.59589138  0.27441963  0.27140924  1
  P  P32  1  0.60860741  0.23826850  0.56967133  1
  P  P33  1  0.89139259  0.73826850  0.93032867  1
  P  P34  1  0.90410862  0.77441963  0.22859076  1
  P  P35  1  0.94904518  0.73864791  0.58761468  1
  O  O36  1  0.96375499  0.43863635  0.39581423  1
  O  O37  1  0.04878426  0.89272614  0.62641747  1
  O  O38  1  0.06522569  0.76607360  0.96167474  1
  O  O39  1  0.10118895  0.38152538  0.83972635  1
  O  O40  1  0.09568139  0.23741774  0.51571522  1
  O  O41  1  0.06496770  0.76471365  0.28258606  1
  O  O42  1  0.10780473  0.27101051  0.17683702  1
  O  O43  1  0.09751243  0.04824435  0.82504847  1
  O  O44  1  0.17417764  0.44141547  0.03447173  1
  O  O45  1  0.22697300  0.23080532  0.69723211  1
  O  O46  1  0.21976744  0.11090605  0.03893016  1
  O  O47  1  0.21188187  0.26596985  0.36006430  1
  O  O48  1  0.27302700  0.73080532  0.80276789  1
  O  O49  1  0.28811813  0.76596985  0.13993570  1
  O  O50  1  0.28023256  0.61090605  0.46106984  1
  O  O51  1  0.32582236  0.94141547  0.46552827  1
  O  O52  1  0.40248757  0.54824435  0.67495153  1
  O  O53  1  0.39219527  0.77101051  0.32316298  1
  O  O54  1  0.40431861  0.73741774  0.98428478  1
  O  O55  1  0.39881105  0.88152538  0.66027365  1
  O  O56  1  0.43503230  0.26471365  0.21741394  1
  O  O57  1  0.43477431  0.26607360  0.53832526  1
  O  O58  1  0.45121574  0.39272614  0.87358253  1
  O  O59  1  0.53624501  0.93863635  0.10418577  1
  O  O60  1  0.46375499  0.06136365  0.89581423  1
  O  O61  1  0.54878426  0.60727386  0.12641747  1
  O  O62  1  0.56522569  0.73392640  0.46167474  1
  O  O63  1  0.56496770  0.73528635  0.78258606  1
  O  O64  1  0.60118895  0.11847462  0.33972635  1
  O  O65  1  0.59568139  0.26258226  0.01571522  1
  O  O66  1  0.60780473  0.22898949  0.67683702  1
  O  O67  1  0.59751243  0.45175565  0.32504847  1
  O  O68  1  0.67417764  0.05858453  0.53447173  1
  O  O69  1  0.71976744  0.38909395  0.53893016  1
  O  O70  1  0.71188187  0.23403015  0.86006430  1
  O  O71  1  0.72697300  0.26919468  0.19723211  1
  O  O72  1  0.78811813  0.73403015  0.63993570  1
  O  O73  1  0.78023256  0.88909395  0.96106984  1
  O  O74  1  0.77302700  0.76919468  0.30276789  1
  O  O75  1  0.82582236  0.55858453  0.96552827  1
  O  O76  1  0.90248757  0.95175565  0.17495153  1
  O  O77  1  0.89219527  0.72898949  0.82316298  1
  O  O78  1  0.93503230  0.23528635  0.71741394  1
  O  O79  1  0.90431861  0.76258226  0.48428478  1
  O  O80  1  0.89881105  0.61847462  0.16027365  1
  O  O81  1  0.93477431  0.23392640  0.03832526  1
  O  O82  1  0.95121574  0.10727386  0.37358253  1
  O  O83  1  0.03624501  0.56136365  0.60418577  1
