# generated using pymatgen
data_SnH22C6(NCl2)2
_symmetry_space_group_name_H-M   'P 1'
_cell_length_a   6.60014737
_cell_length_b   7.42269856
_cell_length_c   8.48186002
_cell_angle_alpha   108.85605898
_cell_angle_beta   97.50118763
_cell_angle_gamma   94.20541248
_symmetry_Int_Tables_number   1
_chemical_formula_structural   SnH22C6(NCl2)2
_chemical_formula_sum   'Sn1 H22 C6 N2 Cl4'
_cell_volume   386.90186202
_cell_formula_units_Z   1
loop_
 _symmetry_equiv_pos_site_id
 _symmetry_equiv_pos_as_xyz
  1  'x, y, z'
loop_
 _atom_site_type_symbol
 _atom_site_label
 _atom_site_symmetry_multiplicity
 _atom_site_fract_x
 _atom_site_fract_y
 _atom_site_fract_z
 _atom_site_occupancy
  Sn  Sn0  1  0.49999977  0.50000024  0.50000074  1
  H  H1  1  0.25340734  0.70745937  0.21045478  1
  H  H2  1  0.74659329  0.29253998  0.78954448  1
  H  H3  1  0.93054747  0.82230346  0.13832244  1
  H  H4  1  0.06945159  0.17769465  0.86167476  1
  H  H5  1  0.06253642  0.06283131  0.22131736  1
  H  H6  1  0.93746455  0.93716909  0.77868272  1
  H  H7  1  0.11436620  0.37486793  0.53118251  1
  H  H8  1  0.88563361  0.62513205  0.46881809  1
  H  H9  1  0.27889752  0.45734482  0.73324198  1
  H  H10  1  0.72110078  0.54265431  0.26675850  1
  H  H11  1  0.29506079  0.22533141  0.58517551  1
  H  H12  1  0.70493894  0.77466928  0.41482468  1
  H  H13  1  0.16892885  0.72856841  0.92910549  1
  H  H14  1  0.83107076  0.27143127  0.07089396  1
  H  H15  1  0.03941066  0.92512764  0.35876929  1
  H  H16  1  0.96058886  0.07487131  0.64122925  1
  H  H17  1  0.44129393  0.76112841  0.00511276  1
  H  H18  1  0.55870652  0.23887153  0.99488597  1
  H  H19  1  0.30798005  0.96505268  0.00997701  1
  H  H20  1  0.69201923  0.03494736  0.99002214  1
  H  H21  1  0.37559799  0.93371403  0.28265356  1
  H  H22  1  0.62440366  0.06628551  0.71734638  1
  C  C23  1  0.05688167  0.91892350  0.23056750  1
  C  C24  1  0.94311869  0.08107518  0.76943420  1
  C  C25  1  0.29607658  0.82268457  0.02220345  1
  C  C26  1  0.70392520  0.17731367  0.97779657  1
  C  C27  1  0.26612078  0.37266763  0.59955745  1
  C  C28  1  0.73387800  0.62733250  0.40044349  1
  N  N29  1  0.25462687  0.84196717  0.19499680  1
  N  N30  1  0.74537253  0.15803396  0.80500162  1
  Cl  Cl31  1  0.25511868  0.41066870  0.19993599  1
  Cl  Cl32  1  0.74488218  0.58933145  0.80006449  1
  Cl  Cl33  1  0.64943614  0.16566309  0.39605061  1
  Cl  Cl34  1  0.35056594  0.83433954  0.60395053  1
