# generated using pymatgen
data_Li7Mn2(CoO4)3
_symmetry_space_group_name_H-M   'P 1'
_cell_length_a   2.87924805
_cell_length_b   5.20255385
_cell_length_c   14.52412603
_cell_angle_alpha   89.18261894
_cell_angle_beta   90.00000000
_cell_angle_gamma   90.00000000
_symmetry_Int_Tables_number   1
_chemical_formula_structural   Li7Mn2(CoO4)3
_chemical_formula_sum   'Li7 Mn2 Co3 O12'
_cell_volume   217.54117971
_cell_formula_units_Z   1
loop_
 _symmetry_equiv_pos_site_id
 _symmetry_equiv_pos_as_xyz
  1  'x, y, z'
loop_
 _atom_site_type_symbol
 _atom_site_label
 _atom_site_symmetry_multiplicity
 _atom_site_fract_x
 _atom_site_fract_y
 _atom_site_fract_z
 _atom_site_occupancy
  Li  Li0  1  0.50000000  0.17845566  0.17742580  1
  Li  Li1  1  0.50000000  0.48803852  0.49437642  1
  Li  Li2  1  0.50000000  0.82846035  0.82765819  1
  Li  Li3  1  0.00000000  0.68115445  0.18005076  1
  Li  Li4  1  -0.00000000  0.99450822  0.49495895  1
  Li  Li5  1  0.00000000  0.32774662  0.82690780  1
  Li  Li6  1  0.50000000  0.83564677  0.33448808  1
  Mn  Mn7  1  0.00000000  0.00240601  0.00316041  1
  Mn  Mn8  1  0.50000000  0.50302455  0.00137760  1
  Co  Co9  1  -0.00000000  0.33395960  0.33390560  1
  Co  Co10  1  0.00000000  0.66399271  0.66280258  1
  Co  Co11  1  0.50000000  0.16341100  0.66386833  1
  O  O12  1  0.50000000  0.86235519  0.08125023  1
  O  O13  1  0.50000000  0.18461077  0.40575645  1
  O  O14  1  0.50000000  0.49824706  0.74261762  1
  O  O15  1  0.00000000  0.36139742  0.07795189  1
  O  O16  1  -0.00000000  0.61735814  0.40525840  1
  O  O17  1  0.00000000  0.99761310  0.74273252  1
  O  O18  1  0.50000000  0.48402192  0.26081677  1
  O  O19  1  0.50000000  0.83264078  0.58488640  1
  O  O20  1  0.50000000  0.13948963  0.92458707  1
  O  O21  1  0.00000000  0.04678315  0.26122144  1
  O  O22  1  0.00000000  0.32890760  0.58777477  1
  O  O23  1  -0.00000000  0.64577078  0.92416593  1
