# generated using pymatgen
data_Rb(Mg4Al3)4
_symmetry_space_group_name_H-M   'P 1'
_cell_length_a   9.16693898
_cell_length_b   9.25868958
_cell_length_c   9.25868994
_cell_angle_alpha   109.67109885
_cell_angle_beta   109.27060145
_cell_angle_gamma   109.27059644
_symmetry_Int_Tables_number   1
_chemical_formula_structural   Rb(Mg4Al3)4
_chemical_formula_sum   'Rb1 Mg16 Al12'
_cell_volume   606.41620139
_cell_formula_units_Z   1
loop_
 _symmetry_equiv_pos_site_id
 _symmetry_equiv_pos_as_xyz
  1  'x, y, z'
loop_
 _atom_site_type_symbol
 _atom_site_label
 _atom_site_symmetry_multiplicity
 _atom_site_fract_x
 _atom_site_fract_y
 _atom_site_fract_z
 _atom_site_occupancy
  Rb  Rb0  1  0.37193711  0.00000000  0.00000000  1
  Mg  Mg1  1  0.99807106  0.34423672  0.00000000  1
  Mg  Mg2  1  0.61535246  0.33021076  0.00000000  1
  Mg  Mg3  1  0.31311522  0.59900468  0.00000000  1
  Mg  Mg4  1  0.68362048  0.68340064  0.28780702  1
  Mg  Mg5  1  0.00022084  0.60440738  0.31660036  1
  Mg  Mg6  1  0.61535246  0.00000100  0.33020976  1
  Mg  Mg7  1  0.99807206  0.00000000  0.34423572  1
  Mg  Mg8  1  0.39581546  0.71219398  0.39559362  1
  Mg  Mg9  1  0.71411154  0.40099632  0.40099632  1
  Mg  Mg10  1  0.31311522  0.00000000  0.59900468  1
  Mg  Mg11  1  0.00022084  0.31660036  0.60440738  1
  Mg  Mg12  1  0.65383434  0.65576328  0.65576328  1
  Mg  Mg13  1  0.28514269  0.66979024  0.66978924  1
  Mg  Mg14  1  0.68362148  0.28780702  0.68340064  1
  Mg  Mg15  1  0.39581546  0.39559362  0.71219398  1
  Mg  Mg16  1  0.99537179  0.99999900  0.00000000  1
  Al  Al17  1  0.63579073  0.81256138  0.00000000  1
  Al  Al18  1  0.36293271  0.37388071  0.18249176  1
  Al  Al19  1  0.82322934  0.18743962  0.18743962  1
  Al  Al20  1  0.18043996  0.81750724  0.19138695  1
  Al  Al21  1  0.17829435  0.36366585  0.36366485  1
  Al  Al22  1  0.36293271  0.18249176  0.37388071  1
  Al  Al23  1  0.98905201  0.80861205  0.62612029  1
  Al  Al24  1  0.81463050  0.00000000  0.63633615  1
  Al  Al25  1  0.98905201  0.62612029  0.80861205  1
  Al  Al26  1  0.63579173  0.00000100  0.81256038  1
  Al  Al27  1  0.18043996  0.19138795  0.81750724  1
  Al  Al28  1  0.81462950  0.63633615  0.00000000  1
