# generated using pymatgen
data_Zn2FeSbO6
_symmetry_space_group_name_H-M   'P 1'
_cell_length_a   5.26897837
_cell_length_b   5.33459333
_cell_length_c   7.73904743
_cell_angle_alpha   90.00000000
_cell_angle_beta   90.00000000
_cell_angle_gamma   90.58717550
_symmetry_Int_Tables_number   1
_chemical_formula_structural   Zn2FeSbO6
_chemical_formula_sum   'Zn4 Fe2 Sb2 O12'
_cell_volume   217.51661464
_cell_formula_units_Z   2
loop_
 _symmetry_equiv_pos_site_id
 _symmetry_equiv_pos_as_xyz
  1  'x, y, z'
loop_
 _atom_site_type_symbol
 _atom_site_label
 _atom_site_symmetry_multiplicity
 _atom_site_fract_x
 _atom_site_fract_y
 _atom_site_fract_z
 _atom_site_occupancy
  Zn  Zn0  1  0.51851169  0.55924575  0.75000000  1
  Zn  Zn1  1  0.48148831  0.44075425  0.25000000  1
  Zn  Zn2  1  0.02214684  0.01886113  0.75000000  1
  Zn  Zn3  1  0.97785316  0.98113887  0.25000000  1
  Fe  Fe4  1  0.50000000  0.00000000  0.50000000  1
  Fe  Fe5  1  0.50000000  0.00000000  0.00000000  1
  Sb  Sb6  1  0.00000000  0.50000000  0.50000000  1
  Sb  Sb7  1  0.00000000  0.50000000  0.00000000  1
  O  O8  1  0.31915963  0.67637991  0.43197943  1
  O  O9  1  0.17035095  0.18452096  0.06877007  1
  O  O10  1  0.68084037  0.32362009  0.93197943  1
  O  O11  1  0.82964905  0.81547904  0.56877007  1
  O  O12  1  0.17035095  0.18452096  0.43122993  1
  O  O13  1  0.82964905  0.81547904  0.93122993  1
  O  O14  1  0.86605675  0.57714334  0.25000000  1
  O  O15  1  0.31915963  0.67637991  0.06802057  1
  O  O16  1  0.38729681  0.92521598  0.75000000  1
  O  O17  1  0.68084037  0.32362009  0.56802057  1
  O  O18  1  0.13394325  0.42285666  0.75000000  1
  O  O19  1  0.61270319  0.07478402  0.25000000  1
