# generated using pymatgen
data_CaV4(CuO7)2
_symmetry_space_group_name_H-M   'P 1'
_cell_length_a   8.86949344
_cell_length_b   10.64350483
_cell_length_c   10.22716333
_cell_angle_alpha   91.66279331
_cell_angle_beta   90.00000000
_cell_angle_gamma   90.00000000
_symmetry_Int_Tables_number   1
_chemical_formula_structural   CaV4(CuO7)2
_chemical_formula_sum   'Ca3 V12 Cu6 O42'
_cell_volume   965.06320222
_cell_formula_units_Z   3
loop_
 _symmetry_equiv_pos_site_id
 _symmetry_equiv_pos_as_xyz
  1  'x, y, z'
loop_
 _atom_site_type_symbol
 _atom_site_label
 _atom_site_symmetry_multiplicity
 _atom_site_fract_x
 _atom_site_fract_y
 _atom_site_fract_z
 _atom_site_occupancy
  Ca  Ca0  1  0.93915739  0.50000000  0.75000000  1
  Ca  Ca1  1  0.54827965  0.83240431  0.43373708  1
  Ca  Ca2  1  0.54827965  0.16759569  0.06626292  1
  V  V3  1  0.20147267  0.16109821  0.29147532  1
  V  V4  1  0.75042846  0.16628034  0.38354872  1
  V  V5  1  0.24571190  0.16829776  0.88015482  1
  V  V6  1  0.80335762  0.16204088  0.78896500  1
  V  V7  1  0.29809493  0.46888551  0.96176431  1
  V  V8  1  0.75042846  0.83371966  0.11645128  1
  V  V9  1  0.69914975  0.47008570  0.45634894  1
  V  V10  1  0.24571190  0.83170224  0.61984518  1
  V  V11  1  0.29809493  0.53111449  0.53823569  1
  V  V12  1  0.69914975  0.52991430  0.04365106  1
  V  V13  1  0.80335762  0.83795912  0.71103500  1
  V  V14  1  0.20147267  0.83890179  0.20852468  1
  Cu  Cu15  1  0.93213654  0.80288529  0.40932605  1
  Cu  Cu16  1  0.06716127  0.19742706  0.58908954  1
  Cu  Cu17  1  0.43623834  0.50000000  0.25000000  1
  Cu  Cu18  1  0.93213654  0.19711471  0.09067395  1
  Cu  Cu19  1  0.56412799  0.50000000  0.75000000  1
  Cu  Cu20  1  0.06716127  0.80257294  0.91091046  1
  O  O21  1  0.78414420  0.19307510  0.96159763  1
  O  O22  1  0.77607764  0.82512159  0.28977230  1
  O  O23  1  0.85057691  0.00000000  0.75000000  1
  O  O24  1  0.87071874  0.50455170  0.09456098  1
  O  O25  1  0.37005017  0.94085890  0.57996778  1
  O  O26  1  0.93395380  0.26688316  0.71245278  1
  O  O27  1  0.35289246  0.30555008  0.94229578  1
  O  O28  1  0.12497409  0.50785379  0.59815546  1
  O  O29  1  0.71609235  0.48515003  0.87271913  1
  O  O30  1  0.37005017  0.05914110  0.92003222  1
  O  O31  1  0.71609235  0.51484997  0.62728087  1
  O  O32  1  0.42988169  0.55708951  0.87454650  1
  O  O33  1  0.91678809  0.84855329  0.02815395  1
  O  O34  1  0.06398601  0.25351359  0.21495009  1
  O  O35  1  0.65035439  0.69298785  0.06559507  1
  O  O36  1  0.35289246  0.69444992  0.55770422  1
  O  O37  1  0.93395380  0.73311684  0.78754722  1
  O  O38  1  0.63737255  0.04464321  0.41000050  1
  O  O39  1  0.21318898  0.18914394  0.46088571  1
  O  O40  1  0.57384322  0.42949767  0.13006036  1
  O  O41  1  0.37335709  0.80759178  0.26823273  1
  O  O42  1  0.28736115  0.51421604  0.12693345  1
  O  O43  1  0.08071421  0.84528352  0.52776550  1
  O  O44  1  0.28736115  0.48578396  0.37306655  1
  O  O45  1  0.87071874  0.49544830  0.40543902  1
  O  O46  1  0.57384322  0.57050233  0.36993964  1
  O  O47  1  0.12497409  0.49214621  0.90184454  1
  O  O48  1  0.63316178  0.80608514  0.76121046  1
  O  O49  1  0.63316178  0.19391486  0.73878954  1
  O  O50  1  0.08071421  0.15471648  0.97223450  1
  O  O51  1  0.06398601  0.74648641  0.28504991  1
  O  O52  1  0.78414420  0.80692490  0.53840237  1
  O  O53  1  0.15353786  0.00000000  0.25000000  1
  O  O54  1  0.21681134  0.83024025  0.78978867  1
  O  O55  1  0.63737255  0.95535679  0.08999950  1
  O  O56  1  0.91678809  0.15144671  0.47184605  1
  O  O57  1  0.21318898  0.81085606  0.03911429  1
  O  O58  1  0.77607764  0.17487841  0.21022770  1
  O  O59  1  0.42988169  0.44291049  0.62545350  1
  O  O60  1  0.65035439  0.30701215  0.43440493  1
  O  O61  1  0.21681134  0.16975975  0.71021133  1
  O  O62  1  0.37335709  0.19240822  0.23176727  1
