# generated using pymatgen
data_VO2
_symmetry_space_group_name_H-M   'P 1'
_cell_length_a   2.90492777
_cell_length_b   7.35805615
_cell_length_c   7.40123065
_cell_angle_alpha   87.78786331
_cell_angle_beta   78.69471781
_cell_angle_gamma   78.62457647
_symmetry_Int_Tables_number   1
_chemical_formula_structural   VO2
_chemical_formula_sum   'V4 O8'
_cell_volume   152.08154088
_cell_formula_units_Z   4
loop_
 _symmetry_equiv_pos_site_id
 _symmetry_equiv_pos_as_xyz
  1  'x, y, z'
loop_
 _atom_site_type_symbol
 _atom_site_label
 _atom_site_symmetry_multiplicity
 _atom_site_fract_x
 _atom_site_fract_y
 _atom_site_fract_z
 _atom_site_occupancy
  V  V0  1  0.64356588  0.18352389  0.52934305  1
  V  V1  1  0.17358029  0.47011796  0.18240808  1
  V  V2  1  0.82641179  0.52988153  0.81759307  1
  V  V3  1  0.35643602  0.81647602  0.47065837  1
  O  O4  1  0.83859826  0.70409206  0.61891354  1
  O  O5  1  0.45685679  0.38121693  0.70501372  1
  O  O6  1  0.54313518  0.61878275  0.29498619  1
  O  O7  1  0.16141319  0.29590862  0.38108670  1
  O  O8  1  0.15718445  0.04812963  0.63749958  1
  O  O9  1  0.79556611  0.36105953  0.04800552  1
  O  O10  1  0.84280063  0.95187023  0.36250118  1
  O  O11  1  0.20445342  0.63894086  0.95199301  1
