# generated using pymatgen
data_Li(Fe2O3)4
_symmetry_space_group_name_H-M   'P 1'
_cell_length_a   5.97719935
_cell_length_b   5.99319596
_cell_length_c   13.44468743
_cell_angle_alpha   103.09989538
_cell_angle_beta   103.09597713
_cell_angle_gamma   89.94287590
_symmetry_Int_Tables_number   1
_chemical_formula_structural   Li(Fe2O3)4
_chemical_formula_sum   'Li2 Fe16 O24'
_cell_volume   456.24479600
_cell_formula_units_Z   2
loop_
 _symmetry_equiv_pos_site_id
 _symmetry_equiv_pos_as_xyz
  1  'x, y, z'
loop_
 _atom_site_type_symbol
 _atom_site_label
 _atom_site_symmetry_multiplicity
 _atom_site_fract_x
 _atom_site_fract_y
 _atom_site_fract_z
 _atom_site_occupancy
  Li  Li0  1  0.45504443  0.21127620  0.41617490  1
  Li  Li1  1  0.45850935  0.20941753  0.91669975  1
  Fe  Fe2  1  0.99661344  0.99290675  0.99750711  1
  Fe  Fe3  1  0.78537213  0.53222498  0.08042138  1
  Fe  Fe4  1  0.29059770  0.53492389  0.07954950  1
  Fe  Fe5  1  0.57949990  0.08498319  0.16368641  1
  Fe  Fe6  1  0.13482018  0.87923771  0.25429446  1
  Fe  Fe7  1  0.13458080  0.37243543  0.25234690  1
  Fe  Fe8  1  0.67396945  0.66868760  0.33838660  1
  Fe  Fe9  1  0.96395782  0.20979967  0.41667559  1
  Fe  Fe10  1  0.24836915  0.74741195  0.49957649  1
  Fe  Fe11  1  0.78332478  0.03855234  0.58082936  1
  Fe  Fe12  1  0.78719067  0.54312676  0.58291486  1
  Fe  Fe13  1  0.33622088  0.33092049  0.66731891  1
  Fe  Fe14  1  0.62720718  0.88156315  0.75355221  1
  Fe  Fe15  1  0.12597905  0.88082615  0.75163470  1
  Fe  Fe16  1  0.91896978  0.42122173  0.83466994  1
  Fe  Fe17  1  0.45396962  0.70591613  0.91603407  1
  O  O18  1  0.54828016  0.30694131  0.08318266  1
  O  O19  1  0.54434466  0.77836716  0.07641422  1
  O  O20  1  0.03858045  0.30258509  0.08683210  1
  O  O21  1  0.03935692  0.78083012  0.08947977  1
  O  O22  1  0.88780347  0.62193156  0.24350243  1
  O  O23  1  0.36364739  0.62576097  0.25148927  1
  O  O24  1  0.35672830  0.12259199  0.24549666  1
  O  O25  1  0.88682346  0.12714281  0.25356931  1
  O  O26  1  0.19092580  0.97371818  0.40731447  1
  O  O27  1  0.19106176  0.43377012  0.40509538  1
  O  O28  1  0.72059258  0.97151303  0.42637077  1
  O  O29  1  0.72278457  0.45977144  0.42784056  1
  O  O30  1  0.56370208  0.29403710  0.58684188  1
  O  O31  1  0.02682442  0.29143066  0.58085198  1
  O  O32  1  0.02480420  0.80210711  0.59951208  1
  O  O33  1  0.56533763  0.79519575  0.59220500  1
  O  O34  1  0.87748814  0.64122759  0.74647674  1
  O  O35  1  0.87579487  0.10743757  0.74724847  1
  O  O36  1  0.37463816  0.64474444  0.75386734  1
  O  O37  1  0.36904455  0.09837850  0.74534290  1
  O  O38  1  0.21184288  0.94409913  0.90558093  1
  O  O39  1  0.69722977  0.94278642  0.90729470  1
  O  O40  1  0.69950471  0.47055493  0.92177987  1
  O  O41  1  0.21866375  0.46764437  0.91414137  1
