# generated using pymatgen
data_ZnCuF4
_symmetry_space_group_name_H-M   'P 1'
_cell_length_a   5.18277104
_cell_length_b   5.14502508
_cell_length_c   6.24056514
_cell_angle_alpha   114.31051303
_cell_angle_beta   114.77622438
_cell_angle_gamma   90.02123788
_symmetry_Int_Tables_number   1
_chemical_formula_structural   ZnCuF4
_chemical_formula_sum   'Zn2 Cu2 F8'
_cell_volume   134.65315338
_cell_formula_units_Z   2
loop_
 _symmetry_equiv_pos_site_id
 _symmetry_equiv_pos_as_xyz
  1  'x, y, z'
loop_
 _atom_site_type_symbol
 _atom_site_label
 _atom_site_symmetry_multiplicity
 _atom_site_fract_x
 _atom_site_fract_y
 _atom_site_fract_z
 _atom_site_occupancy
  Zn  Zn0  1  0.25523301  0.25046134  0.50133322  1
  Zn  Zn1  1  0.75256231  0.74738197  0.50022983  1
  Cu  Cu2  1  0.99759707  0.50195496  0.99919683  1
  Cu  Cu3  1  0.49836520  0.99876143  0.00116265  1
  F  F4  1  0.94963327  0.44306144  0.26644190  1
  F  F5  1  0.68078388  0.17561755  0.72967005  1
  F  F6  1  0.04818203  0.55889976  0.73220250  1
  F  F7  1  0.18127019  0.05742469  0.73428495  1
  F  F8  1  0.32201255  0.81835506  0.26862685  1
  F  F9  1  0.45301074  0.32090983  0.27305899  1
  F  F10  1  0.82078776  0.94546675  0.26953835  1
  F  F11  1  0.54877001  0.67551322  0.73443587  1
