# generated using pymatgen
data_Cu3(GeO3)4
_symmetry_space_group_name_H-M   'P 1'
_cell_length_a   6.27048763
_cell_length_b   6.27037042
_cell_length_c   6.27015449
_cell_angle_alpha   109.42434217
_cell_angle_beta   109.47117463
_cell_angle_gamma   109.51856369
_symmetry_Int_Tables_number   1
_chemical_formula_structural   Cu3(GeO3)4
_chemical_formula_sum   'Cu3 Ge4 O12'
_cell_volume   189.77910769
_cell_formula_units_Z   1
loop_
 _symmetry_equiv_pos_site_id
 _symmetry_equiv_pos_as_xyz
  1  'x, y, z'
loop_
 _atom_site_type_symbol
 _atom_site_label
 _atom_site_symmetry_multiplicity
 _atom_site_fract_x
 _atom_site_fract_y
 _atom_site_fract_z
 _atom_site_occupancy
  Cu  Cu0  1  0.49999949  0.50000560  0.00000573  1
  Cu  Cu1  1  -0.00000390  0.49999670  0.50000132  1
  Cu  Cu2  1  0.49999982  -0.00000503  0.50000227  1
  Ge  Ge3  1  0.49999999  0.50000238  0.49999933  1
  Ge  Ge4  1  0.00000071  0.50000184  0.00000211  1
  Ge  Ge5  1  0.00000037  -0.00000126  0.50000089  1
  Ge  Ge6  1  0.49999798  -0.00000424  0.99999509  1
  O  O7  1  0.81620334  0.31338255  0.12958817  1
  O  O8  1  0.18379919  0.68661840  0.87042103  1
  O  O9  1  0.81620023  0.68661301  0.50281821  1
  O  O10  1  0.31368832  0.49702871  0.18333408  1
  O  O11  1  0.49635079  0.18310799  0.31323746  1
  O  O12  1  0.13013132  0.81689650  0.31324364  1
  O  O13  1  0.68630741  0.86965002  0.18333269  1
  O  O14  1  0.50365152  0.81689397  0.68675640  1
  O  O15  1  0.18380274  0.31338877  0.49718437  1
  O  O16  1  0.68631443  0.50296952  0.81666252  1
  O  O17  1  0.86986583  0.18310895  0.68675158  1
  O  O18  1  0.31369041  0.13034562  0.81666310  1
