# generated using pymatgen
data_CoO2
_symmetry_space_group_name_H-M   'P 1'
_cell_length_a   5.66620438
_cell_length_b   5.68164266
_cell_length_c   17.04664691
_cell_angle_alpha   59.90088282
_cell_angle_beta   60.12048903
_cell_angle_gamma   59.89171210
_symmetry_Int_Tables_number   1
_chemical_formula_structural   CoO2
_chemical_formula_sum   'Co12 O24'
_cell_volume   387.79325451
_cell_formula_units_Z   12
loop_
 _symmetry_equiv_pos_site_id
 _symmetry_equiv_pos_as_xyz
  1  'x, y, z'
loop_
 _atom_site_type_symbol
 _atom_site_label
 _atom_site_symmetry_multiplicity
 _atom_site_fract_x
 _atom_site_fract_y
 _atom_site_fract_z
 _atom_site_occupancy
  Co  Co0  1  0.49403950  0.49581957  0.16754357  1
  Co  Co1  1  0.00193269  0.50030396  0.49941585  1
  Co  Co2  1  0.50176531  0.50087844  0.33193502  1
  Co  Co3  1  0.49407021  0.00735400  0.16785701  1
  Co  Co4  1  0.50035479  0.50071181  0.49930462  1
  Co  Co5  1  0.00972533  0.49243026  0.16857698  1
  Co  Co6  1  0.50166951  0.50440504  0.66425155  1
  Co  Co7  1  0.50043082  0.00166664  0.49919823  1
  Co  Co8  1  0.50021479  0.50007502  0.83218752  1
  Co  Co9  1  0.50040457  0.00312879  0.83154757  1
  Co  Co10  1  0.00388038  0.49995599  0.83136990  1
  Co  Co11  1  0.87581545  0.87471840  0.95660159  1
  O  O12  1  0.24277310  0.24318814  0.10289644  1
  O  O13  1  0.24210082  0.70578310  0.10288106  1
  O  O14  1  0.25848953  0.26271125  0.23847259  1
  O  O15  1  0.70381736  0.24464386  0.10227153  1
  O  O16  1  0.26527966  0.26556908  0.42151097  1
  O  O17  1  0.30035647  0.73043580  0.24599588  1
  O  O18  1  0.74218143  0.74164909  0.09202827  1
  O  O19  1  0.73598636  0.29513502  0.24577345  1
  O  O20  1  0.26609582  0.70511795  0.42110523  1
  O  O21  1  0.26482394  0.26383972  0.56940093  1
  O  O22  1  0.70711142  0.26570604  0.42070760  1
  O  O23  1  0.73558216  0.73070353  0.24612091  1
  O  O24  1  0.26484152  0.26647865  0.75355419  1
  O  O25  1  0.29345938  0.73541482  0.57908617  1
  O  O26  1  0.73653769  0.73762293  0.42950447  1
  O  O27  1  0.73369310  0.29660528  0.57904530  1
  O  O28  1  0.26496892  0.26571110  0.90079818  1
  O  O29  1  0.26479123  0.70800100  0.75422170  1
  O  O30  1  0.70546375  0.26662614  0.75443664  1
  O  O31  1  0.73449467  0.73489477  0.57831714  1
  O  O32  1  0.27810887  0.75903117  0.90101202  1
  O  O33  1  0.75866092  0.27680439  0.90144705  1
  O  O34  1  0.73618457  0.73570305  0.76361309  1
  O  O35  1  0.75829094  0.75957922  0.90090878  1
