# generated using pymatgen
data_Li9Mn2Co5O16
_symmetry_space_group_name_H-M   'P 1'
_cell_length_a   2.96909202
_cell_length_b   19.37955759
_cell_length_c   5.06506548
_cell_angle_alpha   93.61474800
_cell_angle_beta   88.68407545
_cell_angle_gamma   87.20642511
_symmetry_Int_Tables_number   1
_chemical_formula_structural   Li9Mn2Co5O16
_chemical_formula_sum   'Li9 Mn2 Co5 O16'
_cell_volume   290.41769643
_cell_formula_units_Z   1
loop_
 _symmetry_equiv_pos_site_id
 _symmetry_equiv_pos_as_xyz
  1  'x, y, z'
loop_
 _atom_site_type_symbol
 _atom_site_label
 _atom_site_symmetry_multiplicity
 _atom_site_fract_x
 _atom_site_fract_y
 _atom_site_fract_z
 _atom_site_occupancy
  Li  Li0  1  0.93493399  0.13066813  0.69887544  1
  Li  Li1  1  0.32856079  0.36775782  0.56140385  1
  Li  Li2  1  0.68613948  0.62473514  0.43903659  1
  Li  Li3  1  0.06386052  0.87526486  0.31096341  1
  Li  Li4  1  0.42143921  0.13224218  0.18859615  1
  Li  Li5  1  0.81506601  0.36933187  0.05112456  1
  Li  Li6  1  0.18490040  0.62586573  0.93697745  1
  Li  Li7  1  0.56509960  0.87413427  0.81302255  1
  Li  Li8  1  0.37500000  0.25000000  0.87500000  1
  Mn  Mn9  1  0.99760727  0.00123921  0.00103877  1
  Mn  Mn10  1  0.75239273  0.49876079  0.74896123  1
  Co  Co11  1  0.12508114  0.74972142  0.62457232  1
  Co  Co12  1  0.49846367  0.00117997  0.50068588  1
  Co  Co13  1  0.87500000  0.25000000  0.37500000  1
  Co  Co14  1  0.25153633  0.49882003  0.24931412  1
  Co  Co15  1  0.62491886  0.75027858  0.12542768  1
  O  O16  1  0.42827699  0.06076627  0.84560572  1
  O  O17  1  0.84664529  0.30510724  0.67350371  1
  O  O18  1  0.18179653  0.55867148  0.59528293  1
  O  O19  1  0.60328474  0.80715687  0.45980058  1
  O  O20  1  0.96003747  0.05598981  0.34689110  1
  O  O21  1  0.36250252  0.30451846  0.23348849  1
  O  O22  1  0.70929597  0.55617865  0.09242908  1
  O  O23  1  0.10442897  0.80691693  0.95890489  1
  O  O24  1  0.38749748  0.19548154  0.51651151  1
  O  O25  1  0.78996253  0.44401019  0.40310890  1
  O  O26  1  0.14671526  0.69284313  0.29019942  1
  O  O27  1  0.56820347  0.94132852  0.15471707  1
  O  O28  1  0.90335471  0.19489276  0.07649629  1
  O  O29  1  0.32172301  0.43923373  0.90439428  1
  O  O30  1  0.64557103  0.69308307  0.79109511  1
  O  O31  1  0.04070403  0.94382135  0.65757092  1
