# generated using pymatgen
data_Li3Fe2Ni5O12
_symmetry_space_group_name_H-M   'P 1'
_cell_length_a   5.06848325
_cell_length_b   5.01039926
_cell_length_c   28.80463479
_cell_angle_alpha   88.99730704
_cell_angle_beta   89.60334319
_cell_angle_gamma   60.52391911
_symmetry_Int_Tables_number   1
_chemical_formula_structural   Li3Fe2Ni5O12
_chemical_formula_sum   'Li9 Fe6 Ni15 O36'
_cell_volume   636.71444442
_cell_formula_units_Z   3
loop_
 _symmetry_equiv_pos_site_id
 _symmetry_equiv_pos_as_xyz
  1  'x, y, z'
loop_
 _atom_site_type_symbol
 _atom_site_label
 _atom_site_symmetry_multiplicity
 _atom_site_fract_x
 _atom_site_fract_y
 _atom_site_fract_z
 _atom_site_occupancy
  Li  Li0  1  0.16756216  0.16824430  0.99996742  1
  Li  Li1  1  0.15486706  0.17784500  0.49974308  1
  Li  Li2  1  0.16649929  0.49854030  0.33399595  1
  Li  Li3  1  0.16376316  0.50349013  0.83241288  1
  Li  Li4  1  0.16770707  0.83200020  0.16588364  1
  Li  Li5  1  0.83610128  0.16592971  0.08319037  1
  Li  Li6  1  0.83514038  0.49787454  0.41690758  1
  Li  Li7  1  0.83884526  0.50063390  0.66733762  1
  Li  Li8  1  0.83471331  0.83974363  0.75018685  1
  Fe  Fe9  1  0.51859626  0.15728477  0.41690983  1
  Fe  Fe10  1  0.50385423  0.16148147  0.91713458  1
  Fe  Fe11  1  0.50301238  0.50268234  0.24942807  1
  Fe  Fe12  1  0.50383213  0.50678096  0.74931866  1
  Fe  Fe13  1  0.51974517  0.82381402  0.08303423  1
  Fe  Fe14  1  0.50476943  0.82353670  0.58369151  1
  Ni  Ni15  1  0.16547752  0.16713185  0.25006320  1
  Ni  Ni16  1  0.16363856  0.16440669  0.74983928  1
  Ni  Ni17  1  0.16498519  0.50110138  0.08300073  1
  Ni  Ni18  1  0.16618487  0.50141899  0.58350434  1
  Ni  Ni19  1  0.16353955  0.83464954  0.41719094  1
  Ni  Ni20  1  0.50183187  0.16508534  0.16551121  1
  Ni  Ni21  1  0.16316890  0.83777565  0.91672252  1
  Ni  Ni22  1  0.51231452  0.15565243  0.66739055  1
  Ni  Ni23  1  0.50099960  0.50193536  0.00064564  1
  Ni  Ni24  1  0.50692589  0.49946807  0.49970789  1
  Ni  Ni25  1  0.50788809  0.82701697  0.33445484  1
  Ni  Ni26  1  0.83934691  0.15781780  0.58329538  1
  Ni  Ni27  1  0.50567454  0.83231537  0.83236275  1
  Ni  Ni28  1  0.82701178  0.50439325  0.91681111  1
  Ni  Ni29  1  0.82631557  0.83746174  0.25017987  1
  O  O30  1  0.18490207  0.18183050  0.62091310  1
  O  O31  1  0.20605333  0.15687318  0.11876281  1
  O  O32  1  0.20367112  0.16281492  0.87729491  1
  O  O33  1  0.20408492  0.13652253  0.38074711  1
  O  O34  1  0.18167142  0.51182177  0.21312842  1
  O  O35  1  0.17871516  0.47602229  0.95318637  1
  O  O36  1  0.20978001  0.49023743  0.45356531  1
  O  O37  1  0.20209897  0.45985600  0.71281616  1
  O  O38  1  0.45458562  0.20689742  0.04495563  1
  O  O39  1  0.50652573  0.14895962  0.28916348  1
  O  O40  1  0.20228990  0.79865482  0.28837339  1
  O  O41  1  0.46756239  0.19443176  0.54482118  1
  O  O42  1  0.18875404  0.81003587  0.54654309  1
  O  O43  1  0.20561994  0.80388171  0.04700748  1
  O  O44  1  0.45706452  0.18019500  0.78769232  1
  O  O45  1  0.19761706  0.82113538  0.78665046  1
  O  O46  1  0.45562865  0.53602738  0.37927152  1
  O  O47  1  0.45562730  0.50547455  0.12112682  1
  O  O48  1  0.50462222  0.48353979  0.62263048  1
  O  O49  1  0.50718748  0.51242513  0.87838623  1
  O  O50  1  0.83220839  0.15311934  0.45322645  1
  O  O51  1  0.49252008  0.84493151  0.20983291  1
  O  O52  1  0.81058393  0.16041651  0.21378977  1
  O  O53  1  0.49700742  0.83840096  0.71071171  1
  O  O54  1  0.45587583  0.84151030  0.45540662  1
  O  O55  1  0.81636555  0.20190422  0.71348752  1
  O  O56  1  0.81158060  0.19763138  0.95342926  1
  O  O57  1  0.49183544  0.83400520  0.95669422  1
  O  O58  1  0.82942471  0.51700034  0.04713478  1
  O  O59  1  0.82009714  0.52697298  0.28705251  1
  O  O60  1  0.80660628  0.50579492  0.78765249  1
  O  O61  1  0.82237451  0.50155868  0.54312581  1
  O  O62  1  0.83174193  0.81949516  0.11881525  1
  O  O63  1  0.83180194  0.84637233  0.38122189  1
  O  O64  1  0.82467955  0.81843651  0.62129792  1
  O  O65  1  0.82008693  0.82021918  0.87966808  1
