# generated using pymatgen
data_Ca2NiN2
_symmetry_space_group_name_H-M   'P 1'
_cell_length_a   4.97021198
_cell_length_b   5.93755464
_cell_length_c   6.48632353
_cell_angle_alpha   65.71452261
_cell_angle_beta   67.52343483
_cell_angle_gamma   65.33554678
_symmetry_Int_Tables_number   1
_chemical_formula_structural   Ca2NiN2
_chemical_formula_sum   'Ca4 Ni2 N4'
_cell_volume   153.34621485
_cell_formula_units_Z   2
loop_
 _symmetry_equiv_pos_site_id
 _symmetry_equiv_pos_as_xyz
  1  'x, y, z'
loop_
 _atom_site_type_symbol
 _atom_site_label
 _atom_site_symmetry_multiplicity
 _atom_site_fract_x
 _atom_site_fract_y
 _atom_site_fract_z
 _atom_site_occupancy
  Ca  Ca0  1  0.67871565  0.23154234  0.40310365  1
  Ca  Ca1  1  0.31828847  0.76054648  0.59556119  1
  Ca  Ca2  1  0.04080374  0.67911312  0.23281799  1
  Ca  Ca3  1  0.95549224  0.31030289  0.76925738  1
  Ni  Ni4  1  0.37237005  0.12081941  0.12341248  1
  Ni  Ni5  1  0.62531859  0.87375245  0.87532324  1
  N  N6  1  0.18561321  0.23164333  0.38964233  1
  N  N7  1  0.81428781  0.75966633  0.60675996  1
  N  N8  1  0.47115086  0.24385028  0.80268918  1
  N  N9  1  0.52445638  0.74659035  0.19696960  1
