# generated using pymatgen
data_CaLa2Mn2(FeO6)2
_symmetry_space_group_name_H-M   'P 1'
_cell_length_a   5.45222884
_cell_length_b   5.48027797
_cell_length_c   7.71605328
_cell_angle_alpha   90.18568821
_cell_angle_beta   89.94102665
_cell_angle_gamma   90.27239791
_symmetry_Int_Tables_number   1
_chemical_formula_structural   CaLa2Mn2(FeO6)2
_chemical_formula_sum   'Ca1 La2 Mn2 Fe2 O12'
_cell_volume   230.54965039
_cell_formula_units_Z   1
loop_
 _symmetry_equiv_pos_site_id
 _symmetry_equiv_pos_as_xyz
  1  'x, y, z'
loop_
 _atom_site_type_symbol
 _atom_site_label
 _atom_site_symmetry_multiplicity
 _atom_site_fract_x
 _atom_site_fract_y
 _atom_site_fract_z
 _atom_site_occupancy
  Ca  Ca0  1  0.97427583  0.00031242  0.74996425  1
  La  La1  1  0.01654024  0.99390459  0.25089734  1
  La  La2  1  0.47729471  0.49489468  0.74931815  1
  Mn  Mn3  1  0.50093198  0.99900788  0.49637946  1
  Mn  Mn4  1  0.99518180  0.49618112  0.00390683  1
  Fe  Fe5  1  0.50085338  0.00120415  0.00535538  1
  Fe  Fe6  1  0.99235256  0.49622884  0.49500227  1
  O  O7  1  0.01260324  0.56011761  0.75214029  1
  O  O8  1  0.21807106  0.22465101  0.96552064  1
  O  O9  1  0.22346338  0.21873302  0.53410816  1
  O  O10  1  0.26019864  0.73212623  0.02515695  1
  O  O11  1  0.26852284  0.73583111  0.47402059  1
  O  O12  1  0.50038995  0.05449904  0.25332432  1
  O  O13  1  0.49849602  0.94143334  0.74813150  1
  O  O14  1  0.73186688  0.26055837  0.54287945  1
  O  O15  1  0.73495594  0.26824350  0.95575540  1
  O  O16  1  0.78175919  0.78608496  0.48531273  1
  O  O17  1  0.78784595  0.78311276  0.01567539  1
  O  O18  1  0.99004443  0.44247539  0.24733690  1
