# generated using pymatgen
data_Ce2SnSe4
_symmetry_space_group_name_H-M   'P 1'
_cell_length_a   12.27404978
_cell_length_b   4.29976471
_cell_length_c   15.31692071
_cell_angle_alpha   90.00000000
_cell_angle_beta   90.00000000
_cell_angle_gamma   90.00000000
_symmetry_Int_Tables_number   1
_chemical_formula_structural   Ce2SnSe4
_chemical_formula_sum   'Ce8 Sn4 Se16'
_cell_volume   808.35854859
_cell_formula_units_Z   4
loop_
 _symmetry_equiv_pos_site_id
 _symmetry_equiv_pos_as_xyz
  1  'x, y, z'
loop_
 _atom_site_type_symbol
 _atom_site_label
 _atom_site_symmetry_multiplicity
 _atom_site_fract_x
 _atom_site_fract_y
 _atom_site_fract_z
 _atom_site_occupancy
  Ce  Ce0  1  0.10385725  0.74999900  0.09603661  1
  Ce  Ce1  1  0.39614175  0.24999900  0.59603661  1
  Ce  Ce2  1  0.56212553  0.74999900  0.89710755  1
  Ce  Ce3  1  0.93787447  0.24999900  0.39710755  1
  Ce  Ce4  1  0.06212553  0.74999900  0.60289345  1
  Ce  Ce5  1  0.43787347  0.24999900  0.10289245  1
  Ce  Ce6  1  0.89614175  0.24999900  0.90396339  1
  Ce  Ce7  1  0.60385825  0.74999900  0.40396339  1
  Sn  Sn8  1  0.76352599  0.24999900  0.66187179  1
  Sn  Sn9  1  0.73647301  0.74999900  0.16187179  1
  Sn  Sn10  1  0.26352699  0.24999900  0.83812821  1
  Sn  Sn11  1  0.23647401  0.74999900  0.33812821  1
  Se  Se12  1  0.44289437  0.24999900  0.40962306  1
  Se  Se13  1  0.05710463  0.74999900  0.90962306  1
  Se  Se14  1  0.94289537  0.24999900  0.09037694  1
  Se  Se15  1  0.55710463  0.74999900  0.59037694  1
  Se  Se16  1  0.98227791  0.24999900  0.71202069  1
  Se  Se17  1  0.51772209  0.74999900  0.21202069  1
  Se  Se18  1  0.48227691  0.24999900  0.78797931  1
  Se  Se19  1  0.01772309  0.74999900  0.28798031  1
  Se  Se20  1  0.15819485  0.24999900  0.48846012  1
  Se  Se21  1  0.34180515  0.74999900  0.98846012  1
  Se  Se22  1  0.65819485  0.24999900  0.01153988  1
  Se  Se23  1  0.84180515  0.74999900  0.51154088  1
  Se  Se24  1  0.23394073  0.24999900  0.19620793  1
  Se  Se25  1  0.26606027  0.74999900  0.69620793  1
  Se  Se26  1  0.73394073  0.24999900  0.30379207  1
  Se  Se27  1  0.76605927  0.74999900  0.80379207  1
