# generated using pymatgen
data_ZnBiF5
_symmetry_space_group_name_H-M   'P 1'
_cell_length_a   5.81336987
_cell_length_b   5.81556367
_cell_length_c   8.37152600
_cell_angle_alpha   100.18427882
_cell_angle_beta   108.03674050
_cell_angle_gamma   107.43185031
_symmetry_Int_Tables_number   1
_chemical_formula_structural   ZnBiF5
_chemical_formula_sum   'Zn2 Bi2 F10'
_cell_volume   245.15954016
_cell_formula_units_Z   2
loop_
 _symmetry_equiv_pos_site_id
 _symmetry_equiv_pos_as_xyz
  1  'x, y, z'
loop_
 _atom_site_type_symbol
 _atom_site_label
 _atom_site_symmetry_multiplicity
 _atom_site_fract_x
 _atom_site_fract_y
 _atom_site_fract_z
 _atom_site_occupancy
  Zn  Zn0  1  0.25629058  0.50355737  0.74924226  1
  Zn  Zn1  1  0.74045585  0.49038156  0.24793561  1
  Bi  Bi2  1  0.99986579  -0.00258616  0.99761847  1
  Bi  Bi3  1  0.49580845  0.99637466  0.49729490  1
  F  F4  1  0.38843096  0.13366862  0.24427389  1
  F  F5  1  0.60581425  0.85501133  0.74760362  1
  F  F6  1  0.57587360  0.67591186  0.35662733  1
  F  F7  1  0.83375510  0.22053272  0.14725418  1
  F  F8  1  0.77676564  0.66833665  0.06576942  1
  F  F9  1  0.09764731  0.70623612  0.43341745  1
  F  F10  1  0.23665217  0.33898801  0.94043777  1
  F  F11  1  0.89699264  0.28942406  0.56625239  1
  F  F12  1  0.17215752  0.77881745  0.85205598  1
  F  F13  1  0.42728313  0.31872977  0.64517773  1
