# generated using pymatgen
data_VZnO3
_symmetry_space_group_name_H-M   'P 1'
_cell_length_a   5.15386382
_cell_length_b   5.15050570
_cell_length_c   7.64351242
_cell_angle_alpha   90.00287454
_cell_angle_beta   90.00122416
_cell_angle_gamma   89.99203303
_symmetry_Int_Tables_number   1
_chemical_formula_structural   VZnO3
_chemical_formula_sum   'V4 Zn4 O12'
_cell_volume   202.89707335
_cell_formula_units_Z   4
loop_
 _symmetry_equiv_pos_site_id
 _symmetry_equiv_pos_as_xyz
  1  'x, y, z'
loop_
 _atom_site_type_symbol
 _atom_site_label
 _atom_site_symmetry_multiplicity
 _atom_site_fract_x
 _atom_site_fract_y
 _atom_site_fract_z
 _atom_site_occupancy
  V  V0  1  0.50000011  -0.00000456  0.00000087  1
  V  V1  1  0.00000015  0.50000324  -0.00000123  1
  V  V2  1  0.00000039  0.50000132  0.50000272  1
  V  V3  1  0.49999834  0.99999980  0.49999979  1
  Zn  Zn4  1  0.00686410  0.03355778  0.24997318  1
  Zn  Zn5  1  0.50684450  0.46643015  0.75002323  1
  Zn  Zn6  1  0.49315587  0.53357035  0.24997604  1
  Zn  Zn7  1  0.99313553  0.96644110  0.75002600  1
  O  O8  1  0.88618896  0.57278493  0.74989730  1
  O  O9  1  0.38614778  0.92719237  0.25005566  1
  O  O10  1  0.61385215  0.07280819  0.74994379  1
  O  O11  1  0.11381129  0.42721476  0.25010216  1
  O  O12  1  0.67025278  0.30864910  0.43786506  1
  O  O13  1  0.17009449  0.19159465  0.56211126  1
  O  O14  1  0.82984904  0.80854055  0.06216451  1
  O  O15  1  0.32978595  0.69137563  0.93782487  1
  O  O16  1  0.67021438  0.30862533  0.06217515  1
  O  O17  1  0.17015101  0.19145819  0.93783541  1
  O  O18  1  0.32974713  0.69135221  0.56213422  1
  O  O19  1  0.82990605  0.80840692  0.43788801  1
