# generated using pymatgen
data_Li9Mn2Co5O16
_symmetry_space_group_name_H-M   'P 1'
_cell_length_a   3.00709747
_cell_length_b   4.99486086
_cell_length_c   19.41019114
_cell_angle_alpha   92.89503169
_cell_angle_beta   83.08181248
_cell_angle_gamma   92.79066021
_symmetry_Int_Tables_number   1
_chemical_formula_structural   Li9Mn2Co5O16
_chemical_formula_sum   'Li9 Mn2 Co5 O16'
_cell_volume   288.78269212
_cell_formula_units_Z   1
loop_
 _symmetry_equiv_pos_site_id
 _symmetry_equiv_pos_as_xyz
  1  'x, y, z'
loop_
 _atom_site_type_symbol
 _atom_site_label
 _atom_site_symmetry_multiplicity
 _atom_site_fract_x
 _atom_site_fract_y
 _atom_site_fract_z
 _atom_site_occupancy
  Li  Li0  1  0.87030466  0.36733398  0.13198274  1
  Li  Li1  1  0.13869256  0.62262019  0.37068318  1
  Li  Li2  1  0.37396701  0.87511700  0.62478565  1
  Li  Li3  1  0.63222812  0.12198621  0.87215614  1
  Li  Li4  1  0.35784211  0.87878640  0.13196645  1
  Li  Li5  1  0.62147254  0.13383660  0.37137743  1
  Li  Li6  1  0.87356208  0.37634695  0.62477165  1
  Li  Li7  1  0.13202989  0.62298110  0.87213526  1
  Li  Li8  1  0.24995146  0.24965854  0.25075647  1
  Mn  Mn9  1  0.99755583  0.99968104  0.00087849  1
  Mn  Mn10  1  0.49755160  0.49991156  0.00065395  1
  Co  Co11  1  0.50224061  0.50003719  0.49915599  1
  Co  Co12  1  0.75155981  0.74976565  0.74908893  1
  Co  Co13  1  0.74968185  0.75025026  0.25076611  1
  Co  Co14  1  0.00333657  0.99951121  0.49933439  1
  Co  Co15  1  0.25154477  0.24975672  0.74911213  1
  O  O16  1  0.40563675  0.19495108  0.06032934  1
  O  O17  1  0.68725832  0.47507394  0.30645877  1
  O  O18  1  0.95135594  0.69265982  0.55827809  1
  O  O19  1  0.16161224  0.94590670  0.80551695  1
  O  O20  1  0.90763625  0.69162174  0.05835749  1
  O  O21  1  0.21783732  0.91523628  0.30400677  1
  O  O22  1  0.44823780  0.19415147  0.55787576  1
  O  O23  1  0.66178300  0.44622779  0.80551299  1
  O  O24  1  0.28240411  0.58424811  0.19716912  1
  O  O25  1  0.54989860  0.81017013  0.44260988  1
  O  O26  1  0.83817308  0.05447059  0.69329415  1
  O  O27  1  0.09141941  0.30449435  0.94131170  1
  O  O28  1  0.81210397  0.02581036  0.19488955  1
  O  O29  1  0.05075834  0.30692096  0.44044816  1
  O  O30  1  0.33844680  0.55466269  0.69329023  1
  O  O31  1  0.59191662  0.80581338  0.94104609  1
