# generated using pymatgen
data_CaSbF5
_symmetry_space_group_name_H-M   'P 1'
_cell_length_a   5.96985530
_cell_length_b   5.99815494
_cell_length_c   8.38870770
_cell_angle_alpha   97.37903260
_cell_angle_beta   111.81849385
_cell_angle_gamma   107.68907598
_symmetry_Int_Tables_number   1
_chemical_formula_structural   CaSbF5
_chemical_formula_sum   'Ca2 Sb2 F10'
_cell_volume   255.59722816
_cell_formula_units_Z   2
loop_
 _symmetry_equiv_pos_site_id
 _symmetry_equiv_pos_as_xyz
  1  'x, y, z'
loop_
 _atom_site_type_symbol
 _atom_site_label
 _atom_site_symmetry_multiplicity
 _atom_site_fract_x
 _atom_site_fract_y
 _atom_site_fract_z
 _atom_site_occupancy
  Ca  Ca0  1  0.28223965  0.52963164  0.74957577  1
  Ca  Ca1  1  0.72134230  0.46918823  0.24876366  1
  Sb  Sb2  1  0.00817818  0.00149884  0.00179641  1
  Sb  Sb3  1  0.49845546  -0.00492187  0.49980627  1
  F  F4  1  0.37818174  0.13241120  0.24515224  1
  F  F5  1  0.62272868  0.87545339  0.74253491  1
  F  F6  1  0.60231805  0.73199903  0.37614679  1
  F  F7  1  0.86693113  0.22374139  0.13076101  1
  F  F8  1  0.74307609  0.68029679  0.04014378  1
  F  F9  1  0.14117663  0.69067783  0.46251527  1
  F  F10  1  0.25799072  0.31668960  0.95804681  1
  F  F11  1  0.85848483  0.29208066  0.54630557  1
  F  F12  1  0.14770079  0.77809665  0.87510897  1
  F  F13  1  0.41149773  0.26662463  0.63153653  1
