# generated using pymatgen
data_Zn(CoO2)2
_symmetry_space_group_name_H-M   'P 1'
_cell_length_a   5.86809638
_cell_length_b   5.81747053
_cell_length_c   23.29802016
_cell_angle_alpha   60.04030010
_cell_angle_beta   60.08630444
_cell_angle_gamma   60.28497145
_symmetry_Int_Tables_number   1
_chemical_formula_structural   Zn(CoO2)2
_chemical_formula_sum   'Zn8 Co16 O32'
_cell_volume   564.12921177
_cell_formula_units_Z   8
loop_
 _symmetry_equiv_pos_site_id
 _symmetry_equiv_pos_as_xyz
  1  'x, y, z'
loop_
 _atom_site_type_symbol
 _atom_site_label
 _atom_site_symmetry_multiplicity
 _atom_site_fract_x
 _atom_site_fract_y
 _atom_site_fract_z
 _atom_site_occupancy
  Zn  Zn0  1  0.13760315  0.12133495  0.02993721  1
  Zn  Zn1  1  0.99801049  0.50015949  0.12541341  1
  Zn  Zn2  1  0.13642978  0.11911374  0.28133076  1
  Zn  Zn3  1  0.99935863  0.50103212  0.37464368  1
  Zn  Zn4  1  0.99994657  0.50041792  0.62480481  1
  Zn  Zn5  1  0.50000286  0.50185652  0.49906896  1
  Zn  Zn6  1  0.99803689  0.49990333  0.87553615  1
  Zn  Zn7  1  0.49924986  0.49899448  0.75068995  1
  Co  Co8  1  0.49978541  0.49922440  0.12515219  1
  Co  Co9  1  0.50036799  0.50005433  0.24988151  1
  Co  Co10  1  0.49979245  0.00037533  0.12515296  1
  Co  Co11  1  0.13013199  0.11944377  0.53274175  1
  Co  Co12  1  0.49963733  0.50003143  0.37383101  1
  Co  Co13  1  0.86832615  0.87828183  0.21878059  1
  Co  Co14  1  0.12999618  0.11995572  0.78251993  1
  Co  Co15  1  0.49964034  0.00500757  0.37383101  1
  Co  Co16  1  0.50038068  0.50021998  0.62482189  1
  Co  Co17  1  0.87091861  0.88151842  0.46651580  1
  Co  Co18  1  0.50037758  0.00010809  0.62482301  1
  Co  Co19  1  0.50052928  0.99514375  0.87603125  1
  Co  Co20  1  0.50052613  0.50019865  0.87603277  1
  Co  Co21  1  0.86894336  0.88042128  0.71755625  1
  Co  Co22  1  0.49939750  0.49874014  0.00078167  1
  Co  Co23  1  0.86632436  0.87803740  0.96940347  1
  O  O24  1  0.28255877  0.25274309  0.06398192  1
  O  O25  1  0.28190190  0.25350265  0.17776987  1
  O  O26  1  0.28256049  0.70876507  0.06398069  1
  O  O27  1  0.71216408  0.26255461  0.06568147  1
  O  O28  1  0.28713931  0.73700282  0.18471465  1
  O  O29  1  0.28240591  0.25618795  0.31351392  1
  O  O30  1  0.71575977  0.28614921  0.18710153  1
  O  O31  1  0.27769249  0.24597009  0.43259590  1
  O  O32  1  0.28240419  0.70734696  0.31351287  1
  O  O33  1  0.71597934  0.74844750  0.07178097  1
  O  O34  1  0.71051527  0.26419253  0.31527658  1
  O  O35  1  0.71576842  0.74968927  0.18710146  1
  O  O36  1  0.26956294  0.23624764  0.56704053  1
  O  O37  1  0.27001986  0.75630205  0.42934168  1
  O  O38  1  0.73300723  0.27329761  0.43185932  1
  O  O39  1  0.27960293  0.24726547  0.68146868  1
  O  O40  1  0.26955760  0.72602650  0.56704027  1
  O  O41  1  0.71460434  0.75083897  0.32092858  1
  O  O42  1  0.72783677  0.24739052  0.56934793  1
  O  O43  1  0.73300199  0.76626550  0.43185989  1
  O  O44  1  0.27224163  0.75306538  0.68040407  1
  O  O45  1  0.26894941  0.23241455  0.81760446  1
  O  O46  1  0.73139146  0.27361156  0.68280064  1
  O  O47  1  0.28273089  0.25465197  0.92698882  1
  O  O48  1  0.26894023  0.72821115  0.81760601  1
  O  O49  1  0.72138560  0.75335467  0.56797316  1
  O  O50  1  0.73104925  0.24434325  0.82007081  1
  O  O51  1  0.73138056  0.76379629  0.68280208  1
  O  O52  1  0.28814518  0.73559511  0.93516662  1
  O  O53  1  0.71538467  0.28708834  0.93761189  1
  O  O54  1  0.72525387  0.75101683  0.81817642  1
  O  O55  1  0.71539107  0.74709125  0.93761133  1
