# generated using pymatgen
data_ZnBiO3
_symmetry_space_group_name_H-M   'P 1'
_cell_length_a   5.65178646
_cell_length_b   5.59044687
_cell_length_c   8.41984743
_cell_angle_alpha   90.01840686
_cell_angle_beta   91.47850166
_cell_angle_gamma   90.00237828
_symmetry_Int_Tables_number   1
_chemical_formula_structural   ZnBiO3
_chemical_formula_sum   'Zn4 Bi4 O12'
_cell_volume   265.94501674
_cell_formula_units_Z   4
loop_
 _symmetry_equiv_pos_site_id
 _symmetry_equiv_pos_as_xyz
  1  'x, y, z'
loop_
 _atom_site_type_symbol
 _atom_site_label
 _atom_site_symmetry_multiplicity
 _atom_site_fract_x
 _atom_site_fract_y
 _atom_site_fract_z
 _atom_site_occupancy
  Zn  Zn0  1  0.02156138  0.02037870  0.24812772  1
  Zn  Zn1  1  0.52157722  0.47958766  0.74790008  1
  Zn  Zn2  1  0.47842128  0.52041109  0.25209686  1
  Zn  Zn3  1  0.97843910  0.97962319  0.75186945  1
  Bi  Bi4  1  0.49999885  0.99999623  0.99999893  1
  Bi  Bi5  1  0.99999871  0.49999875  -0.00000114  1
  Bi  Bi6  1  0.00000040  0.50000290  0.50000048  1
  Bi  Bi7  1  0.50000012  0.00000239  0.49999788  1
  O  O8  1  0.86265371  0.62752212  0.73406282  1
  O  O9  1  0.36255670  0.87247634  0.23407900  1
  O  O10  1  0.63744637  0.12752377  0.76592107  1
  O  O11  1  0.13734671  0.37248089  0.26593704  1
  O  O12  1  0.66834347  0.35458879  0.42516885  1
  O  O13  1  0.13867193  0.16877510  0.58522000  1
  O  O14  1  0.83166157  0.85471257  0.07494075  1
  O  O15  1  0.36144424  0.66863774  0.91469486  1
  O  O16  1  0.63855620  0.33135268  0.08530869  1
  O  O17  1  0.16833792  0.14528177  0.92506026  1
  O  O18  1  0.33165478  0.64541920  0.57483390  1
  O  O19  1  0.86132936  0.83123010  0.41478050  1
