# generated using pymatgen
data_Mg6ZrCd
_symmetry_space_group_name_H-M   'P 1'
_cell_length_a   6.41123032
_cell_length_b   6.41122980
_cell_length_c   5.03437698
_cell_angle_alpha   90.00000000
_cell_angle_beta   90.00000000
_cell_angle_gamma   120.01953785
_symmetry_Int_Tables_number   1
_chemical_formula_structural   Mg6ZrCd
_chemical_formula_sum   'Mg6 Zr1 Cd1'
_cell_volume   179.17340679
_cell_formula_units_Z   1
loop_
 _symmetry_equiv_pos_site_id
 _symmetry_equiv_pos_as_xyz
  1  'x, y, z'
loop_
 _atom_site_type_symbol
 _atom_site_label
 _atom_site_symmetry_multiplicity
 _atom_site_fract_x
 _atom_site_fract_y
 _atom_site_fract_z
 _atom_site_occupancy
  Mg  Mg0  1  0.17028505  0.83353491  0.25000000  1
  Mg  Mg1  1  0.66646509  0.32971495  0.25000000  1
  Mg  Mg2  1  0.66509469  0.83490531  0.25000000  1
  Mg  Mg3  1  0.33105544  0.66358687  0.75000000  1
  Mg  Mg4  1  0.83641313  0.16894456  0.75000000  1
  Mg  Mg5  1  0.83291608  0.66708392  0.75000000  1
  Zr  Zr6  1  0.16872042  0.33127958  0.25000000  1
  Cd  Cd7  1  0.32905009  0.17094991  0.75000000  1
