# generated using pymatgen
data_MgFe2O5
_symmetry_space_group_name_H-M   'P 1'
_cell_length_a   5.19833165
_cell_length_b   5.58201849
_cell_length_c   7.18258593
_cell_angle_alpha   71.71923639
_cell_angle_beta   90.07964546
_cell_angle_gamma   62.26206467
_symmetry_Int_Tables_number   1
_chemical_formula_structural   MgFe2O5
_chemical_formula_sum   'Mg2 Fe4 O10'
_cell_volume   172.44374223
_cell_formula_units_Z   2
loop_
 _symmetry_equiv_pos_site_id
 _symmetry_equiv_pos_as_xyz
  1  'x, y, z'
loop_
 _atom_site_type_symbol
 _atom_site_label
 _atom_site_symmetry_multiplicity
 _atom_site_fract_x
 _atom_site_fract_y
 _atom_site_fract_z
 _atom_site_occupancy
  Mg  Mg0  1  0.99630882  0.00023626  0.49802230  1
  Mg  Mg1  1  0.00276519  0.00076248  0.99835369  1
  Fe  Fe2  1  0.62091568  0.75169886  0.71341396  1
  Fe  Fe3  1  0.62625497  0.75361877  0.21339630  1
  Fe  Fe4  1  0.36796590  0.26127685  0.78710772  1
  Fe  Fe5  1  0.36926425  0.26446412  0.28681757  1
  O  O6  1  0.73435671  0.83378752  0.94345050  1
  O  O7  1  0.43150189  0.83368638  0.44371575  1
  O  O8  1  0.01276833  0.61290851  0.66890851  1
  O  O9  1  0.63469571  0.39885406  0.83304308  1
  O  O10  1  0.37406269  0.61539518  0.16638165  1
  O  O11  1  0.96355788  0.40012241  0.33195234  1
  O  O12  1  0.57010056  0.15669718  0.56265021  1
  O  O13  1  0.21788766  0.99552106  0.74734706  1
  O  O14  1  0.27295224  0.15769824  0.06228181  1
  O  O15  1  0.78634253  0.99471513  0.24773357  1
