# generated using pymatgen
data_Mg6GaSn
_symmetry_space_group_name_H-M   'P 1'
_cell_length_a   6.25522876
_cell_length_b   6.38309999
_cell_length_c   5.18897429
_cell_angle_alpha   90.00000000
_cell_angle_beta   90.00000000
_cell_angle_gamma   120.67856658
_symmetry_Int_Tables_number   1
_chemical_formula_structural   Mg6GaSn
_chemical_formula_sum   'Mg6 Ga1 Sn1'
_cell_volume   178.18725131
_cell_formula_units_Z   1
loop_
 _symmetry_equiv_pos_site_id
 _symmetry_equiv_pos_as_xyz
  1  'x, y, z'
loop_
 _atom_site_type_symbol
 _atom_site_label
 _atom_site_symmetry_multiplicity
 _atom_site_fract_x
 _atom_site_fract_y
 _atom_site_fract_z
 _atom_site_occupancy
  Mg  Mg0  1  0.66710686  0.33364599  0.25000000  1
  Mg  Mg1  1  0.66710686  0.83345987  0.25000000  1
  Mg  Mg2  1  0.33264035  0.16274754  0.75000000  1
  Mg  Mg3  1  0.33264035  0.66989381  0.75000000  1
  Mg  Mg4  1  0.83208278  0.16604189  0.75000000  1
  Mg  Mg5  1  0.83589696  0.66794898  0.75000000  1
  Ga  Ga6  1  0.16581593  0.83290746  0.25000000  1
  Sn  Sn7  1  0.16670991  0.33335445  0.25000000  1
