# generated using pymatgen
data_ZrIr
_symmetry_space_group_name_H-M   'P 1'
_cell_length_a   4.43872608
_cell_length_b   4.43151953
_cell_length_c   3.66306757
_cell_angle_alpha   90.00000000
_cell_angle_beta   90.20969746
_cell_angle_gamma   90.00000000
_symmetry_Int_Tables_number   1
_chemical_formula_structural   ZrIr
_chemical_formula_sum   'Zr2 Ir2'
_cell_volume   72.05316036
_cell_formula_units_Z   2
loop_
 _symmetry_equiv_pos_site_id
 _symmetry_equiv_pos_as_xyz
  1  'x, y, z'
loop_
 _atom_site_type_symbol
 _atom_site_label
 _atom_site_symmetry_multiplicity
 _atom_site_fract_x
 _atom_site_fract_y
 _atom_site_fract_z
 _atom_site_occupancy
  Zr  Zr0  1  0.25021245  0.25000000  0.49921021  1
  Zr  Zr1  1  0.74978755  0.75000000  0.50078979  1
  Ir  Ir2  1  0.25002651  0.75000000  0.99511408  1
  Ir  Ir3  1  0.74997349  0.25000000  0.00488592  1
