# generated using pymatgen
data_Te2Mo2W(SeS)2
_symmetry_space_group_name_H-M   'P 1'
_cell_length_a   3.34961916
_cell_length_b   3.34971502
_cell_length_c   31.03796090
_cell_angle_alpha   89.99983426
_cell_angle_beta   90.00000000
_cell_angle_gamma   119.99905339
_symmetry_Int_Tables_number   1
_chemical_formula_structural   Te2Mo2W(SeS)2
_chemical_formula_sum   'Te2 Mo2 W1 Se2 S2'
_cell_volume   301.59993811
_cell_formula_units_Z   1
loop_
 _symmetry_equiv_pos_site_id
 _symmetry_equiv_pos_as_xyz
  1  'x, y, z'
loop_
 _atom_site_type_symbol
 _atom_site_label
 _atom_site_symmetry_multiplicity
 _atom_site_fract_x
 _atom_site_fract_y
 _atom_site_fract_z
 _atom_site_occupancy
  Te  Te0  1  0.66664773  0.33329446  0.51729511  1
  Te  Te1  1  0.66664262  0.33328424  0.63946590  1
  Mo  Mo2  1  0.33330119  0.66660239  0.11565117  1
  Mo  Mo3  1  0.33331651  0.66663303  0.57840086  1
  W  W4  1  0.66668206  0.33336412  0.34690185  1
  Se  Se5  1  0.33335006  0.66670112  0.40083082  1
  Se  Se6  1  0.33335043  0.66670185  0.29299030  1
  S  S7  1  0.66665500  0.33330899  0.06683870  1
  S  S8  1  0.66665539  0.33330979  0.16446627  1
