# generated using pymatgen
data_Mg14CuSb
_symmetry_space_group_name_H-M   'P 1'
_cell_length_a   6.27664179
_cell_length_b   6.27664130
_cell_length_c   10.30466980
_cell_angle_alpha   90.00000000
_cell_angle_beta   90.00000000
_cell_angle_gamma   120.00000264
_symmetry_Int_Tables_number   1
_chemical_formula_structural   Mg14CuSb
_chemical_formula_sum   'Mg14 Cu1 Sb1'
_cell_volume   351.57610797
_cell_formula_units_Z   1
loop_
 _symmetry_equiv_pos_site_id
 _symmetry_equiv_pos_as_xyz
  1  'x, y, z'
loop_
 _atom_site_type_symbol
 _atom_site_label
 _atom_site_symmetry_multiplicity
 _atom_site_fract_x
 _atom_site_fract_y
 _atom_site_fract_z
 _atom_site_occupancy
  Mg  Mg0  1  0.16445651  0.83222776  0.12500000  1
  Mg  Mg1  1  0.16694347  0.83347124  0.62500000  1
  Mg  Mg2  1  0.66777224  0.33554349  0.12500000  1
  Mg  Mg3  1  0.66652876  0.33305653  0.62500000  1
  Mg  Mg4  1  0.66777224  0.83222776  0.12500000  1
  Mg  Mg5  1  0.66652876  0.83347124  0.62500000  1
  Mg  Mg6  1  0.33118453  0.16881547  0.36430483  1
  Mg  Mg7  1  0.33118453  0.16881547  0.88569517  1
  Mg  Mg8  1  0.33118453  0.66237007  0.36430483  1
  Mg  Mg9  1  0.33118453  0.66237007  0.88569517  1
  Mg  Mg10  1  0.83762993  0.16881547  0.36430483  1
  Mg  Mg11  1  0.83762993  0.16881547  0.88569517  1
  Mg  Mg12  1  0.83333300  0.66666700  0.37458994  1
  Mg  Mg13  1  0.83333300  0.66666700  0.87541006  1
  Cu  Cu14  1  0.16666700  0.33333300  0.12500000  1
  Sb  Sb15  1  0.16666700  0.33333300  0.62500000  1
