# generated using pymatgen
data_MgFe2O5
_symmetry_space_group_name_H-M   'P 1'
_cell_length_a   5.16364525
_cell_length_b   5.60351901
_cell_length_c   7.12748409
_cell_angle_alpha   72.35558211
_cell_angle_beta   89.99999995
_cell_angle_gamma   62.56446438
_symmetry_Int_Tables_number   1
_chemical_formula_structural   MgFe2O5
_chemical_formula_sum   'Mg2 Fe4 O10'
_cell_volume   172.03087344
_cell_formula_units_Z   2
loop_
 _symmetry_equiv_pos_site_id
 _symmetry_equiv_pos_as_xyz
  1  'x, y, z'
loop_
 _atom_site_type_symbol
 _atom_site_label
 _atom_site_symmetry_multiplicity
 _atom_site_fract_x
 _atom_site_fract_y
 _atom_site_fract_z
 _atom_site_occupancy
  Mg  Mg0  1  0.00000000  -0.00000000  0.50000000  1
  Mg  Mg1  1  0.00000000  -0.00000000  -0.00000000  1
  Fe  Fe2  1  0.62644026  0.74210585  0.71658381  1
  Fe  Fe3  1  0.63145289  0.74210585  0.21658381  1
  Fe  Fe4  1  0.36854711  0.25789415  0.78341619  1
  Fe  Fe5  1  0.37355974  0.25789415  0.28341619  1
  O  O6  1  0.73728584  0.82726618  0.94452413  1
  O  O7  1  0.43544698  0.82726618  0.44452413  1
  O  O8  1  0.01793794  0.61256986  0.66442097  1
  O  O9  1  0.63050681  0.38743014  0.83557903  1
  O  O10  1  0.36949319  0.61256986  0.16442097  1
  O  O11  1  0.98206206  0.38743014  0.33557903  1
  O  O12  1  0.56455302  0.17273382  0.55547587  1
  O  O13  1  0.21778069  1.00000000  0.75000000  1
  O  O14  1  0.26271416  0.17273382  0.05547587  1
  O  O15  1  0.78221931  0.00000000  0.25000000  1
