# generated using pymatgen
data_TeMoWSe2S
_symmetry_space_group_name_H-M   'P 1'
_cell_length_a   3.34548620
_cell_length_b   3.34544245
_cell_length_c   38.14052821
_cell_angle_alpha   89.99996881
_cell_angle_beta   89.99987261
_cell_angle_gamma   120.00005648
_symmetry_Int_Tables_number   1
_chemical_formula_structural   TeMoWSe2S
_chemical_formula_sum   'Te2 Mo2 W2 Se4 S2'
_cell_volume   369.68335252
_cell_formula_units_Z   2
loop_
 _symmetry_equiv_pos_site_id
 _symmetry_equiv_pos_as_xyz
  1  'x, y, z'
loop_
 _atom_site_type_symbol
 _atom_site_label
 _atom_site_symmetry_multiplicity
 _atom_site_fract_x
 _atom_site_fract_y
 _atom_site_fract_z
 _atom_site_occupancy
  Te  Te0  1  0.33335153  0.66670518  0.33175953  1
  Te  Te1  1  0.33335482  0.66671134  0.23169767  1
  Mo  Mo2  1  0.33328239  0.66657419  0.09389217  1
  Mo  Mo3  1  0.66669230  0.33338046  0.65755074  1
  W  W4  1  0.33330761  0.66662163  0.46973797  1
  W  W5  1  0.66669592  0.33338647  0.28171709  1
  Se  Se6  1  0.33335008  0.66670158  0.70127895  1
  Se  Se7  1  0.66664980  0.33329664  0.42580079  1
  Se  Se8  1  0.66665435  0.33330585  0.51367908  1
  Se  Se9  1  0.33337179  0.66673209  0.61381000  1
  S  S10  1  0.66665071  0.33330142  0.05414763  1
  S  S11  1  0.66663868  0.33328315  0.13367639  1
