# generated using pymatgen
data_Te2Mo3W(Se2S)2
_symmetry_space_group_name_H-M   'P 1'
_cell_length_a   3.34698010
_cell_length_b   3.34701716
_cell_length_c   38.08762516
_cell_angle_alpha   89.99969595
_cell_angle_beta   90.00000000
_cell_angle_gamma   119.99963377
_symmetry_Int_Tables_number   1
_chemical_formula_structural   Te2Mo3W(Se2S)2
_chemical_formula_sum   'Te2 Mo3 W1 Se4 S2'
_cell_volume   369.51085180
_cell_formula_units_Z   1
loop_
 _symmetry_equiv_pos_site_id
 _symmetry_equiv_pos_as_xyz
  1  'x, y, z'
loop_
 _atom_site_type_symbol
 _atom_site_label
 _atom_site_symmetry_multiplicity
 _atom_site_fract_x
 _atom_site_fract_y
 _atom_site_fract_z
 _atom_site_occupancy
  Te  Te0  1  0.33335244  0.66670588  0.33185214  1
  Te  Te1  1  0.33335212  0.66670524  0.23165233  1
  Mo  Mo2  1  0.33330244  0.66660487  0.09391238  1
  Mo  Mo3  1  0.33331250  0.66662501  0.46970747  1
  Mo  Mo4  1  0.66668884  0.33337767  0.65753633  1
  W  W5  1  0.66668749  0.33337498  0.28177230  1
  Se  Se6  1  0.33335840  0.66671780  0.70132836  1
  Se  Se7  1  0.66665402  0.33330704  0.42591941  1
  Se  Se8  1  0.66663784  0.33327468  0.51347777  1
  Se  Se9  1  0.33335137  0.66670374  0.61374261  1
  S  S10  1  0.66665239  0.33330378  0.05407867  1
  S  S11  1  0.66665015  0.33329929  0.13376822  1
