# generated using pymatgen
data_Te2Mo3W(Se2S)2
_symmetry_space_group_name_H-M   'P 1'
_cell_length_a   3.34619512
_cell_length_b   3.34617545
_cell_length_c   38.00556632
_cell_angle_alpha   89.99921710
_cell_angle_beta   90.00000000
_cell_angle_gamma   120.00019443
_symmetry_Int_Tables_number   1
_chemical_formula_structural   Te2Mo3W(Se2S)2
_chemical_formula_sum   'Te2 Mo3 W1 Se4 S2'
_cell_volume   368.53348969
_cell_formula_units_Z   1
loop_
 _symmetry_equiv_pos_site_id
 _symmetry_equiv_pos_as_xyz
  1  'x, y, z'
loop_
 _atom_site_type_symbol
 _atom_site_label
 _atom_site_symmetry_multiplicity
 _atom_site_fract_x
 _atom_site_fract_y
 _atom_site_fract_z
 _atom_site_occupancy
  Te  Te0  1  0.33335029  0.66670157  0.70768796  1
  Te  Te1  1  0.33335298  0.66670697  0.60741354  1
  Mo  Mo2  1  0.33330753  0.66661506  0.09392733  1
  Mo  Mo3  1  0.33331401  0.66662802  0.46962958  1
  Mo  Mo4  1  0.66669042  0.33338084  0.28181540  1
  W  W5  1  0.66668834  0.33337667  0.65757404  1
  Se  Se6  1  0.66663467  0.33326835  0.05015199  1
  Se  Se7  1  0.66664229  0.33328357  0.42585049  1
  Se  Se8  1  0.66664670  0.33329239  0.13769744  1
  Se  Se9  1  0.66664837  0.33329575  0.51341143  1
  S  S10  1  0.33336303  0.66672706  0.32173760  1
  S  S11  1  0.33336138  0.66672375  0.24185119  1
