# generated using pymatgen
data_Te2Mo3W(Se2S)2
_symmetry_space_group_name_H-M   'P 1'
_cell_length_a   3.34707860
_cell_length_b   3.34707975
_cell_length_c   38.09716854
_cell_angle_alpha   90.00027744
_cell_angle_beta   90.00000000
_cell_angle_gamma   119.99998867
_symmetry_Int_Tables_number   1
_chemical_formula_structural   Te2Mo3W(Se2S)2
_chemical_formula_sum   'Te2 Mo3 W1 Se4 S2'
_cell_volume   369.61990531
_cell_formula_units_Z   1
loop_
 _symmetry_equiv_pos_site_id
 _symmetry_equiv_pos_as_xyz
  1  'x, y, z'
loop_
 _atom_site_type_symbol
 _atom_site_label
 _atom_site_symmetry_multiplicity
 _atom_site_fract_x
 _atom_site_fract_y
 _atom_site_fract_z
 _atom_site_occupancy
  Te  Te0  1  0.66664898  0.33329697  0.41954680  1
  Te  Te1  1  0.66665114  0.33330128  0.51967952  1
  Mo  Mo2  1  0.33330936  0.66661872  0.09392466  1
  Mo  Mo3  1  0.66667614  0.33335228  0.28178833  1
  Mo  Mo4  1  0.66668692  0.33337383  0.65758654  1
  W  W5  1  0.33331509  0.66663017  0.46962980  1
  Se  Se6  1  0.33335239  0.66670579  0.70134488  1
  Se  Se7  1  0.66664108  0.33328115  0.05016840  1
  Se  Se8  1  0.66664303  0.33328507  0.13769020  1
  Se  Se9  1  0.33335069  0.66670237  0.61380324  1
  S  S10  1  0.33336517  0.66673133  0.32159580  1
  S  S11  1  0.33336002  0.66672104  0.24198985  1
