# generated using pymatgen
data_Te2MoW3(Se2S)2
_symmetry_space_group_name_H-M   'P 1'
_cell_length_a   3.34561505
_cell_length_b   3.34541025
_cell_length_c   39.70672709
_cell_angle_alpha   89.99902416
_cell_angle_beta   90.00000000
_cell_angle_gamma   120.00202517
_symmetry_Int_Tables_number   1
_chemical_formula_structural   Te2MoW3(Se2S)2
_chemical_formula_sum   'Te2 Mo1 W3 Se4 S2'
_cell_volume   384.86747649
_cell_formula_units_Z   1
loop_
 _symmetry_equiv_pos_site_id
 _symmetry_equiv_pos_as_xyz
  1  'x, y, z'
loop_
 _atom_site_type_symbol
 _atom_site_label
 _atom_site_symmetry_multiplicity
 _atom_site_fract_x
 _atom_site_fract_y
 _atom_site_fract_z
 _atom_site_occupancy
  Te  Te0  1  0.66670109  0.33340117  0.42150254  1
  Te  Te1  1  0.66672260  0.33344419  0.51755619  1
  Mo  Mo2  1  0.33336283  0.66672567  0.09390709  1
  W  W3  1  0.33338707  0.66677414  0.46953356  1
  W  W4  1  0.66663843  0.33327686  0.28098323  1
  W  W5  1  0.66664474  0.33328948  0.65850143  1
  Se  Se6  1  0.33327979  0.66656057  0.32313552  1
  Se  Se7  1  0.33332043  0.66664187  0.70064665  1
  Se  Se8  1  0.33328570  0.66657239  0.23879797  1
  Se  Se9  1  0.33332278  0.66664656  0.61635725  1
  S  S10  1  0.66665621  0.33331142  0.05568665  1
  S  S11  1  0.66667834  0.33335567  0.13213991  1
