# generated using pymatgen
data_TeMoWSe2S
_symmetry_space_group_name_H-M   'P 1'
_cell_length_a   3.34513931
_cell_length_b   3.34515050
_cell_length_c   39.74614054
_cell_angle_alpha   89.99458793
_cell_angle_beta   90.00000000
_cell_angle_gamma   119.99988940
_symmetry_Int_Tables_number   1
_chemical_formula_structural   TeMoWSe2S
_chemical_formula_sum   'Te2 Mo2 W2 Se4 S2'
_cell_volume   385.17309917
_cell_formula_units_Z   2
loop_
 _symmetry_equiv_pos_site_id
 _symmetry_equiv_pos_as_xyz
  1  'x, y, z'
loop_
 _atom_site_type_symbol
 _atom_site_label
 _atom_site_symmetry_multiplicity
 _atom_site_fract_x
 _atom_site_fract_y
 _atom_site_fract_z
 _atom_site_occupancy
  Te  Te0  1  0.66668981  0.33337863  0.42149610  1
  Te  Te1  1  0.66664606  0.33329111  0.51744077  1
  Mo  Mo2  1  0.33323846  0.66647691  0.09392936  1
  Mo  Mo3  1  0.66673836  0.33347673  0.28111883  1
  W  W4  1  0.33333126  0.66666252  0.46946209  1
  W  W5  1  0.66668789  0.33337579  0.65841001  1
  Se  Se6  1  0.33337246  0.66674591  0.32299917  1
  Se  Se7  1  0.33334980  0.66670061  0.70050399  1
  Se  Se8  1  0.33343617  0.66687334  0.23919641  1
  Se  Se9  1  0.33335611  0.66671322  0.61633896  1
  S  S10  1  0.66659236  0.33318373  0.05578815  1
  S  S11  1  0.66656125  0.33312149  0.13206415  1
