# generated using pymatgen
data_TeMoWSe2S
_symmetry_space_group_name_H-M   'P 1'
_cell_length_a   3.34569674
_cell_length_b   3.34567183
_cell_length_c   38.11910411
_cell_angle_alpha   89.99985217
_cell_angle_beta   90.00000000
_cell_angle_gamma   120.00024626
_symmetry_Int_Tables_number   1
_chemical_formula_structural   TeMoWSe2S
_chemical_formula_sum   'Te2 Mo2 W2 Se4 S2'
_cell_volume   369.52357623
_cell_formula_units_Z   2
loop_
 _symmetry_equiv_pos_site_id
 _symmetry_equiv_pos_as_xyz
  1  'x, y, z'
loop_
 _atom_site_type_symbol
 _atom_site_label
 _atom_site_symmetry_multiplicity
 _atom_site_fract_x
 _atom_site_fract_y
 _atom_site_fract_z
 _atom_site_occupancy
  Te  Te0  1  0.33335058  0.66670215  0.33182289  1
  Te  Te1  1  0.33335069  0.66670237  0.23168529  1
  Mo  Mo2  1  0.33333266  0.66666532  0.09391462  1
  Mo  Mo3  1  0.33331443  0.66662885  0.46971226  1
  W  W4  1  0.66668625  0.33337250  0.28176087  1
  W  W5  1  0.66668948  0.33337895  0.65754329  1
  Se  Se6  1  0.33334877  0.66669854  0.70151805  1
  Se  Se7  1  0.66665326  0.33330553  0.42594798  1
  Se  Se8  1  0.66664746  0.33329393  0.51344564  1
  Se  Se9  1  0.33335897  0.66671894  0.61356570  1
  S  S10  1  0.66663483  0.33326866  0.05414206  1
  S  S11  1  0.66663262  0.33326424  0.13368934  1
