# generated using pymatgen
data_Fe4OF7
_symmetry_space_group_name_H-M   'P 1'
_cell_length_a   4.78028546
_cell_length_b   8.10381670
_cell_length_c   8.03901674
_cell_angle_alpha   72.53639015
_cell_angle_beta   90.00000000
_cell_angle_gamma   90.00000000
_symmetry_Int_Tables_number   1
_chemical_formula_structural   Fe4OF7
_chemical_formula_sum   'Fe8 O2 F14'
_cell_volume   297.06586338
_cell_formula_units_Z   2
loop_
 _symmetry_equiv_pos_site_id
 _symmetry_equiv_pos_as_xyz
  1  'x, y, z'
loop_
 _atom_site_type_symbol
 _atom_site_label
 _atom_site_symmetry_multiplicity
 _atom_site_fract_x
 _atom_site_fract_y
 _atom_site_fract_z
 _atom_site_occupancy
  Fe  Fe0  1  0.49052441  0.13960793  0.62207872  1
  Fe  Fe1  1  0.49987426  0.87292848  0.38128345  1
  Fe  Fe2  1  0.48353609  0.37345254  0.86473442  1
  Fe  Fe3  1  0.52050474  0.62934059  0.11694789  1
  Fe  Fe4  1  0.98353609  0.75154746  0.76026558  1
  Fe  Fe5  1  0.02050474  0.49565941  0.50805211  1
  Fe  Fe6  1  -0.00012574  0.25207152  0.24371655  1
  Fe  Fe7  1  0.99052441  0.98539207  0.00292128  1
  O  O8  1  0.80862662  0.77106386  0.96515452  1
  O  O9  1  0.30862662  0.35393614  0.65984548  1
  F  F10  1  0.80743057  0.27824422  0.46992405  1
  F  F11  1  0.79060402  0.53596974  0.72912212  1
  F  F12  1  0.80164621  0.02087695  0.22763785  1
  F  F13  1  0.69968714  0.90800626  0.60259599  1
  F  F14  1  0.70534927  0.16027264  0.85474522  1
  F  F15  1  0.70660015  0.64557419  0.35675414  1
  F  F16  1  0.68561653  0.38819464  0.08491090  1
  F  F17  1  0.30743057  0.84675578  0.15507595  1
  F  F18  1  0.29060402  0.58903026  0.89587788  1
  F  F19  1  0.30164621  0.10412305  0.39736215  1
  F  F20  1  0.19968714  0.21699374  0.02240401  1
  F  F21  1  0.18561653  0.73680536  0.54008910  1
  F  F22  1  0.20534927  0.96472736  0.77025478  1
  F  F23  1  0.20660015  0.47942581  0.26824586  1
