# generated using pymatgen
data_TeMoWSe2S
_symmetry_space_group_name_H-M   'P 1'
_cell_length_a   3.34536922
_cell_length_b   3.34559492
_cell_length_c   39.19699588
_cell_angle_alpha   90.00025173
_cell_angle_beta   90.00000000
_cell_angle_gamma   119.99776843
_symmetry_Int_Tables_number   1
_chemical_formula_structural   TeMoWSe2S
_chemical_formula_sum   'Te2 Mo2 W2 Se4 S2'
_cell_volume   379.93612842
_cell_formula_units_Z   2
loop_
 _symmetry_equiv_pos_site_id
 _symmetry_equiv_pos_as_xyz
  1  'x, y, z'
loop_
 _atom_site_type_symbol
 _atom_site_label
 _atom_site_symmetry_multiplicity
 _atom_site_fract_x
 _atom_site_fract_y
 _atom_site_fract_z
 _atom_site_occupancy
  Te  Te0  1  0.66669102  0.33338104  0.42104127  1
  Te  Te1  1  0.66665053  0.33330006  0.51828375  1
  Mo  Mo2  1  0.33327093  0.66654185  0.09386257  1
  Mo  Mo3  1  0.66680167  0.33360334  0.65830787  1
  W  W4  1  0.33332413  0.66664827  0.46963975  1
  W  W5  1  0.66664246  0.33328491  0.28111103  1
  Se  Se6  1  0.33328159  0.66656418  0.32380947  1
  Se  Se7  1  0.33339194  0.66678489  0.70076485  1
  Se  Se8  1  0.33329173  0.66658447  0.23841732  1
  Se  Se9  1  0.33340166  0.66680431  0.61580849  1
  S  S10  1  0.66660946  0.33321792  0.05522266  1
  S  S11  1  0.66664288  0.33328476  0.13247898  1
