# generated using pymatgen
data_Te2Mo3W(Se2S)2
_symmetry_space_group_name_H-M   'P 1'
_cell_length_a   3.34591626
_cell_length_b   3.34591676
_cell_length_c   38.02533157
_cell_angle_alpha   89.99990514
_cell_angle_beta   90.00000000
_cell_angle_gamma   119.99999503
_symmetry_Int_Tables_number   1
_chemical_formula_structural   Te2Mo3W(Se2S)2
_chemical_formula_sum   'Te2 Mo3 W1 Se4 S2'
_cell_volume   368.66665896
_cell_formula_units_Z   1
loop_
 _symmetry_equiv_pos_site_id
 _symmetry_equiv_pos_as_xyz
  1  'x, y, z'
loop_
 _atom_site_type_symbol
 _atom_site_label
 _atom_site_symmetry_multiplicity
 _atom_site_fract_x
 _atom_site_fract_y
 _atom_site_fract_z
 _atom_site_occupancy
  Te  Te0  1  0.33335268  0.66670635  0.70765711  1
  Te  Te1  1  0.33335299  0.66670699  0.60741756  1
  Mo  Mo2  1  0.33330702  0.66661404  0.09389885  1
  Mo  Mo3  1  0.33330954  0.66661908  0.46965419  1
  Mo  Mo4  1  0.66668971  0.33337941  0.28178517  1
  W  W5  1  0.66669094  0.33338188  0.65758253  1
  Se  Se6  1  0.33335814  0.66671729  0.32563606  1
  Se  Se7  1  0.66663640  0.33327181  0.05008764  1
  Se  Se8  1  0.66665029  0.33329958  0.13774952  1
  Se  Se9  1  0.33335127  0.66670355  0.23796562  1
  S  S10  1  0.66665201  0.33330302  0.42981018  1
  S  S11  1  0.66664900  0.33329701  0.50950359  1
