# generated using pymatgen
data_TeMoS
_symmetry_space_group_name_H-M   'P 1'
_cell_length_a   3.36554934
_cell_length_b   3.36551966
_cell_length_c   38.22693625
_cell_angle_alpha   90.00039596
_cell_angle_beta   90.00000000
_cell_angle_gamma   120.00029168
_symmetry_Int_Tables_number   1
_chemical_formula_structural   TeMoS
_chemical_formula_sum   'Te4 Mo4 S4'
_cell_volume   374.97899591
_cell_formula_units_Z   4
loop_
 _symmetry_equiv_pos_site_id
 _symmetry_equiv_pos_as_xyz
  1  'x, y, z'
loop_
 _atom_site_type_symbol
 _atom_site_label
 _atom_site_symmetry_multiplicity
 _atom_site_fract_x
 _atom_site_fract_y
 _atom_site_fract_z
 _atom_site_occupancy
  Te  Te0  1  0.33336312  0.66672723  0.33122673  1
  Te  Te1  1  0.33335385  0.66670869  0.70692203  1
  Te  Te2  1  0.33335361  0.66670821  0.23236041  1
  Te  Te3  1  0.33335305  0.66670711  0.60813918  1
  Mo  Mo4  1  0.33331414  0.66662828  0.09392379  1
  Mo  Mo5  1  0.33330981  0.66661962  0.46966212  1
  Mo  Mo6  1  0.66668926  0.33337853  0.28182035  1
  Mo  Mo7  1  0.66668806  0.33337612  0.65754280  1
  S  S8  1  0.66664343  0.33328587  0.05434076  1
  S  S9  1  0.66664378  0.33328657  0.43016847  1
  S  S10  1  0.66664105  0.33328110  0.13350885  1
  S  S11  1  0.66664684  0.33329268  0.50913250  1
