# generated using pymatgen
data_TeMoWSe2S
_symmetry_space_group_name_H-M   'P 1'
_cell_length_a   3.34566061
_cell_length_b   3.34570672
_cell_length_c   38.11135406
_cell_angle_alpha   89.99982968
_cell_angle_beta   90.00000000
_cell_angle_gamma   119.99954421
_symmetry_Int_Tables_number   1
_chemical_formula_structural   TeMoWSe2S
_chemical_formula_sum   'Te2 Mo2 W2 Se4 S2'
_cell_volume   369.45092412
_cell_formula_units_Z   2
loop_
 _symmetry_equiv_pos_site_id
 _symmetry_equiv_pos_as_xyz
  1  'x, y, z'
loop_
 _atom_site_type_symbol
 _atom_site_label
 _atom_site_symmetry_multiplicity
 _atom_site_fract_x
 _atom_site_fract_y
 _atom_site_fract_z
 _atom_site_occupancy
  Te  Te0  1  0.66664190  0.33328281  0.41955333  1
  Te  Te1  1  0.66663758  0.33327416  0.51967241  1
  Mo  Mo2  1  0.33330885  0.66661770  0.09392920  1
  Mo  Mo3  1  0.66671328  0.33342657  0.28178661  1
  W  W4  1  0.33330907  0.66661813  0.46962077  1
  W  W5  1  0.66669017  0.33338034  0.65759314  1
  Se  Se6  1  0.33335861  0.66671822  0.70153974  1
  Se  Se7  1  0.66664049  0.33327998  0.05018126  1
  Se  Se8  1  0.66664914  0.33329728  0.13768215  1
  Se  Se9  1  0.33335637  0.66671374  0.61361514  1
  S  S10  1  0.33334559  0.66669219  0.32158020  1
  S  S11  1  0.33334894  0.66669887  0.24199405  1
