# generated using pymatgen
data_Te2Mo3W(Se2S)2
_symmetry_space_group_name_H-M   'P 1'
_cell_length_a   3.34622921
_cell_length_b   3.34618358
_cell_length_c   39.78615801
_cell_angle_alpha   90.00082547
_cell_angle_beta   90.00000000
_cell_angle_gamma   120.00045096
_symmetry_Int_Tables_number   1
_chemical_formula_structural   Te2Mo3W(Se2S)2
_chemical_formula_sum   'Te2 Mo3 W1 Se4 S2'
_cell_volume   385.80345389
_cell_formula_units_Z   1
loop_
 _symmetry_equiv_pos_site_id
 _symmetry_equiv_pos_as_xyz
  1  'x, y, z'
loop_
 _atom_site_type_symbol
 _atom_site_label
 _atom_site_symmetry_multiplicity
 _atom_site_fract_x
 _atom_site_fract_y
 _atom_site_fract_z
 _atom_site_occupancy
  Te  Te0  1  0.66670234  0.33340368  0.42164588  1
  Te  Te1  1  0.66674523  0.33348945  0.51756420  1
  Mo  Mo2  1  0.33334931  0.66669863  0.09389452  1
  Mo  Mo3  1  0.66666293  0.33332587  0.28064447  1
  Mo  Mo4  1  0.66661066  0.33322132  0.65876706  1
  W  W5  1  0.33338813  0.66677626  0.46956034  1
  Se  Se6  1  0.33330218  0.66660535  0.32255787  1
  Se  Se7  1  0.33329826  0.66659751  0.70062916  1
  Se  Se8  1  0.33337001  0.66674102  0.23881007  1
  Se  Se9  1  0.33328257  0.66656614  0.61686985  1
  S  S10  1  0.66661411  0.33322721  0.05578712  1
  S  S11  1  0.66667428  0.33334756  0.13201745  1
