# generated using pymatgen
data_Te2MoW3(SeS2)2
_symmetry_space_group_name_H-M   'P 1'
_cell_length_a   3.30744310
_cell_length_b   3.30745924
_cell_length_c   37.66630673
_cell_angle_alpha   89.99980982
_cell_angle_beta   89.99998957
_cell_angle_gamma   119.99983787
_symmetry_Int_Tables_number   1
_chemical_formula_structural   Te2MoW3(SeS2)2
_chemical_formula_sum   'Te2 Mo1 W3 Se2 S4'
_cell_volume   356.83813565
_cell_formula_units_Z   1
loop_
 _symmetry_equiv_pos_site_id
 _symmetry_equiv_pos_as_xyz
  1  'x, y, z'
loop_
 _atom_site_type_symbol
 _atom_site_label
 _atom_site_symmetry_multiplicity
 _atom_site_fract_x
 _atom_site_fract_y
 _atom_site_fract_z
 _atom_site_occupancy
  Te  Te0  1  0.33335653  0.66671384  0.70864580  1
  Te  Te1  1  0.33335189  0.66670437  0.60653018  1
  Mo  Mo2  1  0.33331384  0.66662633  0.46958894  1
  W  W3  1  0.33330809  0.66661472  0.09392905  1
  W  W4  1  0.66669037  0.33338180  0.28180906  1
  W  W5  1  0.66669439  0.33339026  0.65761858  1
  Se  Se6  1  0.66664800  0.33329547  0.42496642  1
  Se  Se7  1  0.66665085  0.33330149  0.51422517  1
  S  S8  1  0.33335251  0.66670471  0.32247517  1
  S  S9  1  0.66664114  0.33328165  0.05325650  1
  S  S10  1  0.66664279  0.33328589  0.13458858  1
  S  S11  1  0.33334959  0.66669948  0.24111457  1
