# generated using pymatgen
data_Mg14MnGa
_symmetry_space_group_name_H-M   'P 1'
_cell_length_a   6.24922299
_cell_length_b   6.24922250
_cell_length_c   10.26103103
_cell_angle_alpha   90.00000000
_cell_angle_beta   90.00000000
_cell_angle_gamma   120.00000262
_symmetry_Int_Tables_number   1
_chemical_formula_structural   Mg14MnGa
_chemical_formula_sum   'Mg14 Mn1 Ga1'
_cell_volume   347.03528251
_cell_formula_units_Z   1
loop_
 _symmetry_equiv_pos_site_id
 _symmetry_equiv_pos_as_xyz
  1  'x, y, z'
loop_
 _atom_site_type_symbol
 _atom_site_label
 _atom_site_symmetry_multiplicity
 _atom_site_fract_x
 _atom_site_fract_y
 _atom_site_fract_z
 _atom_site_occupancy
  Mg  Mg0  1  0.16711440  0.83355670  0.12500000  1
  Mg  Mg1  1  0.16602453  0.83301177  0.62500000  1
  Mg  Mg2  1  0.66644330  0.33288560  0.12500000  1
  Mg  Mg3  1  0.66698823  0.33397547  0.62500000  1
  Mg  Mg4  1  0.66644330  0.83355670  0.12500000  1
  Mg  Mg5  1  0.66698823  0.83301177  0.62500000  1
  Mg  Mg6  1  0.33045976  0.16954024  0.37365742  1
  Mg  Mg7  1  0.33045976  0.16954024  0.87634258  1
  Mg  Mg8  1  0.33045976  0.66092052  0.37365742  1
  Mg  Mg9  1  0.33045976  0.66092052  0.87634258  1
  Mg  Mg10  1  0.83907948  0.16954024  0.37365742  1
  Mg  Mg11  1  0.83907948  0.16954024  0.87634258  1
  Mg  Mg12  1  0.83333300  0.66666700  0.37436601  1
  Mg  Mg13  1  0.83333300  0.66666700  0.87563399  1
  Mn  Mn14  1  0.16666700  0.33333300  0.12500000  1
  Ga  Ga15  1  0.16666700  0.33333300  0.62500000  1
