# generated using pymatgen
data_CaMg14Zr
_symmetry_space_group_name_H-M   'P 1'
_cell_length_a   6.53976794
_cell_length_b   6.53976738
_cell_length_c   10.31013685
_cell_angle_alpha   90.00000000
_cell_angle_beta   90.00000000
_cell_angle_gamma   120.00000285
_symmetry_Int_Tables_number   1
_chemical_formula_structural   CaMg14Zr
_chemical_formula_sum   'Ca1 Mg14 Zr1'
_cell_volume   381.87364576
_cell_formula_units_Z   1
loop_
 _symmetry_equiv_pos_site_id
 _symmetry_equiv_pos_as_xyz
  1  'x, y, z'
loop_
 _atom_site_type_symbol
 _atom_site_label
 _atom_site_symmetry_multiplicity
 _atom_site_fract_x
 _atom_site_fract_y
 _atom_site_fract_z
 _atom_site_occupancy
  Ca  Ca0  1  0.16666700  0.33333300  0.12500000  1
  Mg  Mg1  1  0.17269668  0.83634784  0.12500000  1
  Mg  Mg2  1  0.17060401  0.83530150  0.62500000  1
  Mg  Mg3  1  0.66365216  0.32730332  0.12500000  1
  Mg  Mg4  1  0.66469850  0.32939599  0.62500000  1
  Mg  Mg5  1  0.66365216  0.83634784  0.12500000  1
  Mg  Mg6  1  0.66469850  0.83530150  0.62500000  1
  Mg  Mg7  1  0.33464489  0.16535511  0.38259648  1
  Mg  Mg8  1  0.33464489  0.16535511  0.86740352  1
  Mg  Mg9  1  0.33464489  0.66929079  0.38259648  1
  Mg  Mg10  1  0.33464489  0.66929079  0.86740352  1
  Mg  Mg11  1  0.83070921  0.16535511  0.38259648  1
  Mg  Mg12  1  0.83070921  0.16535511  0.86740352  1
  Mg  Mg13  1  0.83333300  0.66666700  0.37385209  1
  Mg  Mg14  1  0.83333300  0.66666700  0.87614791  1
  Zr  Zr15  1  0.16666700  0.33333300  0.62500000  1
