# generated using pymatgen
data_TeMoWSe2S
_symmetry_space_group_name_H-M   'P 1'
_cell_length_a   3.34571793
_cell_length_b   3.34571472
_cell_length_c   38.10389309
_cell_angle_alpha   90.00033165
_cell_angle_beta   90.00000000
_cell_angle_gamma   120.00003162
_symmetry_Int_Tables_number   1
_chemical_formula_structural   TeMoWSe2S
_chemical_formula_sum   'Te2 Mo2 W2 Se4 S2'
_cell_volume   369.38399537
_cell_formula_units_Z   2
loop_
 _symmetry_equiv_pos_site_id
 _symmetry_equiv_pos_as_xyz
  1  'x, y, z'
loop_
 _atom_site_type_symbol
 _atom_site_label
 _atom_site_symmetry_multiplicity
 _atom_site_fract_x
 _atom_site_fract_y
 _atom_site_fract_z
 _atom_site_occupancy
  Te  Te0  1  0.33335996  0.66672093  0.33191474  1
  Te  Te1  1  0.33335123  0.66670346  0.23173427  1
  Mo  Mo2  1  0.33331345  0.66662689  0.09385839  1
  Mo  Mo3  1  0.33328651  0.66657301  0.46968439  1
  W  W4  1  0.66669210  0.33338420  0.28183676  1
  W  W5  1  0.66668807  0.33337614  0.65753632  1
  Se  Se6  1  0.33335175  0.66670449  0.70151820  1
  Se  Se7  1  0.66664565  0.33329030  0.05012937  1
  Se  Se8  1  0.66665026  0.33329952  0.13763474  1
  Se  Se9  1  0.33334837  0.66669773  0.61354499  1
  S  S10  1  0.66665334  0.33330568  0.42987682  1
  S  S11  1  0.66665932  0.33331765  0.50947902  1
