# generated using pymatgen
data_Te2MoW3(Se2S)2
_symmetry_space_group_name_H-M   'P 1'
_cell_length_a   3.34519136
_cell_length_b   3.34520500
_cell_length_c   38.09247782
_cell_angle_alpha   90.00015678
_cell_angle_beta   90.00000000
_cell_angle_gamma   119.99986510
_symmetry_Int_Tables_number   1
_chemical_formula_structural   Te2MoW3(Se2S)2
_chemical_formula_sum   'Te2 Mo1 W3 Se4 S2'
_cell_volume   369.15958510
_cell_formula_units_Z   1
loop_
 _symmetry_equiv_pos_site_id
 _symmetry_equiv_pos_as_xyz
  1  'x, y, z'
loop_
 _atom_site_type_symbol
 _atom_site_label
 _atom_site_symmetry_multiplicity
 _atom_site_fract_x
 _atom_site_fract_y
 _atom_site_fract_z
 _atom_site_occupancy
  Te  Te0  1  0.33335366  0.66670832  0.70760772  1
  Te  Te1  1  0.33335543  0.66671186  0.60746548  1
  Mo  Mo2  1  0.33329623  0.66659245  0.46966376  1
  W  W3  1  0.33331161  0.66662321  0.09389227  1
  W  W4  1  0.66669144  0.33338289  0.28181347  1
  W  W5  1  0.66669102  0.33338204  0.65756453  1
  Se  Se6  1  0.33335673  0.66671446  0.32577887  1
  Se  Se7  1  0.66664916  0.33329732  0.04994366  1
  Se  Se8  1  0.66663171  0.33326242  0.13786491  1
  Se  Se9  1  0.33335130  0.66670360  0.23783212  1
  S  S10  1  0.66665464  0.33330829  0.42988306  1
  S  S11  1  0.66665707  0.33331314  0.50943816  1
