# generated using pymatgen
data_Te2W2SeS
_symmetry_space_group_name_H-M   'P 1'
_cell_length_a   3.39690518
_cell_length_b   3.39691463
_cell_length_c   38.87313929
_cell_angle_alpha   90.00050604
_cell_angle_beta   90.00000000
_cell_angle_gamma   119.99990799
_symmetry_Int_Tables_number   1
_chemical_formula_structural   Te2W2SeS
_chemical_formula_sum   'Te4 W4 Se2 S2'
_cell_volume   388.46214632
_cell_formula_units_Z   2
loop_
 _symmetry_equiv_pos_site_id
 _symmetry_equiv_pos_as_xyz
  1  'x, y, z'
loop_
 _atom_site_type_symbol
 _atom_site_label
 _atom_site_symmetry_multiplicity
 _atom_site_fract_x
 _atom_site_fract_y
 _atom_site_fract_z
 _atom_site_occupancy
  Te  Te0  1  0.33336568  0.66673236  0.70601093  1
  Te  Te1  1  0.66664505  0.33328910  0.42115930  1
  Te  Te2  1  0.66664161  0.33328222  0.51803185  1
  Te  Te3  1  0.33335507  0.66671114  0.60914569  1
  W  W4  1  0.33330699  0.66661397  0.09392939  1
  W  W5  1  0.33331124  0.66662247  0.46960998  1
  W  W6  1  0.66668777  0.33337553  0.28180607  1
  W  W7  1  0.66668761  0.33337522  0.65761417  1
  Se  Se8  1  0.66664133  0.33328166  0.05135494  1
  Se  Se9  1  0.66664546  0.33328993  0.13649634  1
  S  S10  1  0.33335536  0.66671173  0.32059702  1
  S  S11  1  0.33335683  0.66671466  0.24299233  1
