# generated using pymatgen
data_Te2W2SeS
_symmetry_space_group_name_H-M   'P 1'
_cell_length_a   3.39660098
_cell_length_b   3.39660563
_cell_length_c   38.85068905
_cell_angle_alpha   90.00028697
_cell_angle_beta   90.00000000
_cell_angle_gamma   119.99995475
_symmetry_Int_Tables_number   1
_chemical_formula_structural   Te2W2SeS
_chemical_formula_sum   'Te4 W4 Se2 S2'
_cell_volume   388.16753591
_cell_formula_units_Z   2
loop_
 _symmetry_equiv_pos_site_id
 _symmetry_equiv_pos_as_xyz
  1  'x, y, z'
loop_
 _atom_site_type_symbol
 _atom_site_label
 _atom_site_symmetry_multiplicity
 _atom_site_fract_x
 _atom_site_fract_y
 _atom_site_fract_z
 _atom_site_occupancy
  Te  Te0  1  0.33336100  0.66672300  0.70605857  1
  Te  Te1  1  0.66664296  0.33328493  0.42112168  1
  Te  Te2  1  0.66665075  0.33330050  0.51807798  1
  Te  Te3  1  0.33335195  0.66670491  0.60910043  1
  W  W4  1  0.33331212  0.66662424  0.09393535  1
  W  W5  1  0.33330836  0.66661672  0.46961571  1
  W  W6  1  0.66668783  0.33337567  0.28179173  1
  W  W7  1  0.66669221  0.33338443  0.65760809  1
  Se  Se8  1  0.33335196  0.66670492  0.32438665  1
  Se  Se9  1  0.33334971  0.66670042  0.23918289  1
  S  S10  1  0.66664579  0.33329058  0.05512509  1
  S  S11  1  0.66664535  0.33328971  0.13274384  1
