# generated using pymatgen
data_TeMoWSe2S
_symmetry_space_group_name_H-M   'P 1'
_cell_length_a   3.34669668
_cell_length_b   3.34667889
_cell_length_c   38.04901127
_cell_angle_alpha   89.99997832
_cell_angle_beta   90.00000000
_cell_angle_gamma   120.00017586
_symmetry_Int_Tables_number   1
_chemical_formula_structural   TeMoWSe2S
_chemical_formula_sum   'Te2 Mo2 W2 Se4 S2'
_cell_volume   369.06565755
_cell_formula_units_Z   2
loop_
 _symmetry_equiv_pos_site_id
 _symmetry_equiv_pos_as_xyz
  1  'x, y, z'
loop_
 _atom_site_type_symbol
 _atom_site_label
 _atom_site_symmetry_multiplicity
 _atom_site_fract_x
 _atom_site_fract_y
 _atom_site_fract_z
 _atom_site_occupancy
  Te  Te0  1  0.33335730  0.66671560  0.70763393  1
  Te  Te1  1  0.33335304  0.66670708  0.60744446  1
  Mo  Mo2  1  0.33331342  0.66662684  0.09389825  1
  Mo  Mo3  1  0.33331665  0.66663329  0.46965783  1
  W  W4  1  0.66669110  0.33338220  0.28180624  1
  W  W5  1  0.66669417  0.33338834  0.65756711  1
  Se  Se6  1  0.33335137  0.66670374  0.32580762  1
  Se  Se7  1  0.66664471  0.33328841  0.05013508  1
  Se  Se8  1  0.66665100  0.33330099  0.13768726  1
  Se  Se9  1  0.33334965  0.66670029  0.23779179  1
  S  S10  1  0.66663635  0.33327170  0.42982883  1
  S  S11  1  0.66664126  0.33328151  0.50948961  1
