# generated using pymatgen
data_Te2MoW3(SeS2)2
_symmetry_space_group_name_H-M   'P 1'
_cell_length_a   3.30765500
_cell_length_b   3.30767564
_cell_length_c   37.65261547
_cell_angle_alpha   89.99986087
_cell_angle_beta   90.00000000
_cell_angle_gamma   119.99979358
_symmetry_Int_Tables_number   1
_chemical_formula_structural   Te2MoW3(SeS2)2
_chemical_formula_sum   'Te2 Mo1 W3 Se2 S4'
_cell_volume   356.75478245
_cell_formula_units_Z   1
loop_
 _symmetry_equiv_pos_site_id
 _symmetry_equiv_pos_as_xyz
  1  'x, y, z'
loop_
 _atom_site_type_symbol
 _atom_site_label
 _atom_site_symmetry_multiplicity
 _atom_site_fract_x
 _atom_site_fract_y
 _atom_site_fract_z
 _atom_site_occupancy
  Te  Te0  1  0.33335553  0.66671207  0.70864565  1
  Te  Te1  1  0.33335600  0.66671300  0.60646596  1
  Mo  Mo2  1  0.33331172  0.66662343  0.09391843  1
  W  W3  1  0.33331059  0.66662118  0.46962986  1
  W  W4  1  0.66669169  0.33338338  0.28180219  1
  W  W5  1  0.66669175  0.33338350  0.65758128  1
  Se  Se6  1  0.66663688  0.33327276  0.04927719  1
  Se  Se7  1  0.66664273  0.33328446  0.13855778  1
  S  S8  1  0.33335526  0.66671152  0.32252934  1
  S  S9  1  0.66664440  0.33328781  0.42891996  1
  S  S10  1  0.66664800  0.33329500  0.51035252  1
  S  S11  1  0.33335545  0.66671190  0.24106784  1
