# generated using pymatgen
data_NaZnN
_symmetry_space_group_name_H-M   'P 1'
_cell_length_a   3.45056600
_cell_length_b   3.45017040
_cell_length_c   8.68722000
_cell_angle_alpha   90.00000000
_cell_angle_beta   90.00000000
_cell_angle_gamma   120.00379307
_symmetry_Int_Tables_number   1
_chemical_formula_structural   NaZnN
_chemical_formula_sum   'Na2 Zn2 N2'
_cell_volume   89.56240232
_cell_formula_units_Z   2
loop_
 _symmetry_equiv_pos_site_id
 _symmetry_equiv_pos_as_xyz
  1  'x, y, z'
loop_
 _atom_site_type_symbol
 _atom_site_label
 _atom_site_symmetry_multiplicity
 _atom_site_fract_x
 _atom_site_fract_y
 _atom_site_fract_z
 _atom_site_occupancy
  Na  Na0  1  0.66665800  0.33331600  0.76108600  1
  Na  Na1  1  0.33334200  0.66668400  0.26108600  1
  Zn  Zn2  1  0.99997300  0.99994500  0.53092400  1
  Zn  Zn3  1  0.00002700  0.00005500  0.03092400  1
  N  N4  1  0.33336100  0.66672200  0.55263000  1
  N  N5  1  0.66663900  0.33327800  0.05263000  1
