# generated using pymatgen
data_TeMoWSe2S
_symmetry_space_group_name_H-M   'P 1'
_cell_length_a   3.34620897
_cell_length_b   3.34617666
_cell_length_c   38.07110788
_cell_angle_alpha   89.99989582
_cell_angle_beta   90.00000000
_cell_angle_gamma   120.00031954
_symmetry_Int_Tables_number   1
_chemical_formula_structural   TeMoWSe2S
_chemical_formula_sum   'Te2 Mo2 W2 Se4 S2'
_cell_volume   369.17023054
_cell_formula_units_Z   2
loop_
 _symmetry_equiv_pos_site_id
 _symmetry_equiv_pos_as_xyz
  1  'x, y, z'
loop_
 _atom_site_type_symbol
 _atom_site_label
 _atom_site_symmetry_multiplicity
 _atom_site_fract_x
 _atom_site_fract_y
 _atom_site_fract_z
 _atom_site_occupancy
  Te  Te0  1  0.33335225  0.66670551  0.70765935  1
  Te  Te1  1  0.33335494  0.66671087  0.60742043  1
  Mo  Mo2  1  0.33329086  0.66658172  0.46965099  1
  Mo  Mo3  1  0.66669194  0.33338388  0.28180365  1
  W  W4  1  0.33330817  0.66661633  0.09390255  1
  W  W5  1  0.66669083  0.33338166  0.65756960  1
  Se  Se6  1  0.33335246  0.66670593  0.32557409  1
  Se  Se7  1  0.66664582  0.33329065  0.04992506  1
  Se  Se8  1  0.66663193  0.33326286  0.13789730  1
  Se  Se9  1  0.33337219  0.66674538  0.23803355  1
  S  S10  1  0.66665407  0.33330715  0.42982972  1
  S  S11  1  0.66665454  0.33330807  0.50948171  1
