# generated using pymatgen
data_Te2MoW3(SeS2)2
_symmetry_space_group_name_H-M   'P 1'
_cell_length_a   3.30715035
_cell_length_b   3.30715443
_cell_length_c   37.66044231
_cell_angle_alpha   90.00019076
_cell_angle_beta   90.00000000
_cell_angle_gamma   119.99995934
_symmetry_Int_Tables_number   1
_chemical_formula_structural   Te2MoW3(SeS2)2
_chemical_formula_sum   'Te2 Mo1 W3 Se2 S4'
_cell_volume   356.71768407
_cell_formula_units_Z   1
loop_
 _symmetry_equiv_pos_site_id
 _symmetry_equiv_pos_as_xyz
  1  'x, y, z'
loop_
 _atom_site_type_symbol
 _atom_site_label
 _atom_site_symmetry_multiplicity
 _atom_site_fract_x
 _atom_site_fract_y
 _atom_site_fract_z
 _atom_site_occupancy
  Te  Te0  1  0.33336123  0.66672347  0.70863762  1
  Te  Te1  1  0.33336766  0.66673632  0.60646510  1
  Mo  Mo2  1  0.66668938  0.33337876  0.28180605  1
  W  W3  1  0.33330911  0.66661821  0.09391443  1
  W  W4  1  0.33330441  0.66660882  0.46964455  1
  W  W5  1  0.66669862  0.33339725  0.65758101  1
  Se  Se6  1  0.33334968  0.66670036  0.32643526  1
  Se  Se7  1  0.33334742  0.66669583  0.23715375  1
  S  S8  1  0.66664270  0.33328440  0.05319416  1
  S  S9  1  0.66663990  0.33327880  0.42892896  1
  S  S10  1  0.66664501  0.33328903  0.13462545  1
  S  S11  1  0.66664488  0.33328875  0.51036166  1
