# generated using pymatgen
data_AgBi2WO8
_symmetry_space_group_name_H-M   'P 1'
_cell_length_a   8.28769170
_cell_length_b   7.68190763
_cell_length_c   7.68190763
_cell_angle_alpha   97.48528318
_cell_angle_beta   116.85169997
_cell_angle_gamma   116.85169997
_symmetry_Int_Tables_number   1
_chemical_formula_structural   AgBi2WO8
_chemical_formula_sum   'Ag2 Bi4 W2 O16'
_cell_volume   353.29718365
_cell_formula_units_Z   2
loop_
 _symmetry_equiv_pos_site_id
 _symmetry_equiv_pos_as_xyz
  1  'x, y, z'
loop_
 _atom_site_type_symbol
 _atom_site_label
 _atom_site_symmetry_multiplicity
 _atom_site_fract_x
 _atom_site_fract_y
 _atom_site_fract_z
 _atom_site_occupancy
  Ag  Ag0  1  0.60120149  0.72214925  0.72214925  1
  Ag  Ag1  1  0.39879851  0.27785075  0.27785075  1
  Bi  Bi2  1  0.99084883  0.25379298  0.25379298  1
  Bi  Bi3  1  0.00915117  0.74620702  0.74620702  1
  Bi  Bi4  1  0.50000000  0.82968773  0.17031227  1
  Bi  Bi5  1  0.50000000  0.17031227  0.82968773  1
  W  W6  1  0.00000000  0.75377126  0.24622874  1
  W  W7  1  -0.00000000  0.24622874  0.75377126  1
  O  O8  1  0.84951614  0.43838887  0.16389384  1
  O  O9  1  0.15048386  0.56161113  0.83610616  1
  O  O10  1  0.15048386  0.83610616  0.56161113  1
  O  O11  1  0.84951614  0.16389384  0.43838887  1
  O  O12  1  0.74436204  0.72331305  0.19906623  1
  O  O13  1  0.25563796  0.27668695  0.80093377  1
  O  O14  1  0.25563796  0.80093377  0.27668695  1
  O  O15  1  0.74436204  0.19906623  0.72331305  1
  O  O16  1  0.86396904  0.68656138  0.93025925  1
  O  O17  1  0.13603096  0.31343862  0.06974075  1
  O  O18  1  0.13603096  0.06974075  0.31343862  1
  O  O19  1  0.86396904  0.93025925  0.68656138  1
  O  O20  1  0.65284638  0.99138956  0.99138956  1
  O  O21  1  0.34715362  0.00861044  0.00861044  1
  O  O22  1  0.73084244  0.47148980  0.47148980  1
  O  O23  1  0.26915756  0.52851020  0.52851020  1
