# generated using pymatgen
data_BaMg30NiO32
_symmetry_space_group_name_H-M   'P 1'
_cell_length_a   8.65198789
_cell_length_b   8.65105357
_cell_length_c   8.65105357
_cell_angle_alpha   90.00000000
_cell_angle_beta   90.00000000
_cell_angle_gamma   90.00000000
_symmetry_Int_Tables_number   1
_chemical_formula_structural   BaMg30NiO32
_chemical_formula_sum   'Ba1 Mg30 Ni1 O32'
_cell_volume   647.52107122
_cell_formula_units_Z   1
loop_
 _symmetry_equiv_pos_site_id
 _symmetry_equiv_pos_as_xyz
  1  'x, y, z'
loop_
 _atom_site_type_symbol
 _atom_site_label
 _atom_site_symmetry_multiplicity
 _atom_site_fract_x
 _atom_site_fract_y
 _atom_site_fract_z
 _atom_site_occupancy
  Ba  Ba0  1  0.00000000  0.50000000  0.50000000  1
  Mg  Mg1  1  0.00000000  0.00000000  0.50000000  1
  Mg  Mg2  1  0.00000000  0.50000000  0.00000000  1
  Mg  Mg3  1  0.50000000  0.00000000  0.00000000  1
  Mg  Mg4  1  0.50000000  0.00000000  0.50000000  1
  Mg  Mg5  1  0.50000000  0.50000000  0.00000000  1
  Mg  Mg6  1  0.50000000  0.50000000  0.50000000  1
  Mg  Mg7  1  0.00000000  0.24164982  0.24164982  1
  Mg  Mg8  1  0.00000000  0.24164982  0.75835018  1
  Mg  Mg9  1  0.00000000  0.75835018  0.24164982  1
  Mg  Mg10  1  0.00000000  0.75835018  0.75835018  1
  Mg  Mg11  1  0.50000000  0.24874275  0.24874275  1
  Mg  Mg12  1  0.50000000  0.24874275  0.75125725  1
  Mg  Mg13  1  0.50000000  0.75125725  0.24874275  1
  Mg  Mg14  1  0.50000000  0.75125725  0.75125725  1
  Mg  Mg15  1  0.25048393  0.00000000  0.24833828  1
  Mg  Mg16  1  0.25048393  0.00000000  0.75166172  1
  Mg  Mg17  1  0.25746560  0.50000000  0.24215526  1
  Mg  Mg18  1  0.25746560  0.50000000  0.75784474  1
  Mg  Mg19  1  0.74951607  0.00000000  0.24833828  1
  Mg  Mg20  1  0.74951607  0.00000000  0.75166172  1
  Mg  Mg21  1  0.74253440  0.50000000  0.24215526  1
  Mg  Mg22  1  0.74253440  0.50000000  0.75784474  1
  Mg  Mg23  1  0.25048393  0.24833828  0.00000000  1
  Mg  Mg24  1  0.25746560  0.24215526  0.50000000  1
  Mg  Mg25  1  0.25048393  0.75166172  0.00000000  1
  Mg  Mg26  1  0.25746560  0.75784474  0.50000000  1
  Mg  Mg27  1  0.74951607  0.24833828  0.00000000  1
  Mg  Mg28  1  0.74253440  0.24215526  0.50000000  1
  Mg  Mg29  1  0.74951607  0.75166172  0.00000000  1
  Mg  Mg30  1  0.74253440  0.75784474  0.50000000  1
  Ni  Ni31  1  0.00000000  0.00000000  0.00000000  1
  O  O32  1  0.25255983  0.00000000  0.00000000  1
  O  O33  1  0.25577015  0.00000000  0.50000000  1
  O  O34  1  0.25577015  0.50000000  0.00000000  1
  O  O35  1  0.27894820  0.50000000  0.50000000  1
  O  O36  1  0.74744017  0.00000000  0.00000000  1
  O  O37  1  0.74422985  0.00000000  0.50000000  1
  O  O38  1  0.74422985  0.50000000  0.00000000  1
  O  O39  1  0.72105180  0.50000000  0.50000000  1
  O  O40  1  0.24951263  0.24980097  0.24980097  1
  O  O41  1  0.24951263  0.24980097  0.75019903  1
  O  O42  1  0.24951263  0.75019903  0.24980097  1
  O  O43  1  0.24951263  0.75019903  0.75019903  1
  O  O44  1  0.75048737  0.24980097  0.24980097  1
  O  O45  1  0.75048737  0.24980097  0.75019903  1
  O  O46  1  0.75048737  0.75019903  0.24980097  1
  O  O47  1  0.75048737  0.75019903  0.75019903  1
  O  O48  1  0.00000000  0.00000000  0.24502640  1
  O  O49  1  0.00000000  0.00000000  0.75497360  1
  O  O50  1  0.00000000  0.50000000  0.22094220  1
  O  O51  1  0.00000000  0.50000000  0.77905780  1
  O  O52  1  0.50000000  0.00000000  0.24776839  1
  O  O53  1  0.50000000  0.00000000  0.75223161  1
  O  O54  1  0.50000000  0.50000000  0.24400566  1
  O  O55  1  0.50000000  0.50000000  0.75599434  1
  O  O56  1  0.00000000  0.24502640  0.00000000  1
  O  O57  1  0.00000000  0.22094220  0.50000000  1
  O  O58  1  0.00000000  0.75497360  0.00000000  1
  O  O59  1  0.00000000  0.77905780  0.50000000  1
  O  O60  1  0.50000000  0.24776839  0.00000000  1
  O  O61  1  0.50000000  0.24400566  0.50000000  1
  O  O62  1  0.50000000  0.75223161  0.00000000  1
  O  O63  1  0.50000000  0.75599434  0.50000000  1
