# generated using pymatgen
data_SiHg2(O2F3)2
_symmetry_space_group_name_H-M   'P 1'
_cell_length_a   5.06396948
_cell_length_b   5.36886927
_cell_length_c   8.25371287
_cell_angle_alpha   110.57781334
_cell_angle_beta   118.37175987
_cell_angle_gamma   91.71524278
_symmetry_Int_Tables_number   1
_chemical_formula_structural   SiHg2(O2F3)2
_chemical_formula_sum   'Si1 Hg2 O4 F6'
_cell_volume   179.48676901
_cell_formula_units_Z   1
loop_
 _symmetry_equiv_pos_site_id
 _symmetry_equiv_pos_as_xyz
  1  'x, y, z'
loop_
 _atom_site_type_symbol
 _atom_site_label
 _atom_site_symmetry_multiplicity
 _atom_site_fract_x
 _atom_site_fract_y
 _atom_site_fract_z
 _atom_site_occupancy
  Si  Si0  1  0.50000000  0.50000000  0.50000000  1
  Hg  Hg1  1  -0.00000000  -0.00000000  -0.00000000  1
  Hg  Hg2  1  -0.00000000  -0.00000000  0.50000000  1
  O  O3  1  0.55874058  0.24151147  0.95385776  1
  O  O4  1  0.44125942  0.75848853  0.04614224  1
  O  O5  1  0.73091726  0.88194805  0.15271790  1
  O  O6  1  0.26908274  0.11805195  0.84728210  1
  F  F7  1  0.57347500  0.85380797  0.62055748  1
  F  F8  1  0.42652500  0.14619203  0.37944252  1
  F  F9  1  0.71865540  0.53575046  0.39948677  1
  F  F10  1  0.28134460  0.46424954  0.60051323  1
  F  F11  1  0.81753137  0.50052108  0.71045303  1
  F  F12  1  0.18246863  0.49947992  0.28954697  1
