# generated using pymatgen
data_YMg30CdO32
_symmetry_space_group_name_H-M   'P 1'
_cell_length_a   8.64533105
_cell_length_b   8.65486939
_cell_length_c   8.65486939
_cell_angle_alpha   90.00000000
_cell_angle_beta   90.00000000
_cell_angle_gamma   90.00000000
_symmetry_Int_Tables_number   1
_chemical_formula_structural   YMg30CdO32
_chemical_formula_sum   'Y1 Mg30 Cd1 O32'
_cell_volume   647.59377403
_cell_formula_units_Z   1
loop_
 _symmetry_equiv_pos_site_id
 _symmetry_equiv_pos_as_xyz
  1  'x, y, z'
loop_
 _atom_site_type_symbol
 _atom_site_label
 _atom_site_symmetry_multiplicity
 _atom_site_fract_x
 _atom_site_fract_y
 _atom_site_fract_z
 _atom_site_occupancy
  Y  Y0  1  -0.00000000  -0.00000000  0.00000000  1
  Mg  Mg1  1  -0.00000000  -0.00000000  0.50000000  1
  Mg  Mg2  1  -0.00000000  0.50000000  -0.00000000  1
  Mg  Mg3  1  0.50000000  0.00000000  -0.00000000  1
  Mg  Mg4  1  0.50000000  0.00000000  0.50000000  1
  Mg  Mg5  1  0.50000000  0.50000000  0.00000000  1
  Mg  Mg6  1  0.50000000  0.50000000  0.50000000  1
  Mg  Mg7  1  -0.00000000  0.25511107  0.25511107  1
  Mg  Mg8  1  -0.00000000  0.25511107  0.74488893  1
  Mg  Mg9  1  -0.00000000  0.74488893  0.25511107  1
  Mg  Mg10  1  -0.00000000  0.74488893  0.74488893  1
  Mg  Mg11  1  0.50000000  0.25101153  0.25101153  1
  Mg  Mg12  1  0.50000000  0.25101153  0.74898847  1
  Mg  Mg13  1  0.50000000  0.74898847  0.25101153  1
  Mg  Mg14  1  0.50000000  0.74898847  0.74898847  1
  Mg  Mg15  1  0.25627218  0.00000000  0.25657305  1
  Mg  Mg16  1  0.25627218  0.00000000  0.74342695  1
  Mg  Mg17  1  0.25240448  0.50000000  0.24936821  1
  Mg  Mg18  1  0.25240448  0.50000000  0.75063179  1
  Mg  Mg19  1  0.74372782  -0.00000000  0.25657305  1
  Mg  Mg20  1  0.74372782  -0.00000000  0.74342695  1
  Mg  Mg21  1  0.74759552  0.50000000  0.24936821  1
  Mg  Mg22  1  0.74759552  0.50000000  0.75063179  1
  Mg  Mg23  1  0.25627218  0.25657305  0.00000000  1
  Mg  Mg24  1  0.25240448  0.24936821  0.50000000  1
  Mg  Mg25  1  0.25627218  0.74342695  -0.00000000  1
  Mg  Mg26  1  0.25240448  0.75063179  0.50000000  1
  Mg  Mg27  1  0.74372782  0.25657305  0.00000000  1
  Mg  Mg28  1  0.74759552  0.24936821  0.50000000  1
  Mg  Mg29  1  0.74372782  0.74342695  -0.00000000  1
  Mg  Mg30  1  0.74759552  0.75063179  0.50000000  1
  Cd  Cd31  1  -0.00000000  0.50000000  0.50000000  1
  O  O32  1  0.25915287  0.00000000  0.00000000  1
  O  O33  1  0.25425874  -0.00000000  0.50000000  1
  O  O34  1  0.25425874  0.50000000  0.00000000  1
  O  O35  1  0.26817449  0.50000000  0.50000000  1
  O  O36  1  0.74084713  -0.00000000  0.00000000  1
  O  O37  1  0.74574126  0.00000000  0.50000000  1
  O  O38  1  0.74574126  0.50000000  0.00000000  1
  O  O39  1  0.73182551  0.50000000  0.50000000  1
  O  O40  1  0.24956805  0.24908785  0.24908785  1
  O  O41  1  0.24956805  0.24908785  0.75091215  1
  O  O42  1  0.24956805  0.75091215  0.24908785  1
  O  O43  1  0.24956805  0.75091215  0.75091215  1
  O  O44  1  0.75043195  0.24908785  0.24908785  1
  O  O45  1  0.75043195  0.24908785  0.75091215  1
  O  O46  1  0.75043195  0.75091215  0.24908785  1
  O  O47  1  0.75043195  0.75091215  0.75091215  1
  O  O48  1  -0.00000000  -0.00000000  0.25708389  1
  O  O49  1  -0.00000000  -0.00000000  0.74291611  1
  O  O50  1  -0.00000000  0.50000000  0.23251779  1
  O  O51  1  -0.00000000  0.50000000  0.76748221  1
  O  O52  1  0.50000000  0.00000000  0.25032403  1
  O  O53  1  0.50000000  -0.00000000  0.74967597  1
  O  O54  1  0.50000000  0.50000000  0.24666371  1
  O  O55  1  0.50000000  0.50000000  0.75333629  1
  O  O56  1  -0.00000000  0.25708389  0.00000000  1
  O  O57  1  -0.00000000  0.23251779  0.50000000  1
  O  O58  1  -0.00000000  0.74291611  0.00000000  1
  O  O59  1  -0.00000000  0.76748221  0.50000000  1
  O  O60  1  0.50000000  0.25032403  0.00000000  1
  O  O61  1  0.50000000  0.24666371  0.50000000  1
  O  O62  1  0.50000000  0.74967597  0.00000000  1
  O  O63  1  0.50000000  0.75333629  0.50000000  1
