# generated using pymatgen
data_YMg30TiO32
_symmetry_space_group_name_H-M   'P 1'
_cell_length_a   8.60244924
_cell_length_b   8.61062606
_cell_length_c   8.61062606
_cell_angle_alpha   90.00000000
_cell_angle_beta   90.00000000
_cell_angle_gamma   90.00000000
_symmetry_Int_Tables_number   1
_chemical_formula_structural   YMg30TiO32
_chemical_formula_sum   'Y1 Mg30 Ti1 O32'
_cell_volume   637.81037156
_cell_formula_units_Z   1
loop_
 _symmetry_equiv_pos_site_id
 _symmetry_equiv_pos_as_xyz
  1  'x, y, z'
loop_
 _atom_site_type_symbol
 _atom_site_label
 _atom_site_symmetry_multiplicity
 _atom_site_fract_x
 _atom_site_fract_y
 _atom_site_fract_z
 _atom_site_occupancy
  Y  Y0  1  0.00000000  -0.00000000  0.00000000  1
  Mg  Mg1  1  0.00000000  0.00000000  0.50000000  1
  Mg  Mg2  1  0.00000000  0.50000000  -0.00000000  1
  Mg  Mg3  1  0.50000000  -0.00000000  0.00000000  1
  Mg  Mg4  1  0.50000000  -0.00000000  0.50000000  1
  Mg  Mg5  1  0.50000000  0.50000000  0.00000000  1
  Mg  Mg6  1  0.50000000  0.50000000  0.50000000  1
  Mg  Mg7  1  0.00000000  0.25767517  0.25767517  1
  Mg  Mg8  1  0.00000000  0.25767517  0.74232483  1
  Mg  Mg9  1  0.00000000  0.74232483  0.25767517  1
  Mg  Mg10  1  0.00000000  0.74232483  0.74232483  1
  Mg  Mg11  1  0.50000000  0.25127793  0.25127793  1
  Mg  Mg12  1  0.50000000  0.25127793  0.74872207  1
  Mg  Mg13  1  0.50000000  0.74872207  0.25127793  1
  Mg  Mg14  1  0.50000000  0.74872207  0.74872207  1
  Mg  Mg15  1  0.25601194  0.00000000  0.25701202  1
  Mg  Mg16  1  0.25601194  0.00000000  0.74298798  1
  Mg  Mg17  1  0.24985036  0.50000000  0.25154468  1
  Mg  Mg18  1  0.24985036  0.50000000  0.74845532  1
  Mg  Mg19  1  0.74398806  -0.00000000  0.25701202  1
  Mg  Mg20  1  0.74398806  -0.00000000  0.74298798  1
  Mg  Mg21  1  0.75014964  0.50000000  0.25154468  1
  Mg  Mg22  1  0.75014964  0.50000000  0.74845532  1
  Mg  Mg23  1  0.25601194  0.25701202  -0.00000000  1
  Mg  Mg24  1  0.24985036  0.25154468  0.50000000  1
  Mg  Mg25  1  0.25601194  0.74298798  -0.00000000  1
  Mg  Mg26  1  0.24985036  0.74845532  0.50000000  1
  Mg  Mg27  1  0.74398806  0.25701202  0.00000000  1
  Mg  Mg28  1  0.75014964  0.25154468  0.50000000  1
  Mg  Mg29  1  0.74398806  0.74298798  -0.00000000  1
  Mg  Mg30  1  0.75014964  0.74845532  0.50000000  1
  Ti  Ti31  1  0.00000000  0.50000000  0.50000000  1
  O  O32  1  0.25943898  0.00000000  -0.00000000  1
  O  O33  1  0.25304307  0.00000000  0.50000000  1
  O  O34  1  0.25304307  0.50000000  -0.00000000  1
  O  O35  1  0.26143672  0.50000000  0.50000000  1
  O  O36  1  0.74056102  -0.00000000  0.00000000  1
  O  O37  1  0.74695693  -0.00000000  0.50000000  1
  O  O38  1  0.74695693  0.50000000  0.00000000  1
  O  O39  1  0.73856328  0.50000000  0.50000000  1
  O  O40  1  0.24948252  0.24895003  0.24895003  1
  O  O41  1  0.24948252  0.24895003  0.75104997  1
  O  O42  1  0.24948252  0.75104997  0.24895003  1
  O  O43  1  0.24948252  0.75104997  0.75104997  1
  O  O44  1  0.75051748  0.24895003  0.24895003  1
  O  O45  1  0.75051748  0.24895003  0.75104997  1
  O  O46  1  0.75051748  0.75104997  0.24895003  1
  O  O47  1  0.75051748  0.75104997  0.75104997  1
  O  O48  1  0.00000000  0.00000000  0.25808837  1
  O  O49  1  0.00000000  -0.00000000  0.74191163  1
  O  O50  1  0.00000000  0.50000000  0.23823700  1
  O  O51  1  0.00000000  0.50000000  0.76176300  1
  O  O52  1  0.50000000  -0.00000000  0.25080211  1
  O  O53  1  0.50000000  0.00000000  0.74919789  1
  O  O54  1  0.50000000  0.50000000  0.24844478  1
  O  O55  1  0.50000000  0.50000000  0.75155522  1
  O  O56  1  0.00000000  0.25808837  0.00000000  1
  O  O57  1  0.00000000  0.23823700  0.50000000  1
  O  O58  1  0.00000000  0.74191163  -0.00000000  1
  O  O59  1  0.00000000  0.76176300  0.50000000  1
  O  O60  1  0.50000000  0.25080211  0.00000000  1
  O  O61  1  0.50000000  0.24844478  0.50000000  1
  O  O62  1  0.50000000  0.74919789  -0.00000000  1
  O  O63  1  0.50000000  0.75155522  0.50000000  1
