# generated using pymatgen
data_Ca(NiO2)2
_symmetry_space_group_name_H-M   'P 1'
_cell_length_a   6.19648233
_cell_length_b   6.21352748
_cell_length_c   18.05625075
_cell_angle_alpha   60.13663225
_cell_angle_beta   60.40014797
_cell_angle_gamma   58.81067239
_symmetry_Int_Tables_number   1
_chemical_formula_structural   Ca(NiO2)2
_chemical_formula_sum   'Ca6 Ni12 O24'
_cell_volume   488.93867382
_cell_formula_units_Z   6
loop_
 _symmetry_equiv_pos_site_id
 _symmetry_equiv_pos_as_xyz
  1  'x, y, z'
loop_
 _atom_site_type_symbol
 _atom_site_label
 _atom_site_symmetry_multiplicity
 _atom_site_fract_x
 _atom_site_fract_y
 _atom_site_fract_z
 _atom_site_occupancy
  Ca  Ca0  1  0.12386150  0.12545060  0.04207420  1
  Ca  Ca1  1  0.11572832  0.11094713  0.38660405  1
  Ca  Ca2  1  0.50179867  0.50239950  0.99637724  1
  Ca  Ca3  1  0.10770624  0.10861400  0.72645559  1
  Ca  Ca4  1  0.88484322  0.88548003  0.28311077  1
  Ca  Ca5  1  0.86656086  0.86838121  0.63111621  1
  Ni  Ni6  1  0.99918867  0.49927956  0.16993306  1
  Ni  Ni7  1  0.49208461  0.49378856  0.17242653  1
  Ni  Ni8  1  0.99968991  0.49378498  0.50265503  1
  Ni  Ni9  1  0.49785529  0.99859045  0.17055617  1
  Ni  Ni10  1  0.50265088  0.49769015  0.33610001  1
  Ni  Ni11  1  0.49648814  0.49474333  0.50236805  1
  Ni  Ni12  1  0.01561567  0.50171949  0.82864813  1
  Ni  Ni13  1  0.49580576  0.99832127  0.50289066  1
  Ni  Ni14  1  0.50238199  0.01659790  0.82830369  1
  Ni  Ni15  1  0.49911031  0.50356248  0.66065671  1
  Ni  Ni16  1  0.49880746  0.50004216  0.82775335  1
  Ni  Ni17  1  0.88040248  0.88050825  0.95275292  1
  O  O18  1  0.24344162  0.24642009  0.10754797  1
  O  O19  1  0.25689698  0.26109451  0.24408901  1
  O  O20  1  0.24032400  0.69302520  0.10826333  1
  O  O21  1  0.69129341  0.23879653  0.11024938  1
  O  O22  1  0.32422216  0.73505572  0.23955461  1
  O  O23  1  0.27695978  0.25943817  0.42671911  1
  O  O24  1  0.73154012  0.32557480  0.24181881  1
  O  O25  1  0.75625812  0.75383675  0.07788339  1
  O  O26  1  0.28125322  0.67941059  0.42583663  1
  O  O27  1  0.24315161  0.25166455  0.57148540  1
  O  O28  1  0.73636690  0.73424412  0.23773590  1
  O  O29  1  0.68599375  0.27543853  0.42980897  1
  O  O30  1  0.30530323  0.71628658  0.57580281  1
  O  O31  1  0.29392918  0.29354459  0.73935478  1
  O  O32  1  0.71730687  0.30869652  0.57740227  1
  O  O33  1  0.75398355  0.74256653  0.43360799  1
  O  O34  1  0.28094520  0.27858291  0.89204557  1
  O  O35  1  0.28369093  0.69684454  0.73896560  1
  O  O36  1  0.71186355  0.72421627  0.58221863  1
  O  O37  1  0.69481816  0.29140629  0.73873526  1
  O  O38  1  0.25052937  0.77646620  0.89943981  1
  O  O39  1  0.71704163  0.71920367  0.77755446  1
  O  O40  1  0.77577123  0.25131211  0.90033713  1
  O  O41  1  0.76653244  0.76697517  0.90275878  1
