# generated using pymatgen
data_CaCr2O4
_symmetry_space_group_name_H-M   'P 1'
_cell_length_a   6.60549451
_cell_length_b   6.04032187
_cell_length_c   6.04032196
_cell_angle_alpha   59.99999287
_cell_angle_beta   62.79216023
_cell_angle_gamma   62.79216108
_symmetry_Int_Tables_number   1
_chemical_formula_structural   CaCr2O4
_chemical_formula_sum   'Ca2 Cr4 O8'
_cell_volume   177.25730100
_cell_formula_units_Z   2
loop_
 _symmetry_equiv_pos_site_id
 _symmetry_equiv_pos_as_xyz
  1  'x, y, z'
loop_
 _atom_site_type_symbol
 _atom_site_label
 _atom_site_symmetry_multiplicity
 _atom_site_fract_x
 _atom_site_fract_y
 _atom_site_fract_z
 _atom_site_occupancy
  Ca  Ca0  1  0.04972459  0.98342514  0.98342514  1
  Ca  Ca1  1  0.09542445  0.63485752  0.63485752  1
  Cr  Cr2  1  0.55057827  0.14980758  0.14980758  1
  Cr  Cr3  1  0.60031835  0.13981245  0.62993510  1
  Cr  Cr4  1  0.60031835  0.62993510  0.13981245  1
  Cr  Cr5  1  0.60031835  0.62993510  0.62993510  1
  O  O6  1  0.39509543  0.37345862  0.37345862  1
  O  O7  1  0.39509543  0.37345862  0.85798634  1
  O  O8  1  0.39509543  0.85798634  0.37345862  1
  O  O9  1  0.77722708  0.40759131  0.40759131  1
  O  O10  1  0.43016080  0.85661307  0.85661307  1
  O  O11  1  0.78688182  0.40048101  0.90631858  1
  O  O12  1  0.78688182  0.90631858  0.40048101  1
  O  O13  1  0.78688182  0.90631858  0.90631858  1
