# generated using pymatgen
data_SO4
_symmetry_space_group_name_H-M   'P 1'
_cell_length_a   5.00847012
_cell_length_b   5.00847012
_cell_length_c   9.06691377
_cell_angle_alpha   71.22476907
_cell_angle_beta   108.77523093
_cell_angle_gamma   121.86702771
_symmetry_Int_Tables_number   1
_chemical_formula_structural   SO4
_chemical_formula_sum   'S2 O8'
_cell_volume   179.58780349
_cell_formula_units_Z   2
loop_
 _symmetry_equiv_pos_site_id
 _symmetry_equiv_pos_as_xyz
  1  'x, y, z'
loop_
 _atom_site_type_symbol
 _atom_site_label
 _atom_site_symmetry_multiplicity
 _atom_site_fract_x
 _atom_site_fract_y
 _atom_site_fract_z
 _atom_site_occupancy
  S  S0  1  0.90816909  0.90816909  0.75000000  1
  S  S1  1  0.09183091  0.09183091  0.25000000  1
  O  O2  1  0.74175329  0.73893578  0.88676797  1
  O  O3  1  0.73893578  0.74175329  0.61323203  1
  O  O4  1  0.25824671  0.26106422  0.11323203  1
  O  O5  1  0.26106422  0.25824671  0.38676797  1
  O  O6  1  0.22647972  0.92555466  0.82111860  1
  O  O7  1  0.92555466  0.22647972  0.67888140  1
  O  O8  1  0.77352028  0.07444534  0.17888140  1
  O  O9  1  0.07444534  0.77352028  0.32111860  1
