# generated using pymatgen
data_CaTiAs2O7
_symmetry_space_group_name_H-M   'P 1'
_cell_length_a   8.19591957
_cell_length_b   8.61248663
_cell_length_c   10.64550478
_cell_angle_alpha   90.00000000
_cell_angle_beta   119.37427241
_cell_angle_gamma   90.00000000
_symmetry_Int_Tables_number   1
_chemical_formula_structural   CaTiAs2O7
_chemical_formula_sum   'Ca4 Ti4 As8 O28'
_cell_volume   654.82776507
_cell_formula_units_Z   4
loop_
 _symmetry_equiv_pos_site_id
 _symmetry_equiv_pos_as_xyz
  1  'x, y, z'
loop_
 _atom_site_type_symbol
 _atom_site_label
 _atom_site_symmetry_multiplicity
 _atom_site_fract_x
 _atom_site_fract_y
 _atom_site_fract_z
 _atom_site_occupancy
  Ca  Ca0  1  0.26125962  0.92979584  0.90476349  1
  Ca  Ca1  1  0.73874038  0.42979584  0.59523651  1
  Ca  Ca2  1  0.73874038  0.07020416  0.09523651  1
  Ca  Ca3  1  0.26125962  0.57020416  0.40476349  1
  Ti  Ti4  1  0.80390727  0.06112939  0.71765629  1
  Ti  Ti5  1  0.19609273  0.56112939  0.78234371  1
  Ti  Ti6  1  0.19609273  0.93887061  0.28234371  1
  Ti  Ti7  1  0.80390727  0.43887061  0.21765629  1
  As  As8  1  0.45214245  0.23947977  0.75428417  1
  As  As9  1  0.54785755  0.73947977  0.74571583  1
  As  As10  1  0.54785755  0.76052023  0.24571583  1
  As  As11  1  0.45214245  0.26052023  0.25428317  1
  As  As12  1  0.05090777  0.31736086  0.95995949  1
  As  As13  1  0.94909223  0.81736086  0.54004051  1
  As  As14  1  0.94909223  0.68263914  0.04004051  1
  As  As15  1  0.05090777  0.18263914  0.45995949  1
  O  O16  1  0.76491963  0.32889529  0.07275447  1
  O  O17  1  0.23508037  0.82889529  0.42724553  1
  O  O18  1  0.23508037  0.67110471  0.92724553  1
  O  O19  1  0.76491963  0.17110471  0.57275447  1
  O  O20  1  0.37039232  0.41929953  0.76519750  1
  O  O21  1  0.62960768  0.91929953  0.73480250  1
  O  O22  1  0.62960768  0.58070047  0.23480250  1
  O  O23  1  0.37039232  0.08070047  0.26519750  1
  O  O24  1  0.44644442  0.11011491  0.87297314  1
  O  O25  1  0.55355558  0.61011491  0.62702686  1
  O  O26  1  0.55355558  0.88988509  0.12702686  1
  O  O27  1  0.44644442  0.38988509  0.37297314  1
  O  O28  1  0.31262834  0.18188574  0.57237797  1
  O  O29  1  0.68737166  0.68188574  0.92762203  1
  O  O30  1  0.68737166  0.81811426  0.42762203  1
  O  O31  1  0.31262834  0.31811426  0.07237797  1
  O  O32  1  0.04138810  0.09881050  0.30194238  1
  O  O33  1  0.95861190  0.59881050  0.19805762  1
  O  O34  1  0.95861190  0.90118950  0.69805762  1
  O  O35  1  0.04138810  0.40118950  0.80194238  1
  O  O36  1  0.66847050  0.24950046  0.26676082  1
  O  O37  1  0.33152950  0.74950046  0.23323918  1
  O  O38  1  0.33152950  0.75049954  0.73323918  1
  O  O39  1  0.66847050  0.25049954  0.76676082  1
  O  O40  1  0.02639809  0.38134897  0.39588307  1
  O  O41  1  0.97360191  0.88134897  0.10411693  1
  O  O42  1  0.97360191  0.61865103  0.60411693  1
  O  O43  1  0.02639809  0.11865103  0.89588307  1
