# generated using pymatgen
data_PPb
_symmetry_space_group_name_H-M   'P 1'
_cell_length_a   11.75931662
_cell_length_b   6.06121660
_cell_length_c   5.79961542
_cell_angle_alpha   90.00000000
_cell_angle_beta   86.09193592
_cell_angle_gamma   90.00000000
_symmetry_Int_Tables_number   1
_chemical_formula_structural   PPb
_chemical_formula_sum   'P8 Pb8'
_cell_volume   412.41081071
_cell_formula_units_Z   8
loop_
 _symmetry_equiv_pos_site_id
 _symmetry_equiv_pos_as_xyz
  1  'x, y, z'
loop_
 _atom_site_type_symbol
 _atom_site_label
 _atom_site_symmetry_multiplicity
 _atom_site_fract_x
 _atom_site_fract_y
 _atom_site_fract_z
 _atom_site_occupancy
  P  P0  1  0.07923358  0.84254246  0.73679832  1
  P  P1  1  0.57923358  0.65745754  0.23679832  1
  P  P2  1  0.92076642  0.15745754  0.26320168  1
  P  P3  1  0.42076642  0.34254246  0.76320168  1
  P  P4  1  0.92113284  0.65191446  0.75489600  1
  P  P5  1  0.42113284  0.84808554  0.25489600  1
  P  P6  1  0.07886716  0.34808554  0.24510400  1
  P  P7  1  0.57886716  0.15191446  0.74510400  1
  Pb  Pb8  1  0.13490993  0.36229058  0.73586352  1
  Pb  Pb9  1  0.63490993  0.13770942  0.23586352  1
  Pb  Pb10  1  0.86509007  0.63770942  0.26413648  1
  Pb  Pb11  1  0.36509007  0.86229058  0.76413648  1
  Pb  Pb12  1  0.13482656  0.86930370  0.22544818  1
  Pb  Pb13  1  0.63482656  0.63069630  0.72544818  1
  Pb  Pb14  1  0.86517344  0.13069630  0.77455182  1
  Pb  Pb15  1  0.36517344  0.36930370  0.27455182  1
