# generated using pymatgen
data_ZnCr3P3O13
_symmetry_space_group_name_H-M   'P 1'
_cell_length_a   6.31695779
_cell_length_b   7.51654305
_cell_length_c   10.16285385
_cell_angle_alpha   100.46541056
_cell_angle_beta   90.00000000
_cell_angle_gamma   90.00000000
_symmetry_Int_Tables_number   1
_chemical_formula_structural   ZnCr3P3O13
_chemical_formula_sum   'Zn2 Cr6 P6 O26'
_cell_volume   474.52209393
_cell_formula_units_Z   2
loop_
 _symmetry_equiv_pos_site_id
 _symmetry_equiv_pos_as_xyz
  1  'x, y, z'
loop_
 _atom_site_type_symbol
 _atom_site_label
 _atom_site_symmetry_multiplicity
 _atom_site_fract_x
 _atom_site_fract_y
 _atom_site_fract_z
 _atom_site_occupancy
  Zn  Zn0  1  0.75000000  0.62891303  0.17965648  1
  Zn  Zn1  1  0.25000000  0.37108697  0.82034352  1
  Cr  Cr2  1  0.25000000  0.35946912  0.20125773  1
  Cr  Cr3  1  0.75000000  0.64053088  0.79874227  1
  Cr  Cr4  1  0.25000000  0.77310034  0.43650596  1
  Cr  Cr5  1  0.50000000  -0.00000000  0.00000000  1
  Cr  Cr6  1  0.75000000  0.22689966  0.56349404  1
  Cr  Cr7  1  0.00000000  -0.00000000  0.00000000  1
  P  P8  1  0.25000000  0.21207172  0.49116802  1
  P  P9  1  0.75000000  0.78792828  0.50883198  1
  P  P10  1  0.25000000  0.73347382  0.76382539  1
  P  P11  1  0.75000000  0.26652618  0.23617461  1
  P  P12  1  0.75000000  0.31686647  0.88920931  1
  P  P13  1  0.25000000  0.68313353  0.11079069  1
  O  O14  1  0.75000000  0.36363929  0.74647827  1
  O  O15  1  0.56021553  0.74874139  0.41009798  1
  O  O16  1  0.25000000  0.79212643  0.62980588  1
  O  O17  1  0.54161413  0.21341340  0.90353470  1
  O  O18  1  0.75000000  0.65583377  0.60808466  1
  O  O19  1  0.75000000  0.88002658  0.90126791  1
  O  O20  1  0.25000000  0.34416623  0.39191534  1
  O  O21  1  0.04161413  0.78658660  0.09646530  1
  O  O22  1  0.25000000  0.01829784  0.40866608  1
  O  O23  1  0.75000000  0.98170216  0.59133392  1
  O  O24  1  0.06321375  0.61046214  0.78947000  1
  O  O25  1  0.25000000  0.11997342  0.09873209  1
  O  O26  1  0.56321375  0.38953786  0.21053000  1
  O  O27  1  0.75000000  0.51261061  0.97318197  1
  O  O28  1  0.75000000  0.20787357  0.37019412  1
  O  O29  1  0.45838587  0.78658660  0.09646530  1
  O  O30  1  0.93978447  0.74874139  0.41009798  1
  O  O31  1  0.43978447  0.25125861  0.58990202  1
  O  O32  1  0.43678625  0.61046214  0.78947000  1
  O  O33  1  0.25000000  0.63636071  0.25352173  1
  O  O34  1  0.75000000  0.09091746  0.12492234  1
  O  O35  1  0.25000000  0.90908254  0.87507766  1
  O  O36  1  0.93678625  0.38953786  0.21053000  1
  O  O37  1  0.95838587  0.21341340  0.90353470  1
  O  O38  1  0.06021553  0.25125861  0.58990202  1
  O  O39  1  0.25000000  0.48738939  0.02681803  1
