# generated using pymatgen
data_Ca2Bi3O8
_symmetry_space_group_name_H-M   'P 1'
_cell_length_a   6.97870195
_cell_length_b   6.97870222
_cell_length_c   10.42619486
_cell_angle_alpha   90.00000000
_cell_angle_beta   90.00000000
_cell_angle_gamma   120.00000280
_symmetry_Int_Tables_number   1
_chemical_formula_structural   Ca2Bi3O8
_chemical_formula_sum   'Ca4 Bi6 O16'
_cell_volume   439.74992572
_cell_formula_units_Z   2
loop_
 _symmetry_equiv_pos_site_id
 _symmetry_equiv_pos_as_xyz
  1  'x, y, z'
loop_
 _atom_site_type_symbol
 _atom_site_label
 _atom_site_symmetry_multiplicity
 _atom_site_fract_x
 _atom_site_fract_y
 _atom_site_fract_z
 _atom_site_occupancy
  Ca  Ca0  1  0.66666700  0.33333400  0.03026175  1
  Ca  Ca1  1  0.33333300  0.66666600  0.53026275  1
  Ca  Ca2  1  0.66666700  0.33333400  0.39668323  1
  Ca  Ca3  1  0.33333300  0.66666600  0.89668423  1
  Bi  Bi4  1  0.66910041  0.83455021  0.24375508  1
  Bi  Bi5  1  0.83455121  0.16545079  0.74375508  1
  Bi  Bi6  1  0.16545079  0.33090059  0.24375508  1
  Bi  Bi7  1  0.83454921  0.66910041  0.74375508  1
  Bi  Bi8  1  0.33090059  0.16545079  0.74375508  1
  Bi  Bi9  1  0.16545079  0.83455021  0.24375508  1
  O  O10  1  0.83196266  0.16803834  0.15306613  1
  O  O11  1  0.66392531  0.83196266  0.65306513  1
  O  O12  1  0.16803834  0.33607569  0.65306513  1
  O  O13  1  0.83196166  0.66392531  0.15306613  1
  O  O14  1  0.33607469  0.16803834  0.15306613  1
  O  O15  1  0.16803834  0.83196266  0.65306513  1
  O  O16  1  0.52219705  0.47780195  0.86807830  1
  O  O17  1  0.04439509  0.52219705  0.36807730  1
  O  O18  1  0.47780295  0.95560591  0.36807730  1
  O  O19  1  0.52219705  0.04439509  0.86807830  1
  O  O20  1  0.00000000  0.00000000  0.34702221  1
  O  O21  1  0.00000000  0.00000000  0.84702221  1
  O  O22  1  0.33333300  0.66666600  0.12483627  1
  O  O23  1  0.95560391  0.47780195  0.86807830  1
  O  O24  1  0.47780195  0.52219705  0.36807730  1
  O  O25  1  0.66666700  0.33333400  0.62483627  1
