# generated using pymatgen
data_CaCrAs2O7
_symmetry_space_group_name_H-M   'P 1'
_cell_length_a   7.50593659
_cell_length_b   9.19194607
_cell_length_c   9.57975364
_cell_angle_alpha   90.00000000
_cell_angle_beta   110.57350098
_cell_angle_gamma   90.00000000
_symmetry_Int_Tables_number   1
_chemical_formula_structural   CaCrAs2O7
_chemical_formula_sum   'Ca4 Cr4 As8 O28'
_cell_volume   618.79331868
_cell_formula_units_Z   4
loop_
 _symmetry_equiv_pos_site_id
 _symmetry_equiv_pos_as_xyz
  1  'x, y, z'
loop_
 _atom_site_type_symbol
 _atom_site_label
 _atom_site_symmetry_multiplicity
 _atom_site_fract_x
 _atom_site_fract_y
 _atom_site_fract_z
 _atom_site_occupancy
  Ca  Ca0  1  0.25130530  0.93461864  0.93319107  1
  Ca  Ca1  1  0.74869470  0.43461864  0.56680893  1
  Ca  Ca2  1  0.74869470  0.06538136  0.06680893  1
  Ca  Ca3  1  0.25130530  0.56538136  0.43319107  1
  Cr  Cr4  1  0.78383983  0.04974170  0.67643338  1
  Cr  Cr5  1  0.21616017  0.54974170  0.82356662  1
  Cr  Cr6  1  0.21616017  0.95025830  0.32356662  1
  Cr  Cr7  1  0.78383983  0.45025830  0.17643338  1
  As  As8  1  0.42100207  0.23572461  0.73513994  1
  As  As9  1  0.57899793  0.73572461  0.76486006  1
  As  As10  1  0.57899793  0.76427539  0.26486006  1
  As  As11  1  0.42100207  0.26427539  0.23513894  1
  As  As12  1  0.02317161  0.29395631  0.95729983  1
  As  As13  1  0.97682839  0.79395631  0.54270017  1
  As  As14  1  0.97682839  0.70604369  0.04270017  1
  As  As15  1  0.02317161  0.20604369  0.45729983  1
  O  O16  1  0.85469091  0.30866893  0.03849767  1
  O  O17  1  0.14530909  0.80866893  0.46150233  1
  O  O18  1  0.14530909  0.69133107  0.96150233  1
  O  O19  1  0.85469091  0.19133107  0.53849767  1
  O  O20  1  0.34839965  0.41254830  0.72072825  1
  O  O21  1  0.65160035  0.91254830  0.77927175  1
  O  O22  1  0.65160035  0.58745170  0.27927175  1
  O  O23  1  0.34839965  0.08745170  0.22072825  1
  O  O24  1  0.43405554  0.13691539  0.88882920  1
  O  O25  1  0.56594446  0.63691539  0.61117080  1
  O  O26  1  0.56594446  0.86308461  0.11117080  1
  O  O27  1  0.43405554  0.36308461  0.38882920  1
  O  O28  1  0.24811352  0.14039422  0.58158019  1
  O  O29  1  0.75188648  0.64039422  0.91841981  1
  O  O30  1  0.75188648  0.85960578  0.41841981  1
  O  O31  1  0.24811352  0.35960578  0.08158019  1
  O  O32  1  0.99708938  0.09099243  0.31098732  1
  O  O33  1  0.00291062  0.59099143  0.18901268  1
  O  O34  1  0.00291062  0.90900857  0.68901268  1
  O  O35  1  0.99708938  0.40900857  0.81098732  1
  O  O36  1  0.62677262  0.27060895  0.19690772  1
  O  O37  1  0.37322738  0.77060895  0.30309228  1
  O  O38  1  0.37322738  0.72939105  0.80309228  1
  O  O39  1  0.62677262  0.22939105  0.69690772  1
  O  O40  1  0.01782048  0.38415461  0.41171971  1
  O  O41  1  0.98217952  0.88415461  0.08828029  1
  O  O42  1  0.98217952  0.61584539  0.58828029  1
  O  O43  1  0.01782048  0.11584539  0.91171971  1
