# generated using pymatgen
data_V2Zn(PO4)2
_symmetry_space_group_name_H-M   'P 1'
_cell_length_a   4.79096976
_cell_length_b   8.61143031
_cell_length_c   15.78146480
_cell_angle_alpha   86.43755265
_cell_angle_beta   81.25905091
_cell_angle_gamma   73.92670361
_symmetry_Int_Tables_number   1
_chemical_formula_structural   V2Zn(PO4)2
_chemical_formula_sum   'V8 Zn4 P8 O32'
_cell_volume   618.24048838
_cell_formula_units_Z   4
loop_
 _symmetry_equiv_pos_site_id
 _symmetry_equiv_pos_as_xyz
  1  'x, y, z'
loop_
 _atom_site_type_symbol
 _atom_site_label
 _atom_site_symmetry_multiplicity
 _atom_site_fract_x
 _atom_site_fract_y
 _atom_site_fract_z
 _atom_site_occupancy
  V  V0  1  0.19052172  0.21647081  0.96586060  1
  V  V1  1  0.37382125  0.28326488  0.53435095  1
  V  V2  1  0.81101678  0.78318290  0.03408971  1
  V  V3  1  0.49851915  0.50142370  0.00076807  1
  V  V4  1  0.62893653  0.71583162  0.46627283  1
  V  V5  1  0.67502883  0.75056561  0.24958947  1
  V  V6  1  0.32539906  0.25018874  0.75006465  1
  V  V7  1  0.00100661  0.99851197  0.49979310  1
  Zn  Zn8  1  0.48584556  0.83026716  0.83840019  1
  Zn  Zn9  1  0.15476010  0.67105803  0.66210131  1
  Zn  Zn10  1  0.84877383  0.32961866  0.33944389  1
  Zn  Zn11  1  0.51468686  0.17004993  0.16174776  1
  P  P12  1  0.06578385  0.57452312  0.86617039  1
  P  P13  1  0.76552972  0.42400874  0.61978364  1
  P  P14  1  0.93537374  0.42510318  0.13448468  1
  P  P15  1  0.19284587  0.92385258  0.11980257  1
  P  P16  1  0.49559905  0.07356341  0.36597158  1
  P  P17  1  0.50500308  0.92548265  0.63435135  1
  P  P18  1  0.23839222  0.57595627  0.38088533  1
  P  P19  1  0.80738776  0.07552904  0.88028854  1
  O  O20  1  0.67632632  0.36464448  0.11256458  1
  O  O21  1  0.72534332  0.91990118  0.91928670  1
  O  O22  1  0.84625561  0.86588746  0.61290469  1
  O  O23  1  0.83758468  0.28341263  0.55394560  1
  O  O24  1  0.17631981  0.39057123  0.05467802  1
  O  O25  1  0.60557190  0.39335916  0.70719041  1
  O  O26  1  0.67349501  0.21649433  0.94584578  1
  O  O27  1  0.84959703  0.94953080  0.12899581  1
  O  O28  1  0.16455849  0.71824229  0.44588081  1
  O  O29  1  0.56596508  0.57954126  0.58136738  1
  O  O30  1  0.84506037  0.61143183  0.14135270  1
  O  O31  1  0.60858885  0.16153233  0.28522957  1
  O  O32  1  0.27514439  0.07900639  0.08064195  1
  O  O33  1  0.07344430  0.45087666  0.62864870  1
  O  O34  1  0.32329887  0.63629753  0.88812222  1
  O  O35  1  0.15869304  0.38825598  0.85892573  1
  O  O36  1  0.94433382  0.66196479  0.78549953  1
  O  O37  1  0.32746995  0.78225053  0.05448949  1
  O  O38  1  0.40033801  0.11167881  0.64157701  1
  O  O39  1  0.39193079  0.83679991  0.71492819  1
  O  O40  1  0.93133307  0.54820063  0.37242593  1
  O  O41  1  0.37941659  0.89033955  0.55449430  1
  O  O42  1  0.15057595  0.04972041  0.87105941  1
  O  O43  1  0.29619449  0.89509164  0.20720636  1
  O  O44  1  0.43838517  0.42171749  0.42028572  1
  O  O45  1  0.15440740  0.13412363  0.38789090  1
  O  O46  1  0.05568178  0.33722683  0.21521887  1
  O  O47  1  0.62216308  0.10870832  0.44565022  1
  O  O48  1  0.82529607  0.60817636  0.94605146  1
  O  O49  1  0.70296812  0.10430936  0.79303603  1
  O  O50  1  0.39990404  0.60478996  0.29337823  1
  O  O51  1  0.59753406  0.88726323  0.35896109  1
