# generated using pymatgen
data_TiZnBiO5
_symmetry_space_group_name_H-M   'P 1'
_cell_length_a   5.18774404
_cell_length_b   10.78634696
_cell_length_c   15.66662411
_cell_angle_alpha   90.00000000
_cell_angle_beta   90.00000000
_cell_angle_gamma   90.00000000
_symmetry_Int_Tables_number   1
_chemical_formula_structural   TiZnBiO5
_chemical_formula_sum   'Ti8 Zn8 Bi8 O40'
_cell_volume   876.65426409
_cell_formula_units_Z   8
loop_
 _symmetry_equiv_pos_site_id
 _symmetry_equiv_pos_as_xyz
  1  'x, y, z'
loop_
 _atom_site_type_symbol
 _atom_site_label
 _atom_site_symmetry_multiplicity
 _atom_site_fract_x
 _atom_site_fract_y
 _atom_site_fract_z
 _atom_site_occupancy
  Ti  Ti0  1  0.89235872  0.34736376  0.60967895  1
  Ti  Ti1  1  0.60764128  0.84736376  0.39032105  1
  Ti  Ti2  1  0.10764128  0.65263624  0.39032105  1
  Ti  Ti3  1  0.39235872  0.15263624  0.60967895  1
  Ti  Ti4  1  0.10764128  0.15263624  0.10967895  1
  Ti  Ti5  1  0.89235872  0.84736376  0.89032105  1
  Ti  Ti6  1  0.60764128  0.34736376  0.10967895  1
  Ti  Ti7  1  0.39235872  0.65263624  0.89032105  1
  Zn  Zn8  1  0.46425675  0.36679766  0.47473015  1
  Zn  Zn9  1  0.96425675  0.13320234  0.47473015  1
  Zn  Zn10  1  0.96425675  0.63320234  0.02526985  1
  Zn  Zn11  1  0.03574325  0.36679766  0.97473015  1
  Zn  Zn12  1  0.53574325  0.13320234  0.97473015  1
  Zn  Zn13  1  0.03574325  0.86679766  0.52526985  1
  Zn  Zn14  1  0.53574325  0.63320234  0.52526985  1
  Zn  Zn15  1  0.46425675  0.86679766  0.02526985  1
  Bi  Bi16  1  0.17615692  0.86013227  0.21700777  1
  Bi  Bi17  1  0.82384308  0.13986773  0.78299223  1
  Bi  Bi18  1  0.32384308  0.36013227  0.78299223  1
  Bi  Bi19  1  0.82384308  0.63986773  0.71700777  1
  Bi  Bi20  1  0.67615692  0.13986773  0.28299223  1
  Bi  Bi21  1  0.67615692  0.63986773  0.21700777  1
  Bi  Bi22  1  0.32384308  0.86013227  0.71700777  1
  Bi  Bi23  1  0.17615692  0.36013227  0.28299223  1
  O  O24  1  0.62980582  0.28548005  0.69545873  1
  O  O25  1  0.29711596  0.03695811  0.05537159  1
  O  O26  1  0.20288404  0.53695811  0.94462841  1
  O  O27  1  0.50979341  0.80301273  0.14173263  1
  O  O28  1  0.99020659  0.30301273  0.85826737  1
  O  O29  1  0.62980582  0.78548005  0.80454127  1
  O  O30  1  0.99020659  0.80301273  0.64173263  1
  O  O31  1  0.87019418  0.78548005  0.30454127  1
  O  O32  1  0.29711596  0.53695811  0.44462841  1
  O  O33  1  0.37019418  0.71451995  0.30454127  1
  O  O34  1  0.87019418  0.28548005  0.19545873  1
  O  O35  1  0.67809107  0.20733259  0.54290576  1
  O  O36  1  0.79711596  0.96304189  0.44462841  1
  O  O37  1  0.49020659  0.69698727  0.64173263  1
  O  O38  1  0.05667213  0.96317387  0.81165702  1
  O  O39  1  0.79711596  0.46304189  0.05537159  1
  O  O40  1  0.37019418  0.21451995  0.19545873  1
  O  O41  1  0.00979341  0.19698727  0.35826737  1
  O  O42  1  0.17809107  0.79266741  0.95709424  1
  O  O43  1  0.20288404  0.03695811  0.55537159  1
  O  O44  1  0.32190893  0.79266741  0.45709424  1
  O  O45  1  0.94332787  0.03682613  0.18834298  1
  O  O46  1  0.49020659  0.19698727  0.85826737  1
  O  O47  1  0.55667213  0.03682613  0.68834298  1
  O  O48  1  0.32190893  0.29266741  0.04290576  1
  O  O49  1  0.17809107  0.29266741  0.54290576  1
  O  O50  1  0.70288404  0.46304189  0.55537159  1
  O  O51  1  0.70288404  0.96304189  0.94462841  1
  O  O52  1  0.55667213  0.53682613  0.81165702  1
  O  O53  1  0.82190893  0.70733259  0.45709424  1
  O  O54  1  0.82190893  0.20733259  0.04290576  1
  O  O55  1  0.67809107  0.70733259  0.95709424  1
  O  O56  1  0.94332787  0.53682613  0.31165702  1
  O  O57  1  0.00979341  0.69698727  0.14173263  1
  O  O58  1  0.50979341  0.30301273  0.35826737  1
  O  O59  1  0.05667213  0.46317387  0.68834298  1
  O  O60  1  0.44332787  0.46317387  0.18834298  1
  O  O61  1  0.12980582  0.21451995  0.69545873  1
  O  O62  1  0.44332787  0.96317387  0.31165702  1
  O  O63  1  0.12980582  0.71451995  0.80454127  1
