# generated using pymatgen
data_Zn2CrWO6
_symmetry_space_group_name_H-M   'P 1'
_cell_length_a   5.54443175
_cell_length_b   5.21419145
_cell_length_c   7.66269025
_cell_angle_alpha   90.35480086
_cell_angle_beta   136.63426718
_cell_angle_gamma   117.84323567
_symmetry_Int_Tables_number   1
_chemical_formula_structural   Zn2CrWO6
_chemical_formula_sum   'Zn2 Cr1 W1 O6'
_cell_volume   110.56562915
_cell_formula_units_Z   1
loop_
 _symmetry_equiv_pos_site_id
 _symmetry_equiv_pos_as_xyz
  1  'x, y, z'
loop_
 _atom_site_type_symbol
 _atom_site_label
 _atom_site_symmetry_multiplicity
 _atom_site_fract_x
 _atom_site_fract_y
 _atom_site_fract_z
 _atom_site_occupancy
  Zn  Zn0  1  0.96689468  0.46706585  0.23943144  1
  Zn  Zn1  1  0.10984546  0.53854877  0.77940966  1
  Cr  Cr2  1  0.99187283  0.98019630  0.49808504  1
  W  W3  1  0.00255536  0.98595136  0.00064862  1
  O  O4  1  0.96181158  0.09181221  0.23166156  1
  O  O5  1  0.01095310  0.86136162  0.75845029  1
  O  O6  1  0.36202497  0.47496364  0.11873138  1
  O  O7  1  0.35625862  0.83992201  0.61812774  1
  O  O8  1  0.62355386  0.11286899  0.38112390  1
  O  O9  1  0.61196554  0.48962925  0.87882639  1
