# generated using pymatgen
data_YW3O8
_symmetry_space_group_name_H-M   'P 1'
_cell_length_a   5.44692567
_cell_length_b   5.85626392
_cell_length_c   9.75748832
_cell_angle_alpha   89.99759172
_cell_angle_beta   92.43303405
_cell_angle_gamma   90.00277645
_symmetry_Int_Tables_number   1
_chemical_formula_structural   YW3O8
_chemical_formula_sum   'Y2 W6 O16'
_cell_volume   310.96996448
_cell_formula_units_Z   2
loop_
 _symmetry_equiv_pos_site_id
 _symmetry_equiv_pos_as_xyz
  1  'x, y, z'
loop_
 _atom_site_type_symbol
 _atom_site_label
 _atom_site_symmetry_multiplicity
 _atom_site_fract_x
 _atom_site_fract_y
 _atom_site_fract_z
 _atom_site_occupancy
  Y  Y0  1  0.24986260  0.67377490  0.24993966  1
  Y  Y1  1  0.75013704  0.32622476  0.75005981  1
  W  W2  1  0.74986702  0.34113927  0.24995533  1
  W  W3  1  0.25012590  0.65886038  0.75004603  1
  W  W4  1  0.24731525  0.15077885  0.50180485  1
  W  W5  1  0.25271539  0.15084554  0.99815239  1
  W  W6  1  0.75268401  0.84921944  0.49819543  1
  W  W7  1  0.74728371  0.84915593  0.00184735  1
  O  O8  1  0.44171476  0.35870675  0.14195462  1
  O  O9  1  0.05806516  0.35824719  0.35785170  1
  O  O10  1  0.55828555  0.64129001  0.85804566  1
  O  O11  1  0.94193486  0.64175483  0.64214819  1
  O  O12  1  0.41737384  0.89285143  0.61853769  1
  O  O13  1  0.08296848  0.89287240  0.88156079  1
  O  O14  1  0.58262641  0.10715025  0.38146114  1
  O  O15  1  0.91703212  0.10712611  0.11843847  1
  O  O16  1  0.88972498  0.59623302  0.12976755  1
  O  O17  1  0.61032143  0.59657369  0.36998868  1
  O  O18  1  0.11027843  0.40376666  0.87023310  1
  O  O19  1  0.38968229  0.40342778  0.63001164  1
  O  O20  1  0.41906220  0.88812595  0.10259026  1
  O  O21  1  0.58093712  0.11187444  0.89741001  1
  O  O22  1  0.08106289  0.88770201  0.39760645  1
  O  O23  1  0.91893657  0.11229844  0.60239321  1
