# generated using pymatgen
data_MgSn(GeO3)2
_symmetry_space_group_name_H-M   'P 1'
_cell_length_a   5.47424504
_cell_length_b   10.21183334
_cell_length_c   10.63993230
_cell_angle_alpha   90.00000000
_cell_angle_beta   106.31240650
_cell_angle_gamma   90.00000000
_symmetry_Int_Tables_number   1
_chemical_formula_structural   MgSn(GeO3)2
_chemical_formula_sum   'Mg4 Sn4 Ge8 O24'
_cell_volume   570.85057967
_cell_formula_units_Z   4
loop_
 _symmetry_equiv_pos_site_id
 _symmetry_equiv_pos_as_xyz
  1  'x, y, z'
loop_
 _atom_site_type_symbol
 _atom_site_label
 _atom_site_symmetry_multiplicity
 _atom_site_fract_x
 _atom_site_fract_y
 _atom_site_fract_z
 _atom_site_occupancy
  Mg  Mg0  1  0.44854996  0.47415793  0.22490739  1
  Mg  Mg1  1  0.05145004  0.97415793  0.77509261  1
  Mg  Mg2  1  0.55145004  0.52584207  0.77509261  1
  Mg  Mg3  1  0.94854996  0.02584207  0.22490739  1
  Sn  Sn4  1  0.97274165  0.62465801  0.26195083  1
  Sn  Sn5  1  0.52725835  0.12465801  0.73804917  1
  Sn  Sn6  1  0.02725835  0.37534199  0.73804917  1
  Sn  Sn7  1  0.47274165  0.87534199  0.26195083  1
  Ge  Ge8  1  0.83178864  0.34079323  0.05455935  1
  Ge  Ge9  1  0.66821136  0.84079323  0.94544065  1
  Ge  Ge10  1  0.16821136  0.65920677  0.94544065  1
  Ge  Ge11  1  0.33178864  0.15920677  0.05455935  1
  Ge  Ge12  1  0.22543160  0.34882867  0.46858217  1
  Ge  Ge13  1  0.27456840  0.84882867  0.53141783  1
  Ge  Ge14  1  0.77456840  0.65117133  0.53141783  1
  Ge  Ge15  1  0.72543160  0.15117133  0.46858217  1
  O  O16  1  0.40621995  0.21062495  0.44407145  1
  O  O17  1  0.09378005  0.71062495  0.55592855  1
  O  O18  1  0.59378005  0.78937505  0.55592855  1
  O  O19  1  0.90621995  0.28937505  0.44407145  1
  O  O20  1  0.17839700  0.30683108  0.09921584  1
  O  O21  1  0.32160300  0.80683108  0.90078516  1
  O  O22  1  0.82160300  0.69316892  0.90078516  1
  O  O23  1  0.67839700  0.19316892  0.09921584  1
  O  O24  1  0.72371476  0.04036253  0.34288223  1
  O  O25  1  0.77628524  0.54036253  0.65711777  1
  O  O26  1  0.27628524  0.95963747  0.65711777  1
  O  O27  1  0.22371476  0.45963747  0.34288223  1
  O  O28  1  0.24636069  0.03845416  0.15191889  1
  O  O29  1  0.25363931  0.53845416  0.84808111  1
  O  O30  1  0.75363931  0.96154584  0.84808111  1
  O  O31  1  0.74636069  0.46154584  0.15191889  1
  O  O32  1  0.74298110  0.38359398  0.89070894  1
  O  O33  1  0.75701890  0.88359398  0.10929106  1
  O  O34  1  0.25701890  0.61640602  0.10929106  1
  O  O35  1  0.24298110  0.11640602  0.89070894  1
  O  O36  1  0.30507142  0.41953135  0.62499680  1
  O  O37  1  0.19492858  0.91953135  0.37500320  1
  O  O38  1  0.69492858  0.58046865  0.37500320  1
  O  O39  1  0.80507142  0.08046865  0.62499680  1
