# generated using pymatgen
data_MgCuMo2O7
_symmetry_space_group_name_H-M   'P 1'
_cell_length_a   8.86676929
_cell_length_b   9.40350328
_cell_length_c   11.16692630
_cell_angle_alpha   102.40827021
_cell_angle_beta   90.00000000
_cell_angle_gamma   90.00000000
_symmetry_Int_Tables_number   1
_chemical_formula_structural   MgCuMo2O7
_chemical_formula_sum   'Mg6 Cu6 Mo12 O42'
_cell_volume   909.33480153
_cell_formula_units_Z   6
loop_
 _symmetry_equiv_pos_site_id
 _symmetry_equiv_pos_as_xyz
  1  'x, y, z'
loop_
 _atom_site_type_symbol
 _atom_site_label
 _atom_site_symmetry_multiplicity
 _atom_site_fract_x
 _atom_site_fract_y
 _atom_site_fract_z
 _atom_site_occupancy
  Mg  Mg0  1  0.42496997  0.15428745  0.57870282  1
  Mg  Mg1  1  0.92531718  0.50000000  0.75000000  1
  Mg  Mg2  1  0.42496997  0.84571255  0.92129718  1
  Mg  Mg3  1  0.07468282  0.50000000  0.25000000  1
  Mg  Mg4  1  0.57503003  0.84571255  0.42129718  1
  Mg  Mg5  1  0.57503003  0.15428745  0.07870282  1
  Cu  Cu6  1  0.92953435  0.81558165  0.40945317  1
  Cu  Cu7  1  0.07046565  0.18441835  0.59054683  1
  Cu  Cu8  1  0.43670852  0.50000000  0.25000000  1
  Cu  Cu9  1  0.92953435  0.18441835  0.09054683  1
  Cu  Cu10  1  0.56329148  0.50000000  0.75000000  1
  Cu  Cu11  1  0.07046565  0.81558165  0.90945317  1
  Mo  Mo12  1  0.24220205  0.20158827  0.29321542  1
  Mo  Mo13  1  0.75557761  0.12311577  0.37252343  1
  Mo  Mo14  1  0.24442239  0.12311577  0.87252343  1
  Mo  Mo15  1  0.75779795  0.20158827  0.79321542  1
  Mo  Mo16  1  0.26383988  0.53473209  0.95929277  1
  Mo  Mo17  1  0.75557761  0.87688423  0.12747657  1
  Mo  Mo18  1  0.73616012  0.53473209  0.45929277  1
  Mo  Mo19  1  0.24442239  0.87688423  0.62747657  1
  Mo  Mo20  1  0.26383988  0.46526791  0.54070723  1
  Mo  Mo21  1  0.73616012  0.46526791  0.04070723  1
  Mo  Mo22  1  0.75779795  0.79841173  0.70678458  1
  Mo  Mo23  1  0.24220205  0.79841173  0.20678458  1
  O  O24  1  0.75334356  0.21997250  0.97126544  1
  O  O25  1  0.76019980  0.89152558  0.31045333  1
  O  O26  1  0.81190101  0.00000000  0.75000000  1
  O  O27  1  0.91517877  0.45239128  0.11010003  1
  O  O28  1  0.42270358  0.91786225  0.55584158  1
  O  O29  1  0.92256096  0.27303094  0.71829871  1
  O  O30  1  0.29370596  0.33893238  0.91377835  1
  O  O31  1  0.08482123  0.45239128  0.61010003  1
  O  O32  1  0.73628228  0.44524372  0.86568841  1
  O  O33  1  0.42270358  0.08213775  0.94415842  1
  O  O34  1  0.73628228  0.55475628  0.63431159  1
  O  O35  1  0.42070141  0.59958432  0.88024872  1
  O  O36  1  0.92917030  0.86455788  0.04748627  1
  O  O37  1  0.07743904  0.27303094  0.21829871  1
  O  O38  1  0.70629404  0.66106762  0.08622165  1
  O  O39  1  0.29370596  0.66106762  0.58622165  1
  O  O40  1  0.92256096  0.72696906  0.78170129  1
  O  O41  1  0.57729642  0.08213775  0.44415842  1
  O  O42  1  0.24665644  0.21997250  0.47126544  1
  O  O43  1  0.57929859  0.40041568  0.11975128  1
  O  O44  1  0.41702101  0.80288495  0.28594602  1
  O  O45  1  0.26371772  0.55475628  0.13431159  1
  O  O46  1  0.07082970  0.86455788  0.54748627  1
  O  O47  1  0.26371772  0.44524372  0.36568841  1
  O  O48  1  0.91517877  0.54760872  0.38989997  1
  O  O49  1  0.57929859  0.59958432  0.38024872  1
  O  O50  1  0.08482123  0.54760872  0.88989997  1
  O  O51  1  0.58297899  0.80288495  0.78594602  1
  O  O52  1  0.58297899  0.19711505  0.71405398  1
  O  O53  1  0.07082970  0.13544212  0.95251373  1
  O  O54  1  0.07743904  0.72696906  0.28170129  1
  O  O55  1  0.75334356  0.78002750  0.52873456  1
  O  O56  1  0.18809899  0.00000000  0.25000000  1
  O  O57  1  0.23980020  0.89152558  0.81045333  1
  O  O58  1  0.57729642  0.91786225  0.05584158  1
  O  O59  1  0.92917030  0.13544212  0.45251373  1
  O  O60  1  0.24665644  0.78002750  0.02873456  1
  O  O61  1  0.76019980  0.10847442  0.18954667  1
  O  O62  1  0.42070141  0.40041568  0.61975128  1
  O  O63  1  0.70629404  0.33893238  0.41377835  1
  O  O64  1  0.23980020  0.10847442  0.68954667  1
  O  O65  1  0.41702101  0.19711505  0.21405398  1
