# generated using pymatgen
data_MgMn4(CuO4)3
_symmetry_space_group_name_H-M   'P 1'
_cell_length_a   6.37124110
_cell_length_b   6.37134822
_cell_length_c   6.37131735
_cell_angle_alpha   109.46084286
_cell_angle_beta   109.49161236
_cell_angle_gamma   109.46372691
_symmetry_Int_Tables_number   1
_chemical_formula_structural   MgMn4(CuO4)3
_chemical_formula_sum   'Mg1 Mn4 Cu3 O12'
_cell_volume   199.08988278
_cell_formula_units_Z   1
loop_
 _symmetry_equiv_pos_site_id
 _symmetry_equiv_pos_as_xyz
  1  'x, y, z'
loop_
 _atom_site_type_symbol
 _atom_site_label
 _atom_site_symmetry_multiplicity
 _atom_site_fract_x
 _atom_site_fract_y
 _atom_site_fract_z
 _atom_site_occupancy
  Mg  Mg0  1  0.99999812  0.99999810  0.99999664  1
  Mn  Mn1  1  -0.00000057  0.00000685  0.49999901  1
  Mn  Mn2  1  0.00000247  0.49999905  0.00000359  1
  Mn  Mn3  1  0.50000165  0.50000151  0.50000329  1
  Mn  Mn4  1  0.50000044  0.00000088  0.00000259  1
  Cu  Cu5  1  0.49999797  0.49999855  0.99999781  1
  Cu  Cu6  1  0.00000056  0.50000059  0.49999887  1
  Cu  Cu7  1  0.50000223  0.00000028  0.50000086  1
  O  O8  1  0.83084211  0.30655272  0.13740200  1
  O  O9  1  0.16915568  0.69344002  0.86259836  1
  O  O10  1  0.83080068  0.69340403  0.52423957  1
  O  O11  1  0.30658363  0.47569870  0.16913211  1
  O  O12  1  0.47560736  0.16918928  0.30642820  1
  O  O13  1  0.13727312  0.83079418  0.30647116  1
  O  O14  1  0.69339619  0.86253616  0.16912484  1
  O  O15  1  0.52439292  0.83081201  0.69357018  1
  O  O16  1  0.16920123  0.30659929  0.47575806  1
  O  O17  1  0.69341523  0.52429701  0.83086817  1
  O  O18  1  0.86272877  0.16920906  0.69353095  1
  O  O19  1  0.30660020  0.13746073  0.83087376  1
