# generated using pymatgen
data_Y4Mn13Si2(SbO14)2
_symmetry_space_group_name_H-M   'P 1'
_cell_length_a   5.82308760
_cell_length_b   9.50378889
_cell_length_c   12.57507893
_cell_angle_alpha   87.55430459
_cell_angle_beta   76.61266689
_cell_angle_gamma   79.37943606
_symmetry_Int_Tables_number   1
_chemical_formula_structural   Y4Mn13Si2(SbO14)2
_chemical_formula_sum   'Y4 Mn13 Si2 Sb2 O28'
_cell_volume   665.41445864
_cell_formula_units_Z   1
loop_
 _symmetry_equiv_pos_site_id
 _symmetry_equiv_pos_as_xyz
  1  'x, y, z'
loop_
 _atom_site_type_symbol
 _atom_site_label
 _atom_site_symmetry_multiplicity
 _atom_site_fract_x
 _atom_site_fract_y
 _atom_site_fract_z
 _atom_site_occupancy
  Y  Y0  1  0.07047639  0.65442491  0.41548509  1
  Y  Y1  1  0.51403852  0.34557509  0.41548509  1
  Y  Y2  1  0.92952361  0.34557509  0.58451491  1
  Y  Y3  1  0.48596148  0.65442491  0.58451491  1
  Mn  Mn4  1  0.92308399  0.64755647  0.73681960  1
  Mn  Mn5  1  0.66427986  0.32811420  0.12628560  1
  Mn  Mn6  1  0.34009542  0.35244353  0.73681960  1
  Mn  Mn7  1  0.07691601  0.35244353  0.26318040  1
  Mn  Mn8  1  0.33572014  0.67188580  0.87371440  1
  Mn  Mn9  1  0.29070534  0.00000000  0.41859032  1
  Mn  Mn10  1  0.20943454  0.67188580  0.12628560  1
  Mn  Mn11  1  0.00000000  0.00000000  -0.00000000  1
  Mn  Mn12  1  0.42789863  0.00000000  0.14420373  1
  Mn  Mn13  1  0.79056546  0.32811420  0.87371440  1
  Mn  Mn14  1  0.65990458  0.64755647  0.26318040  1
  Mn  Mn15  1  0.57210137  1.00000000  0.85579627  1
  Mn  Mn16  1  0.70929466  1.00000000  0.58140968  1
  Si  Si17  1  0.24569815  0.29465236  0.00000000  1
  Si  Si18  1  0.75430185  0.70534764  1.00000000  1
  Sb  Sb19  1  0.85938778  0.00000000  0.28122445  1
  Sb  Sb20  1  0.14061222  1.00000000  0.71877555  1
  O  O21  1  0.71497525  0.40433034  0.26352501  1
  O  O22  1  0.13627740  0.38875808  0.42120591  1
  O  O23  1  0.95979082  0.34091453  0.00000000  1
  O  O24  1  0.30905521  0.11668701  1.00000000  1
  O  O25  1  0.86372260  0.61124192  0.57879409  1
  O  O26  1  0.28502475  0.59566966  0.73647499  1
  O  O27  1  0.01130725  0.10832095  0.59081744  1
  O  O28  1  0.98869275  0.89167905  0.40918256  1
  O  O29  1  0.69094479  0.88331299  0.00000000  1
  O  O30  1  0.11493139  0.89391212  0.15627732  1
  O  O31  1  0.31051934  0.35735402  0.10829630  1
  O  O32  1  0.02149974  0.59566966  0.26352501  1
  O  O33  1  0.39787531  0.89167905  0.59081744  1
  O  O34  1  0.72879129  0.10608788  0.15627732  1
  O  O35  1  0.58118436  0.64264598  0.10829630  1
  O  O36  1  0.04020918  0.65908547  1.00000000  1
  O  O37  1  0.27120871  0.89391212  0.84372268  1
  O  O38  1  0.88506861  0.10608788  0.84372268  1
  O  O39  1  0.60212469  0.10832095  0.40918256  1
  O  O40  1  0.11310192  0.12017842  0.28672356  1
  O  O41  1  0.88689808  0.87982158  0.71327644  1
  O  O42  1  0.41881564  0.35735402  0.89170370  1
  O  O43  1  0.39982448  0.12017842  0.71327644  1
  O  O44  1  0.55748331  0.38875808  0.57879409  1
  O  O45  1  0.68948066  0.64264598  0.89170370  1
  O  O46  1  0.60017552  0.87982158  0.28672356  1
  O  O47  1  0.97850026  0.40433034  0.73647499  1
  O  O48  1  0.44251669  0.61124192  0.42120591  1
