# generated using pymatgen
data_SrV(PO4)2
_symmetry_space_group_name_H-M   'P 1'
_cell_length_a   5.84881380
_cell_length_b   7.14883287
_cell_length_c   9.03697235
_cell_angle_alpha   108.91530858
_cell_angle_beta   102.07406400
_cell_angle_gamma   99.72409308
_symmetry_Int_Tables_number   1
_chemical_formula_structural   SrV(PO4)2
_chemical_formula_sum   'Sr2 V2 P4 O16'
_cell_volume   337.90611427
_cell_formula_units_Z   2
loop_
 _symmetry_equiv_pos_site_id
 _symmetry_equiv_pos_as_xyz
  1  'x, y, z'
loop_
 _atom_site_type_symbol
 _atom_site_label
 _atom_site_symmetry_multiplicity
 _atom_site_fract_x
 _atom_site_fract_y
 _atom_site_fract_z
 _atom_site_occupancy
  Sr  Sr0  1  0.24401772  0.76469207  0.03745045  1
  Sr  Sr1  1  0.75598228  0.23530793  0.96254955  1
  V  V2  1  0.69149399  0.82278311  0.55088445  1
  V  V3  1  0.30850601  0.17721689  0.44911555  1
  P  P4  1  0.40433853  0.42967666  0.23010512  1
  P  P5  1  0.59566147  0.57032334  0.76989488  1
  P  P6  1  0.84746330  0.02464864  0.30249926  1
  P  P7  1  0.15253670  0.97535136  0.69750074  1
  O  O8  1  0.82480688  0.56859125  0.88585130  1
  O  O9  1  0.62707131  0.45652568  0.17327384  1
  O  O10  1  0.63972826  0.77970246  0.73580136  1
  O  O11  1  0.94430752  0.08791136  0.70396397  1
  O  O12  1  0.37292869  0.54347432  0.82672616  1
  O  O13  1  0.98844975  0.75573969  0.56816498  1
  O  O14  1  0.01155025  0.24426031  0.43183502  1
  O  O15  1  0.28445109  0.98275052  0.86271506  1
  O  O16  1  0.36027174  0.22029754  0.26419864  1
  O  O17  1  0.71554891  0.01724948  0.13728494  1
  O  O18  1  0.17519312  0.43140875  0.11414870  1
  O  O19  1  0.44060858  0.60360598  0.40104253  1
  O  O20  1  0.55939142  0.39639402  0.59895747  1
  O  O21  1  0.65614717  0.94871077  0.38350273  1
  O  O22  1  0.05569248  0.91208864  0.29603603  1
  O  O23  1  0.34385283  0.05128923  0.61649727  1
