# generated using pymatgen
data_MgVSiO5
_symmetry_space_group_name_H-M   'P 1'
_cell_length_a   5.28068845
_cell_length_b   6.98676325
_cell_length_c   8.36395862
_cell_angle_alpha   89.71223641
_cell_angle_beta   142.11193115
_cell_angle_gamma   75.81436543
_symmetry_Int_Tables_number   1
_chemical_formula_structural   MgVSiO5
_chemical_formula_sum   'Mg2 V2 Si2 O10'
_cell_volume   173.22732673
_cell_formula_units_Z   2
loop_
 _symmetry_equiv_pos_site_id
 _symmetry_equiv_pos_as_xyz
  1  'x, y, z'
loop_
 _atom_site_type_symbol
 _atom_site_label
 _atom_site_symmetry_multiplicity
 _atom_site_fract_x
 _atom_site_fract_y
 _atom_site_fract_z
 _atom_site_occupancy
  Mg  Mg0  1  0.50746981  0.23431004  0.17350355  1
  Mg  Mg1  1  0.51078426  0.73553072  0.83581098  1
  V  V2  1  0.50121214  0.49170424  0.49928134  1
  V  V3  1  0.49879672  0.99176990  0.49989862  1
  Si  Si4  1  0.50043787  0.24439296  0.82517909  1
  Si  Si5  1  0.49641951  0.74447012  0.17192758  1
  O  O6  1  0.26758492  0.12263071  0.59716570  1
  O  O7  1  0.74377058  0.36388643  0.83511601  1
  O  O8  1  0.72275700  0.87148019  0.39433461  1
  O  O9  1  0.25518858  0.62661510  0.16525791  1
  O  O10  1  0.85744829  0.57906422  0.22887096  1
  O  O11  1  0.14625735  0.90213319  0.86623412  1
  O  O12  1  0.14367265  0.40948174  0.77153352  1
  O  O13  1  0.85179947  0.08366551  0.12983290  1
  O  O14  1  0.49781456  0.74411689  0.58136061  1
  O  O15  1  0.50296629  0.24453102  0.41919351  1
