# generated using pymatgen
data_Mg2Fe9O13
_symmetry_space_group_name_H-M   'P 1'
_cell_length_a   2.98094903
_cell_length_b   5.28653438
_cell_length_c   17.11994973
_cell_angle_alpha   98.27622711
_cell_angle_beta   90.00709795
_cell_angle_gamma   106.37041534
_symmetry_Int_Tables_number   1
_chemical_formula_structural   Mg2Fe9O13
_chemical_formula_sum   'Mg2 Fe9 O13'
_cell_volume   255.92275685
_cell_formula_units_Z   1
loop_
 _symmetry_equiv_pos_site_id
 _symmetry_equiv_pos_as_xyz
  1  'x, y, z'
loop_
 _atom_site_type_symbol
 _atom_site_label
 _atom_site_symmetry_multiplicity
 _atom_site_fract_x
 _atom_site_fract_y
 _atom_site_fract_z
 _atom_site_occupancy
  Mg  Mg0  1  0.21323216  0.42532145  0.22939321  1
  Mg  Mg1  1  0.78676784  0.57467855  0.77060679  1
  Fe  Fe2  1  0.50000000  -0.00000000  0.50000000  1
  Fe  Fe3  1  0.64853028  0.29698697  0.04422833  1
  Fe  Fe4  1  0.35146972  0.70301303  0.95577167  1
  Fe  Fe5  1  0.74800597  0.49540446  0.41547233  1
  Fe  Fe6  1  0.25199403  0.50459554  0.58452767  1
  Fe  Fe7  1  0.93556402  0.87094584  0.13199548  1
  Fe  Fe8  1  0.06443598  0.12905416  0.86800452  1
  Fe  Fe9  1  0.98717448  0.97480367  0.32454786  1
  Fe  Fe10  1  0.01282552  0.02519633  0.67545214  1
  O  O11  1  -0.00000000  -0.00000000  -0.00000000  1
  O  O12  1  0.85256832  0.70425209  0.22882616  1
  O  O13  1  0.14743168  0.29574791  0.77117384  1
  O  O14  1  0.28712057  0.57417054  0.06638786  1
  O  O15  1  0.71287943  0.42582946  0.93361214  1
  O  O16  1  0.59072424  0.18134581  0.14645888  1
  O  O17  1  0.40927576  0.81865419  0.85354112  1
  O  O18  1  0.63478684  0.27062455  0.31311737  1
  O  O19  1  0.36521316  0.72937545  0.68688263  1
  O  O20  1  0.37708144  0.75364786  0.39313683  1
  O  O21  1  0.62291856  0.24635214  0.60686317  1
  O  O22  1  0.14070228  0.28121114  0.46176912  1
  O  O23  1  0.85929772  0.71878886  0.53823088  1
