# generated using pymatgen
data_Li(VS2)2
_symmetry_space_group_name_H-M   'P 1'
_cell_length_a   7.01412093
_cell_length_b   6.89528399
_cell_length_c   6.93588772
_cell_angle_alpha   89.67810657
_cell_angle_beta   120.18352294
_cell_angle_gamma   120.38758445
_symmetry_Int_Tables_number   1
_chemical_formula_structural   Li(VS2)2
_chemical_formula_sum   'Li2 V4 S8'
_cell_volume   235.81090295
_cell_formula_units_Z   2
loop_
 _symmetry_equiv_pos_site_id
 _symmetry_equiv_pos_as_xyz
  1  'x, y, z'
loop_
 _atom_site_type_symbol
 _atom_site_label
 _atom_site_symmetry_multiplicity
 _atom_site_fract_x
 _atom_site_fract_y
 _atom_site_fract_z
 _atom_site_occupancy
  Li  Li0  1  0.99955396  0.99985344  0.00019307  1
  Li  Li1  1  0.50048847  0.99983202  0.00019533  1
  V  V2  1  0.50038284  0.00111408  0.50022363  1
  V  V3  1  0.50051211  0.49923887  0.50019394  1
  V  V4  1  0.99962112  0.49981060  0.99859820  1
  V  V5  1  0.99944263  0.49978478  0.50104755  1
  S  S6  1  0.00911708  0.74617705  0.25566154  1
  S  S7  1  0.49075498  0.74275644  0.73886852  1
  S  S8  1  0.49284064  0.74600504  0.25518334  1
  S  S9  1  0.99133259  0.74081453  0.74257912  1
  S  S10  1  0.50662007  0.25376093  0.74513896  1
  S  S11  1  0.50856426  0.25685946  0.25987704  1
  S  S12  1  0.00937624  0.26080291  0.25776426  1
  S  S13  1  0.99144200  0.25315487  0.74451749  1
