# generated using pymatgen
data_Mg(TiS2)2
_symmetry_space_group_name_H-M   'P 1'
_cell_length_a   7.13372555
_cell_length_b   7.08913998
_cell_length_c   7.09231051
_cell_angle_alpha   89.30271283
_cell_angle_beta   120.20081477
_cell_angle_gamma   120.23893556
_symmetry_Int_Tables_number   1
_chemical_formula_structural   Mg(TiS2)2
_chemical_formula_sum   'Mg2 Ti4 S8'
_cell_volume   253.45619650
_cell_formula_units_Z   2
loop_
 _symmetry_equiv_pos_site_id
 _symmetry_equiv_pos_as_xyz
  1  'x, y, z'
loop_
 _atom_site_type_symbol
 _atom_site_label
 _atom_site_symmetry_multiplicity
 _atom_site_fract_x
 _atom_site_fract_y
 _atom_site_fract_z
 _atom_site_occupancy
  Mg  Mg0  1  0.99999524  0.99999732  0.99999418  1
  Mg  Mg1  1  0.50002095  0.00000450  0.00001195  1
  Ti  Ti2  1  0.49998829  0.99999154  0.49999712  1
  Ti  Ti3  1  0.50001656  0.50000077  0.50001029  1
  Ti  Ti4  1  0.00001096  0.49999587  0.00000902  1
  Ti  Ti5  1  0.99999547  0.49999790  0.49999796  1
  S  S6  1  0.00750212  0.74653334  0.25276477  1
  S  S7  1  0.49433315  0.74379546  0.74480245  1
  S  S8  1  0.49253738  0.74719828  0.25334091  1
  S  S9  1  0.99439013  0.74499533  0.74363630  1
  S  S10  1  0.50747825  0.25280015  0.74667368  1
  S  S11  1  0.50566205  0.25619764  0.25519303  1
  S  S12  1  0.00563760  0.25500394  0.25638512  1
  S  S13  1  0.99248283  0.25345495  0.74722421  1
