# generated using pymatgen
data_SrMgSn(PO4)2
_symmetry_space_group_name_H-M   'P 1'
_cell_length_a   5.61140390
_cell_length_b   7.15356862
_cell_length_c   10.10897502
_cell_angle_alpha   110.03915809
_cell_angle_beta   102.52870711
_cell_angle_gamma   96.83412267
_symmetry_Int_Tables_number   1
_chemical_formula_structural   SrMgSn(PO4)2
_chemical_formula_sum   'Sr2 Mg2 Sn2 P4 O16'
_cell_volume   363.78212118
_cell_formula_units_Z   2
loop_
 _symmetry_equiv_pos_site_id
 _symmetry_equiv_pos_as_xyz
  1  'x, y, z'
loop_
 _atom_site_type_symbol
 _atom_site_label
 _atom_site_symmetry_multiplicity
 _atom_site_fract_x
 _atom_site_fract_y
 _atom_site_fract_z
 _atom_site_occupancy
  Sr  Sr0  1  0.23588032  0.78863658  0.03752939  1
  Sr  Sr1  1  0.76411968  0.21136342  0.96247061  1
  Mg  Mg2  1  0.01744467  0.36012054  0.63842192  1
  Mg  Mg3  1  0.98255533  0.63987946  0.36157808  1
  Sn  Sn4  1  0.61935409  0.83060170  0.58346299  1
  Sn  Sn5  1  0.38064591  0.16939830  0.41653701  1
  P  P6  1  0.36761648  0.41350561  0.21345916  1
  P  P7  1  0.63238352  0.58649439  0.78654084  1
  P  P8  1  0.81778224  0.01436342  0.28160604  1
  P  P9  1  0.18221776  0.98563658  0.71839396  1
  O  O10  1  0.79798555  0.55937117  0.91816051  1
  O  O11  1  0.65016750  0.48128110  0.23216814  1
  O  O12  1  0.68183196  0.81565575  0.80283685  1
  O  O13  1  0.97879812  0.11818105  0.69937716  1
  O  O14  1  0.34983250  0.51871890  0.76783186  1
  O  O15  1  0.07473494  0.77467253  0.58560570  1
  O  O16  1  0.92526506  0.22532747  0.41439430  1
  O  O17  1  0.22445324  0.97376190  0.86817136  1
  O  O18  1  0.31816804  0.18434425  0.19716315  1
  O  O19  1  0.77554676  0.02623810  0.13182864  1
  O  O20  1  0.20201445  0.44062883  0.08183949  1
  O  O21  1  0.28848623  0.52923284  0.35400933  1
  O  O22  1  0.71151377  0.47076716  0.64599067  1
  O  O23  1  0.56790790  0.91530737  0.29802430  1
  O  O24  1  0.02120188  0.88181895  0.30062284  1
  O  O25  1  0.43209210  0.08469263  0.70197570  1
