# generated using pymatgen
data_Ba2YSn2F11
_symmetry_space_group_name_H-M   'P 1'
_cell_length_a   8.14305984
_cell_length_b   8.14305906
_cell_length_c   14.61123756
_cell_angle_alpha   90.00000000
_cell_angle_beta   90.00000000
_cell_angle_gamma   120.00000517
_symmetry_Int_Tables_number   1
_chemical_formula_structural   Ba2YSn2F11
_chemical_formula_sum   'Ba6 Y3 Sn6 F33'
_cell_volume   839.05962183
_cell_formula_units_Z   3
loop_
 _symmetry_equiv_pos_site_id
 _symmetry_equiv_pos_as_xyz
  1  'x, y, z'
loop_
 _atom_site_type_symbol
 _atom_site_label
 _atom_site_symmetry_multiplicity
 _atom_site_fract_x
 _atom_site_fract_y
 _atom_site_fract_z
 _atom_site_occupancy
  Ba  Ba0  1  0.51145721  0.19503492  0.67135674  1
  Ba  Ba1  1  0.11941309  0.51745193  0.82850215  1
  Ba  Ba2  1  0.68357672  0.48854279  0.00468974  1
  Ba  Ba3  1  0.48254807  0.60196016  0.49516815  1
  Ba  Ba4  1  0.39803984  0.88058691  0.16183515  1
  Ba  Ba5  1  0.80496508  0.31642328  0.33802274  1
  Y  Y6  1  0.18786920  0.04424898  0.89472217  1
  Y  Y7  1  0.85638078  0.81213080  0.22805517  1
  Y  Y8  1  0.95575102  0.14361922  0.56138817  1
  Sn  Sn9  1  0.61137283  0.97799137  0.89979043  1
  Sn  Sn10  1  0.74784677  0.76848589  0.74074107  1
  Sn  Sn11  1  0.23151411  0.97936088  0.40740707  1
  Sn  Sn12  1  0.36661854  0.38862717  0.23312343  1
  Sn  Sn13  1  0.02063912  0.25215323  0.07407407  1
  Sn  Sn14  1  0.02200863  0.63338146  0.56645643  1
  F  F15  1  0.70890112  0.12073312  0.04233786  1
  F  F16  1  0.45104361  0.65927475  0.92952011  1
  F  F17  1  0.41183100  0.29109888  0.37567086  1
  F  F18  1  0.08582304  0.42153071  0.47226462  1
  F  F19  1  0.56513092  0.27151377  0.19062051  1
  F  F20  1  0.90273645  0.60651901  0.15999220  1
  F  F21  1  0.57846929  0.66429233  0.13893162  1
  F  F22  1  0.39348099  0.29621644  0.82665920  1
  F  F23  1  0.70638185  0.43486908  0.52395351  1
  F  F24  1  0.30363145  0.24990456  0.01545591  1
  F  F25  1  0.33570767  0.91417696  0.80559862  1
  F  F26  1  0.87926688  0.58816900  0.70900486  1
  F  F27  1  0.35973396  0.95547175  0.98189204  1
  F  F28  1  0.03033155  0.49579746  0.99983836  1
  F  F29  1  0.59573778  0.64026604  0.31522504  1
  F  F30  1  0.34072525  0.79176786  0.59618611  1
  F  F31  1  0.99926552  0.16979810  0.92101027  1
  F  F32  1  0.94627211  0.69636855  0.34878891  1
  F  F33  1  0.98585659  0.04745850  0.41527039  1
  F  F34  1  0.04452825  0.40426222  0.64855804  1
  F  F35  1  0.06160191  0.01414341  0.74860439  1
  F  F36  1  0.50420254  0.53453408  0.66650536  1
  F  F37  1  0.46546592  0.96966845  0.33317136  1
  F  F38  1  0.17053258  0.00073448  0.25434327  1
  F  F39  1  0.75009544  0.05372789  0.68212291  1
  F  F40  1  0.72848623  0.29361815  0.85728751  1
  F  F41  1  0.20823214  0.54895639  0.26285311  1
  F  F42  1  0.95013124  0.74578061  0.89465517  1
  F  F43  1  0.79564937  0.04986876  0.22798817  1
  F  F44  1  0.95254150  0.93839809  0.08193739  1
  F  F45  1  0.70378356  0.09726355  0.49332520  1
  F  F46  1  0.83020190  0.82946742  0.58767627  1
  F  F47  1  0.25421939  0.20435063  0.56132117  1
