# generated using pymatgen
data_Ba2YMn2TlO7
_symmetry_space_group_name_H-M   'P 1'
_cell_length_a   3.91927977
_cell_length_b   3.91919932
_cell_length_c   13.39818064
_cell_angle_alpha   90.00001814
_cell_angle_beta   90.00008377
_cell_angle_gamma   89.95859138
_symmetry_Int_Tables_number   1
_chemical_formula_structural   Ba2YMn2TlO7
_chemical_formula_sum   'Ba2 Y1 Mn2 Tl1 O7'
_cell_volume   205.80187702
_cell_formula_units_Z   1
loop_
 _symmetry_equiv_pos_site_id
 _symmetry_equiv_pos_as_xyz
  1  'x, y, z'
loop_
 _atom_site_type_symbol
 _atom_site_label
 _atom_site_symmetry_multiplicity
 _atom_site_fract_x
 _atom_site_fract_y
 _atom_site_fract_z
 _atom_site_occupancy
  Ba  Ba0  1  0.50000071  0.49998690  0.19775090  1
  Ba  Ba1  1  0.50000328  0.50001090  0.80223867  1
  Y  Y2  1  0.50000635  0.50001381  0.50000685  1
  Mn  Mn3  1  0.00000659  0.99999590  0.35910561  1
  Mn  Mn4  1  0.00001026  0.99999991  0.64089733  1
  Tl  Tl5  1  0.00001199  0.00000582  0.99995917  1
  O  O6  1  0.00000030  0.99999526  0.20735056  1
  O  O7  1  -0.00000789  0.50000185  0.39450017  1
  O  O8  1  0.49999926  -0.00000324  0.39449127  1
  O  O9  1  0.50000378  0.00000817  0.60549914  1
  O  O10  1  0.49995897  0.49999087  0.99999505  1
  O  O11  1  0.00000367  0.50000048  0.60550829  1
  O  O12  1  0.00000174  -0.00000463  0.79269799  1
