# generated using pymatgen
data_Sr4CaMn2(SO3)2
_symmetry_space_group_name_H-M   'P 1'
_cell_length_a   3.92084327
_cell_length_b   3.92063056
_cell_length_c   17.02192050
_cell_angle_alpha   90.00040056
_cell_angle_beta   90.00026163
_cell_angle_gamma   90.00050241
_symmetry_Int_Tables_number   1
_chemical_formula_structural   Sr4CaMn2(SO3)2
_chemical_formula_sum   'Sr4 Ca1 Mn2 S2 O6'
_cell_volume   261.66399089
_cell_formula_units_Z   1
loop_
 _symmetry_equiv_pos_site_id
 _symmetry_equiv_pos_as_xyz
  1  'x, y, z'
loop_
 _atom_site_type_symbol
 _atom_site_label
 _atom_site_symmetry_multiplicity
 _atom_site_fract_x
 _atom_site_fract_y
 _atom_site_fract_z
 _atom_site_occupancy
  Sr  Sr0  1  0.74998752  0.74999119  0.20349450  1
  Sr  Sr1  1  0.25000852  0.25001387  0.79650719  1
  Sr  Sr2  1  0.74999156  0.74998875  0.42091477  1
  Sr  Sr3  1  0.25000790  0.25000267  0.57907656  1
  Ca  Ca4  1  0.25000271  0.74999991  0.00001567  1
  Mn  Mn5  1  0.24999523  0.24998733  0.31741635  1
  Mn  Mn6  1  0.75001801  0.75001252  0.68255995  1
  S  S7  1  0.24998015  0.24999909  0.11106233  1
  S  S8  1  0.75000147  0.75000718  0.88893350  1
  O  O9  1  0.74998555  0.24999153  0.30029488  1
  O  O10  1  0.24998927  0.74998580  0.30000949  1
  O  O11  1  0.25001348  0.75001175  0.69999220  1
  O  O12  1  0.75001314  0.25001167  0.69970842  1
  O  O13  1  0.24999786  0.24998817  0.43575550  1
  O  O14  1  0.75000664  0.75000857  0.56426069  1
