# generated using pymatgen
data_BaYMn4O7
_symmetry_space_group_name_H-M   'P 1'
_cell_length_a   6.54999195
_cell_length_b   6.54999124
_cell_length_c   10.84281981
_cell_angle_alpha   90.00000000
_cell_angle_beta   90.00000000
_cell_angle_gamma   120.00000364
_symmetry_Int_Tables_number   1
_chemical_formula_structural   BaYMn4O7
_chemical_formula_sum   'Ba2 Y2 Mn8 O14'
_cell_volume   402.86017932
_cell_formula_units_Z   2
loop_
 _symmetry_equiv_pos_site_id
 _symmetry_equiv_pos_as_xyz
  1  'x, y, z'
loop_
 _atom_site_type_symbol
 _atom_site_label
 _atom_site_symmetry_multiplicity
 _atom_site_fract_x
 _atom_site_fract_y
 _atom_site_fract_z
 _atom_site_occupancy
  Ba  Ba0  1  0.66666700  0.33333300  0.47515468  1
  Ba  Ba1  1  0.33333300  0.66666700  0.97515468  1
  Y  Y2  1  0.66666700  0.33333300  0.87992531  1
  Y  Y3  1  0.33333300  0.66666700  0.37992531  1
  Mn  Mn4  1  0.82978883  0.17021217  0.18963944  1
  Mn  Mn5  1  0.65957667  0.82978783  0.68964044  1
  Mn  Mn6  1  0.17021217  0.34042333  0.68964044  1
  Mn  Mn7  1  0.82978883  0.65957667  0.18963944  1
  Mn  Mn8  1  0.34042233  0.17021217  0.18963944  1
  Mn  Mn9  1  0.17021217  0.82978783  0.68964044  1
  Mn  Mn10  1  -0.00000000  0.00000000  0.44227221  1
  Mn  Mn11  1  -0.00000000  -0.00000000  0.94227221  1
  O  O12  1  0.83137599  0.16862501  0.00377849  1
  O  O13  1  0.66274998  0.83137499  0.50377749  1
  O  O14  1  0.16862401  0.33724902  0.50377749  1
  O  O15  1  0.83137699  0.66275098  0.00377849  1
  O  O16  1  0.33724902  0.16862501  0.00377849  1
  O  O17  1  0.16862401  0.83137499  0.50377749  1
  O  O18  1  -0.00000000  0.00000000  0.75093090  1
  O  O19  1  -0.00000000  -0.00000000  0.25093190  1
  O  O20  1  0.50483308  0.49516892  0.26848804  1
  O  O21  1  0.00966416  0.50483308  0.76848804  1
  O  O22  1  0.49516792  0.99033584  0.76848804  1
  O  O23  1  0.50483308  0.00966416  0.26848804  1
  O  O24  1  0.49516892  0.50483308  0.76848804  1
  O  O25  1  0.99033584  0.49516892  0.26848804  1
