# generated using pymatgen
data_Na2ZrSi3O10
_symmetry_space_group_name_H-M   'P 1'
_cell_length_a   10.04087456
_cell_length_b   13.53160456
_cell_length_c   7.35261763
_cell_angle_alpha   90.00000000
_cell_angle_beta   90.00000000
_cell_angle_gamma   90.00000000
_symmetry_Int_Tables_number   1
_chemical_formula_structural   Na2ZrSi3O10
_chemical_formula_sum   'Na8 Zr4 Si12 O40'
_cell_volume   998.99386342
_cell_formula_units_Z   4
loop_
 _symmetry_equiv_pos_site_id
 _symmetry_equiv_pos_as_xyz
  1  'x, y, z'
loop_
 _atom_site_type_symbol
 _atom_site_label
 _atom_site_symmetry_multiplicity
 _atom_site_fract_x
 _atom_site_fract_y
 _atom_site_fract_z
 _atom_site_occupancy
  Na  Na0  1  0.75494778  0.09683578  0.48996931  1
  Na  Na1  1  0.74505222  0.90316422  0.98996931  1
  Na  Na2  1  0.25494778  0.40316422  0.51003069  1
  Na  Na3  1  0.24505222  0.59683578  0.01003069  1
  Na  Na4  1  0.58103313  0.67026266  0.72884338  1
  Na  Na5  1  0.91896687  0.32973734  0.22884338  1
  Na  Na6  1  0.08103313  0.82973734  0.27115662  1
  Na  Na7  1  0.41896687  0.17026266  0.77115662  1
  Zr  Zr8  1  0.53741515  0.70152670  0.25813914  1
  Zr  Zr9  1  0.96258485  0.29847330  0.75813914  1
  Zr  Zr10  1  0.03741515  0.79847330  0.74186086  1
  Zr  Zr11  1  0.46258485  0.20152670  0.24186086  1
  Si  Si12  1  0.85465919  0.66302690  0.42918036  1
  Si  Si13  1  0.64534081  0.33697310  0.92918036  1
  Si  Si14  1  0.35465919  0.83697310  0.57081964  1
  Si  Si15  1  0.14534081  0.16302690  0.07081964  1
  Si  Si16  1  0.98229296  0.55752519  0.73806898  1
  Si  Si17  1  0.51770704  0.44247481  0.23806898  1
  Si  Si18  1  0.48229296  0.94247481  0.26193102  1
  Si  Si19  1  0.01770704  0.05752519  0.76193102  1
  Si  Si20  1  0.32786494  0.83380019  0.97997492  1
  Si  Si21  1  0.17213506  0.16619981  0.47997492  1
  Si  Si22  1  0.82786494  0.66619981  0.02002508  1
  Si  Si23  1  0.67213506  0.33380019  0.52002508  1
  O  O24  1  0.59054060  0.85436457  0.22827466  1
  O  O25  1  0.90945940  0.14563543  0.72827466  1
  O  O26  1  0.09054060  0.64563543  0.77172534  1
  O  O27  1  0.40945940  0.35436457  0.27172534  1
  O  O28  1  0.69299681  0.66914067  0.44158926  1
  O  O29  1  0.80700319  0.33085933  0.94158926  1
  O  O30  1  0.19299681  0.83085933  0.55841074  1
  O  O31  1  0.30700319  0.16914067  0.05841074  1
  O  O32  1  0.45385287  0.55378655  0.25594857  1
  O  O33  1  0.04614713  0.44621345  0.75594857  1
  O  O34  1  0.95385287  0.94621345  0.74405143  1
  O  O35  1  0.54614713  0.05378655  0.24405143  1
  O  O36  1  0.38409173  0.73086027  0.06747916  1
  O  O37  1  0.11590827  0.26913973  0.56747916  1
  O  O38  1  0.88409173  0.76913973  0.93252084  1
  O  O39  1  0.61590827  0.23086027  0.43252084  1
  O  O40  1  0.42754632  0.73804964  0.49063492  1
  O  O41  1  0.07245368  0.26195036  0.99063492  1
  O  O42  1  0.92754632  0.76195036  0.50936508  1
  O  O43  1  0.57245368  0.23804964  0.00936508  1
  O  O44  1  0.66662359  0.67281103  0.03913849  1
  O  O45  1  0.83337641  0.32718897  0.53913849  1
  O  O46  1  0.16662359  0.82718897  0.96086151  1
  O  O47  1  0.33337641  0.17281103  0.46086151  1
  O  O48  1  0.90294946  0.64955553  0.21639405  1
  O  O49  1  0.59705054  0.35044447  0.71639405  1
  O  O50  1  0.40294946  0.85044447  0.78360595  1
  O  O51  1  0.09705054  0.14955553  0.28360595  1
  O  O52  1  0.86279097  0.57054010  0.89006697  1
  O  O53  1  0.63720903  0.42945990  0.39006697  1
  O  O54  1  0.36279097  0.92945990  0.10993303  1
  O  O55  1  0.13720903  0.07054010  0.60993303  1
  O  O56  1  0.91259163  0.56496564  0.53681683  1
  O  O57  1  0.58740837  0.43503436  0.03681683  1
  O  O58  1  0.41259163  0.93503436  0.46318317  1
  O  O59  1  0.08740837  0.06496564  0.96318317  1
  O  O60  1  0.23735858  0.54795643  0.32224591  1
  O  O61  1  0.26264142  0.45204357  0.82224591  1
  O  O62  1  0.73735858  0.95204357  0.67775409  1
  O  O63  1  0.76264142  0.04795643  0.17775409  1
