# generated using pymatgen
data_Sm(MgSb)2
_symmetry_space_group_name_H-M   'P 1'
_cell_length_a   4.69292971
_cell_length_b   4.69341544
_cell_length_c   7.34825601
_cell_angle_alpha   90.00000003
_cell_angle_beta   89.99755647
_cell_angle_gamma   120.00342586
_symmetry_Int_Tables_number   1
_chemical_formula_structural   Sm(MgSb)2
_chemical_formula_sum   'Sm1 Mg2 Sb2'
_cell_volume   140.16286412
_cell_formula_units_Z   1
loop_
 _symmetry_equiv_pos_site_id
 _symmetry_equiv_pos_as_xyz
  1  'x, y, z'
loop_
 _atom_site_type_symbol
 _atom_site_label
 _atom_site_symmetry_multiplicity
 _atom_site_fract_x
 _atom_site_fract_y
 _atom_site_fract_z
 _atom_site_occupancy
  Sm  Sm0  1  -0.00000000  0.00000000  -0.00000000  1
  Mg  Mg1  1  0.33336820  0.66668410  0.63891751  1
  Mg  Mg2  1  0.66663180  0.33331590  0.36108249  1
  Sb  Sb3  1  0.33334548  0.66667274  0.24321717  1
  Sb  Sb4  1  0.66665452  0.33332726  0.75678283  1
