# generated using pymatgen
data_Mn(CrS2)2
_symmetry_space_group_name_H-M   'P 1'
_cell_length_a   3.35987678
_cell_length_b   5.71428753
_cell_length_c   6.52309068
_cell_angle_alpha   114.69514049
_cell_angle_beta   104.92398180
_cell_angle_gamma   90.00000000
_symmetry_Int_Tables_number   1
_chemical_formula_structural   Mn(CrS2)2
_chemical_formula_sum   'Mn1 Cr2 S4'
_cell_volume   109.11785147
_cell_formula_units_Z   1
loop_
 _symmetry_equiv_pos_site_id
 _symmetry_equiv_pos_as_xyz
  1  'x, y, z'
loop_
 _atom_site_type_symbol
 _atom_site_label
 _atom_site_symmetry_multiplicity
 _atom_site_fract_x
 _atom_site_fract_y
 _atom_site_fract_z
 _atom_site_occupancy
  Mn  Mn0  1  0.00000000  0.00000000  0.00000000  1
  Cr  Cr1  1  0.74369490  0.68789000  0.48738979  1
  Cr  Cr2  1  0.25630510  0.31211000  0.51261021  1
  S  S3  1  0.64572997  0.98578084  0.29145995  1
  S  S4  1  0.35427003  0.01421916  0.70854005  1
  S  S5  1  0.88278947  0.53822044  0.76557893  1
  S  S6  1  0.11721053  0.46177956  0.23442107  1
