# generated using pymatgen
data_Sr4MgFe2(SO3)2
_symmetry_space_group_name_H-M   'P 1'
_cell_length_a   3.95503509
_cell_length_b   3.95506253
_cell_length_c   16.14581613
_cell_angle_alpha   90.00004497
_cell_angle_beta   90.00001391
_cell_angle_gamma   89.99996407
_symmetry_Int_Tables_number   1
_chemical_formula_structural   Sr4MgFe2(SO3)2
_chemical_formula_sum   'Sr4 Mg1 Fe2 S2 O6'
_cell_volume   252.55949328
_cell_formula_units_Z   1
loop_
 _symmetry_equiv_pos_site_id
 _symmetry_equiv_pos_as_xyz
  1  'x, y, z'
loop_
 _atom_site_type_symbol
 _atom_site_label
 _atom_site_symmetry_multiplicity
 _atom_site_fract_x
 _atom_site_fract_y
 _atom_site_fract_z
 _atom_site_occupancy
  Sr  Sr0  1  0.74999801  0.74999213  0.19035082  1
  Sr  Sr1  1  0.25000368  0.25000284  0.80964811  1
  Sr  Sr2  1  0.74999200  0.75000573  0.41401658  1
  Sr  Sr3  1  0.24999470  0.24999786  0.58598379  1
  Mg  Mg4  1  0.25000393  0.75000102  0.99999770  1
  Fe  Fe5  1  0.24999849  0.24999839  0.31286587  1
  Fe  Fe6  1  0.75000076  0.75000129  0.68713733  1
  S  S7  1  0.25000279  0.25000159  0.09567633  1
  S  S8  1  0.75000282  0.75000166  0.90431942  1
  O  O9  1  0.74998759  0.24999374  0.29234688  1
  O  O10  1  0.24999735  0.74999230  0.29111136  1
  O  O11  1  0.25000154  0.74999879  0.70889227  1
  O  O12  1  0.75000195  0.25000516  0.70765119  1
  O  O13  1  0.25000327  0.24999933  0.43221188  1
  O  O14  1  0.75001011  0.75000618  0.56779047  1
