# generated using pymatgen
data_NdGe5
_symmetry_space_group_name_H-M   'P 1'
_cell_length_a   4.03705095
_cell_length_b   6.23239433
_cell_length_c   6.23239433
_cell_angle_alpha   60.25981840
_cell_angle_beta   71.10248368
_cell_angle_gamma   71.10248368
_symmetry_Int_Tables_number   1
_chemical_formula_structural   NdGe5
_chemical_formula_sum   'Nd1 Ge5'
_cell_volume   126.24879115
_cell_formula_units_Z   1
loop_
 _symmetry_equiv_pos_site_id
 _symmetry_equiv_pos_as_xyz
  1  'x, y, z'
loop_
 _atom_site_type_symbol
 _atom_site_label
 _atom_site_symmetry_multiplicity
 _atom_site_fract_x
 _atom_site_fract_y
 _atom_site_fract_z
 _atom_site_occupancy
  Nd  Nd0  1  -0.00000000  0.00000000  0.00000000  1
  Ge  Ge1  1  0.67076566  0.12324071  0.53522798  1
  Ge  Ge2  1  0.32923434  0.87675929  0.46477202  1
  Ge  Ge3  1  0.32923434  0.46477202  0.87675929  1
  Ge  Ge4  1  0.67076566  0.53522798  0.12324071  1
  Ge  Ge5  1  -0.00000000  0.50000000  0.50000000  1
