# generated using pymatgen
data_YSn3
_symmetry_space_group_name_H-M   'P 1'
_cell_length_a   4.43955095
_cell_length_b   4.45275407
_cell_length_c   11.35792430
_cell_angle_alpha   101.30430085
_cell_angle_beta   90.00000000
_cell_angle_gamma   90.00000000
_symmetry_Int_Tables_number   1
_chemical_formula_structural   YSn3
_chemical_formula_sum   'Y2 Sn6'
_cell_volume   220.17022647
_cell_formula_units_Z   2
loop_
 _symmetry_equiv_pos_site_id
 _symmetry_equiv_pos_as_xyz
  1  'x, y, z'
loop_
 _atom_site_type_symbol
 _atom_site_label
 _atom_site_symmetry_multiplicity
 _atom_site_fract_x
 _atom_site_fract_y
 _atom_site_fract_z
 _atom_site_occupancy
  Y  Y0  1  0.50000000  0.48340600  0.96681201  1
  Y  Y1  1  -0.00000000  0.21169736  0.42339472  1
  Sn  Sn2  1  0.50000000  0.09990335  0.19980671  1
  Sn  Sn3  1  0.50000000  0.72992322  0.45984645  1
  Sn  Sn4  1  0.50000000  0.86524282  0.73048564  1
  Sn  Sn5  1  -0.00000000  0.97413625  0.94827249  1
  Sn  Sn6  1  -0.00000000  0.36298154  0.72596308  1
  Sn  Sn7  1  -0.00000000  0.59870945  0.19741891  1
