# generated using pymatgen
data_Co3Si
_symmetry_space_group_name_H-M   'P 1'
_cell_length_a   3.97279393
_cell_length_b   4.97683047
_cell_length_c   4.97683047
_cell_angle_alpha   120.00957766
_cell_angle_beta   90.00000000
_cell_angle_gamma   90.00000000
_symmetry_Int_Tables_number   1
_chemical_formula_structural   Co3Si
_chemical_formula_sum   'Co6 Si2'
_cell_volume   85.20997609
_cell_formula_units_Z   2
loop_
 _symmetry_equiv_pos_site_id
 _symmetry_equiv_pos_as_xyz
  1  'x, y, z'
loop_
 _atom_site_type_symbol
 _atom_site_label
 _atom_site_symmetry_multiplicity
 _atom_site_fract_x
 _atom_site_fract_y
 _atom_site_fract_z
 _atom_site_occupancy
  Co  Co0  1  0.75000000  0.16741323  0.33485409  1
  Co  Co1  1  0.75000000  0.16738578  0.83261422  1
  Co  Co2  1  0.75000000  0.66514591  0.83258677  1
  Co  Co3  1  0.25000000  0.83258677  0.66514591  1
  Co  Co4  1  0.25000000  0.83261422  0.16738578  1
  Co  Co5  1  0.25000000  0.33485409  0.16741323  1
  Si  Si6  1  0.75000000  0.66663685  0.33336315  1
  Si  Si7  1  0.25000000  0.33336315  0.66663685  1
