# generated using pymatgen
data_MgSn
_symmetry_space_group_name_H-M   'P 1'
_cell_length_a   5.38801287
_cell_length_b   9.75294870
_cell_length_c   5.65619505
_cell_angle_alpha   90.00000000
_cell_angle_beta   90.00000000
_cell_angle_gamma   90.00000000
_symmetry_Int_Tables_number   1
_chemical_formula_structural   MgSn
_chemical_formula_sum   'Mg6 Sn6'
_cell_volume   297.22746787
_cell_formula_units_Z   6
loop_
 _symmetry_equiv_pos_site_id
 _symmetry_equiv_pos_as_xyz
  1  'x, y, z'
loop_
 _atom_site_type_symbol
 _atom_site_label
 _atom_site_symmetry_multiplicity
 _atom_site_fract_x
 _atom_site_fract_y
 _atom_site_fract_z
 _atom_site_occupancy
  Mg  Mg0  1  -0.00000000  0.16672600  0.16623913  1
  Mg  Mg1  1  -0.00000000  0.33327400  0.66623913  1
  Mg  Mg2  1  0.50000000  0.50000000  0.83333288  1
  Mg  Mg3  1  0.00000000  0.66672600  0.66623913  1
  Mg  Mg4  1  0.00000000  0.83327400  0.16623913  1
  Mg  Mg5  1  0.50000000  0.00000000  0.33333288  1
  Sn  Sn6  1  -0.00000000  0.50000000  0.16160753  1
  Sn  Sn7  1  0.50000000  0.33103763  0.33629067  1
  Sn  Sn8  1  0.50000000  0.16896237  0.83629067  1
  Sn  Sn9  1  0.00000000  0.00000000  0.66160753  1
  Sn  Sn10  1  0.50000000  0.83103763  0.83629067  1
  Sn  Sn11  1  0.50000000  0.66896237  0.33629067  1
