# generated using pymatgen
data_KTl
_symmetry_space_group_name_H-M   'P 1'
_cell_length_a   5.41541754
_cell_length_b   5.41541754
_cell_length_c   13.33402788
_cell_angle_alpha   90.00000000
_cell_angle_beta   90.00000000
_cell_angle_gamma   119.93425968
_symmetry_Int_Tables_number   1
_chemical_formula_structural   KTl
_chemical_formula_sum   'K4 Tl4'
_cell_volume   338.87786312
_cell_formula_units_Z   4
loop_
 _symmetry_equiv_pos_site_id
 _symmetry_equiv_pos_as_xyz
  1  'x, y, z'
loop_
 _atom_site_type_symbol
 _atom_site_label
 _atom_site_symmetry_multiplicity
 _atom_site_fract_x
 _atom_site_fract_y
 _atom_site_fract_z
 _atom_site_occupancy
  K  K0  1  0.66677157  0.33322843  0.59371270  1
  K  K1  1  0.33322843  0.66677157  0.40628730  1
  K  K2  1  0.33322843  0.66677157  0.09371270  1
  K  K3  1  0.66677157  0.33322843  0.90628730  1
  Tl  Tl4  1  0.99966458  0.00033542  0.75000000  1
  Tl  Tl5  1  0.00033542  0.99966458  0.25000000  1
  Tl  Tl6  1  0.66633416  0.33366584  0.25000000  1
  Tl  Tl7  1  0.33366584  0.66633416  0.75000000  1
