# generated using pymatgen
data_SrMg
_symmetry_space_group_name_H-M   'P 1'
_cell_length_a   5.95492410
_cell_length_b   4.11968909
_cell_length_c   18.22083799
_cell_angle_alpha   90.00000000
_cell_angle_beta   90.00000000
_cell_angle_gamma   90.00000000
_symmetry_Int_Tables_number   1
_chemical_formula_structural   SrMg
_chemical_formula_sum   'Sr6 Mg6'
_cell_volume   447.00153906
_cell_formula_units_Z   6
loop_
 _symmetry_equiv_pos_site_id
 _symmetry_equiv_pos_as_xyz
  1  'x, y, z'
loop_
 _atom_site_type_symbol
 _atom_site_label
 _atom_site_symmetry_multiplicity
 _atom_site_fract_x
 _atom_site_fract_y
 _atom_site_fract_z
 _atom_site_occupancy
  Sr  Sr0  1  -0.00000000  -0.00000000  0.02928664  1
  Sr  Sr1  1  -0.00000000  0.00000000  0.34213694  1
  Sr  Sr2  1  0.50000000  -0.00000000  0.19583000  1
  Sr  Sr3  1  -0.00000000  0.50000000  0.52928664  1
  Sr  Sr4  1  -0.00000000  0.50000000  0.84213694  1
  Sr  Sr5  1  0.50000000  0.50000000  0.69583000  1
  Mg  Mg6  1  -0.00000000  0.50000000  0.18122146  1
  Mg  Mg7  1  0.50000000  0.50000000  0.39136750  1
  Mg  Mg8  1  0.50000000  0.50000000  0.02682447  1
  Mg  Mg9  1  -0.00000000  -0.00000000  0.68122146  1
  Mg  Mg10  1  0.50000000  0.00000000  0.89136750  1
  Mg  Mg11  1  0.50000000  -0.00000000  0.52682447  1
