# generated using pymatgen
data_La2Ni2O5
_symmetry_space_group_name_H-M   'P 1'
_cell_length_a   7.90752561
_cell_length_b   7.89763175
_cell_length_c   7.52484402
_cell_angle_alpha   90.00000000
_cell_angle_beta   94.93653155
_cell_angle_gamma   90.00000000
_symmetry_Int_Tables_number   1
_chemical_formula_structural   La2Ni2O5
_chemical_formula_sum   'La8 Ni8 O20'
_cell_volume   468.18881648
_cell_formula_units_Z   4
loop_
 _symmetry_equiv_pos_site_id
 _symmetry_equiv_pos_as_xyz
  1  'x, y, z'
loop_
 _atom_site_type_symbol
 _atom_site_label
 _atom_site_symmetry_multiplicity
 _atom_site_fract_x
 _atom_site_fract_y
 _atom_site_fract_z
 _atom_site_occupancy
  La  La0  1  0.24572076  0.76284079  0.24249137  1
  La  La1  1  0.74572076  0.73715921  0.74249137  1
  La  La2  1  0.75427924  0.23715921  0.75750863  1
  La  La3  1  0.25427924  0.26284079  0.25750863  1
  La  La4  1  0.24826562  0.23290238  0.75352586  1
  La  La5  1  0.74826562  0.26709762  0.25352586  1
  La  La6  1  0.75173438  0.76709762  0.24647414  1
  La  La7  1  0.25173438  0.73290238  0.74647414  1
  Ni  Ni8  1  0.50000000  0.50000000  0.50000000  1
  Ni  Ni9  1  -0.00000000  0.00000000  -0.00000000  1
  Ni  Ni10  1  0.50000000  0.50000000  -0.00000000  1
  Ni  Ni11  1  -0.00000000  0.00000000  0.50000000  1
  Ni  Ni12  1  -0.00000000  0.50000000  -0.00000000  1
  Ni  Ni13  1  0.50000000  0.00000000  0.50000000  1
  Ni  Ni14  1  -0.00000000  0.50000000  0.50000000  1
  Ni  Ni15  1  0.50000000  0.00000000  -0.00000000  1
  O  O16  1  0.26978047  0.45962846  0.53523430  1
  O  O17  1  0.76978047  0.04037154  0.03523430  1
  O  O18  1  0.73021953  0.54037154  0.46476570  1
  O  O19  1  0.23021953  0.95962846  0.96476570  1
  O  O20  1  0.46774435  0.73183990  0.54673131  1
  O  O21  1  0.96774435  0.76816010  0.04673131  1
  O  O22  1  0.53225565  0.26816010  0.45326869  1
  O  O23  1  0.03225565  0.23183990  0.95326869  1
  O  O24  1  0.00629861  0.43426662  0.25112439  1
  O  O25  1  0.50629861  0.06573338  0.75112439  1
  O  O26  1  0.99370139  0.56573338  0.74887561  1
  O  O27  1  0.49370139  0.93426662  0.24887561  1
  O  O28  1  0.03396551  0.76763657  0.45016189  1
  O  O29  1  0.53396551  0.73236343  0.95016189  1
  O  O30  1  0.96603449  0.23236343  0.54983811  1
  O  O31  1  0.46603449  0.26763657  0.04983811  1
  O  O32  1  0.26734175  0.53886408  0.02097533  1
  O  O33  1  0.76734175  0.96113592  0.52097533  1
  O  O34  1  0.73265825  0.46113592  0.97902467  1
  O  O35  1  0.23265825  0.03886408  0.47902467  1
