# generated using pymatgen
data_MgZn2
_symmetry_space_group_name_H-M   'P 1'
_cell_length_a   9.11014335
_cell_length_b   4.83497713
_cell_length_c   4.67158056
_cell_angle_alpha   90.00000000
_cell_angle_beta   90.00000000
_cell_angle_gamma   90.00000000
_symmetry_Int_Tables_number   1
_chemical_formula_structural   MgZn2
_chemical_formula_sum   'Mg4 Zn8'
_cell_volume   205.77067273
_cell_formula_units_Z   4
loop_
 _symmetry_equiv_pos_site_id
 _symmetry_equiv_pos_as_xyz
  1  'x, y, z'
loop_
 _atom_site_type_symbol
 _atom_site_label
 _atom_site_symmetry_multiplicity
 _atom_site_fract_x
 _atom_site_fract_y
 _atom_site_fract_z
 _atom_site_occupancy
  Mg  Mg0  1  -0.00000000  0.70027411  0.75000000  1
  Mg  Mg1  1  -0.00000000  0.29972589  0.25000000  1
  Mg  Mg2  1  0.50000000  0.20027411  0.75000000  1
  Mg  Mg3  1  0.50000000  0.79972589  0.25000000  1
  Zn  Zn4  1  0.18370448  0.16939936  0.75000000  1
  Zn  Zn5  1  0.31629552  0.66939936  0.75000000  1
  Zn  Zn6  1  0.18370448  0.83060064  0.25000000  1
  Zn  Zn7  1  0.31629552  0.33060064  0.25000000  1
  Zn  Zn8  1  0.68370448  0.66939936  0.75000000  1
  Zn  Zn9  1  0.81629552  0.16939936  0.75000000  1
  Zn  Zn10  1  0.68370448  0.33060064  0.25000000  1
  Zn  Zn11  1  0.81629552  0.83060064  0.25000000  1
