# generated using pymatgen
data_CeMg14Sn
_symmetry_space_group_name_H-M   'P 1'
_cell_length_a   6.55661210
_cell_length_b   6.48373978
_cell_length_c   10.43677114
_cell_angle_alpha   90.00000000
_cell_angle_beta   90.00000000
_cell_angle_gamma   119.63300986
_symmetry_Int_Tables_number   1
_chemical_formula_structural   CeMg14Sn
_chemical_formula_sum   'Ce1 Mg14 Sn1'
_cell_volume   385.65240747
_cell_formula_units_Z   1
loop_
 _symmetry_equiv_pos_site_id
 _symmetry_equiv_pos_as_xyz
  1  'x, y, z'
loop_
 _atom_site_type_symbol
 _atom_site_label
 _atom_site_symmetry_multiplicity
 _atom_site_fract_x
 _atom_site_fract_y
 _atom_site_fract_z
 _atom_site_occupancy
  Ce  Ce0  1  0.16519482  0.83259691  0.12500000  1
  Mg  Mg1  1  0.16610062  0.33304981  0.62500000  1
  Mg  Mg2  1  0.16644898  0.83322399  0.62500000  1
  Mg  Mg3  1  0.66545140  0.33661584  0.12500000  1
  Mg  Mg4  1  0.66665487  0.33294776  0.62500000  1
  Mg  Mg5  1  0.66545140  0.82883456  0.12500000  1
  Mg  Mg6  1  0.66665487  0.83370611  0.62500000  1
  Mg  Mg7  1  0.33546663  0.16880203  0.37998913  1
  Mg  Mg8  1  0.33546663  0.16880203  0.87001087  1
  Mg  Mg9  1  0.33546663  0.66666560  0.37998913  1
  Mg  Mg10  1  0.33546663  0.66666560  0.87001087  1
  Mg  Mg11  1  0.83169153  0.16584627  0.37255540  1
  Mg  Mg12  1  0.83169153  0.16584627  0.87744460  1
  Mg  Mg13  1  0.83064555  0.66532328  0.37977008  1
  Mg  Mg14  1  0.83064555  0.66532328  0.87022992  1
  Sn  Sn15  1  0.17150235  0.33575067  0.12500000  1
