# generated using pymatgen
data_BaGe5
_symmetry_space_group_name_H-M   'P 1'
_cell_length_a   4.84720726
_cell_length_b   8.56470876
_cell_length_c   8.53668042
_cell_angle_alpha   120.10866969
_cell_angle_beta   106.49339172
_cell_angle_gamma   90.00000000
_symmetry_Int_Tables_number   1
_chemical_formula_structural   BaGe5
_chemical_formula_sum   'Ba2 Ge10'
_cell_volume   289.60188332
_cell_formula_units_Z   2
loop_
 _symmetry_equiv_pos_site_id
 _symmetry_equiv_pos_as_xyz
  1  'x, y, z'
loop_
 _atom_site_type_symbol
 _atom_site_label
 _atom_site_symmetry_multiplicity
 _atom_site_fract_x
 _atom_site_fract_y
 _atom_site_fract_z
 _atom_site_occupancy
  Ba  Ba0  1  0.03298833  0.78298833  0.56597665  1
  Ba  Ba1  1  0.96701167  0.21701167  0.43402335  1
  Ge  Ge2  1  0.29026598  0.04026598  0.08053196  1
  Ge  Ge3  1  0.70973402  0.95973402  0.91946804  1
  Ge  Ge4  1  0.80745358  0.71020960  0.11490716  1
  Ge  Ge5  1  0.19254642  0.59530245  0.88509284  1
  Ge  Ge6  1  0.19254642  0.28979040  0.88509284  1
  Ge  Ge7  1  0.80745358  0.40469755  0.11490716  1
  Ge  Ge8  1  0.37912062  0.40323617  0.25824124  1
  Ge  Ge9  1  0.62087938  0.14499493  0.74175876  1
  Ge  Ge10  1  0.62087938  0.59676383  0.74175876  1
  Ge  Ge11  1  0.37912062  0.85500507  0.25824124  1
