# generated using pymatgen
data_Pr4Mn2As5
_symmetry_space_group_name_H-M   'P 1'
_cell_length_a   4.21480813
_cell_length_b   4.21662222
_cell_length_c   17.58173883
_cell_angle_alpha   90.00000000
_cell_angle_beta   90.01116805
_cell_angle_gamma   120.01423037
_symmetry_Int_Tables_number   1
_chemical_formula_structural   Pr4Mn2As5
_chemical_formula_sum   'Pr4 Mn2 As5'
_cell_volume   270.56564662
_cell_formula_units_Z   1
loop_
 _symmetry_equiv_pos_site_id
 _symmetry_equiv_pos_as_xyz
  1  'x, y, z'
loop_
 _atom_site_type_symbol
 _atom_site_label
 _atom_site_symmetry_multiplicity
 _atom_site_fract_x
 _atom_site_fract_y
 _atom_site_fract_z
 _atom_site_occupancy
  Pr  Pr0  1  0.33331716  0.66665858  0.10076852  1
  Pr  Pr1  1  0.66668284  0.33334142  0.89923148  1
  Pr  Pr2  1  0.99993066  0.99996533  0.30208337  1
  Pr  Pr3  1  0.00006934  0.00003467  0.69791663  1
  Mn  Mn4  1  0.33357497  0.66678748  0.54780528  1
  Mn  Mn5  1  0.66642503  0.33321252  0.45219472  1
  As  As6  1  0.33330109  0.66665054  0.40997785  1
  As  As7  1  0.66669891  0.33334946  0.59002215  1
  As  As8  1  0.33331246  0.66665623  0.79717646  1
  As  As9  1  0.66668754  0.33334377  0.20282354  1
  As  As10  1  -0.00000000  -0.00000000  -0.00000000  1
