# generated using pymatgen
data_CaSnS3
_symmetry_space_group_name_H-M   'P 1'
_cell_length_a   13.84484968
_cell_length_b   13.84484968
_cell_length_c   13.84484968
_cell_angle_alpha   70.83421803
_cell_angle_beta   69.91615965
_cell_angle_gamma   109.16578197
_symmetry_Int_Tables_number   1
_chemical_formula_structural   CaSnS3
_chemical_formula_sum   'Ca16 Sn16 S48'
_cell_volume   2042.70455667
_cell_formula_units_Z   16
loop_
 _symmetry_equiv_pos_site_id
 _symmetry_equiv_pos_as_xyz
  1  'x, y, z'
loop_
 _atom_site_type_symbol
 _atom_site_label
 _atom_site_symmetry_multiplicity
 _atom_site_fract_x
 _atom_site_fract_y
 _atom_site_fract_z
 _atom_site_occupancy
  Ca  Ca0  1  0.25009510  0.11769717  0.11887810  1
  Ca  Ca1  1  0.76342473  0.38230283  0.36760207  1
  Ca  Ca2  1  0.88112190  0.13102680  0.23657527  1
  Ca  Ca3  1  0.63239793  0.36897320  0.74990490  1
  Ca  Ca4  1  0.74990490  0.88230283  0.88112190  1
  Ca  Ca5  1  0.23657527  0.61769717  0.63239793  1
  Ca  Ca6  1  0.11887810  0.86897320  0.76342473  1
  Ca  Ca7  1  0.36760207  0.63102680  0.25009510  1
  Ca  Ca8  1  0.36931217  0.75000000  0.88068783  1
  Ca  Ca9  1  0.11931217  0.25000000  0.63068783  1
  Ca  Ca10  1  0.63068783  0.25000000  0.11931217  1
  Ca  Ca11  1  0.88068783  0.75000000  0.36931217  1
  Ca  Ca12  1  0.50000000  0.00000000  -0.00000000  1
  Ca  Ca13  1  0.00000000  0.50000000  -0.00000000  1
  Ca  Ca14  1  0.00000000  0.00000000  -0.00000000  1
  Ca  Ca15  1  0.00000000  0.50000000  0.50000000  1
  Sn  Sn16  1  0.00000000  0.00000000  0.50000000  1
  Sn  Sn17  1  0.50000000  0.50000000  0.50000000  1
  Sn  Sn18  1  0.50000000  0.00000000  0.50000000  1
  Sn  Sn19  1  0.50000000  0.50000000  -0.00000000  1
  Sn  Sn20  1  0.12500000  0.75000000  0.12500000  1
  Sn  Sn21  1  0.87500000  0.25000000  0.87500000  1
  Sn  Sn22  1  0.62500000  0.75000000  0.62500000  1
  Sn  Sn23  1  0.37500000  0.25000000  0.37500000  1
  Sn  Sn24  1  0.74131300  0.11736945  0.62201416  1
  Sn  Sn25  1  0.26061639  0.38263055  0.87605645  1
  Sn  Sn26  1  0.37798584  0.13667284  0.73938361  1
  Sn  Sn27  1  0.12394355  0.36332716  0.25868700  1
  Sn  Sn28  1  0.25868700  0.88263055  0.37798584  1
  Sn  Sn29  1  0.73938361  0.61736945  0.12394355  1
  Sn  Sn30  1  0.62201416  0.86332716  0.26061639  1
  Sn  Sn31  1  0.87605645  0.63667284  0.74131300  1
  S  S32  1  0.59390067  0.95479379  0.81633613  1
  S  S33  1  0.22887008  0.54520621  0.86089312  1
  S  S34  1  0.18366387  0.08976320  0.77112992  1
  S  S35  1  0.13910688  0.41023680  0.40609933  1
  S  S36  1  0.40609933  0.04520621  0.18366387  1
  S  S37  1  0.77112992  0.45479379  0.13910688  1
  S  S38  1  0.81633613  0.91023680  0.22887008  1
  S  S39  1  0.86089312  0.58976320  0.59390067  1
  S  S40  1  0.91277677  0.09366811  0.61312592  1
  S  S41  1  0.29320598  0.40633189  0.68089133  1
  S  S42  1  0.38687408  0.97409731  0.70679402  1
  S  S43  1  0.31910867  0.52590269  0.08722323  1
  S  S44  1  0.08722323  0.90633189  0.38687408  1
  S  S45  1  0.70679402  0.59366811  0.31910867  1
  S  S46  1  0.61312592  0.02590269  0.29320598  1
  S  S47  1  0.68089133  0.47409731  0.91277677  1
  S  S48  1  0.71118336  0.12382231  0.45517964  1
  S  S49  1  0.42099805  0.37617769  0.91263895  1
  S  S50  1  0.54482036  0.33363700  0.57900195  1
  S  S51  1  0.08736105  0.16636300  0.28881664  1
  S  S52  1  0.28881664  0.87617769  0.54482036  1
  S  S53  1  0.57900195  0.62382231  0.08736105  1
  S  S54  1  0.45517964  0.66636300  0.42099805  1
  S  S55  1  0.91263895  0.83363700  0.71118336  1
  S  S56  1  0.77719939  0.30978525  0.58636557  1
  S  S57  1  0.10384918  0.19021475  0.03258586  1
  S  S58  1  0.41363443  0.13643504  0.89615082  1
  S  S59  1  0.96741414  0.36356496  0.22280061  1
  S  S60  1  0.22280061  0.69021475  0.41363443  1
  S  S61  1  0.89615082  0.80978525  0.96741414  1
  S  S62  1  0.58636557  0.86356496  0.10384918  1
  S  S63  1  0.03258586  0.63643504  0.77719939  1
  S  S64  1  0.31589384  0.77382158  0.09223207  1
  S  S65  1  0.13394635  0.72617842  0.95792774  1
  S  S66  1  0.90776793  0.09187409  0.86605365  1
  S  S67  1  0.04207226  0.40812591  0.68410616  1
  S  S68  1  0.68410616  0.22617842  0.90776793  1
  S  S69  1  0.86605365  0.27382158  0.04207226  1
  S  S70  1  0.09223207  0.90812591  0.13394635  1
  S  S71  1  0.95792774  0.59187409  0.31589384  1
  S  S72  1  0.58187742  0.70713373  0.82561294  1
  S  S73  1  0.46725332  0.79286627  0.62525631  1
  S  S74  1  0.17438706  0.09250964  0.53274668  1
  S  S75  1  0.37474369  0.40749036  0.41812258  1
  S  S76  1  0.41812258  0.29286627  0.17438706  1
  S  S77  1  0.53274668  0.20713373  0.37474369  1
  S  S78  1  0.82561294  0.90749036  0.46725332  1
  S  S79  1  0.62525631  0.59250964  0.58187742  1
