# generated using pymatgen
data_Ba3Sr5Ti8O20
_symmetry_space_group_name_H-M   'P 1'
_cell_length_a   11.45975033
_cell_length_b   11.44724713
_cell_length_c   17.84485155
_cell_angle_alpha   108.73899235
_cell_angle_beta   108.68062444
_cell_angle_gamma   89.95950595
_symmetry_Int_Tables_number   1
_chemical_formula_structural   Ba3Sr5Ti8O20
_chemical_formula_sum   'Ba12 Sr20 Ti32 O80'
_cell_volume   2086.38965159
_cell_formula_units_Z   4
loop_
 _symmetry_equiv_pos_site_id
 _symmetry_equiv_pos_as_xyz
  1  'x, y, z'
loop_
 _atom_site_type_symbol
 _atom_site_label
 _atom_site_symmetry_multiplicity
 _atom_site_fract_x
 _atom_site_fract_y
 _atom_site_fract_z
 _atom_site_occupancy
  Ba  Ba0  1  0.30590499  0.06021388  0.11910983  1
  Ba  Ba1  1  0.30697719  0.56076034  0.12063582  1
  Ba  Ba2  1  0.80610371  0.06136835  0.12088840  1
  Ba  Ba3  1  0.80569741  0.55993152  0.11919108  1
  Ba  Ba4  1  0.18786166  0.94018383  0.38123045  1
  Ba  Ba5  1  0.18477652  0.93634323  0.87809687  1
  Ba  Ba6  1  0.68505980  0.43608590  0.87812315  1
  Ba  Ba7  1  0.05636364  0.30938799  0.12013493  1
  Ba  Ba8  1  0.05618904  0.80897782  0.11919534  1
  Ba  Ba9  1  0.55662433  0.30940171  0.12028608  1
  Ba  Ba10  1  0.55674853  0.80953393  0.12032489  1
  Ba  Ba11  1  0.93431028  0.69073764  0.87762291  1
  Sr  Sr12  1  0.30374540  0.06112862  0.61226487  1
  Sr  Sr13  1  0.30703539  0.56174280  0.61289489  1
  Sr  Sr14  1  0.80536075  0.06016937  0.61212410  1
  Sr  Sr15  1  0.80447005  0.56095051  0.61340698  1
  Sr  Sr16  1  0.19242320  0.44217243  0.38744277  1
  Sr  Sr17  1  0.19251946  0.43925253  0.88562790  1
  Sr  Sr18  1  0.69328263  0.44306872  0.38794789  1
  Sr  Sr19  1  0.69206501  0.94089600  0.38656415  1
  Sr  Sr20  1  0.69198716  0.94090323  0.88654546  1
  Sr  Sr21  1  0.05345850  0.30278822  0.61282063  1
  Sr  Sr22  1  0.05554155  0.80087227  0.61262274  1
  Sr  Sr23  1  0.55668215  0.30097305  0.61222076  1
  Sr  Sr24  1  0.55523271  0.79978724  0.61135491  1
  Sr  Sr25  1  0.44150398  0.19458634  0.38667171  1
  Sr  Sr26  1  0.44120627  0.19551933  0.88620694  1
  Sr  Sr27  1  0.44365410  0.69594168  0.38735248  1
  Sr  Sr28  1  0.44341078  0.69830969  0.88638559  1
  Sr  Sr29  1  0.94267699  0.19645520  0.38749221  1
  Sr  Sr30  1  0.94279018  0.19659723  0.88684876  1
  Sr  Sr31  1  0.94166794  0.69431039  0.38768313  1
  Ti  Ti32  1  0.99484964  0.00007652  0.99837717  1
  Ti  Ti33  1  0.99838241  0.00009339  0.50126666  1
  Ti  Ti34  1  0.99707501  0.49806721  0.99770799  1
  Ti  Ti35  1  0.00105902  0.49981749  0.50141430  1
  Ti  Ti36  1  0.49653536  0.99894727  0.99730307  1
  Ti  Ti37  1  0.50041335  0.99942382  0.50060682  1
  Ti  Ti38  1  0.49508179  0.49833725  0.99758574  1
  Ti  Ti39  1  0.49911245  0.49868996  0.50031986  1
  Ti  Ti40  1  0.24668087  0.24985911  0.99807952  1
  Ti  Ti41  1  0.25041871  0.25250558  0.50169833  1
  Ti  Ti42  1  0.24666550  0.74711323  0.99723389  1
  Ti  Ti43  1  0.25022951  0.75037928  0.50068084  1
  Ti  Ti44  1  0.74625739  0.24752712  0.99748265  1
  Ti  Ti45  1  0.74928036  0.25071304  0.50002590  1
  Ti  Ti46  1  0.74545267  0.75006414  0.99836676  1
  Ti  Ti47  1  0.75025591  0.75135834  0.50108025  1
  Ti  Ti48  1  0.12098381  0.11457447  0.25331208  1
  Ti  Ti49  1  0.11210007  0.10831326  0.74702287  1
  Ti  Ti50  1  0.12015238  0.60940109  0.25386982  1
  Ti  Ti51  1  0.11702569  0.60198850  0.74643174  1
  Ti  Ti52  1  0.62190917  0.11438116  0.25431421  1
  Ti  Ti53  1  0.61208038  0.10213638  0.74734807  1
  Ti  Ti54  1  0.62097567  0.61237875  0.25468803  1
  Ti  Ti55  1  0.61277491  0.61072094  0.74699488  1
  Ti  Ti56  1  0.37167765  0.39138984  0.25453746  1
  Ti  Ti57  1  0.36402596  0.39213023  0.74793102  1
  Ti  Ti58  1  0.37326562  0.89301029  0.25308668  1
  Ti  Ti59  1  0.36507655  0.89253403  0.74677341  1
  Ti  Ti60  1  0.87013267  0.39152308  0.25459287  1
  Ti  Ti61  1  0.86471268  0.38840216  0.74558200  1
  Ti  Ti62  1  0.87007539  0.89205927  0.25415399  1
  Ti  Ti63  1  0.86140369  0.89344216  0.74763333  1
  O  O64  1  0.11905234  0.12550606  0.49522712  1
  O  O65  1  0.11739125  0.12436928  0.99379221  1
  O  O66  1  0.12114757  0.62170504  0.49355268  1
  O  O67  1  0.12138970  0.61974136  0.99409590  1
  O  O68  1  0.61979831  0.12097733  0.49139323  1
  O  O69  1  0.61904537  0.12104425  0.99276824  1
  O  O70  1  0.62089788  0.62144212  0.49259330  1
  O  O71  1  0.61653149  0.62344685  0.99343704  1
  O  O72  1  0.12176715  0.37388546  0.99859019  1
  O  O73  1  0.12999185  0.38005041  0.50919177  1
  O  O74  1  0.12142099  0.87443685  0.00019339  1
  O  O75  1  0.12844746  0.87919932  0.51079441  1
  O  O76  1  0.61994513  0.37238720  0.99929551  1
  O  O77  1  0.62942298  0.37996261  0.50987276  1
  O  O78  1  0.62122277  0.87510622  0.99941060  1
  O  O79  1  0.62895691  0.87907125  0.50808945  1
  O  O80  1  0.37393454  0.12442558  0.49550025  1
  O  O81  1  0.37036028  0.12317559  0.99281979  1
  O  O82  1  0.37024508  0.61954286  0.49125182  1
  O  O83  1  0.36892448  0.62021413  0.99248530  1
  O  O84  1  0.86804631  0.11999258  0.49062707  1
  O  O85  1  0.86818593  0.12217084  0.99370839  1
  O  O86  1  0.87167469  0.62148416  0.49412772  1
  O  O87  1  0.86936307  0.62224528  0.99500569  1
  O  O88  1  0.37090033  0.37506272  0.99942551  1
  O  O89  1  0.37912715  0.37945554  0.50900439  1
  O  O90  1  0.37285533  0.87284557  0.99850443  1
  O  O91  1  0.38021015  0.87833173  0.50891160  1
  O  O92  1  0.87245013  0.37235337  0.99880284  1
  O  O93  1  0.87963990  0.37998115  0.51009919  1
  O  O94  1  0.86976259  0.87728023  0.00054568  1
  O  O95  1  0.87864877  0.87917541  0.50986662  1
  O  O96  1  0.06092360  0.07424136  0.13127212  1
  O  O97  1  0.05851232  0.08739468  0.62901302  1
  O  O98  1  0.06299061  0.57122133  0.13187943  1
  O  O99  1  0.06940900  0.58498292  0.62976148  1
  O  O100  1  0.56251948  0.07347254  0.13180394  1
  O  O101  1  0.56656163  0.08368175  0.63019088  1
  O  O102  1  0.56276488  0.57258200  0.13243059  1
  O  O103  1  0.55952566  0.58531626  0.62831602  1
  O  O104  1  0.43617491  0.41109721  0.37221216  1
  O  O105  1  0.42684822  0.41864615  0.86653245  1
  O  O106  1  0.43674911  0.91409095  0.37162922  1
  O  O107  1  0.43390186  0.92313201  0.86567666  1
  O  O108  1  0.93574468  0.41333844  0.37294284  1
  O  O109  1  0.93317643  0.41941919  0.86483834  1
  O  O110  1  0.93159481  0.91158164  0.37229671  1
  O  O111  1  0.92515036  0.92917561  0.86753263  1
  O  O112  1  0.31326282  0.30922270  0.13191293  1
  O  O113  1  0.31610768  0.29542235  0.63073525  1
  O  O114  1  0.31469542  0.80808677  0.13157839  1
  O  O115  1  0.31891414  0.79411484  0.62961330  1
  O  O116  1  0.81225247  0.30893790  0.13235547  1
  O  O117  1  0.81161317  0.28959767  0.62798287  1
  O  O118  1  0.81186584  0.80910951  0.13230968  1
  O  O119  1  0.81277331  0.79609049  0.63003237  1
  O  O120  1  0.18639912  0.20867875  0.37251315  1
  O  O121  1  0.18154896  0.19682276  0.86581161  1
  O  O122  1  0.18481218  0.70128946  0.37296088  1
  O  O123  1  0.18308822  0.68660445  0.86589818  1
  O  O124  1  0.68559480  0.21208980  0.37224981  1
  O  O125  1  0.68084292  0.18766062  0.86660768  1
  O  O126  1  0.68709240  0.70906999  0.37273146  1
  O  O127  1  0.67683799  0.69750811  0.86668670  1
  O  O128  1  0.49316847  0.01632091  0.26022923  1
  O  O129  1  0.46185828  0.03146936  0.74537114  1
  O  O130  1  0.48925883  0.51715868  0.26103457  1
  O  O131  1  0.46872361  0.52115123  0.74695849  1
  O  O132  1  0.99080144  0.01519923  0.25939634  1
  O  O133  1  0.96588770  0.02415946  0.74637352  1
  O  O134  1  0.98719520  0.51582921  0.25957390  1
  O  O135  1  0.97223347  0.50898443  0.73761773  1
  O  O136  1  0.23842872  0.49051717  0.25959144  1
  O  O137  1  0.21530585  0.46572727  0.74510150  1
  O  O138  1  0.24447092  0.00030272  0.25507304  1
  O  O139  1  0.21992551  0.97924804  0.73914497  1
  O  O140  1  0.73865455  0.49285334  0.26086763  1
  O  O141  1  0.72474058  0.48247865  0.74076033  1
  O  O142  1  0.74138607  0.99694342  0.26021175  1
  O  O143  1  0.70950038  0.96719900  0.74458135  1
