# generated using pymatgen
data_Zr2N2O
_symmetry_space_group_name_H-M   'P 1'
_cell_length_a   5.53503978
_cell_length_b   5.88633472
_cell_length_c   5.61911476
_cell_angle_alpha   118.50931885
_cell_angle_beta   59.49624314
_cell_angle_gamma   117.56745224
_symmetry_Int_Tables_number   1
_chemical_formula_structural   Zr2N2O
_chemical_formula_sum   'Zr4 N4 O2'
_cell_volume   132.60136035
_cell_formula_units_Z   2
loop_
 _symmetry_equiv_pos_site_id
 _symmetry_equiv_pos_as_xyz
  1  'x, y, z'
loop_
 _atom_site_type_symbol
 _atom_site_label
 _atom_site_symmetry_multiplicity
 _atom_site_fract_x
 _atom_site_fract_y
 _atom_site_fract_z
 _atom_site_occupancy
  Zr  Zr0  1  0.12166807  0.42591950  0.13434811  1
  Zr  Zr1  1  0.62166807  0.92591950  0.66990231  1
  Zr  Zr2  1  0.35064556  0.07399206  0.37270696  1
  Zr  Zr3  1  0.85064556  0.57399206  0.85064054  1
  N  N4  1  0.24696322  0.73536608  0.94769676  1
  N  N5  1  0.74696322  0.23536608  0.04070609  1
  N  N6  1  0.46342402  0.25328273  0.74437327  1
  N  N7  1  0.96342402  0.75328273  0.54548544  1
  O  O8  1  0.06729913  0.26143963  0.44258697  1
  O  O9  1  0.56729913  0.76143963  0.25155353  1
