# generated using pymatgen
data_TePb
_symmetry_space_group_name_H-M   'P 1'
_cell_length_a   4.69441215
_cell_length_b   6.75560018
_cell_length_c   43.85452389
_cell_angle_alpha   90.00000000
_cell_angle_beta   90.00000000
_cell_angle_gamma   90.00000000
_symmetry_Int_Tables_number   1
_chemical_formula_structural   TePb
_chemical_formula_sum   'Te20 Pb20'
_cell_volume   1390.78358186
_cell_formula_units_Z   20
loop_
 _symmetry_equiv_pos_site_id
 _symmetry_equiv_pos_as_xyz
  1  'x, y, z'
loop_
 _atom_site_type_symbol
 _atom_site_label
 _atom_site_symmetry_multiplicity
 _atom_site_fract_x
 _atom_site_fract_y
 _atom_site_fract_z
 _atom_site_occupancy
  Te  Te0  1  0.25000000  0.13768792  0.23632091  1
  Te  Te1  1  0.25000000  0.38823724  0.13567420  1
  Te  Te2  1  0.25000000  0.64279636  0.02675765  1
  Te  Te3  1  0.25000000  0.36158123  0.33607769  1
  Te  Te4  1  0.25000000  0.36006193  0.53580765  1
  Te  Te5  1  0.25000000  0.13934602  0.43588210  1
  Te  Te6  1  0.25000000  0.13927224  0.63579235  1
  Te  Te7  1  0.25000000  0.13600086  0.83491103  1
  Te  Te8  1  0.25000000  0.36219405  0.73559700  1
  Te  Te9  1  0.25000000  0.37546391  0.93259445  1
  Te  Te10  1  0.75000000  0.14279636  0.07324235  1
  Te  Te11  1  0.75000000  0.63600086  0.26508897  1
  Te  Te12  1  0.75000000  0.63927224  0.46420765  1
  Te  Te13  1  0.75000000  0.63934602  0.66411790  1
  Te  Te14  1  0.75000000  0.63768792  0.86367909  1
  Te  Te15  1  0.75000000  0.86219405  0.36440300  1
  Te  Te16  1  0.75000000  0.88823724  0.96432580  1
  Te  Te17  1  0.75000000  0.87546391  0.16740555  1
  Te  Te18  1  0.75000000  0.86006193  0.56419235  1
  Te  Te19  1  0.75000000  0.86158123  0.76392231  1
  Pb  Pb20  1  0.25000000  0.10118996  0.02869361  1
  Pb  Pb21  1  0.25000000  0.70282347  0.21891972  1
  Pb  Pb22  1  0.25000000  0.84295554  0.12301398  1
  Pb  Pb23  1  0.25000000  0.79105930  0.31693113  1
  Pb  Pb24  1  0.25000000  0.78827147  0.51581153  1
  Pb  Pb25  1  0.25000000  0.71107404  0.41604710  1
  Pb  Pb26  1  0.25000000  0.79184549  0.71608386  1
  Pb  Pb27  1  0.25000000  0.71072583  0.61585434  1
  Pb  Pb28  1  0.25000000  0.70289472  0.81660805  1
  Pb  Pb29  1  0.25000000  0.81451840  0.91866114  1
  Pb  Pb30  1  0.75000000  0.60118996  0.07130639  1
  Pb  Pb31  1  0.75000000  0.20289472  0.28339195  1
  Pb  Pb32  1  0.75000000  0.31451840  0.18133886  1
  Pb  Pb33  1  0.75000000  0.29184549  0.38391614  1
  Pb  Pb34  1  0.75000000  0.21107404  0.68395290  1
  Pb  Pb35  1  0.75000000  0.28827147  0.58418847  1
  Pb  Pb36  1  0.75000000  0.29105930  0.78306887  1
  Pb  Pb37  1  0.75000000  0.34295554  0.97698602  1
  Pb  Pb38  1  0.75000000  0.21072583  0.48414566  1
  Pb  Pb39  1  0.75000000  0.20282347  0.88108028  1
