# generated using pymatgen
data_GaPt3
_symmetry_space_group_name_H-M   'P 1'
_cell_length_a   6.65880867
_cell_length_b   6.65880867
_cell_length_c   5.70627502
_cell_angle_alpha   90.00000000
_cell_angle_beta   90.00000000
_cell_angle_gamma   90.00000000
_symmetry_Int_Tables_number   1
_chemical_formula_structural   GaPt3
_chemical_formula_sum   'Ga4 Pt12'
_cell_volume   253.01471026
_cell_formula_units_Z   4
loop_
 _symmetry_equiv_pos_site_id
 _symmetry_equiv_pos_as_xyz
  1  'x, y, z'
loop_
 _atom_site_type_symbol
 _atom_site_label
 _atom_site_symmetry_multiplicity
 _atom_site_fract_x
 _atom_site_fract_y
 _atom_site_fract_z
 _atom_site_occupancy
  Ga  Ga0  1  0.50000000  -0.00000000  0.75718278  1
  Ga  Ga1  1  0.00000000  0.50000000  0.24281722  1
  Ga  Ga2  1  0.50000000  -0.00000000  0.24281722  1
  Ga  Ga3  1  0.00000000  0.50000000  0.75718278  1
  Pt  Pt4  1  0.73605500  0.76394500  -0.00000000  1
  Pt  Pt5  1  0.27591957  0.77591957  0.50000000  1
  Pt  Pt6  1  0.23605500  0.73605500  -0.00000000  1
  Pt  Pt7  1  0.26394500  0.23605500  -0.00000000  1
  Pt  Pt8  1  0.00000000  -0.00000000  0.74782207  1
  Pt  Pt9  1  0.77591957  0.72408043  0.50000000  1
  Pt  Pt10  1  0.22408043  0.27591957  0.50000000  1
  Pt  Pt11  1  0.72408043  0.22408043  0.50000000  1
  Pt  Pt12  1  0.00000000  -0.00000000  0.25217793  1
  Pt  Pt13  1  0.50000000  0.50000000  0.74782207  1
  Pt  Pt14  1  0.50000000  0.50000000  0.25217793  1
  Pt  Pt15  1  0.76394500  0.26394500  -0.00000000  1
