# generated using pymatgen
data_Ca2SnS4
_symmetry_space_group_name_H-M   'P 1'
_cell_length_a   10.70744959
_cell_length_b   12.43474243
_cell_length_c   12.06667124
_cell_angle_alpha   90.00000000
_cell_angle_beta   96.17582477
_cell_angle_gamma   90.00000000
_symmetry_Int_Tables_number   1
_chemical_formula_structural   Ca2SnS4
_chemical_formula_sum   'Ca16 Sn8 S32'
_cell_volume   1597.28538578
_cell_formula_units_Z   8
loop_
 _symmetry_equiv_pos_site_id
 _symmetry_equiv_pos_as_xyz
  1  'x, y, z'
loop_
 _atom_site_type_symbol
 _atom_site_label
 _atom_site_symmetry_multiplicity
 _atom_site_fract_x
 _atom_site_fract_y
 _atom_site_fract_z
 _atom_site_occupancy
  Ca  Ca0  1  0.15687909  0.92800163  0.43873155  1
  Ca  Ca1  1  0.84312091  0.42800163  0.06126845  1
  Ca  Ca2  1  0.84312091  0.07199837  0.56126845  1
  Ca  Ca3  1  0.15687909  0.57199837  0.93873155  1
  Ca  Ca4  1  0.32496666  0.91628339  0.10528769  1
  Ca  Ca5  1  0.67503334  0.41628339  0.39471231  1
  Ca  Ca6  1  0.67503334  0.08371661  0.89471231  1
  Ca  Ca7  1  0.32496666  0.58371661  0.60528769  1
  Ca  Ca8  1  0.58471231  0.76685046  0.40550359  1
  Ca  Ca9  1  0.41528769  0.26685046  0.09449641  1
  Ca  Ca10  1  0.41528769  0.23314954  0.59449641  1
  Ca  Ca11  1  0.58471231  0.73314954  0.90550359  1
  Ca  Ca12  1  0.14627629  0.52499352  0.30186892  1
  Ca  Ca13  1  0.85372371  0.02499352  0.19813108  1
  Ca  Ca14  1  0.85372371  0.47500648  0.69813108  1
  Ca  Ca15  1  0.14627629  0.97500648  0.80186892  1
  Sn  Sn16  1  0.98742052  0.80047483  0.05789268  1
  Sn  Sn17  1  0.01257948  0.30047483  0.44210732  1
  Sn  Sn18  1  0.01257948  0.19952517  0.94210732  1
  Sn  Sn19  1  0.98742052  0.69952517  0.55789268  1
  Sn  Sn20  1  0.53659127  0.05830073  0.31893131  1
  Sn  Sn21  1  0.46340873  0.55830073  0.18106869  1
  Sn  Sn22  1  0.46340873  0.94169927  0.68106869  1
  Sn  Sn23  1  0.53659127  0.44169927  0.81893131  1
  S  S24  1  0.16110469  0.79921356  0.94184421  1
  S  S25  1  0.83889531  0.29921356  0.55815579  1
  S  S26  1  0.83889531  0.20078644  0.05815579  1
  S  S27  1  0.16110469  0.70078644  0.44184421  1
  S  S28  1  0.07882427  0.91744945  0.20340829  1
  S  S29  1  0.92117573  0.41744945  0.29659171  1
  S  S30  1  0.92117573  0.08255055  0.79659171  1
  S  S31  1  0.07882427  0.58255055  0.70340829  1
  S  S32  1  0.98899901  0.61388115  0.10777321  1
  S  S33  1  0.01100099  0.11388115  0.39222679  1
  S  S34  1  0.01100099  0.38611885  0.89222679  1
  S  S35  1  0.98899901  0.88611885  0.60777321  1
  S  S36  1  0.78391449  0.87757747  0.00514676  1
  S  S37  1  0.21608551  0.37757747  0.49485324  1
  S  S38  1  0.21608551  0.12242253  0.99485324  1
  S  S39  1  0.78391449  0.62242253  0.50514676  1
  S  S40  1  0.38635259  0.91813100  0.34519884  1
  S  S41  1  0.61364741  0.41813100  0.15480116  1
  S  S42  1  0.61364741  0.08186900  0.65480116  1
  S  S43  1  0.38635259  0.58186900  0.84519884  1
  S  S44  1  0.72750497  0.95842289  0.37859911  1
  S  S45  1  0.27249503  0.45842289  0.12140089  1
  S  S46  1  0.27249503  0.04157711  0.62140089  1
  S  S47  1  0.72750497  0.54157711  0.87859911  1
  S  S48  1  0.48431859  0.23627177  0.37142704  1
  S  S49  1  0.51568141  0.73627177  0.12857296  1
  S  S50  1  0.51568141  0.76372823  0.62857296  1
  S  S51  1  0.48431859  0.26372823  0.87142704  1
  S  S52  1  0.53491899  0.06543655  0.11832067  1
  S  S53  1  0.46508101  0.56543655  0.38167933  1
  S  S54  1  0.46508101  0.93456345  0.88167933  1
  S  S55  1  0.53491899  0.43456345  0.61832067  1
