# generated using pymatgen
data_La2Fe2O5
_symmetry_space_group_name_H-M   'P 1'
_cell_length_a   5.69211156
_cell_length_b   5.76888415
_cell_length_c   8.92018098
_cell_angle_alpha   108.86632947
_cell_angle_beta   108.60597087
_cell_angle_gamma   90.00000000
_symmetry_Int_Tables_number   1
_chemical_formula_structural   La2Fe2O5
_chemical_formula_sum   'La4 Fe4 O10'
_cell_volume   260.94590489
_cell_formula_units_Z   2
loop_
 _symmetry_equiv_pos_site_id
 _symmetry_equiv_pos_as_xyz
  1  'x, y, z'
loop_
 _atom_site_type_symbol
 _atom_site_label
 _atom_site_symmetry_multiplicity
 _atom_site_fract_x
 _atom_site_fract_y
 _atom_site_fract_z
 _atom_site_occupancy
  La  La0  1  0.60470636  0.12689882  0.22226308  1
  La  La1  1  0.38244328  0.87310118  0.77773692  1
  La  La2  1  0.10470636  0.59536425  0.22226308  1
  La  La3  1  0.88244328  0.40463575  0.77773692  1
  Fe  Fe4  1  0.00497817  -0.00000000  -0.00000000  1
  Fe  Fe5  1  0.50497817  0.50000000  0.00000000  1
  Fe  Fe6  1  0.22172260  0.20651717  0.50000000  1
  Fe  Fe7  1  0.72172260  0.79348283  0.50000000  1
  O  O8  1  0.22842212  0.23539964  0.95639742  1
  O  O9  1  0.27202471  0.76460036  0.04360258  1
  O  O10  1  0.72842212  0.22099778  0.95639742  1
  O  O11  1  0.77202471  0.77900222  0.04360258  1
  O  O12  1  0.19202587  0.22541267  0.27935527  1
  O  O13  1  0.91267060  0.77458733  0.72064473  1
  O  O14  1  0.69202587  0.55394260  0.27935527  1
  O  O15  1  0.41267060  0.44605740  0.72064473  1
  O  O16  1  0.84500629  0.14249981  0.50000000  1
  O  O17  1  0.34500629  0.85750019  0.50000000  1
