# generated using pymatgen
data_V3Cr2Fe(PO4)6
_symmetry_space_group_name_H-M   'P 1'
_cell_length_a   8.53919349
_cell_length_b   8.62463327
_cell_length_c   8.62463331
_cell_angle_alpha   60.00000077
_cell_angle_beta   59.66845960
_cell_angle_gamma   59.66846150
_symmetry_Int_Tables_number   1
_chemical_formula_structural   V3Cr2Fe(PO4)6
_chemical_formula_sum   'V3 Cr2 Fe1 P6 O24'
_cell_volume   446.87752926
_cell_formula_units_Z   1
loop_
 _symmetry_equiv_pos_site_id
 _symmetry_equiv_pos_as_xyz
  1  'x, y, z'
loop_
 _atom_site_type_symbol
 _atom_site_label
 _atom_site_symmetry_multiplicity
 _atom_site_fract_x
 _atom_site_fract_y
 _atom_site_fract_z
 _atom_site_occupancy
  V  V0  1  0.06811262  0.64396279  0.64396279  1
  V  V1  1  0.43023822  0.85658693  0.85658693  1
  V  V2  1  0.92974658  0.35675114  0.35675114  1
  Cr  Cr3  1  0.99703415  0.00098895  0.00098895  1
  Cr  Cr4  1  0.49941075  0.50019642  0.50019642  1
  Fe  Fe5  1  0.56129588  0.14623437  0.14623437  1
  P  P6  1  0.24883811  0.24993927  0.54561151  1
  P  P7  1  0.24883811  0.95561110  0.24993927  1
  P  P8  1  0.24883811  0.54561151  0.95561110  1
  P  P9  1  0.75195654  0.45438460  0.04390379  1
  P  P10  1  0.75195654  0.04390379  0.74975407  1
  P  P11  1  0.75195654  0.74975407  0.45438460  1
  O  O12  1  0.06682002  0.11327446  0.31426146  1
  O  O13  1  0.06682002  0.50564307  0.11327446  1
  O  O14  1  0.06682002  0.31426146  0.50564307  1
  O  O15  1  0.22427033  0.09087618  0.74637228  1
  O  O16  1  0.43279423  0.18448214  0.39074836  1
  O  O17  1  0.26875915  0.41166897  0.56290184  1
  O  O18  1  0.22427033  0.93848021  0.09087618  1
  O  O19  1  0.26875915  0.75666903  0.41166897  1
  O  O20  1  0.56872313  0.61028064  0.00651962  1
  O  O21  1  0.26875915  0.56290184  0.75666903  1
  O  O22  1  0.77824238  0.25561125  0.05587076  1
  O  O23  1  0.56872313  0.00651962  0.81447661  1
  O  O24  1  0.43279423  0.99197427  0.18448214  1
  O  O25  1  0.22427033  0.74637228  0.93848021  1
  O  O26  1  0.73033935  0.43624768  0.24390982  1
  O  O27  1  0.43279423  0.39074836  0.99197427  1
  O  O28  1  0.73033935  0.24390982  0.58950315  1
  O  O29  1  0.77824238  0.05587076  0.91027561  1
  O  O30  1  0.73033935  0.58950315  0.43624768  1
  O  O31  1  0.56872313  0.81447661  0.61028064  1
  O  O32  1  0.77824238  0.91027561  0.25561125  1
  O  O33  1  0.93397635  0.67882411  0.49834574  1
  O  O34  1  0.93397635  0.49834574  0.88885380  1
  O  O35  1  0.93397635  0.88885380  0.67882411  1
