# generated using pymatgen
data_NbFe7(PO4)12
_symmetry_space_group_name_H-M   'P 1'
_cell_length_a   8.80642122
_cell_length_b   8.83490659
_cell_length_c   12.30886796
_cell_angle_alpha   90.12726655
_cell_angle_beta   90.00015427
_cell_angle_gamma   90.17449781
_symmetry_Int_Tables_number   1
_chemical_formula_structural   NbFe7(PO4)12
_chemical_formula_sum   'Nb1 Fe7 P12 O48'
_cell_volume   957.67123617
_cell_formula_units_Z   1
loop_
 _symmetry_equiv_pos_site_id
 _symmetry_equiv_pos_as_xyz
  1  'x, y, z'
loop_
 _atom_site_type_symbol
 _atom_site_label
 _atom_site_symmetry_multiplicity
 _atom_site_fract_x
 _atom_site_fract_y
 _atom_site_fract_z
 _atom_site_occupancy
  Nb  Nb0  1  0.74709099  0.46512981  0.61813296  1
  Fe  Fe1  1  0.25062581  0.96411147  0.61918423  1
  Fe  Fe2  1  0.25253001  0.53286784  0.38244673  1
  Fe  Fe3  1  0.24844520  0.03489984  0.11879032  1
  Fe  Fe4  1  0.24956079  0.46461549  0.88168903  1
  Fe  Fe5  1  0.75098308  0.53760241  0.11905971  1
  Fe  Fe6  1  0.75210376  0.96332050  0.88081097  1
  Fe  Fe7  1  0.74999615  0.03841299  0.38065731  1
  P  P8  1  0.03443219  0.24785523  0.49853966  1
  P  P9  1  0.46960636  0.74967707  0.00044861  1
  P  P10  1  0.53094930  0.25046511  0.00078065  1
  P  P11  1  0.96869683  0.75116957  0.49867049  1
  P  P12  1  0.10812287  0.39379796  0.14415812  1
  P  P13  1  0.11030856  0.10638312  0.85624938  1
  P  P14  1  0.38504434  0.60532022  0.64585338  1
  P  P15  1  0.38874903  0.89421694  0.35539132  1
  P  P16  1  0.61018695  0.10270443  0.64402848  1
  P  P17  1  0.61028536  0.39394018  0.35262735  1
  P  P18  1  0.89200353  0.60940925  0.85824581  1
  P  P19  1  0.88951351  0.89464873  0.14477365  1
  O  O20  1  0.06529880  0.65452112  0.42223301  1
  O  O21  1  0.06581814  0.84018742  0.58060330  1
  O  O22  1  0.06371003  0.91107558  0.14370169  1
  O  O23  1  0.06456985  0.59054968  0.86149960  1
  O  O24  1  0.12827644  0.14257249  0.57034688  1
  O  O25  1  0.13976000  0.35136070  0.43397748  1
  O  O26  1  0.17888339  0.44644227  0.03631571  1
  O  O27  1  0.17688013  0.05530333  0.96582235  1
  O  O28  1  0.14775443  0.22643912  0.16372440  1
  O  O29  1  0.14769746  0.27457373  0.83722862  1
  O  O30  1  0.17342722  0.49512369  0.23381378  1
  O  O31  1  0.18271985  0.00548661  0.76900573  1
  O  O32  1  0.31999363  -0.00308855  0.26855346  1
  O  O33  1  0.31152777  0.50459823  0.73115878  1
  O  O34  1  0.35537807  0.77434319  0.66446050  1
  O  O35  1  0.35047597  0.72663891  0.33474207  1
  O  O36  1  0.32913787  0.56007546  0.53231284  1
  O  O37  1  0.32313693  0.93989010  0.46669655  1
  O  O38  1  0.36533794  0.85204532  0.06818856  1
  O  O39  1  0.37105993  0.64476059  0.93021226  1
  O  O40  1  0.43623055  0.09215466  0.64025797  1
  O  O41  1  0.43759809  0.41307146  0.34724957  1
  O  O42  1  0.43313639  0.15626450  0.07926097  1
  O  O43  1  0.43556423  0.34218252  0.91949949  1
  O  O44  1  0.56543397  0.65830968  0.08173222  1
  O  O45  1  0.56744710  0.84318124  0.92161059  1
  O  O46  1  0.56103961  0.58104045  0.65090983  1
  O  O47  1  0.56232938  0.91348153  0.35791478  1
  O  O48  1  0.62869701  0.35500222  0.07182561  1
  O  O49  1  0.63530403  0.14793201  0.93315904  1
  O  O50  1  0.67684176  0.05897327  0.53331428  1
  O  O51  1  0.66702804  0.43717084  0.46870667  1
  O  O52  1  0.64963844  0.22731709  0.33126566  1
  O  O53  1  0.65208121  0.27279787  0.66587438  1
  O  O54  1  0.68926159  0.49867124  0.27145790  1
  O  O55  1  0.67677089  0.00274072  0.73262056  1
  O  O56  1  0.81879381  -0.00373580  0.23183277  1
  O  O57  1  0.82708130  0.50789938  0.76418914  1
  O  O58  1  0.85298889  0.72671744  0.16511472  1
  O  O59  1  0.85352300  0.77459155  0.83343906  1
  O  O60  1  0.81900582  0.55612455  0.96401396  1
  O  O61  1  0.82496097  0.94274040  0.03402748  1
  O  O62  1  0.86037342  0.64694772  0.56492187  1
  O  O63  1  0.86923084  0.85751760  0.43166898  1
  O  O64  1  0.93655670  0.08939664  0.85751638  1
  O  O65  1  0.93425014  0.40862406  0.13853917  1
  O  O66  1  0.93771665  0.15585459  0.41823858  1
  O  O67  1  0.93103568  0.34358440  0.57470567  1
