# generated using pymatgen
data_YCu2
_symmetry_space_group_name_H-M   'P 1'
_cell_length_a   5.27229997
_cell_length_b   5.27229997
_cell_length_c   8.40739228
_cell_angle_alpha   90.00000000
_cell_angle_beta   90.00000000
_cell_angle_gamma   119.75643464
_symmetry_Int_Tables_number   1
_chemical_formula_structural   YCu2
_chemical_formula_sum   'Y4 Cu8'
_cell_volume   202.88635658
_cell_formula_units_Z   4
loop_
 _symmetry_equiv_pos_site_id
 _symmetry_equiv_pos_as_xyz
  1  'x, y, z'
loop_
 _atom_site_type_symbol
 _atom_site_label
 _atom_site_symmetry_multiplicity
 _atom_site_fract_x
 _atom_site_fract_y
 _atom_site_fract_z
 _atom_site_occupancy
  Y  Y0  1  0.66679760  0.33320240  0.55756910  1
  Y  Y1  1  0.33320240  0.66679760  0.44243090  1
  Y  Y2  1  0.33320240  0.66679760  0.05756910  1
  Y  Y3  1  0.66679760  0.33320240  0.94243090  1
  Cu  Cu4  1  -0.00000000  0.00000000  0.50000000  1
  Cu  Cu5  1  -0.00000000  0.00000000  -0.00000000  1
  Cu  Cu6  1  0.16539866  0.33129788  0.75000000  1
  Cu  Cu7  1  0.16547821  0.83452179  0.75000000  1
  Cu  Cu8  1  0.66870212  0.83460134  0.75000000  1
  Cu  Cu9  1  0.83460134  0.66870212  0.25000000  1
  Cu  Cu10  1  0.83452179  0.16547821  0.25000000  1
  Cu  Cu11  1  0.33129788  0.16539866  0.25000000  1
