# generated using pymatgen
data_NaFe12O19
_symmetry_space_group_name_H-M   'P 1'
_cell_length_a   5.97566870
_cell_length_b   5.97597208
_cell_length_c   23.22133609
_cell_angle_alpha   90.01098849
_cell_angle_beta   90.01289260
_cell_angle_gamma   119.97226840
_symmetry_Int_Tables_number   1
_chemical_formula_structural   NaFe12O19
_chemical_formula_sum   'Na2 Fe24 O38'
_cell_volume   718.34680019
_cell_formula_units_Z   2
loop_
 _symmetry_equiv_pos_site_id
 _symmetry_equiv_pos_as_xyz
  1  'x, y, z'
loop_
 _atom_site_type_symbol
 _atom_site_label
 _atom_site_symmetry_multiplicity
 _atom_site_fract_x
 _atom_site_fract_y
 _atom_site_fract_z
 _atom_site_occupancy
  Na  Na0  1  0.33338673  0.66687164  0.74702647  1
  Na  Na1  1  0.66517482  0.33082350  0.24990978  1
  Fe  Fe2  1  0.16831616  0.83173931  0.88915571  1
  Fe  Fe3  1  0.16829062  0.83176198  0.60868338  1
  Fe  Fe4  1  0.33366212  0.66765001  0.19259623  1
  Fe  Fe5  1  0.33339053  0.66679344  0.02844895  1
  Fe  Fe6  1  0.33296421  0.66587424  0.30938444  1
  Fe  Fe7  1  0.00000333  0.00000070  0.00032116  1
  Fe  Fe8  1  0.00015354  0.00043798  0.25335136  1
  Fe  Fe9  1  -0.00007675  -0.00020230  0.49977032  1
  Fe  Fe10  1  0.16828019  0.33656297  0.60888534  1
  Fe  Fe11  1  0.33411829  0.66782796  0.47033906  1
  Fe  Fe12  1  -0.00000638  0.00000114  0.74756093  1
  Fe  Fe13  1  0.16837032  0.33664937  0.88921275  1
  Fe  Fe14  1  0.66344478  0.83170425  0.88916780  1
  Fe  Fe15  1  0.66341631  0.83173669  0.60870698  1
  Fe  Fe16  1  0.33659869  0.16880337  0.11135070  1
  Fe  Fe17  1  0.33690708  0.16815674  0.39124689  1
  Fe  Fe18  1  0.83192178  0.66401512  0.11123113  1
  Fe  Fe19  1  0.66675241  0.33359748  0.68993516  1
  Fe  Fe20  1  0.66653124  0.33298286  0.80691310  1
  Fe  Fe21  1  0.83179374  0.66310670  0.39079844  1
  Fe  Fe22  1  0.66666990  0.33340272  0.97191878  1
  Fe  Fe23  1  0.66679836  0.33342058  0.52869064  1
  Fe  Fe24  1  0.83197397  0.16873980  0.11133641  1
  Fe  Fe25  1  0.83143147  0.16790494  0.39115436  1
  O  O26  1  0.15500119  0.84525492  0.05418547  1
  O  O27  1  0.15298160  0.84403008  0.44662236  1
  O  O28  1  0.99366718  0.49609979  0.35080771  1
  O  O29  1  0.00356018  0.50142004  0.84848349  1
  O  O30  1  0.99480781  0.49829551  0.15175391  1
  O  O31  1  0.00420267  0.50255447  0.64921057  1
  O  O32  1  0.18341922  0.81670092  0.25216610  1
  O  O33  1  0.33345948  0.66701972  0.94408315  1
  O  O34  1  0.33357145  0.66704793  0.55447857  1
  O  O35  1  0.00020518  0.00061457  0.15450455  1
  O  O36  1  0.15510484  0.31020016  0.05425571  1
  O  O37  1  -0.00062091  -0.00166801  0.34763109  1
  O  O38  1  0.00008340  0.00024731  0.65270232  1
  O  O39  1  0.18423789  0.36765040  0.25170090  1
  O  O40  1  0.99986819  0.99971782  0.84592649  1
  O  O41  1  0.15442458  0.30879775  0.44738327  1
  O  O42  1  0.63346775  0.81722284  0.25222644  1
  O  O43  1  0.30840483  0.15386577  0.55233570  1
  O  O44  1  0.30948285  0.15497102  0.94624938  1
  O  O45  1  0.50216560  0.49665641  0.35100207  1
  O  O46  1  0.50331277  0.49843436  0.15174148  1
  O  O47  1  0.49793800  0.50141255  0.84848732  1
  O  O48  1  0.49820898  0.50256217  0.64922856  1
  O  O49  1  0.69136917  0.84410132  0.44663224  1
  O  O50  1  0.69019119  0.84521948  0.05417804  1
  O  O51  1  0.36812615  0.18395752  0.74847241  1
  O  O52  1  0.50329920  0.00681064  0.15204453  1
  O  O53  1  0.50107095  0.00238888  0.35144785  1
  O  O54  1  0.49818872  0.99653542  0.64905247  1
  O  O55  1  0.84513203  0.69034554  0.94616806  1
  O  O56  1  0.49802961  0.99598668  0.84847765  1
  O  O57  1  0.66811107  0.33580651  0.44515894  1
  O  O58  1  0.66656156  0.33315037  0.05615218  1
  O  O59  1  0.84599429  0.69193272  0.55232889  1
  O  O60  1  0.81591442  0.63181074  0.74852272  1
  O  O61  1  0.81584195  0.18397641  0.74847674  1
  O  O62  1  0.84550904  0.15376752  0.55236402  1
  O  O63  1  0.84544049  0.15493758  0.94626141  1
