# generated using pymatgen
data_VOF2
_symmetry_space_group_name_H-M   'P 1'
_cell_length_a   3.63688877
_cell_length_b   5.30080594
_cell_length_c   3.09457375
_cell_angle_alpha   72.30630994
_cell_angle_beta   90.00000000
_cell_angle_gamma   69.93715423
_symmetry_Int_Tables_number   1
_chemical_formula_structural   VOF2
_chemical_formula_sum   'V1 O1 F2'
_cell_volume   53.02380570
_cell_formula_units_Z   1
loop_
 _symmetry_equiv_pos_site_id
 _symmetry_equiv_pos_as_xyz
  1  'x, y, z'
loop_
 _atom_site_type_symbol
 _atom_site_label
 _atom_site_symmetry_multiplicity
 _atom_site_fract_x
 _atom_site_fract_y
 _atom_site_fract_z
 _atom_site_occupancy
  V  V0  1  0.00000000  0.00000000  0.00000000  1
  O  O1  1  0.50000000  0.00000000  0.00000000  1
  F  F2  1  0.86635500  0.26729101  0.36080722  1
  F  F3  1  0.13364500  0.73270899  0.63919278  1
