# generated using pymatgen
data_Ag(Mo3Se4)2
_symmetry_space_group_name_H-M   'P 1'
_cell_length_a   6.81396196
_cell_length_b   6.81396196
_cell_length_c   6.81396181
_cell_angle_alpha   92.01114015
_cell_angle_beta   92.01114015
_cell_angle_gamma   92.01114271
_symmetry_Int_Tables_number   1
_chemical_formula_structural   Ag(Mo3Se4)2
_chemical_formula_sum   'Ag1 Mo6 Se8'
_cell_volume   315.77407928
_cell_formula_units_Z   1
loop_
 _symmetry_equiv_pos_site_id
 _symmetry_equiv_pos_as_xyz
  1  'x, y, z'
loop_
 _atom_site_type_symbol
 _atom_site_label
 _atom_site_symmetry_multiplicity
 _atom_site_fract_x
 _atom_site_fract_y
 _atom_site_fract_z
 _atom_site_occupancy
  Ag  Ag0  1  0.00000000  -0.00000000  0.00000000  1
  Mo  Mo1  1  0.58614385  0.76946322  0.44975668  1
  Mo  Mo2  1  0.76946322  0.44975668  0.58614385  1
  Mo  Mo3  1  0.44975668  0.58614385  0.76946322  1
  Mo  Mo4  1  0.41385615  0.23053678  0.55024332  1
  Mo  Mo5  1  0.23053678  0.55024332  0.41385615  1
  Mo  Mo6  1  0.55024332  0.41385615  0.23053678  1
  Se  Se7  1  0.77782998  0.77782998  0.77782998  1
  Se  Se8  1  0.22217002  0.22217002  0.22217002  1
  Se  Se9  1  0.61752373  0.26341873  0.87255178  1
  Se  Se10  1  0.26341873  0.87255178  0.61752373  1
  Se  Se11  1  0.87255178  0.61752373  0.26341873  1
  Se  Se12  1  0.38247627  0.73658127  0.12744822  1
  Se  Se13  1  0.73658127  0.12744822  0.38247627  1
  Se  Se14  1  0.12744822  0.38247627  0.73658127  1
