# generated using pymatgen
data_Ti3Co2Sb(PO4)6
_symmetry_space_group_name_H-M   'P 1'
_cell_length_a   8.65275126
_cell_length_b   8.78384937
_cell_length_c   8.78384905
_cell_angle_alpha   60.00000474
_cell_angle_beta   59.49752964
_cell_angle_gamma   59.49753524
_symmetry_Int_Tables_number   1
_chemical_formula_structural   Ti3Co2Sb(PO4)6
_chemical_formula_sum   'Ti3 Co2 Sb1 P6 O24'
_cell_volume   468.45568018
_cell_formula_units_Z   1
loop_
 _symmetry_equiv_pos_site_id
 _symmetry_equiv_pos_as_xyz
  1  'x, y, z'
loop_
 _atom_site_type_symbol
 _atom_site_label
 _atom_site_symmetry_multiplicity
 _atom_site_fract_x
 _atom_site_fract_y
 _atom_site_fract_z
 _atom_site_occupancy
  Ti  Ti0  1  0.06770189  0.64409937  0.64409937  1
  Ti  Ti1  1  0.43074054  0.85641982  0.85641982  1
  Ti  Ti2  1  0.93287920  0.35570727  0.35570727  1
  Co  Co3  1  0.00180224  0.99939859  0.99939859  1
  Co  Co4  1  0.49748522  0.50083826  0.50083826  1
  Sb  Sb5  1  0.56381470  0.14539543  0.14539543  1
  P  P6  1  0.24532994  0.24824398  0.55720596  1
  P  P7  1  0.24532994  0.94921912  0.24824398  1
  P  P8  1  0.24532994  0.55720596  0.94921912  1
  P  P9  1  0.75361495  0.46595842  0.04250930  1
  P  P10  1  0.75361495  0.04250930  0.73791833  1
  P  P11  1  0.75361495  0.73791833  0.46595842  1
  O  O12  1  0.07842622  0.12232670  0.30467303  1
  O  O13  1  0.07842622  0.49457305  0.12232670  1
  O  O14  1  0.07842622  0.30467303  0.49457305  1
  O  O15  1  0.22447733  0.08662416  0.74788449  1
  O  O16  1  0.43782938  0.18752202  0.41275622  1
  O  O17  1  0.24564720  0.41047280  0.58382295  1
  O  O18  1  0.22447733  0.94101302  0.08662416  1
  O  O19  1  0.24564720  0.76005705  0.41047280  1
  O  O20  1  0.56950080  0.62301067  0.99878595  1
  O  O21  1  0.24564720  0.58382295  0.76005705  1
  O  O22  1  0.78931149  0.27510339  0.04292049  1
  O  O23  1  0.56950080  0.99878595  0.80870158  1
  O  O24  1  0.43782938  0.96189238  0.18752202  1
  O  O25  1  0.22447733  0.74788449  0.94101302  1
  O  O26  1  0.73414508  0.44824015  0.23674769  1
  O  O27  1  0.43782938  0.41275622  0.96189238  1
  O  O28  1  0.73414508  0.23674769  0.58086709  1
  O  O29  1  0.78931149  0.04292049  0.89266563  1
  O  O30  1  0.73414508  0.58086709  0.44824015  1
  O  O31  1  0.56950080  0.80870158  0.62301067  1
  O  O32  1  0.78931149  0.89266563  0.27510339  1
  O  O33  1  0.92357734  0.65883580  0.52867568  1
  O  O34  1  0.92357734  0.52867568  0.88891118  1
  O  O35  1  0.92357734  0.88891118  0.65883580  1
