# generated using pymatgen
data_VCo(PO4)2
_symmetry_space_group_name_H-M   'P 1'
_cell_length_a   8.53781516
_cell_length_b   8.62265329
_cell_length_c   8.62265302
_cell_angle_alpha   59.99999833
_cell_angle_beta   59.67074357
_cell_angle_gamma   59.67074095
_symmetry_Int_Tables_number   1
_chemical_formula_structural   VCo(PO4)2
_chemical_formula_sum   'V3 Co3 P6 O24'
_cell_volume   446.61590942
_cell_formula_units_Z   3
loop_
 _symmetry_equiv_pos_site_id
 _symmetry_equiv_pos_as_xyz
  1  'x, y, z'
loop_
 _atom_site_type_symbol
 _atom_site_label
 _atom_site_symmetry_multiplicity
 _atom_site_fract_x
 _atom_site_fract_y
 _atom_site_fract_z
 _atom_site_occupancy
  V  V0  1  0.06768996  0.64410335  0.64410335  1
  V  V1  1  0.42773098  0.85742267  0.85742267  1
  V  V2  1  0.93203494  0.35598869  0.35598869  1
  Co  Co3  1  0.99077427  0.00307491  0.00307491  1
  Co  Co4  1  0.56814784  0.14395039  0.14395039  1
  Co  Co5  1  0.49903904  0.50032065  0.50032065  1
  P  P6  1  0.25114696  0.24834218  0.54259385  1
  P  P7  1  0.25114696  0.95791701  0.24834218  1
  P  P8  1  0.25114696  0.54259385  0.95791701  1
  P  P9  1  0.75135354  0.45727710  0.04095125  1
  P  P10  1  0.75135354  0.04095125  0.75041712  1
  P  P11  1  0.75135354  0.75041712  0.45727710  1
  O  O12  1  0.06620862  0.12017537  0.30853858  1
  O  O13  1  0.06620862  0.50507644  0.12017537  1
  O  O14  1  0.06620862  0.30853858  0.50507644  1
  O  O15  1  0.23161061  0.08669206  0.74027333  1
  O  O16  1  0.43525090  0.19105198  0.38601552  1
  O  O17  1  0.25856847  0.41413089  0.56431466  1
  O  O18  1  0.23161061  0.94142499  0.08669206  1
  O  O19  1  0.25856847  0.76298598  0.41413089  1
  O  O20  1  0.56764750  0.61842390  0.00350835  1
  O  O21  1  0.25856847  0.56431466  0.76298598  1
  O  O22  1  0.77422531  0.26336871  0.05269691  1
  O  O23  1  0.56764750  0.00350835  0.81042025  1
  O  O24  1  0.43525090  0.98768160  0.19105198  1
  O  O25  1  0.23161061  0.74027333  0.94142499  1
  O  O26  1  0.73556696  0.44468061  0.23535027  1
  O  O27  1  0.43525090  0.38601552  0.98768160  1
  O  O28  1  0.73556696  0.23535027  0.58440216  1
  O  O29  1  0.77422531  0.05269691  0.90971008  1
  O  O30  1  0.73556696  0.58440216  0.44468061  1
  O  O31  1  0.56764750  0.81042025  0.61842390  1
  O  O32  1  0.77422531  0.90971008  0.26336871  1
  O  O33  1  0.93328279  0.68229770  0.50235787  1
  O  O34  1  0.93328279  0.50235787  0.88206264  1
  O  O35  1  0.93328279  0.88206264  0.68229770  1
