# generated using pymatgen
data_NaV2O5
_symmetry_space_group_name_H-M   'P 1'
_cell_length_a   11.32932017
_cell_length_b   3.71284420
_cell_length_c   6.52949681
_cell_angle_alpha   90.00000000
_cell_angle_beta   90.00000000
_cell_angle_gamma   90.00000000
_symmetry_Int_Tables_number   1
_chemical_formula_structural   NaV2O5
_chemical_formula_sum   'Na2 V4 O10'
_cell_volume   274.65675828
_cell_formula_units_Z   2
loop_
 _symmetry_equiv_pos_site_id
 _symmetry_equiv_pos_as_xyz
  1  'x, y, z'
loop_
 _atom_site_type_symbol
 _atom_site_label
 _atom_site_symmetry_multiplicity
 _atom_site_fract_x
 _atom_site_fract_y
 _atom_site_fract_z
 _atom_site_occupancy
  Na  Na0  1  0.00000000  0.50000000  0.59303753  1
  Na  Na1  1  0.50000000  -0.00000000  0.40696247  1
  V  V2  1  0.15122009  -0.00000000  0.92003689  1
  V  V3  1  0.34877991  0.50000000  0.07996311  1
  V  V4  1  0.65122009  0.50000000  0.07996311  1
  V  V5  1  0.84877991  -0.00000000  0.92003689  1
  O  O6  1  0.00000000  0.00000000  0.01530447  1
  O  O7  1  0.13427899  0.00000000  0.66645294  1
  O  O8  1  0.18113312  0.50000000  0.99170459  1
  O  O9  1  0.31886688  0.00000000  0.00829541  1
  O  O10  1  0.36572101  0.50000000  0.33354706  1
  O  O11  1  0.50000000  0.50000000  0.98469553  1
  O  O12  1  0.63427899  0.50000000  0.33354706  1
  O  O13  1  0.68113312  -0.00000000  0.00829541  1
  O  O14  1  0.81886688  0.50000000  0.99170459  1
  O  O15  1  0.86572101  -0.00000000  0.66645294  1
