# generated using pymatgen
data_Sn4P2O9
_symmetry_space_group_name_H-M   'P 1'
_cell_length_a   9.20339202
_cell_length_b   9.16065122
_cell_length_c   7.02746476
_cell_angle_alpha   66.12556822
_cell_angle_beta   79.59564802
_cell_angle_gamma   94.96493982
_symmetry_Int_Tables_number   1
_chemical_formula_structural   Sn4P2O9
_chemical_formula_sum   'Sn8 P4 O18'
_cell_volume   524.41406506
_cell_formula_units_Z   2
loop_
 _symmetry_equiv_pos_site_id
 _symmetry_equiv_pos_as_xyz
  1  'x, y, z'
loop_
 _atom_site_type_symbol
 _atom_site_label
 _atom_site_symmetry_multiplicity
 _atom_site_fract_x
 _atom_site_fract_y
 _atom_site_fract_z
 _atom_site_occupancy
  Sn  Sn0  1  0.09055684  0.24465234  0.11999543  1
  Sn  Sn1  1  0.08588573  0.28191077  0.59798451  1
  Sn  Sn2  1  0.35538945  0.56034764  0.66873525  1
  Sn  Sn3  1  0.37233243  0.01768599  0.84733485  1
  Sn  Sn4  1  0.62766757  0.98231401  0.15266515  1
  Sn  Sn5  1  0.64461055  0.43965236  0.33126475  1
  Sn  Sn6  1  0.91411427  0.71808923  0.40201549  1
  Sn  Sn7  1  0.90944316  0.75534766  0.88000457  1
  P  P8  1  0.25776801  0.90408289  0.48076516  1
  P  P9  1  0.23815683  0.61624487  0.13877796  1
  P  P10  1  0.76184317  0.38375513  0.86122204  1
  P  P11  1  0.74223199  0.09591711  0.51923484  1
  O  O12  1  0.08415710  0.67754480  0.14496643  1
  O  O13  1  0.18565123  0.71866678  0.61880952  1
  O  O14  1  0.18266375  0.98098030  0.29487879  1
  O  O15  1  0.25032192  0.52128651  0.37480390  1
  O  O16  1  0.37405244  0.75449637  0.00719521  1
  O  O17  1  0.23624861  0.99312465  0.63252209  1
  O  O18  1  0.42815313  0.90527048  0.40751952  1
  O  O19  1  0.23857160  0.49486990  0.03124542  1
  O  O20  1  0.21905224  0.31449249  0.79945350  1
  O  O21  1  0.78094776  0.68550751  0.20054650  1
  O  O22  1  0.76142840  0.50513010  0.96875458  1
  O  O23  1  0.57184687  0.09472952  0.59248048  1
  O  O24  1  0.76375139  0.00687535  0.36747791  1
  O  O25  1  0.62594756  0.24550363  0.99280479  1
  O  O26  1  0.74967808  0.47871349  0.62519610  1
  O  O27  1  0.81733625  0.01901970  0.70512121  1
  O  O28  1  0.81434877  0.28133322  0.38119048  1
  O  O29  1  0.91584290  0.32245520  0.85503357  1
