# generated using pymatgen
data_NaCaSiO4
_symmetry_space_group_name_H-M   'P 1'
_cell_length_a   5.42326548
_cell_length_b   5.42326548
_cell_length_c   7.20702075
_cell_angle_alpha   90.00000000
_cell_angle_beta   90.00000000
_cell_angle_gamma   116.54021921
_symmetry_Int_Tables_number   1
_chemical_formula_structural   NaCaSiO4
_chemical_formula_sum   'Na2 Ca2 Si2 O8'
_cell_volume   189.63415306
_cell_formula_units_Z   2
loop_
 _symmetry_equiv_pos_site_id
 _symmetry_equiv_pos_as_xyz
  1  'x, y, z'
loop_
 _atom_site_type_symbol
 _atom_site_label
 _atom_site_symmetry_multiplicity
 _atom_site_fract_x
 _atom_site_fract_y
 _atom_site_fract_z
 _atom_site_occupancy
  Na  Na0  1  0.68181542  0.31818458  0.75000000  1
  Na  Na1  1  0.31818458  0.68181542  0.25000000  1
  Ca  Ca2  1  0.00372711  0.00372711  0.50000000  1
  Ca  Ca3  1  -0.00372711  -0.00372711  -0.00000000  1
  Si  Si4  1  0.35555183  0.64444817  0.75000000  1
  Si  Si5  1  0.64444817  0.35555183  0.25000000  1
  O  O6  1  0.22018767  0.30711656  0.75568187  1
  O  O7  1  0.30711656  0.22018767  0.24431813  1
  O  O8  1  0.77981233  0.69288344  0.25568187  1
  O  O9  1  0.69288344  0.77981233  0.74431813  1
  O  O10  1  0.23004011  0.72603722  0.56257185  1
  O  O11  1  0.72603722  0.23004011  0.43742815  1
  O  O12  1  0.76995989  0.27396278  0.06257185  1
  O  O13  1  0.27396278  0.76995989  0.93742815  1
