# generated using pymatgen
data_K2YInCl6
_symmetry_space_group_name_H-M   'P 1'
_cell_length_a   8.02297861
_cell_length_b   8.02297901
_cell_length_c   8.02297898
_cell_angle_alpha   59.99999873
_cell_angle_beta   59.99999816
_cell_angle_gamma   59.99999825
_symmetry_Int_Tables_number   1
_chemical_formula_structural   K2YInCl6
_chemical_formula_sum   'K2 Y1 In1 Cl6'
_cell_volume   365.16734238
_cell_formula_units_Z   1
loop_
 _symmetry_equiv_pos_site_id
 _symmetry_equiv_pos_as_xyz
  1  'x, y, z'
loop_
 _atom_site_type_symbol
 _atom_site_label
 _atom_site_symmetry_multiplicity
 _atom_site_fract_x
 _atom_site_fract_y
 _atom_site_fract_z
 _atom_site_occupancy
  K  K0  1  0.25000000  0.25000000  0.25000000  1
  K  K1  1  0.75000000  0.75000000  0.75000000  1
  Y  Y2  1  -0.00000000  -0.00000000  -0.00000000  1
  In  In3  1  0.50000000  0.50000000  0.50000000  1
  Cl  Cl4  1  0.23252328  0.76747672  0.23252328  1
  Cl  Cl5  1  0.76747672  0.76747672  0.23252328  1
  Cl  Cl6  1  0.76747672  0.23252328  0.76747672  1
  Cl  Cl7  1  0.76747672  0.23252328  0.23252328  1
  Cl  Cl8  1  0.23252328  0.76747672  0.76747672  1
  Cl  Cl9  1  0.23252328  0.23252328  0.76747672  1
