# generated using pymatgen
data_Fe2O3
_symmetry_space_group_name_H-M   'P 1'
_cell_length_a   14.68425095
_cell_length_b   5.35504883
_cell_length_c   7.80977064
_cell_angle_alpha   131.67234597
_cell_angle_beta   160.07180265
_cell_angle_gamma   44.99100780
_symmetry_Int_Tables_number   1
_chemical_formula_structural   Fe2O3
_chemical_formula_sum   'Fe4 O6'
_cell_volume   147.98707265
_cell_formula_units_Z   2
loop_
 _symmetry_equiv_pos_site_id
 _symmetry_equiv_pos_as_xyz
  1  'x, y, z'
loop_
 _atom_site_type_symbol
 _atom_site_label
 _atom_site_symmetry_multiplicity
 _atom_site_fract_x
 _atom_site_fract_y
 _atom_site_fract_z
 _atom_site_occupancy
  Fe  Fe0  1  0.57774477  0.10514019  0.50515846  1
  Fe  Fe1  1  0.42225523  0.89485981  0.49484154  1
  Fe  Fe2  1  0.07258631  0.60514019  0.49484154  1
  Fe  Fe3  1  0.92741369  0.39485981  0.50515846  1
  O  O4  1  0.25110204  0.99687329  -0.00268431  1
  O  O5  1  0.23728373  0.25000000  0.47456745  1
  O  O6  1  0.74621366  0.50312671  -0.00268431  1
  O  O7  1  0.74889796  0.00312671  0.00268431  1
  O  O8  1  0.76271627  0.75000000  0.52543255  1
  O  O9  1  0.25378634  0.49687329  0.00268431  1
