# generated using pymatgen
data_K2ScAuBr6
_symmetry_space_group_name_H-M   'P 1'
_cell_length_a   7.77905743
_cell_length_b   7.77905778
_cell_length_c   7.77905777
_cell_angle_alpha   59.99999884
_cell_angle_beta   59.99999831
_cell_angle_gamma   59.99999834
_symmetry_Int_Tables_number   1
_chemical_formula_structural   K2ScAuBr6
_chemical_formula_sum   'K2 Sc1 Au1 Br6'
_cell_volume   332.86333427
_cell_formula_units_Z   1
loop_
 _symmetry_equiv_pos_site_id
 _symmetry_equiv_pos_as_xyz
  1  'x, y, z'
loop_
 _atom_site_type_symbol
 _atom_site_label
 _atom_site_symmetry_multiplicity
 _atom_site_fract_x
 _atom_site_fract_y
 _atom_site_fract_z
 _atom_site_occupancy
  K  K0  1  0.25000000  0.25000000  0.25000000  1
  K  K1  1  0.75000000  0.75000000  0.75000000  1
  Sc  Sc2  1  -0.00000000  0.00000000  -0.00000000  1
  Au  Au3  1  0.50000000  0.50000000  0.50000000  1
  Br  Br4  1  0.24208683  0.75791317  0.24208683  1
  Br  Br5  1  0.75791317  0.75791317  0.24208683  1
  Br  Br6  1  0.75791317  0.24208683  0.75791317  1
  Br  Br7  1  0.75791317  0.24208683  0.24208683  1
  Br  Br8  1  0.24208683  0.75791317  0.75791317  1
  Br  Br9  1  0.24208683  0.24208683  0.75791317  1
