# generated using pymatgen
data_K2CeCuCl6
_symmetry_space_group_name_H-M   'P 1'
_cell_length_a   7.45695454
_cell_length_b   7.45891074
_cell_length_c   7.45779891
_cell_angle_alpha   60.00067805
_cell_angle_beta   59.99157708
_cell_angle_gamma   59.99671600
_symmetry_Int_Tables_number   1
_chemical_formula_structural   K2CeCuCl6
_chemical_formula_sum   'K2 Ce1 Cu1 Cl6'
_cell_volume   293.28940223
_cell_formula_units_Z   1
loop_
 _symmetry_equiv_pos_site_id
 _symmetry_equiv_pos_as_xyz
  1  'x, y, z'
loop_
 _atom_site_type_symbol
 _atom_site_label
 _atom_site_symmetry_multiplicity
 _atom_site_fract_x
 _atom_site_fract_y
 _atom_site_fract_z
 _atom_site_occupancy
  K  K0  1  0.25000015  0.25000101  0.25000005  1
  K  K1  1  0.74999984  0.74999901  0.74999995  1
  Ce  Ce2  1  0.50000001  0.49999999  0.50000000  1
  Cu  Cu3  1  -0.00000000  -0.00000001  -0.00000001  1
  Cl  Cl4  1  0.24042861  0.75956581  0.24043234  1
  Cl  Cl5  1  0.75957394  0.75956602  0.24043163  1
  Cl  Cl6  1  0.75957142  0.24043421  0.75956764  1
  Cl  Cl7  1  0.75957191  0.24043103  0.24042756  1
  Cl  Cl8  1  0.24042809  0.75956893  0.75957246  1
  Cl  Cl9  1  0.24042604  0.24043400  0.75956838  1
