# generated using pymatgen
data_FeH36C12S6(BrO2)3
_symmetry_space_group_name_H-M   'P 1'
_cell_length_a   10.02926099
_cell_length_b   10.03838397
_cell_length_c   10.02921005
_cell_angle_alpha   65.94469889
_cell_angle_beta   65.99180769
_cell_angle_gamma   65.98966485
_symmetry_Int_Tables_number   1
_chemical_formula_structural   FeH36C12S6(BrO2)3
_chemical_formula_sum   'Fe1 H36 C12 S6 Br3 O6'
_cell_volume   806.32298922
_cell_formula_units_Z   1
loop_
 _symmetry_equiv_pos_site_id
 _symmetry_equiv_pos_as_xyz
  1  'x, y, z'
loop_
 _atom_site_type_symbol
 _atom_site_label
 _atom_site_symmetry_multiplicity
 _atom_site_fract_x
 _atom_site_fract_y
 _atom_site_fract_z
 _atom_site_occupancy
  Fe  Fe0  1  -0.00005487  0.00008216  -0.00006865  1
  H  H1  1  0.70819429  0.41627739  0.89730122  1
  H  H2  1  0.41636767  0.89727460  0.70824003  1
  H  H3  1  0.89692608  0.70805891  0.41678479  1
  H  H4  1  0.29178684  0.58371673  0.10275249  1
  H  H5  1  0.58361678  0.10282791  0.29168152  1
  H  H6  1  0.10320170  0.29187037  0.58318261  1
  H  H7  1  0.58360899  0.45301307  0.79096836  1
  H  H8  1  0.45293753  0.79092232  0.58403703  1
  H  H9  1  0.79062213  0.58371668  0.45331588  1
  H  H10  1  0.41632949  0.54701348  0.20912891  1
  H  H11  1  0.54709282  0.20917421  0.41588071  1
  H  H12  1  0.20945561  0.41623320  0.54672698  1
  H  H13  1  0.53839590  0.34987087  0.99287135  1
  H  H14  1  0.35014179  0.99267730  0.53842217  1
  H  H15  1  0.99251458  0.53865676  0.35041584  1
  H  H16  1  0.46154809  0.65012551  0.00721542  1
  H  H17  1  0.64983147  0.00740635  0.46150517  1
  H  H18  1  0.00755640  0.46126081  0.64957929  1
  H  H19  1  0.50098613  0.14444613  0.94911874  1
  H  H20  1  0.14436154  0.94906408  0.50104401  1
  H  H21  1  0.94937137  0.50134669  0.14437792  1
  H  H22  1  0.49895017  0.85559096  0.05094223  1
  H  H23  1  0.85562838  0.05098636  0.49889362  1
  H  H24  1  0.05066812  0.49855394  0.85566708  1
  H  H25  1  0.54577489  0.23111568  0.74384198  1
  H  H26  1  0.23074255  0.74407735  0.54622437  1
  H  H27  1  0.74410688  0.54585073  0.23078786  1
  H  H28  1  0.45413043  0.76887916  0.25622661  1
  H  H29  1  0.76923588  0.25596079  0.45370268  1
  H  H30  1  0.25593925  0.45407050  0.76923532  1
  H  H31  1  0.63999109  0.03193495  0.81951139  1
  H  H32  1  0.03148724  0.81977803  0.64017377  1
  H  H33  1  0.81978842  0.64017933  0.03157532  1
  H  H34  1  0.35996694  0.96806904  0.18053941  1
  H  H35  1  0.96850116  0.18027438  0.35978730  1
  H  H36  1  0.18029021  0.35971624  0.96844558  1
  C  C37  1  0.62984461  0.37298727  0.88634989  1
  C  C38  1  0.37296584  0.88648433  0.63005389  1
  C  C39  1  0.88620404  0.62990991  0.37330087  1
  C  C40  1  0.37010090  0.62705654  0.11367386  1
  C  C41  1  0.62701694  0.11360200  0.36986938  1
  C  C42  1  0.11389868  0.37002929  0.62667878  1
  C  C43  1  0.58965155  0.14491186  0.83919059  1
  C  C44  1  0.14456374  0.83938480  0.58990782  1
  C  C45  1  0.83943745  0.58986426  0.14464636  1
  C  C46  1  0.41024540  0.85517449  0.16081173  1
  C  C47  1  0.85543817  0.16065881  0.41003217  1
  C  C48  1  0.16063853  0.41005003  0.85538429  1
  S  S49  1  0.73934644  0.19879423  0.83761662  1
  S  S50  1  0.19842984  0.83796648  0.73955210  1
  S  S51  1  0.83760110  0.73935787  0.19876645  1
  S  S52  1  0.26063478  0.80121920  0.16238845  1
  S  S53  1  0.80156507  0.16208745  0.26040049  1
  S  S54  1  0.16242191  0.26054595  0.80127625  1
  Br  Br55  1  0.24500052  0.24444200  0.24462869  1
  Br  Br56  1  0.75500724  0.75549820  0.75534231  1
  Br  Br57  1  0.49995346  0.49996337  0.50000711  1
  O  O58  1  0.78313299  0.08557697  0.98493501  1
  O  O59  1  0.08538260  0.98499043  0.78308299  1
  O  O60  1  0.98461461  0.78331768  0.08561942  1
  O  O61  1  0.21679719  0.91439667  0.01515382  1
  O  O62  1  0.91460686  0.01498120  0.21692814  1
  O  O63  1  0.01540561  0.21667574  0.91436620  1
