# generated using pymatgen
data_Cu3As4(OF)6
_symmetry_space_group_name_H-M   'P 1'
_cell_length_a   6.98321210
_cell_length_b   6.98335939
_cell_length_c   6.98330660
_cell_angle_alpha   109.51629030
_cell_angle_beta   109.48945584
_cell_angle_gamma   109.40811148
_symmetry_Int_Tables_number   1
_chemical_formula_structural   Cu3As4(OF)6
_chemical_formula_sum   'Cu3 As4 O6 F6'
_cell_volume   262.15459964
_cell_formula_units_Z   1
loop_
 _symmetry_equiv_pos_site_id
 _symmetry_equiv_pos_as_xyz
  1  'x, y, z'
loop_
 _atom_site_type_symbol
 _atom_site_label
 _atom_site_symmetry_multiplicity
 _atom_site_fract_x
 _atom_site_fract_y
 _atom_site_fract_z
 _atom_site_occupancy
  Cu  Cu0  1  -0.00000152  0.50000206  0.50000211  1
  Cu  Cu1  1  0.49999874  0.99999701  0.49999696  1
  Cu  Cu2  1  0.49999904  0.49999778  0.99999768  1
  As  As3  1  0.29533040  0.29534381  0.29537859  1
  As  As4  1  -0.00003341  0.99994670  0.70463322  1
  As  As5  1  0.00003804  0.70466913  -0.00001692  1
  As  As6  1  0.70466781  0.00005054  0.00001442  1
  O  O7  1  -0.00000346  0.24190722  0.24190610  1
  O  O8  1  0.75865475  0.99999175  0.75866080  1
  O  O9  1  0.75825236  0.75825741  0.99999372  1
  O  O10  1  0.00000161  0.75808983  0.75809196  1
  O  O11  1  0.24134374  0.00000294  0.24133345  1
  O  O12  1  0.24174801  0.24173853  0.00000186  1
  F  F13  1  0.24982759  0.74981801  0.50001024  1
  F  F14  1  0.50000344  0.74984270  0.24984625  1
  F  F15  1  0.74968776  0.49999692  0.24969823  1
  F  F16  1  0.75017228  0.25018473  0.49999527  1
  F  F17  1  0.25031295  0.50000872  0.75030508  1
  F  F18  1  0.49999986  0.25015422  0.75015099  1
