# generated using pymatgen
data_Ti2Zn2SnO7
_symmetry_space_group_name_H-M   'P 1'
_cell_length_a   6.45027921
_cell_length_b   8.11208590
_cell_length_c   8.11208551
_cell_angle_alpha   61.47189482
_cell_angle_beta   90.00000000
_cell_angle_gamma   90.00000000
_symmetry_Int_Tables_number   1
_chemical_formula_structural   Ti2Zn2SnO7
_chemical_formula_sum   'Ti4 Zn4 Sn2 O14'
_cell_volume   372.92916112
_cell_formula_units_Z   2
loop_
 _symmetry_equiv_pos_site_id
 _symmetry_equiv_pos_as_xyz
  1  'x, y, z'
loop_
 _atom_site_type_symbol
 _atom_site_label
 _atom_site_symmetry_multiplicity
 _atom_site_fract_x
 _atom_site_fract_y
 _atom_site_fract_z
 _atom_site_occupancy
  Ti  Ti0  1  0.87829558  0.30456901  0.93017973  1
  Ti  Ti1  1  0.87829558  0.06982027  0.69543099  1
  Ti  Ti2  1  0.37829558  0.69543099  0.06982027  1
  Ti  Ti3  1  0.37829558  0.93017973  0.30456901  1
  Zn  Zn4  1  0.62532956  0.70704198  0.70464170  1
  Zn  Zn5  1  0.62532956  0.29535830  0.29295802  1
  Zn  Zn6  1  0.12532956  0.29295802  0.29535830  1
  Zn  Zn7  1  0.12532956  0.70464170  0.70704198  1
  Sn  Sn8  1  0.38293233  0.25421353  0.74578647  1
  Sn  Sn9  1  0.88293233  0.74578647  0.25421353  1
  O  O10  1  0.87578413  0.07503733  0.92496267  1
  O  O11  1  0.37578413  0.92496267  0.07503733  1
  O  O12  1  0.64762243  0.43176868  0.80437483  1
  O  O13  1  0.64762243  0.19562517  0.56823132  1
  O  O14  1  0.14762243  0.56823132  0.19562517  1
  O  O15  1  0.14762243  0.80437483  0.43176868  1
  O  O16  1  0.11144422  0.42885011  0.81021178  1
  O  O17  1  0.11144422  0.18978822  0.57114989  1
  O  O18  1  0.61144422  0.57114989  0.18978822  1
  O  O19  1  0.61144422  0.81021178  0.42885011  1
  O  O20  1  0.87594998  0.25172919  0.17817226  1
  O  O21  1  0.87594998  0.82182774  0.74827081  1
  O  O22  1  0.37594998  0.74827081  0.82182774  1
  O  O23  1  0.37594998  0.17817226  0.25172919  1
