# generated using pymatgen
data_Ba2NiRuO6
_symmetry_space_group_name_H-M   'P 1'
_cell_length_a   5.78239725
_cell_length_b   5.78303388
_cell_length_c   19.29759230
_cell_angle_alpha   90.00000000
_cell_angle_beta   90.00000000
_cell_angle_gamma   119.94313448
_symmetry_Int_Tables_number   1
_chemical_formula_structural   Ba2NiRuO6
_chemical_formula_sum   'Ba8 Ni4 Ru4 O24'
_cell_volume   559.17274027
_cell_formula_units_Z   4
loop_
 _symmetry_equiv_pos_site_id
 _symmetry_equiv_pos_as_xyz
  1  'x, y, z'
loop_
 _atom_site_type_symbol
 _atom_site_label
 _atom_site_symmetry_multiplicity
 _atom_site_fract_x
 _atom_site_fract_y
 _atom_site_fract_z
 _atom_site_occupancy
  Ba  Ba0  1  0.66834950  0.33162476  0.61821764  1
  Ba  Ba1  1  0.66375337  0.33623848  0.25000000  1
  Ba  Ba2  1  0.33624663  0.66376152  0.75000000  1
  Ba  Ba3  1  0.00000000  0.00000000  0.50000000  1
  Ba  Ba4  1  0.33165050  0.66837524  0.11821764  1
  Ba  Ba5  1  0.33165050  0.66837524  0.38178236  1
  Ba  Ba6  1  0.66834950  0.33162476  0.88178236  1
  Ba  Ba7  1  0.00000000  0.00000000  -0.00000000  1
  Ni  Ni8  1  0.66620331  0.33371795  0.44393066  1
  Ni  Ni9  1  0.33379669  0.66628205  0.55606934  1
  Ni  Ni10  1  0.66620331  0.33371795  0.05606934  1
  Ni  Ni11  1  0.33379669  0.66628205  0.94393066  1
  Ru  Ru12  1  0.00269118  0.99743817  0.67748113  1
  Ru  Ru13  1  0.99730882  0.00256183  0.32251887  1
  Ru  Ru14  1  0.00269118  0.99743817  0.82251887  1
  Ru  Ru15  1  0.99730882  0.00256183  0.17748113  1
  O  O16  1  0.16679241  0.83320256  0.62816406  1
  O  O17  1  0.85386200  0.69982731  0.75000000  1
  O  O18  1  0.16562901  0.32437212  0.87218566  1
  O  O19  1  0.83320759  0.16679744  0.37183594  1
  O  O20  1  0.16562901  0.32437212  0.62781434  1
  O  O21  1  0.50000000  0.00000000  -0.00000000  1
  O  O22  1  0.67560436  0.83434653  0.62783793  1
  O  O23  1  0.14613800  0.30017269  0.25000000  1
  O  O24  1  0.14564219  0.85436040  0.25000000  1
  O  O25  1  0.83437099  0.67562788  0.12781434  1
  O  O26  1  0.30012123  0.14610651  0.75000000  1
  O  O27  1  0.32439564  0.16565347  0.12783793  1
  O  O28  1  0.50000000  0.00000000  0.50000000  1
  O  O29  1  0.69987877  0.85389349  0.25000000  1
  O  O30  1  0.32439564  0.16565347  0.37216207  1
  O  O31  1  0.83320759  0.16679744  0.12816406  1
  O  O32  1  0.83437099  0.67562788  0.37218566  1
  O  O33  1  0.00000000  0.50000000  0.50000000  1
  O  O34  1  0.50000000  0.50000000  0.50000000  1
  O  O35  1  0.67560436  0.83434653  0.87216207  1
  O  O36  1  0.85435781  0.14563960  0.75000000  1
  O  O37  1  -0.00000000  0.50000000  -0.00000000  1
  O  O38  1  0.16679241  0.83320256  0.87183594  1
  O  O39  1  0.50000000  0.50000000  0.00000000  1
