# generated using pymatgen
data_Cs2CeCuCl6
_symmetry_space_group_name_H-M   'P 1'
_cell_length_a   7.55875044
_cell_length_b   7.57061832
_cell_length_c   7.58722529
_cell_angle_alpha   59.83682986
_cell_angle_beta   59.91115613
_cell_angle_gamma   60.27236265
_symmetry_Int_Tables_number   1
_chemical_formula_structural   Cs2CeCuCl6
_chemical_formula_sum   'Cs2 Ce1 Cu1 Cl6'
_cell_volume   307.04478575
_cell_formula_units_Z   1
loop_
 _symmetry_equiv_pos_site_id
 _symmetry_equiv_pos_as_xyz
  1  'x, y, z'
loop_
 _atom_site_type_symbol
 _atom_site_label
 _atom_site_symmetry_multiplicity
 _atom_site_fract_x
 _atom_site_fract_y
 _atom_site_fract_z
 _atom_site_occupancy
  Cs  Cs0  1  0.24999702  0.25058810  0.24950772  1
  Cs  Cs1  1  0.75000281  0.74941242  0.75049218  1
  Ce  Ce2  1  0.49999996  0.50000000  0.49999999  1
  Cu  Cu3  1  -0.00000001  0.00000018  -0.00000012  1
  Cl  Cl4  1  0.24232461  0.75764694  0.24251382  1
  Cl  Cl5  1  0.75939299  0.75957629  0.24053458  1
  Cl  Cl6  1  0.75767546  0.24235283  0.75748628  1
  Cl  Cl7  1  0.75703476  0.24285193  0.24312201  1
  Cl  Cl8  1  0.24296522  0.75714792  0.75687796  1
  Cl  Cl9  1  0.24060717  0.24042339  0.75946558  1
