# generated using pymatgen
data_NaHo2F7
_symmetry_space_group_name_H-M   'P 1'
_cell_length_a   4.24263519
_cell_length_b   5.29569095
_cell_length_c   13.49038333
_cell_angle_alpha   46.59350501
_cell_angle_beta   47.79206636
_cell_angle_gamma   50.73117717
_symmetry_Int_Tables_number   1
_chemical_formula_structural   NaHo2F7
_chemical_formula_sum   'Na1 Ho2 F7'
_cell_volume   154.61942786
_cell_formula_units_Z   1
loop_
 _symmetry_equiv_pos_site_id
 _symmetry_equiv_pos_as_xyz
  1  'x, y, z'
loop_
 _atom_site_type_symbol
 _atom_site_label
 _atom_site_symmetry_multiplicity
 _atom_site_fract_x
 _atom_site_fract_y
 _atom_site_fract_z
 _atom_site_occupancy
  Na  Na0  1  0.08021720  0.08454394  0.99360781  1
  Ho  Ho1  1  0.09661990  0.01087937  0.32195002  1
  Ho  Ho2  1  0.95831964  0.93862891  0.65812701  1
  F  F3  1  0.26765869  0.16509460  0.10515631  1
  F  F4  1  0.43790616  0.00447807  0.39676939  1
  F  F5  1  0.07236261  0.46180894  0.48543174  1
  F  F6  1  0.81531945  0.61761540  0.24922927  1
  F  F7  1  0.28378600  0.33889900  0.72506558  1
  F  F8  1  0.62893004  0.89850652  0.59676023  1
  F  F9  1  0.78088132  0.72954527  0.88456964  1
