# generated using pymatgen
data_Nb23Ir5S56
_symmetry_space_group_name_H-M   'P 1'
_cell_length_a   3.42420729
_cell_length_b   3.42420665
_cell_length_c   160.15518196
_cell_angle_alpha   90.00000000
_cell_angle_beta   90.00000000
_cell_angle_gamma   119.99999933
_symmetry_Int_Tables_number   1
_chemical_formula_structural   Nb23Ir5S56
_chemical_formula_sum   'Nb23 Ir5 S56'
_cell_volume   1626.26623143
_cell_formula_units_Z   1
loop_
 _symmetry_equiv_pos_site_id
 _symmetry_equiv_pos_as_xyz
  1  'x, y, z'
loop_
 _atom_site_type_symbol
 _atom_site_label
 _atom_site_symmetry_multiplicity
 _atom_site_fract_x
 _atom_site_fract_y
 _atom_site_fract_z
 _atom_site_occupancy
  Nb  Nb0  1  -0.00000000  -0.00000000  0.07099350  1
  Nb  Nb1  1  -0.00000000  -0.00000000  0.10706342  1
  Nb  Nb2  1  0.00000000  0.00000000  0.14285238  1
  Nb  Nb3  1  0.00000000  0.00000000  0.17858919  1
  Nb  Nb4  1  0.00000000  0.00000000  0.21430438  1
  Nb  Nb5  1  0.00000000  -0.00000000  0.24999702  1
  Nb  Nb6  1  0.00000000  0.00000000  0.28571978  1
  Nb  Nb7  1  0.00000000  0.00000000  0.32142069  1
  Nb  Nb8  1  0.00000000  0.00000000  0.35714377  1
  Nb  Nb9  1  0.00000000  0.00000000  0.42858523  1
  Nb  Nb10  1  0.00000000  0.00000000  0.46428017  1
  Nb  Nb11  1  0.00000000  0.00000000  0.49999798  1
  Nb  Nb12  1  0.00000000  0.00000000  0.57142797  1
  Nb  Nb13  1  0.00000000  0.00000000  0.64285096  1
  Nb  Nb14  1  0.00000000  0.00000000  0.71434891  1
  Nb  Nb15  1  0.00000000  0.00000000  0.75041457  1
  Nb  Nb16  1  0.00000000  0.00000000  0.82141838  1
  Nb  Nb17  1  0.00000000  0.00000000  0.89285137  1
  Nb  Nb18  1  0.00000000  0.00000000  0.00003481  1
  Nb  Nb19  1  0.00000000  -0.00000000  0.60714502  1
  Nb  Nb20  1  0.00000000  0.00000000  0.39285351  1
  Nb  Nb21  1  0.00000000  0.00000000  0.53572271  1
  Nb  Nb22  1  0.00000000  0.00000000  0.67855100  1
  Ir  Ir23  1  -0.00000000  -0.00000000  0.03569624  1
  Ir  Ir24  1  -0.00000000  0.00000000  0.85715431  1
  Ir  Ir25  1  0.00000000  0.00000000  0.92885688  1
  Ir  Ir26  1  -0.00000000  -0.00000000  0.96395971  1
  Ir  Ir27  1  0.00000000  0.00000000  0.78577803  1
  S  S28  1  0.33333300  0.66666700  0.00964896  1
  S  S29  1  0.33333300  0.66666700  0.04372992  1
  S  S30  1  0.33333300  0.66666700  0.08054989  1
  S  S31  1  0.33333300  0.66666700  0.11656936  1
  S  S32  1  0.33333300  0.66666700  0.18807865  1
  S  S33  1  0.33333300  0.66666700  0.15233701  1
  S  S34  1  0.33333300  0.66666700  0.22379247  1
  S  S35  1  0.33333300  0.66666700  0.25948493  1
  S  S36  1  0.33333300  0.66666700  0.29520834  1
  S  S37  1  0.33333300  0.66666700  0.36663017  1
  S  S38  1  0.33333300  0.66666700  0.33092809  1
  S  S39  1  0.33333300  0.66666700  0.40234222  1
  S  S40  1  0.33333300  0.66666700  0.43807167  1
  S  S41  1  0.33333300  0.66666700  0.47376801  1
  S  S42  1  0.33333300  0.66666700  0.54521246  1
  S  S43  1  0.33333300  0.66666700  0.50948460  1
  S  S44  1  0.33333300  0.66666700  0.58092014  1
  S  S45  1  0.33333300  0.66666700  0.61664598  1
  S  S46  1  0.33333300  0.66666700  0.65234946  1
  S  S47  1  0.33333300  0.66666700  0.72384441  1
  S  S48  1  0.33333300  0.66666700  0.68804614  1
  S  S49  1  0.33333300  0.66666700  0.75999274  1
  S  S50  1  0.33333300  0.66666700  0.79381087  1
  S  S51  1  0.33333300  0.66666700  0.86520060  1
  S  S52  1  0.33333300  0.66666700  0.83102487  1
  S  S53  1  0.33333300  0.66666700  0.90245589  1
  S  S54  1  0.33333300  0.66666700  0.93688047  1
  S  S55  1  0.33333300  0.66666700  0.97208798  1
  S  S56  1  0.66666700  0.33333300  0.02766498  1
  S  S57  1  0.66666700  0.33333300  0.06141785  1
  S  S58  1  0.66666700  0.33333300  0.09756123  1
  S  S59  1  0.66666700  0.33333300  0.13336870  1
  S  S60  1  0.66666700  0.33333300  0.20481179  1
  S  S61  1  0.66666700  0.33333300  0.16909443  1
  S  S62  1  0.66666700  0.33333300  0.24051658  1
  S  S63  1  0.66666700  0.33333300  0.27622686  1
  S  S64  1  0.66666700  0.33333300  0.31191797  1
  S  S65  1  0.66666700  0.33333300  0.38336400  1
  S  S66  1  0.66666700  0.33333300  0.34765358  1
  S  S67  1  0.66666700  0.33333300  0.41909833  1
  S  S68  1  0.66666700  0.33333300  0.45479076  1
  S  S69  1  0.66666700  0.33333300  0.52623600  1
  S  S70  1  0.66666700  0.33333300  0.49051474  1
  S  S71  1  0.66666700  0.33333300  0.56192363  1
  S  S72  1  0.66666700  0.33333300  0.59765318  1
  S  S73  1  0.66666700  0.33333300  0.63335285  1
  S  S74  1  0.66666700  0.33333300  0.66906425  1
  S  S75  1  0.66666700  0.33333300  0.70484336  1
  S  S76  1  0.66666700  0.33333300  0.74086431  1
  S  S77  1  0.66666700  0.33333300  0.77771852  1
  S  S78  1  0.66666700  0.33333300  0.81180317  1
  S  S79  1  0.66666700  0.33333300  0.88323852  1
  S  S80  1  0.66666700  0.33333300  0.84910013  1
  S  S81  1  0.66666700  0.33333300  0.92072909  1
  S  S82  1  0.66666700  0.33333300  0.95593151  1
  S  S83  1  0.66666700  0.33333300  0.99043149  1
