# generated using pymatgen
data_Li4MnCo3O8
_symmetry_space_group_name_H-M   'P 1'
_cell_length_a   2.90874647
_cell_length_b   9.86198471
_cell_length_c   5.10375913
_cell_angle_alpha   83.85535903
_cell_angle_beta   89.99999968
_cell_angle_gamma   81.51951095
_symmetry_Int_Tables_number   1
_chemical_formula_structural   Li4MnCo3O8
_chemical_formula_sum   'Li4 Mn1 Co3 O8'
_cell_volume   143.95523294
_cell_formula_units_Z   1
loop_
 _symmetry_equiv_pos_site_id
 _symmetry_equiv_pos_as_xyz
  1  'x, y, z'
loop_
 _atom_site_type_symbol
 _atom_site_label
 _atom_site_symmetry_multiplicity
 _atom_site_fract_x
 _atom_site_fract_y
 _atom_site_fract_z
 _atom_site_occupancy
  Li  Li0  1  0.37549619  0.24900762  0.13253822  1
  Li  Li1  1  0.12450381  0.75099238  0.36746178  1
  Li  Li2  1  0.87667441  0.24665117  0.61555743  1
  Li  Li3  1  0.62332559  0.75334883  0.88444257  1
  Mn  Mn4  1  0.25000000  0.50000000  0.75000000  1
  Co  Co5  1  0.99958193  0.00083613  -0.00044585  1
  Co  Co6  1  0.75000000  0.50000000  0.25000000  1
  Co  Co7  1  0.50041807  0.99916387  0.50044585  1
  O  O8  1  0.44166202  0.11667597  0.81714620  1
  O  O9  1  0.19353096  0.61293808  0.08798067  1
  O  O10  1  0.94284743  0.11430513  0.31839965  1
  O  O11  1  0.69710555  0.60578890  0.55919213  1
  O  O12  1  0.30646904  0.38706192  0.41201933  1
  O  O13  1  0.05833798  0.88332403  0.68285380  1
  O  O14  1  0.80289445  0.39421110  0.94080787  1
  O  O15  1  0.55715257  0.88569487  0.18160035  1
