# generated using pymatgen
data_Sr4Nb2O9
_symmetry_space_group_name_H-M   'P 1'
_cell_length_a   5.94206848
_cell_length_b   5.88219987
_cell_length_c   17.89985317
_cell_angle_alpha   60.59075359
_cell_angle_beta   59.85005214
_cell_angle_gamma   59.59969281
_symmetry_Int_Tables_number   1
_chemical_formula_structural   Sr4Nb2O9
_chemical_formula_sum   'Sr8 Nb4 O18'
_cell_volume   442.46021721
_cell_formula_units_Z   2
loop_
 _symmetry_equiv_pos_site_id
 _symmetry_equiv_pos_as_xyz
  1  'x, y, z'
loop_
 _atom_site_type_symbol
 _atom_site_label
 _atom_site_symmetry_multiplicity
 _atom_site_fract_x
 _atom_site_fract_y
 _atom_site_fract_z
 _atom_site_occupancy
  Sr  Sr0  1  0.18310971  0.28592657  0.08080888  1
  Sr  Sr1  1  0.41039368  0.55038957  0.19432480  1
  Sr  Sr2  1  0.25699551  0.23942255  0.43942734  1
  Sr  Sr3  1  0.71915244  0.81660657  0.23711454  1
  Sr  Sr4  1  0.22327134  0.26151450  0.74868521  1
  Sr  Sr5  1  0.54333597  0.54184022  0.47468827  1
  Sr  Sr6  1  0.72561878  0.73739854  0.60572123  1
  Sr  Sr7  1  0.68656293  0.76284378  0.92884152  1
  Nb  Nb8  1  0.94294791  0.02869457  0.00259875  1
  Nb  Nb9  1  0.96048391  0.01276390  0.33188859  1
  Nb  Nb10  1  0.96410348  0.00656618  0.67034406  1
  Nb  Nb11  1  0.45797022  0.51574501  0.83791202  1
  O  O12  1  0.18912444  0.84223442  0.07195028  1
  O  O13  1  0.67729669  0.29471105  0.06216791  1
  O  O14  1  0.29857731  0.00656089  0.21659211  1
  O  O15  1  0.22340868  0.95696490  0.38351551  1
  O  O16  1  0.79726411  0.18424976  0.22839134  1
  O  O17  1  0.77615927  0.75159731  0.06555334  1
  O  O18  1  0.67573114  0.37348155  0.35139215  1
  O  O19  1  0.69997461  0.86891844  0.46265842  1
  O  O20  1  0.19495006  0.74894084  0.60455316  1
  O  O21  1  0.23511674  0.79846891  0.75015676  1
  O  O22  1  0.69196032  0.18315279  0.61092282  1
  O  O23  1  0.00954609  0.64175184  0.33553193  1
  O  O24  1  0.14342689  0.27985967  0.59381617  1
  O  O25  1  0.66657681  0.25732979  0.76024634  1
  O  O26  1  0.25369039  0.79250898  0.90687500  1
  O  O27  1  0.69262155  0.23234604  0.91581690  1
  O  O28  1  0.75214664  0.69841464  0.76561559  1
  O  O29  1  0.16668239  0.33239624  0.91202205  1
