# generated using pymatgen
data_K3Ho(SiO3)3
_symmetry_space_group_name_H-M   'P 1'
_cell_length_a   13.89271404
_cell_length_b   15.68140472
_cell_length_c   5.59714931
_cell_angle_alpha   90.00000000
_cell_angle_beta   90.00000000
_cell_angle_gamma   90.00000000
_symmetry_Int_Tables_number   1
_chemical_formula_structural   K3Ho(SiO3)3
_chemical_formula_sum   'K12 Ho4 Si12 O36'
_cell_volume   1219.37967697
_cell_formula_units_Z   4
loop_
 _symmetry_equiv_pos_site_id
 _symmetry_equiv_pos_as_xyz
  1  'x, y, z'
loop_
 _atom_site_type_symbol
 _atom_site_label
 _atom_site_symmetry_multiplicity
 _atom_site_fract_x
 _atom_site_fract_y
 _atom_site_fract_z
 _atom_site_occupancy
  K  K0  1  0.76088254  0.64036978  0.58440644  1
  K  K1  1  0.23911746  0.64036978  0.58440644  1
  K  K2  1  0.73911746  0.14036978  0.41559356  1
  K  K3  1  0.26088254  0.14036978  0.41559356  1
  K  K4  1  0.00000000  0.01518326  0.43564366  1
  K  K5  1  0.50000000  0.51518326  0.56435634  1
  K  K6  1  0.00000000  0.24266269  0.07900193  1
  K  K7  1  0.50000000  0.74266269  0.92099807  1
  K  K8  1  -0.00000000  0.61051983  0.93223639  1
  K  K9  1  0.50000000  0.11051983  0.06776361  1
  K  K10  1  -0.00000000  0.81516037  0.43210040  1
  K  K11  1  0.50000000  0.31516037  0.56789960  1
  Ho  Ho12  1  0.74146892  0.91691962  0.43911909  1
  Ho  Ho13  1  0.25853108  0.91691962  0.43911909  1
  Ho  Ho14  1  0.75853108  0.41691962  0.56088091  1
  Ho  Ho15  1  0.24146892  0.41691962  0.56088091  1
  Si  Si16  1  0.88690304  0.86918971  0.93590376  1
  Si  Si17  1  0.11309696  0.86918971  0.93590376  1
  Si  Si18  1  0.61309696  0.36918971  0.06409624  1
  Si  Si19  1  0.38690304  0.36918971  0.06409624  1
  Si  Si20  1  0.71660998  0.76517798  0.05604115  1
  Si  Si21  1  0.28339002  0.76517798  0.05604115  1
  Si  Si22  1  0.78339002  0.26517798  0.94395885  1
  Si  Si23  1  0.21660998  0.26517798  0.94395885  1
  Si  Si24  1  0.62040753  0.94954140  0.93445175  1
  Si  Si25  1  0.37959247  0.94954140  0.93445175  1
  Si  Si26  1  0.87959247  0.44954140  0.06554825  1
  Si  Si27  1  0.12040753  0.44954140  0.06554825  1
  O  O28  1  -0.00000000  0.83070946  0.93738418  1
  O  O29  1  0.50000000  0.33070946  0.06261582  1
  O  O30  1  0.86984306  0.91645222  0.68289307  1
  O  O31  1  0.13015694  0.91645222  0.68289307  1
  O  O32  1  0.63015694  0.41645222  0.31710693  1
  O  O33  1  0.36984306  0.41645222  0.31710693  1
  O  O34  1  0.86708425  0.92162611  0.17939076  1
  O  O35  1  0.13291575  0.92162611  0.17939076  1
  O  O36  1  0.63291575  0.42162611  0.82060924  1
  O  O37  1  0.36708425  0.42162611  0.82060924  1
  O  O38  1  0.82910570  0.77442990  0.94240303  1
  O  O39  1  0.17089430  0.77442990  0.94240303  1
  O  O40  1  0.67089430  0.27442990  0.05759697  1
  O  O41  1  0.32910570  0.27442990  0.05759697  1
  O  O42  1  0.72009500  0.78511423  0.34400538  1
  O  O43  1  0.27990500  0.78511423  0.34400538  1
  O  O44  1  0.77990500  0.28511423  0.65599462  1
  O  O45  1  0.22009500  0.28511423  0.65599462  1
  O  O46  1  0.66893354  0.67781676  0.97796851  1
  O  O47  1  0.33106646  0.67781676  0.97796851  1
  O  O48  1  0.83106646  0.17781676  0.02203149  1
  O  O49  1  0.16893354  0.17781676  0.02203149  1
  O  O50  1  0.65817333  0.84807861  0.92534873  1
  O  O51  1  0.34182667  0.84807861  0.92534873  1
  O  O52  1  0.84182667  0.34807861  0.07465127  1
  O  O53  1  0.15817333  0.34807861  0.07465127  1
  O  O54  1  0.65431043  0.99494312  0.18089404  1
  O  O55  1  0.34568957  0.99494312  0.18089404  1
  O  O56  1  0.84568957  0.49494312  0.81910596  1
  O  O57  1  0.15431043  0.49494312  0.81910596  1
  O  O58  1  0.65684416  0.99547228  0.69301299  1
  O  O59  1  0.34315584  0.99547228  0.69301299  1
  O  O60  1  0.84315584  0.49547228  0.30698701  1
  O  O61  1  0.15684416  0.49547228  0.30698701  1
  O  O62  1  0.50000000  0.94340096  0.93483768  1
  O  O63  1  -0.00000000  0.44340096  0.06516232  1
