# generated using pymatgen
data_Li4Mn3CoO8
_symmetry_space_group_name_H-M   'P 1'
_cell_length_a   5.97708889
_cell_length_b   5.95477202
_cell_length_c   5.95477292
_cell_angle_alpha   60.00000216
_cell_angle_beta   119.87656363
_cell_angle_gamma   119.87657052
_symmetry_Int_Tables_number   1
_chemical_formula_structural   Li4Mn3CoO8
_chemical_formula_sum   'Li4 Mn3 Co1 O8'
_cell_volume   150.14566962
_cell_formula_units_Z   1
loop_
 _symmetry_equiv_pos_site_id
 _symmetry_equiv_pos_as_xyz
  1  'x, y, z'
loop_
 _atom_site_type_symbol
 _atom_site_label
 _atom_site_symmetry_multiplicity
 _atom_site_fract_x
 _atom_site_fract_y
 _atom_site_fract_z
 _atom_site_occupancy
  Li  Li0  1  0.50000000  0.50000000  0.50000000  1
  Li  Li1  1  0.50000000  -0.00000000  0.00000000  1
  Li  Li2  1  0.50000000  -0.00000000  0.50000000  1
  Li  Li3  1  0.50000000  0.50000000  0.00000000  1
  Mn  Mn4  1  -0.00000000  0.50000000  0.50000000  1
  Mn  Mn5  1  -0.00000000  0.50000000  0.00000000  1
  Mn  Mn6  1  -0.00000000  -0.00000000  0.50000000  1
  Co  Co7  1  -0.00000000  -0.00000000  0.00000000  1
  O  O8  1  0.26177175  0.75392392  0.75392392  1
  O  O9  1  0.21737189  0.24509453  0.24509453  1
  O  O10  1  0.21737189  0.24509453  0.72718282  1
  O  O11  1  0.21737189  0.72718282  0.24509453  1
  O  O12  1  0.73822825  0.24607608  0.24607608  1
  O  O13  1  0.78262811  0.75490547  0.75490547  1
  O  O14  1  0.78262811  0.75490547  0.27281718  1
  O  O15  1  0.78262811  0.27281718  0.75490547  1
