# generated using pymatgen
data_Li3MnCoO5
_symmetry_space_group_name_H-M   'P 1'
_cell_length_a   2.90638168
_cell_length_b   8.28968972
_cell_length_c   7.77028957
_cell_angle_alpha   74.71148046
_cell_angle_beta   98.57732066
_cell_angle_gamma   89.74681310
_symmetry_Int_Tables_number   1
_chemical_formula_structural   Li3MnCoO5
_chemical_formula_sum   'Li6 Mn2 Co2 O10'
_cell_volume   178.37666470
_cell_formula_units_Z   2
loop_
 _symmetry_equiv_pos_site_id
 _symmetry_equiv_pos_as_xyz
  1  'x, y, z'
loop_
 _atom_site_type_symbol
 _atom_site_label
 _atom_site_symmetry_multiplicity
 _atom_site_fract_x
 _atom_site_fract_y
 _atom_site_fract_z
 _atom_site_occupancy
  Li  Li0  1  0.76269452  0.10464107  0.58438982  1
  Li  Li1  1  0.00278191  0.48098020  0.00200795  1
  Li  Li2  1  0.19721809  0.91901980  0.39799205  1
  Li  Li3  1  0.43730548  0.29535893  0.81561018  1
  Li  Li4  1  0.60000000  0.70000000  0.20000000  1
  Li  Li5  1  0.60000000  0.20000000  0.20000000  1
  Mn  Mn6  1  0.01673767  0.00921204  0.00524049  1
  Mn  Mn7  1  0.18326233  0.39078796  0.39475951  1
  Co  Co8  1  0.41190515  0.79871942  0.80250977  1
  Co  Co9  1  0.78809485  0.60128058  0.59749023  1
  O  O10  1  0.44288232  0.04027036  0.82527046  1
  O  O11  1  0.61088945  0.44651840  0.22055675  1
  O  O12  1  0.79493291  0.84430552  0.61257151  1
  O  O13  1  0.01090954  0.23144802  0.99704527  1
  O  O14  1  0.17951852  0.63559899  0.41245742  1
  O  O15  1  0.18909046  0.16855198  0.40295473  1
  O  O16  1  0.40506709  0.55569448  0.78742849  1
  O  O17  1  0.58911055  0.95348160  0.17944325  1
  O  O18  1  0.75711768  0.35972964  0.57472954  1
  O  O19  1  0.02048148  0.76440101  0.98754258  1
