# generated using pymatgen
data_SrThF6
_symmetry_space_group_name_H-M   'P 1'
_cell_length_a   4.18432879
_cell_length_b   4.18432883
_cell_length_c   7.53618862
_cell_angle_alpha   90.00000000
_cell_angle_beta   90.00000000
_cell_angle_gamma   59.99656183
_symmetry_Int_Tables_number   1
_chemical_formula_structural   SrThF6
_chemical_formula_sum   'Sr1 Th1 F6'
_cell_volume   114.26650739
_cell_formula_units_Z   1
loop_
 _symmetry_equiv_pos_site_id
 _symmetry_equiv_pos_as_xyz
  1  'x, y, z'
loop_
 _atom_site_type_symbol
 _atom_site_label
 _atom_site_symmetry_multiplicity
 _atom_site_fract_x
 _atom_site_fract_y
 _atom_site_fract_z
 _atom_site_occupancy
  Sr  Sr0  1  0.33331493  0.33331493  0.75000000  1
  Th  Th1  1  0.66670291  0.66670291  0.25000000  1
  F  F2  1  0.99999536  0.99999536  0.75000000  1
  F  F3  1  0.00001276  0.00001276  0.25000000  1
  F  F4  1  0.33332141  0.33332141  0.40430623  1
  F  F5  1  0.66666561  0.66666561  0.95632711  1
  F  F6  1  0.66666561  0.66666561  0.54367289  1
  F  F7  1  0.33332141  0.33332141  0.09569377  1
