# generated using pymatgen
data_Li4MnCo2O7
_symmetry_space_group_name_H-M   'P 1'
_cell_length_a   6.46338519
_cell_length_b   6.62677676
_cell_length_c   6.65497387
_cell_angle_alpha   72.07413969
_cell_angle_beta   107.85462191
_cell_angle_gamma   108.47641843
_symmetry_Int_Tables_number   1
_chemical_formula_structural   Li4MnCo2O7
_chemical_formula_sum   'Li8 Mn2 Co4 O14'
_cell_volume   250.22734487
_cell_formula_units_Z   2
loop_
 _symmetry_equiv_pos_site_id
 _symmetry_equiv_pos_as_xyz
  1  'x, y, z'
loop_
 _atom_site_type_symbol
 _atom_site_label
 _atom_site_symmetry_multiplicity
 _atom_site_fract_x
 _atom_site_fract_y
 _atom_site_fract_z
 _atom_site_occupancy
  Li  Li0  1  0.77757376  0.92196843  0.34814254  1
  Li  Li1  1  0.65099724  0.22088857  0.93757146  1
  Li  Li2  1  0.50184528  0.50457797  0.49347546  1
  Li  Li3  1  0.92672572  0.63827903  0.79223854  1
  Li  Li4  1  0.06641923  0.36611404  0.21034741  1
  Li  Li5  1  0.21428600  0.07142900  0.64285700  1
  Li  Li6  1  0.36215277  0.77674296  0.07536759  1
  Li  Li7  1  0.71428600  0.57142900  0.14285700  1
  Mn  Mn8  1  0.99668519  0.99442952  0.00322593  1
  Mn  Mn9  1  0.43188581  0.14842748  0.28248807  1
  Co  Co10  1  0.86079312  0.29134776  0.56805504  1
  Co  Co11  1  0.56777888  0.85150924  0.71765996  1
  Co  Co12  1  0.29828281  0.43453298  0.86500379  1
  Co  Co13  1  0.13028819  0.70832402  0.42071021  1
  O  O14  1  0.69670733  0.90366273  0.02428754  1
  O  O15  1  0.53765595  0.17448060  0.58092082  1
  O  O16  1  0.39172647  0.43990218  0.18260529  1
  O  O17  1  0.84465597  0.60987071  0.47230156  1
  O  O18  1  0.97554692  0.30638948  0.89154696  1
  O  O19  1  0.11325342  0.03264121  0.29978696  1
  O  O20  1  0.26664827  0.75163777  0.74822870  1
  O  O21  1  0.89091505  0.96837640  0.70479318  1
  O  O22  1  0.73186367  0.23919427  0.26142646  1
  O  O23  1  0.58391503  0.53298629  0.81341244  1
  O  O24  1  0.03684553  0.70295482  0.10310971  1
  O  O25  1  0.16192373  0.39122023  0.53748530  1
  O  O26  1  0.31531858  0.11021579  0.98592804  1
  O  O27  1  0.45302408  0.83646752  0.39416704  1
