# generated using pymatgen
data_Li7Co5O12
_symmetry_space_group_name_H-M   'P 1'
_cell_length_a   2.87853125
_cell_length_b   7.65392062
_cell_length_c   9.78239636
_cell_angle_alpha   79.53285051
_cell_angle_beta   90.39429034
_cell_angle_gamma   79.65010873
_symmetry_Int_Tables_number   1
_chemical_formula_structural   Li7Co5O12
_chemical_formula_sum   'Li7 Co5 O12'
_cell_volume   208.31717846
_cell_formula_units_Z   1
loop_
 _symmetry_equiv_pos_site_id
 _symmetry_equiv_pos_as_xyz
  1  'x, y, z'
loop_
 _atom_site_type_symbol
 _atom_site_label
 _atom_site_symmetry_multiplicity
 _atom_site_fract_x
 _atom_site_fract_y
 _atom_site_fract_z
 _atom_site_occupancy
  Li  Li0  1  0.91612453  0.16693669  0.25146535  1
  Li  Li1  1  0.41719981  0.16638570  0.74852764  1
  Li  Li2  1  0.24540676  0.50731167  0.24437931  1
  Li  Li3  1  0.74562741  0.50300858  0.75216682  1
  Li  Li4  1  0.58769681  0.83032814  0.24783742  1
  Li  Li5  1  0.08790863  0.82603344  0.75561860  1
  Li  Li6  1  0.66668147  0.66666359  0.00000359  1
  Co  Co7  1  0.99614959  0.99249743  0.00245350  1
  Co  Co8  1  0.33716921  0.34083706  0.99754069  1
  Co  Co9  1  0.50116779  -0.00021879  0.50233336  1
  Co  Co10  1  0.83217084  0.33356459  0.49766386  1
  Co  Co11  1  0.16669167  0.66666730  0.50000400  1
  O  O12  1  0.45089759  0.08668616  0.10405900  1
  O  O13  1  0.95801940  0.08383021  0.62113985  1
  O  O14  1  0.79367581  0.40203809  0.10885725  1
  O  O15  1  0.28603215  0.42620565  0.61221099  1
  O  O16  1  0.11447254  0.77598977  0.11548130  1
  O  O17  1  0.62643385  0.74713178  0.61669340  1
  O  O18  1  0.37524946  0.24949904  0.37885986  1
  O  O19  1  0.88242147  0.24663324  0.89594325  1
  O  O20  1  0.70693113  0.58619886  0.38331077  1
  O  O21  1  0.21884980  0.55734061  0.88451510  1
  O  O22  1  0.04737763  0.90712611  0.38778730  1
  O  O23  1  0.53964465  0.93130508  0.89114780  1
