# generated using pymatgen
data_Li4MnCo2O7
_symmetry_space_group_name_H-M   'P 1'
_cell_length_a   6.59421457
_cell_length_b   6.55497133
_cell_length_c   6.61785933
_cell_angle_alpha   71.56731874
_cell_angle_beta   108.05697124
_cell_angle_gamma   107.80755451
_symmetry_Int_Tables_number   1
_chemical_formula_structural   Li4MnCo2O7
_chemical_formula_sum   'Li8 Mn2 Co4 O14'
_cell_volume   251.07294109
_cell_formula_units_Z   2
loop_
 _symmetry_equiv_pos_site_id
 _symmetry_equiv_pos_as_xyz
  1  'x, y, z'
loop_
 _atom_site_type_symbol
 _atom_site_label
 _atom_site_symmetry_multiplicity
 _atom_site_fract_x
 _atom_site_fract_y
 _atom_site_fract_z
 _atom_site_occupancy
  Li  Li0  1  0.77868849  0.92397088  0.34703953  1
  Li  Li1  1  0.64119425  0.21550228  0.93325755  1
  Li  Li2  1  0.50213731  0.50502561  0.49270008  1
  Li  Li3  1  0.92715342  0.64198238  0.78624814  1
  Li  Li4  1  0.06996812  0.36050774  0.21601472  1
  Li  Li5  1  0.21768381  0.07031228  0.64642546  1
  Li  Li6  1  0.36386207  0.78053176  0.07782818  1
  Li  Li7  1  0.71449359  0.57078518  0.14743179  1
  Mn  Mn8  1  -0.00192829  0.99644998  0.00245992  1
  Mn  Mn9  1  0.85684511  0.28906831  0.56509601  1
  Co  Co10  1  0.57053356  0.85220239  0.72107364  1
  Co  Co11  1  0.43281312  0.15285992  0.28208772  1
  Co  Co12  1  0.29771465  0.43346693  0.86050763  1
  Co  Co13  1  0.13634328  0.71218125  0.42428927  1
  O  O14  1  0.70030058  0.90360548  0.02432874  1
  O  O15  1  0.55520921  0.17353409  0.60618435  1
  O  O16  1  0.38609003  0.44634394  0.17549060  1
  O  O17  1  0.82980268  0.58352024  0.47570789  1
  O  O18  1  0.97433144  0.30866955  0.87796603  1
  O  O19  1  0.10070209  0.02934081  0.29851615  1
  O  O20  1  0.25131088  0.74879838  0.73267947  1
  O  O21  1  0.89472308  0.97585087  0.69591829  1
  O  O22  1  0.75244582  0.24725806  0.27622672  1
  O  O23  1  0.58564560  0.54314975  0.81495684  1
  O  O24  1  0.04029685  0.70173465  0.11319382  1
  O  O25  1  0.15689290  0.38924539  0.53780538  1
  O  O26  1  0.30759982  0.10790466  0.97021513  1
  O  O27  1  0.45714653  0.83619723  0.39835096  1
