# generated using pymatgen
data_Li7Mn2(CoO4)3
_symmetry_space_group_name_H-M   'P 1'
_cell_length_a   5.02323527
_cell_length_b   8.72222992
_cell_length_c   5.19120782
_cell_angle_alpha   106.03531718
_cell_angle_beta   79.63646287
_cell_angle_gamma   94.70692655
_symmetry_Int_Tables_number   1
_chemical_formula_structural   Li7Mn2(CoO4)3
_chemical_formula_sum   'Li7 Mn2 Co3 O12'
_cell_volume   214.90481246
_cell_formula_units_Z   1
loop_
 _symmetry_equiv_pos_site_id
 _symmetry_equiv_pos_as_xyz
  1  'x, y, z'
loop_
 _atom_site_type_symbol
 _atom_site_label
 _atom_site_symmetry_multiplicity
 _atom_site_fract_x
 _atom_site_fract_y
 _atom_site_fract_z
 _atom_site_occupancy
  Li  Li0  1  0.25016806  0.91292511  0.41655271  1
  Li  Li1  1  0.75151916  0.09131370  0.58730299  1
  Li  Li2  1  0.25590609  0.26424687  0.75473492  1
  Li  Li3  1  0.25433695  0.57353462  0.07911843  1
  Li  Li4  1  0.74142422  0.73360439  0.24606594  1
  Li  Li5  1  0.74596102  0.42041662  0.91824283  1
  Li  Li6  1  0.50842303  0.50227361  0.50475041  1
  Mn  Mn7  1  0.99698709  0.00153866  0.99361645  1
  Mn  Mn8  1  0.49956402  0.82878122  0.83025269  1
  Co  Co9  1  0.49805173  0.18123701  0.17385004  1
  Co  Co10  1  0.99481011  0.33585596  0.33291247  1
  Co  Co11  1  0.01249597  0.64627208  0.66151921  1
  O  O12  1  0.13703054  0.80646950  0.02981465  1
  O  O13  1  0.63046250  0.96291360  0.17161960  1
  O  O14  1  0.10988945  0.12333167  0.33488705  1
  O  O15  1  0.11586678  0.46504094  0.71575871  1
  O  O16  1  0.62246005  0.64264968  0.88000899  1
  O  O17  1  0.64254564  0.28885508  0.51291871  1
  O  O18  1  0.35805686  0.03178952  0.80479412  1
  O  O19  1  0.87421694  0.19350263  0.95308505  1
  O  O20  1  0.36053055  0.36354834  0.13559216  1
  O  O21  1  0.38021552  0.72157927  0.49839271  1
  O  O22  1  0.86513829  0.87389145  0.65875014  1
  O  O23  1  0.89393944  0.53442847  0.30545903  1
