# generated using pymatgen
data_Li7Co5O12
_symmetry_space_group_name_H-M   'P 1'
_cell_length_a   2.86939839
_cell_length_b   8.24680502
_cell_length_c   9.69619414
_cell_angle_alpha   65.32017364
_cell_angle_beta   90.87486876
_cell_angle_gamma   90.28251522
_symmetry_Int_Tables_number   1
_chemical_formula_structural   Li7Co5O12
_chemical_formula_sum   'Li7 Co5 O12'
_cell_volume   208.46149119
_cell_formula_units_Z   1
loop_
 _symmetry_equiv_pos_site_id
 _symmetry_equiv_pos_as_xyz
  1  'x, y, z'
loop_
 _atom_site_type_symbol
 _atom_site_label
 _atom_site_symmetry_multiplicity
 _atom_site_fract_x
 _atom_site_fract_y
 _atom_site_fract_z
 _atom_site_occupancy
  Li  Li0  1  -0.00163835  0.85347675  0.32746058  1
  Li  Li1  1  0.48990031  0.32714168  0.84034111  1
  Li  Li2  1  0.51009969  0.00619132  0.49299189  1
  Li  Li3  1  0.00163835  0.47985625  0.00587242  1
  Li  Li4  1  0.00000000  0.16666700  0.66666700  1
  Li  Li5  1  0.50000000  0.66666700  0.16666700  1
  Li  Li6  1  0.50000000  0.16666700  0.16666700  1
  Co  Co7  1  0.00133991  0.00787244  0.00351345  1
  Co  Co8  1  -0.00133991  0.32546056  0.32981955  1
  Co  Co9  1  0.49582322  0.50299326  0.49603802  1
  Co  Co10  1  0.00000000  0.66666700  0.66666700  1
  Co  Co11  1  0.50417678  0.83033974  0.83729498  1
  O  O12  1  0.49422033  0.92702316  0.14567118  1
  O  O13  1  0.97410740  0.42495611  0.65362372  1
  O  O14  1  0.00501481  0.10567104  0.33440162  1
  O  O15  1  0.52153257  0.58705761  0.82712435  1
  O  O16  1  0.50417697  0.26364580  0.47879476  1
  O  O17  1  0.98677701  0.76967786  0.99238530  1
  O  O18  1  0.47846743  0.74627539  0.50620865  1
  O  O19  1  -0.00501481  0.22766196  0.99893138  1
  O  O20  1  0.02589260  0.90837689  0.67970928  1
  O  O21  1  0.50577967  0.40630984  0.18766182  1
  O  O22  1  0.49582303  0.06968820  0.85453924  1
  O  O23  1  0.01322299  0.56365614  0.34094870  1
