# generated using pymatgen
data_Li7Co5O12
_symmetry_space_group_name_H-M   'P 1'
_cell_length_a   2.85877273
_cell_length_b   7.64766173
_cell_length_c   10.09900319
_cell_angle_alpha   72.13035235
_cell_angle_beta   89.99999994
_cell_angle_gamma   100.77222468
_symmetry_Int_Tables_number   1
_chemical_formula_structural   Li7Co5O12
_chemical_formula_sum   'Li7 Co5 O12'
_cell_volume   206.05016211
_cell_formula_units_Z   1
loop_
 _symmetry_equiv_pos_site_id
 _symmetry_equiv_pos_as_xyz
  1  'x, y, z'
loop_
 _atom_site_type_symbol
 _atom_site_label
 _atom_site_symmetry_multiplicity
 _atom_site_fract_x
 _atom_site_fract_y
 _atom_site_fract_z
 _atom_site_occupancy
  Li  Li0  1  0.83429104  0.66858307  0.75536720  1
  Li  Li1  1  0.16768643  0.33537186  0.24789317  1
  Li  Li2  1  0.49898057  0.99796114  0.75210683  1
  Li  Li3  1  0.83237496  0.66475093  0.24463280  1
  Li  Li4  1  0.16672405  0.33344710  0.74912475  1
  Li  Li5  1  0.49994295  -0.00011410  0.25087525  1
  Li  Li6  1  0.33333300  0.66666700  0.00000000  1
  Co  Co7  1  0.99748651  0.99497303  0.99639222  1
  Co  Co8  1  0.66918049  0.33835997  0.00360778  1
  Co  Co9  1  0.33333300  0.66666700  0.50000000  1
  Co  Co10  1  0.00016553  0.00033105  0.49979632  1
  Co  Co11  1  0.66650147  0.33300195  0.50020368  1
  O  O12  1  0.74006241  0.48012382  0.11647404  1
  O  O13  1  0.08609269  0.17218537  0.61882649  1
  O  O14  1  0.42977312  0.85954723  0.10801520  1
  O  O15  1  0.75509675  0.51019250  0.61534259  1
  O  O16  1  0.08857610  0.17715220  0.10417039  1
  O  O17  1  0.41381584  0.82763267  0.61467587  1
  O  O18  1  0.91157025  0.82314050  0.38465741  1
  O  O19  1  0.23689288  0.47378677  0.89198480  1
  O  O20  1  0.58057431  0.16114763  0.38117351  1
  O  O21  1  0.92660459  0.85320918  0.88352596  1
  O  O22  1  0.25285016  0.50570133  0.38532413  1
  O  O23  1  0.57809090  0.15618080  0.89582961  1
