# generated using pymatgen
data_Li4MnCo2O7
_symmetry_space_group_name_H-M   'P 1'
_cell_length_a   5.03630064
_cell_length_b   10.21553154
_cell_length_c   5.15599381
_cell_angle_alpha   99.16787787
_cell_angle_beta   80.02299104
_cell_angle_gamma   80.30641234
_symmetry_Int_Tables_number   1
_chemical_formula_structural   Li4MnCo2O7
_chemical_formula_sum   'Li8 Mn2 Co4 O14'
_cell_volume   252.62529928
_cell_formula_units_Z   2
loop_
 _symmetry_equiv_pos_site_id
 _symmetry_equiv_pos_as_xyz
  1  'x, y, z'
loop_
 _atom_site_type_symbol
 _atom_site_label
 _atom_site_symmetry_multiplicity
 _atom_site_fract_x
 _atom_site_fract_y
 _atom_site_fract_z
 _atom_site_occupancy
  Li  Li0  1  0.28669586  0.91958300  0.43151655  1
  Li  Li1  1  0.71458385  0.06907661  0.57207073  1
  Li  Li2  1  0.14285700  0.21428600  0.71428600  1
  Li  Li3  1  0.42426234  0.64830929  0.15151210  1
  Li  Li4  1  0.86145166  0.78026171  0.27705890  1
  Li  Li5  1  0.57113115  0.35949539  0.85650127  1
  Li  Li6  1  -0.00098186  0.50898800  -0.00294555  1
  Li  Li7  1  0.14285700  0.71428600  0.71428600  1
  Mn  Mn8  1  0.00131595  -0.00038974  0.99575365  1
  Mn  Mn9  1  0.28439805  0.42896074  0.43281735  1
  Co  Co10  1  0.43104455  0.14012768  0.14096431  1
  Co  Co11  1  0.85466945  0.28844332  0.28760669  1
  Co  Co12  1  0.71059277  0.57922124  0.58113792  1
  Co  Co13  1  0.57512223  0.84935076  0.84743408  1
  O  O14  1  0.21549743  0.83961158  0.06395338  1
  O  O15  1  0.65479810  0.97582685  0.19927304  1
  O  O16  1  0.06340491  0.10990799  0.32687505  1
  O  O17  1  0.37306106  0.52563856  0.74559059  1
  O  O18  1  0.76982332  0.67901323  0.91801789  1
  O  O19  1  0.49458632  0.25677159  0.48544763  1
  O  O20  1  0.95119534  0.39147416  0.62470585  1
  O  O21  1  0.33451866  0.03709684  0.80386515  1
  O  O22  1  0.79112768  0.17179941  0.94312337  1
  O  O23  1  0.22230909  0.31866301  0.10169595  1
  O  O24  1  0.51589168  0.74955877  0.51055411  1
  O  O25  1  0.91265294  0.90293244  0.68298041  1
  O  O26  1  0.63091690  0.45274515  0.22929896  1
  O  O27  1  0.07021657  0.58896042  0.36461862  1
