# generated using pymatgen
data_Li7Co5O12
_symmetry_space_group_name_H-M   'P 1'
_cell_length_a   5.78638044
_cell_length_b   5.87331058
_cell_length_c   7.72088459
_cell_angle_alpha   112.05078114
_cell_angle_beta   100.50872440
_cell_angle_gamma   60.49683316
_symmetry_Int_Tables_number   1
_chemical_formula_structural   Li7Co5O12
_chemical_formula_sum   'Li7 Co5 O12'
_cell_volume   211.66461577
_cell_formula_units_Z   1
loop_
 _symmetry_equiv_pos_site_id
 _symmetry_equiv_pos_as_xyz
  1  'x, y, z'
loop_
 _atom_site_type_symbol
 _atom_site_label
 _atom_site_symmetry_multiplicity
 _atom_site_fract_x
 _atom_site_fract_y
 _atom_site_fract_z
 _atom_site_occupancy
  Li  Li0  1  0.49834970  0.50090845  0.99815569  1
  Li  Li1  1  0.99743716  0.50459178  0.99704952  1
  Li  Li2  1  0.16831730  0.83242455  0.33517731  1
  Li  Li3  1  0.66922984  0.82874122  0.33628348  1
  Li  Li4  1  0.83333300  0.16666700  0.66666700  1
  Li  Li5  1  0.33333300  0.16666700  0.66666700  1
  Li  Li6  1  0.83333300  0.66666700  0.66666700  1
  Co  Co7  1  0.99786186  -0.00433643  0.99449875  1
  Co  Co8  1  0.33333300  0.66666700  0.66666700  1
  Co  Co9  1  0.50758338  0.99025798  0.99197885  1
  Co  Co10  1  0.66880514  0.33766943  0.33883425  1
  Co  Co11  1  0.15908362  0.34307502  0.34135415  1
  O  O12  1  0.67032568  0.08043212  0.85219631  1
  O  O13  1  0.18030587  0.05184153  0.82285415  1
  O  O14  1  0.34167648  0.39821309  0.17621077  1
  O  O15  1  0.84003452  0.40525425  0.16822605  1
  O  O16  1  0.03448021  0.72957282  0.50947982  1
  O  O17  1  0.49289678  0.72623915  0.50740467  1
  O  O18  1  0.32499052  0.93511991  0.15712223  1
  O  O19  1  0.82663248  0.92807875  0.16510695  1
  O  O20  1  0.99634132  0.25290088  0.48113669  1
  O  O21  1  0.48636113  0.28149147  0.51047885  1
  O  O22  1  0.63218579  0.60376118  0.82385418  1
  O  O23  1  0.17376922  0.60709485  0.82592933  1
