# generated using pymatgen
data_Li5Mn2CoO8
_symmetry_space_group_name_H-M   'P 1'
_cell_length_a   2.91953362
_cell_length_b   6.49599572
_cell_length_c   7.90120736
_cell_angle_alpha   93.21307740
_cell_angle_beta   79.35331294
_cell_angle_gamma   102.98629615
_symmetry_Int_Tables_number   1
_chemical_formula_structural   Li5Mn2CoO8
_chemical_formula_sum   'Li5 Mn2 Co1 O8'
_cell_volume   143.48587134
_cell_formula_units_Z   1
loop_
 _symmetry_equiv_pos_site_id
 _symmetry_equiv_pos_as_xyz
  1  'x, y, z'
loop_
 _atom_site_type_symbol
 _atom_site_label
 _atom_site_symmetry_multiplicity
 _atom_site_fract_x
 _atom_site_fract_y
 _atom_site_fract_z
 _atom_site_occupancy
  Li  Li0  1  0.12177020  0.86401452  0.62047412  1
  Li  Li1  1  0.37565938  0.61403207  0.86271331  1
  Li  Li2  1  0.62378352  0.37798689  0.13041985  1
  Li  Li3  1  0.87569383  0.14618059  0.39479293  1
  Li  Li4  1  0.49898662  0.49537940  0.49740615  1
  Mn  Mn5  1  0.00291537  0.00482411  0.99899337  1
  Mn  Mn6  1  0.24127707  0.73927568  0.25672155  1
  Co  Co7  1  0.77095527  0.27330423  0.73139368  1
  O  O8  1  0.17686501  0.28702154  0.93329151  1
  O  O9  1  0.43957906  0.04636487  0.16720676  1
  O  O10  1  0.69962639  0.80890870  0.40965593  1
  O  O11  1  0.92888959  0.55299981  0.69522062  1
  O  O12  1  0.07806996  0.46036575  0.30422583  1
  O  O13  1  0.30169455  0.17809142  0.57470232  1
  O  O14  1  0.55104454  0.94343592  0.84134685  1
  O  O15  1  0.81318965  0.70781452  0.08143521  1
