# generated using pymatgen
data_Li4MnCo2O7
_symmetry_space_group_name_H-M   'P 1'
_cell_length_a   5.00387807
_cell_length_b   5.09205885
_cell_length_c   10.68810220
_cell_angle_alpha   85.39412362
_cell_angle_beta   103.23166564
_cell_angle_gamma   107.72177946
_symmetry_Int_Tables_number   1
_chemical_formula_structural   Li4MnCo2O7
_chemical_formula_sum   'Li8 Mn2 Co4 O14'
_cell_volume   252.50668058
_cell_formula_units_Z   2
loop_
 _symmetry_equiv_pos_site_id
 _symmetry_equiv_pos_as_xyz
  1  'x, y, z'
loop_
 _atom_site_type_symbol
 _atom_site_label
 _atom_site_symmetry_multiplicity
 _atom_site_fract_x
 _atom_site_fract_y
 _atom_site_fract_z
 _atom_site_occupancy
  Li  Li0  1  0.07311970  0.49367644  0.15500322  1
  Li  Li1  1  0.64911898  0.50094851  0.29591760  1
  Li  Li2  1  0.21459924  0.50226410  0.42722503  1
  Li  Li3  1  0.78148532  0.49927008  0.56573959  1
  Li  Li4  1  0.34887906  0.49823746  0.70700288  1
  Li  Li5  1  0.92756339  0.50130519  0.85136942  1
  Li  Li6  1  0.50645485  0.50204140  0.00135221  1
  Li  Li7  1  0.14137241  0.99798445  0.28850847  1
  Mn  Mn8  1  0.00485741  0.00555819  0.00278256  1
  Mn  Mn9  1  0.57559329  0.00162743  0.14604163  1
  Co  Co10  1  0.70683951  0.99604815  0.42117677  1
  Co  Co11  1  0.27944362  0.99655285  0.56525515  1
  Co  Co12  1  0.85849745  -0.00196350  0.71083453  1
  Co  Co13  1  0.42845948  0.00209921  0.85753031  1
  O  O14  1  0.76311969  0.23123553  0.00954864  1
  O  O15  1  0.31371209  0.21966317  0.13031484  1
  O  O16  1  0.85462558  0.23106873  0.27326846  1
  O  O17  1  0.47232796  0.22774524  0.43346294  1
  O  O18  1  0.03404761  0.22758739  0.57305395  1
  O  O19  1  0.60034959  0.22310743  0.72660196  1
  O  O20  1  0.17727312  0.22370779  0.86241244  1
  O  O21  1  0.41341760  0.76482696  0.27368920  1
  O  O22  1  0.95790920  0.76730213  0.43313014  1
  O  O23  1  0.53348190  0.76706115  0.57621113  1
  O  O24  1  0.10198763  0.76254623  0.71799497  1
  O  O25  1  0.69560632  0.79031903  0.86568649  1
  O  O26  1  0.26598116  0.78848339  0.99925970  1
  O  O27  1  0.81987684  0.77969585  0.12962575  1
