# generated using pymatgen
data_Li9Mn2Co5O16
_symmetry_space_group_name_H-M   'P 1'
_cell_length_a   5.05148976
_cell_length_b   5.09872870
_cell_length_c   11.69961675
_cell_angle_alpha   89.10737153
_cell_angle_beta   88.35113942
_cell_angle_gamma   108.65090746
_symmetry_Int_Tables_number   1
_chemical_formula_structural   Li9Mn2Co5O16
_chemical_formula_sum   'Li9 Mn2 Co5 O16'
_cell_volume   285.29661756
_cell_formula_units_Z   1
loop_
 _symmetry_equiv_pos_site_id
 _symmetry_equiv_pos_as_xyz
  1  'x, y, z'
loop_
 _atom_site_type_symbol
 _atom_site_label
 _atom_site_symmetry_multiplicity
 _atom_site_fract_x
 _atom_site_fract_y
 _atom_site_fract_z
 _atom_site_occupancy
  Li  Li0  1  0.00000000  0.50000000  0.12500000  1
  Li  Li1  1  0.49647434  0.50264149  0.24699233  1
  Li  Li2  1  0.99604668  0.49676043  0.37258322  1
  Li  Li3  1  0.50141386  0.50114891  0.50068508  1
  Li  Li4  1  0.00000000  0.50000000  0.62500000  1
  Li  Li5  1  0.49858614  0.49885109  0.74931492  1
  Li  Li6  1  0.00395332  0.50323957  0.87741678  1
  Li  Li7  1  0.50352566  0.49735851  0.00300767  1
  Li  Li8  1  0.50000000  -0.00000000  0.12500000  1
  Mn  Mn9  1  0.00217431  0.00715429  0.00286211  1
  Mn  Mn10  1  0.99782569  0.99284571  0.24713789  1
  Co  Co11  1  0.49441102  0.99198067  0.36886194  1
  Co  Co12  1  0.99538418  0.99876760  0.50043026  1
  Co  Co13  1  0.50000000  -0.00000000  0.62500000  1
  Co  Co14  1  0.00461582  0.00123240  0.74956974  1
  Co  Co15  1  0.50558898  0.00801933  0.88113806  1
  O  O16  1  0.77124736  0.23663252  0.99985181  1
  O  O17  1  0.21870653  0.22582411  0.12369440  1
  O  O18  1  0.74548905  0.21748281  0.25975666  1
  O  O19  1  0.23496377  0.21478608  0.36603946  1
  O  O20  1  0.74605497  0.23034032  0.50676186  1
  O  O21  1  0.24086932  0.23520267  0.62371478  1
  O  O22  1  0.74164675  0.22176608  0.75656955  1
  O  O23  1  0.25048234  0.22899943  0.87972131  1
  O  O24  1  0.22875264  0.76336748  0.25014719  1
  O  O25  1  0.74951766  0.77100057  0.37027769  1
  O  O26  1  0.25835325  0.77823392  0.49342945  1
  O  O27  1  0.75913068  0.76479733  0.62628522  1
  O  O28  1  0.25394503  0.76965968  0.74323714  1
  O  O29  1  0.76503623  0.78521392  0.88395954  1
  O  O30  1  0.25451095  0.78251719  0.99024434  1
  O  O31  1  0.78129347  0.77417589  0.12630660  1
