# generated using pymatgen
data_Li9Mn2Co5O16
_symmetry_space_group_name_H-M   'P 1'
_cell_length_a   5.90990128
_cell_length_b   5.92848341
_cell_length_c   8.08556042
_cell_angle_alpha   90.84583918
_cell_angle_beta   89.10848881
_cell_angle_gamma   86.56517952
_symmetry_Int_Tables_number   1
_chemical_formula_structural   Li9Mn2Co5O16
_chemical_formula_sum   'Li9 Mn2 Co5 O16'
_cell_volume   282.71367789
_cell_formula_units_Z   1
loop_
 _symmetry_equiv_pos_site_id
 _symmetry_equiv_pos_as_xyz
  1  'x, y, z'
loop_
 _atom_site_type_symbol
 _atom_site_label
 _atom_site_symmetry_multiplicity
 _atom_site_fract_x
 _atom_site_fract_y
 _atom_site_fract_z
 _atom_site_occupancy
  Li  Li0  1  0.50000000  0.00000000  0.00000000  1
  Li  Li1  1  0.24450073  0.25891187  0.24134012  1
  Li  Li2  1  0.75611921  0.25738831  0.75518563  1
  Li  Li3  1  0.50000000  0.50000000  0.00000000  1
  Li  Li4  1  0.00000000  0.50000000  0.50000000  1
  Li  Li5  1  0.75549927  0.74108813  0.75865988  1
  Li  Li6  1  0.24388079  0.74261169  0.24481437  1
  Li  Li7  1  0.00000000  0.00000000  0.50000000  1
  Li  Li8  1  0.00000000  0.50000000  0.00000000  1
  Mn  Mn9  1  0.00000000  0.00000000  0.00000000  1
  Mn  Mn10  1  0.50000000  0.50000000  0.50000000  1
  Co  Co11  1  0.75806979  0.25966601  0.24740558  1
  Co  Co12  1  0.24193021  0.74033399  0.75259442  1
  Co  Co13  1  0.75301887  0.74744333  0.24845526  1
  Co  Co14  1  0.50000000  0.00000000  0.50000000  1
  Co  Co15  1  0.24698113  0.25255667  0.75154474  1
  O  O16  1  0.24348334  0.76225694  0.98626154  1
  O  O17  1  0.99830967  0.02113476  0.23983784  1
  O  O18  1  0.48044262  0.01339373  0.73254129  1
  O  O19  1  0.22813030  0.22522653  0.98591920  1
  O  O20  1  0.73983466  0.26174695  0.48876570  1
  O  O21  1  0.49605899  0.51516179  0.73928067  1
  O  O22  1  0.98079930  0.51788100  0.25091045  1
  O  O23  1  0.71837927  0.73570333  0.49185221  1
  O  O24  1  0.75651666  0.23774306  0.01373846  1
  O  O25  1  0.50394101  0.48483821  0.26071933  1
  O  O26  1  0.01920070  0.48211900  0.74908955  1
  O  O27  1  0.77186970  0.77477347  0.01408080  1
  O  O28  1  0.26016534  0.73825305  0.51123430  1
  O  O29  1  0.00169033  0.97886524  0.76016216  1
  O  O30  1  0.51955738  0.98660627  0.26745871  1
  O  O31  1  0.28162073  0.26429667  0.50814779  1
