# generated using pymatgen
data_Li9Co7O16
_symmetry_space_group_name_H-M   'P 1'
_cell_length_a   5.85351661
_cell_length_b   5.81639768
_cell_length_c   8.22888497
_cell_angle_alpha   90.20379336
_cell_angle_beta   89.32694708
_cell_angle_gamma   89.14976932
_symmetry_Int_Tables_number   1
_chemical_formula_structural   Li9Co7O16
_chemical_formula_sum   'Li9 Co7 O16'
_cell_volume   280.11162366
_cell_formula_units_Z   1
loop_
 _symmetry_equiv_pos_site_id
 _symmetry_equiv_pos_as_xyz
  1  'x, y, z'
loop_
 _atom_site_type_symbol
 _atom_site_label
 _atom_site_symmetry_multiplicity
 _atom_site_fract_x
 _atom_site_fract_y
 _atom_site_fract_z
 _atom_site_occupancy
  Li  Li0  1  0.50310991  0.00400940  0.00374835  1
  Li  Li1  1  0.25000000  0.25000000  0.25000000  1
  Li  Li2  1  0.75000000  0.25000000  0.75000000  1
  Li  Li3  1  0.50303258  0.49605826  0.00566028  1
  Li  Li4  1  0.99689009  0.49599060  0.49625165  1
  Li  Li5  1  0.75000000  0.75000000  0.75000000  1
  Li  Li6  1  0.25000000  0.75000000  0.25000000  1
  Li  Li7  1  0.99696742  0.00394174  0.49433972  1
  Li  Li8  1  0.75000000  0.25000000  0.25000000  1
  Co  Co9  1  0.99230229  0.00523422  0.00592052  1
  Co  Co10  1  0.75000000  0.75000000  0.25000000  1
  Co  Co11  1  0.50769771  0.49476578  0.49407948  1
  Co  Co12  1  0.25000000  0.75000000  0.75000000  1
  Co  Co13  1  0.99417924  0.49797922  0.00358516  1
  Co  Co14  1  0.50582076  0.00202078  0.49641484  1
  Co  Co15  1  0.25000000  0.25000000  0.75000000  1
  O  O16  1  0.22976648  0.75038104  0.98357684  1
  O  O17  1  0.97806723  0.97646610  0.24238643  1
  O  O18  1  0.49410674  0.99798308  0.73926927  1
  O  O19  1  0.23177080  0.26078974  0.99745814  1
  O  O20  1  0.73049303  0.24799711  0.50203144  1
  O  O21  1  0.47727924  0.50462344  0.74369794  1
  O  O22  1  0.98531694  0.51856888  0.23827510  1
  O  O23  1  0.73719626  0.76057050  0.48498484  1
  O  O24  1  0.76950697  0.25200289  0.99796856  1
  O  O25  1  0.52193277  0.52353390  0.25761357  1
  O  O26  1  0.00589326  0.50201692  0.76073073  1
  O  O27  1  0.76280374  0.73942950  0.01501516  1
  O  O28  1  0.27023352  0.74961896  0.51642316  1
  O  O29  1  0.02272076  0.99537656  0.75630206  1
  O  O30  1  0.51468306  0.98143112  0.26172490  1
  O  O31  1  0.26822920  0.23921026  0.50254186  1
