# generated using pymatgen
data_Li9Mn2Co5O16
_symmetry_space_group_name_H-M   'P 1'
_cell_length_a   5.90228444
_cell_length_b   8.60551528
_cell_length_c   5.88478685
_cell_angle_alpha   70.69459633
_cell_angle_beta   86.81418107
_cell_angle_gamma   88.08068142
_symmetry_Int_Tables_number   1
_chemical_formula_structural   Li9Mn2Co5O16
_chemical_formula_sum   'Li9 Mn2 Co5 O16'
_cell_volume   281.62176082
_cell_formula_units_Z   1
loop_
 _symmetry_equiv_pos_site_id
 _symmetry_equiv_pos_as_xyz
  1  'x, y, z'
loop_
 _atom_site_type_symbol
 _atom_site_label
 _atom_site_symmetry_multiplicity
 _atom_site_fract_x
 _atom_site_fract_y
 _atom_site_fract_z
 _atom_site_occupancy
  Li  Li0  1  0.25000000  0.25000000  0.12500000  1
  Li  Li1  1  0.99553208  0.49632605  0.24713265  1
  Li  Li2  1  0.25000000  0.25000000  0.62500000  1
  Li  Li3  1  0.99594617  0.49144000  0.76014483  1
  Li  Li4  1  0.75119622  0.74750785  0.87607087  1
  Li  Li5  1  0.74880378  0.75249215  0.37392913  1
  Li  Li6  1  0.50405383  0.00856000  0.48985517  1
  Li  Li7  1  0.50446792  0.00367395  0.00286735  1
  Li  Li8  1  0.75000000  0.25000000  0.12500000  1
  Mn  Mn9  1  0.99576387  0.00496310  0.99995934  1
  Mn  Mn10  1  0.50423613  0.49503690  0.25004066  1
  Co  Co11  1  0.24788776  0.74930813  0.37303056  1
  Co  Co12  1  0.99306605  0.00089820  0.49624838  1
  Co  Co13  1  0.75000000  0.25000000  0.62500000  1
  Co  Co14  1  0.50693395  0.49910180  0.75375162  1
  Co  Co15  1  0.25211224  0.75069187  0.87696944  1
  O  O16  1  0.00253398  0.23608220  0.88202642  1
  O  O17  1  0.73743645  0.50234548  0.01231684  1
  O  O18  1  0.98320737  0.23111886  0.40499762  1
  O  O19  1  0.72325630  0.49500201  0.48867633  1
  O  O20  1  0.48545648  0.73646460  0.64601947  1
  O  O21  1  0.48649477  0.73809575  0.14765144  1
  O  O22  1  0.22150160  0.99208991  0.24325910  1
  O  O23  1  0.24258435  0.98598033  0.76621995  1
  O  O24  1  0.49746602  0.26391780  0.36797358  1
  O  O25  1  0.25741565  0.51401967  0.48378005  1
  O  O26  1  0.51679263  0.26888114  0.84500338  1
  O  O27  1  0.27849840  0.50791009  0.00674090  1
  O  O28  1  0.01350523  0.76190425  0.10234756  1
  O  O29  1  0.01454352  0.76353540  0.60397953  1
  O  O30  1  0.77674370  0.00499799  0.76132367  1
  O  O31  1  0.76256355  0.99765452  0.23768216  1
