# generated using pymatgen
data_Li9Mn2Co5O16
_symmetry_space_group_name_H-M   'P 1'
_cell_length_a   5.90378080
_cell_length_b   6.47457660
_cell_length_c   7.86117176
_cell_angle_alpha   87.73184770
_cell_angle_beta   76.20976106
_cell_angle_gamma   76.75276983
_symmetry_Int_Tables_number   1
_chemical_formula_structural   Li9Mn2Co5O16
_chemical_formula_sum   'Li9 Mn2 Co5 O16'
_cell_volume   284.02616262
_cell_formula_units_Z   1
loop_
 _symmetry_equiv_pos_site_id
 _symmetry_equiv_pos_as_xyz
  1  'x, y, z'
loop_
 _atom_site_type_symbol
 _atom_site_label
 _atom_site_symmetry_multiplicity
 _atom_site_fract_x
 _atom_site_fract_y
 _atom_site_fract_z
 _atom_site_occupancy
  Li  Li0  1  0.86696986  0.12384574  0.37127891  1
  Li  Li1  1  0.87977476  0.62566451  0.88704989  1
  Li  Li2  1  0.12749467  0.87125974  0.62245194  1
  Li  Li3  1  0.10829499  0.38625889  0.12730618  1
  Li  Li4  1  0.37250533  0.62874026  0.87754806  1
  Li  Li5  1  0.39170501  0.11374111  0.37269382  1
  Li  Li6  1  0.63303014  0.37615426  0.12872109  1
  Li  Li7  1  0.62022524  0.87433549  0.61295011  1
  Li  Li8  1  0.75000000  0.75000000  0.25000000  1
  Mn  Mn9  1  0.99876948  -0.00016304  0.00410420  1
  Mn  Mn10  1  0.50123052  0.50016304  0.49589580  1
  Co  Co11  1  0.99457042  0.49927805  0.49460450  1
  Co  Co12  1  0.25000000  0.75000000  0.25000000  1
  Co  Co13  1  0.25000000  0.25000000  0.75000000  1
  Co  Co14  1  0.50542958  0.00072195  0.00539550  1
  Co  Co15  1  0.75000000  0.25000000  0.75000000  1
  O  O16  1  0.70670270  0.05943579  0.17584273  1
  O  O17  1  0.68232791  0.54563321  0.66651609  1
  O  O18  1  0.95772117  0.78777416  0.43827740  1
  O  O19  1  0.95573931  0.29941499  0.92962147  1
  O  O20  1  0.20582281  0.54016630  0.68392970  1
  O  O21  1  0.18543361  0.05643095  0.16673737  1
  O  O22  1  0.46485636  0.28901804  0.92983814  1
  O  O23  1  0.43392022  0.79236526  0.43707903  1
  O  O24  1  0.03514364  0.21098196  0.57016186  1
  O  O25  1  0.06607978  0.70763474  0.06292097  1
  O  O26  1  0.29417719  0.95983370  0.81607030  1
  O  O27  1  0.31456639  0.44356905  0.33326263  1
  O  O28  1  0.54227883  0.71222584  0.06172260  1
  O  O29  1  0.54426069  0.20058501  0.57037853  1
  O  O30  1  0.79329730  0.44056421  0.32415727  1
  O  O31  1  0.81767209  0.95436679  0.83348391  1
