# generated using pymatgen
data_Li9Mn2Co5O16
_symmetry_space_group_name_H-M   'P 1'
_cell_length_a   5.78160907
_cell_length_b   10.15790951
_cell_length_c   5.89799116
_cell_angle_alpha   90.97952194
_cell_angle_beta   119.34937510
_cell_angle_gamma   73.46586275
_symmetry_Int_Tables_number   1
_chemical_formula_structural   Li9Mn2Co5O16
_chemical_formula_sum   'Li9 Mn2 Co5 O16'
_cell_volume   286.31819796
_cell_formula_units_Z   1
loop_
 _symmetry_equiv_pos_site_id
 _symmetry_equiv_pos_as_xyz
  1  'x, y, z'
loop_
 _atom_site_type_symbol
 _atom_site_label
 _atom_site_symmetry_multiplicity
 _atom_site_fract_x
 _atom_site_fract_y
 _atom_site_fract_z
 _atom_site_occupancy
  Li  Li0  1  0.99792892  0.24427995  0.74013778  1
  Li  Li1  1  0.49663702  0.75410508  0.24737913  1
  Li  Li2  1  0.99918844  0.24918121  0.25471514  1
  Li  Li3  1  0.49365451  0.75081879  0.74528486  1
  Li  Li4  1  0.50634549  0.24918121  0.25471514  1
  Li  Li5  1  0.00081156  0.75081879  0.74528486  1
  Li  Li6  1  0.50336298  0.24589492  0.75262087  1
  Li  Li7  1  0.00207108  0.75572005  0.25986222  1
  Li  Li8  1  -0.00000000  -0.00000000  0.50000000  1
  Mn  Mn9  1  -0.00000000  -0.00000000  -0.00000000  1
  Mn  Mn10  1  0.50000000  -0.00000000  -0.00000000  1
  Co  Co11  1  0.50000000  0.50000000  0.50000000  1
  Co  Co12  1  0.50000000  0.50000000  -0.00000000  1
  Co  Co13  1  0.50000000  -0.00000000  0.50000000  1
  Co  Co14  1  -0.00000000  0.50000000  -0.00000000  1
  Co  Co15  1  -0.00000000  0.50000000  0.50000000  1
  O  O16  1  0.23777117  0.11879666  0.09433900  1
  O  O17  1  0.75677730  0.61742292  0.63097752  1
  O  O18  1  0.28648736  0.10573129  0.64712698  1
  O  O19  1  0.74717588  0.61101461  0.12342855  1
  O  O20  1  0.75490834  0.10573129  0.64712698  1
  O  O21  1  0.26523806  0.61101461  0.12342855  1
  O  O22  1  0.75022529  0.11274671  0.11319728  1
  O  O23  1  0.24241126  0.62064782  0.60547034  1
  O  O24  1  0.75758874  0.37935218  0.39452966  1
  O  O25  1  0.24977471  0.88725329  0.88680272  1
  O  O26  1  0.73476194  0.38898539  0.87657145  1
  O  O27  1  0.24509166  0.89426871  0.35287302  1
  O  O28  1  0.25282412  0.38898539  0.87657145  1
  O  O29  1  0.71351264  0.89426871  0.35287302  1
  O  O30  1  0.24322270  0.38257708  0.36902248  1
  O  O31  1  0.76222883  0.88120334  0.90566100  1
