# generated using pymatgen
data_Li9Mn2Co5O16
_symmetry_space_group_name_H-M   'P 1'
_cell_length_a   5.94620877
_cell_length_b   7.73523405
_cell_length_c   6.45121910
_cell_angle_alpha   90.55150119
_cell_angle_beta   76.48742321
_cell_angle_gamma   98.79143588
_symmetry_Int_Tables_number   1
_chemical_formula_structural   Li9Mn2Co5O16
_chemical_formula_sum   'Li9 Mn2 Co5 O16'
_cell_volume   285.01734266
_cell_formula_units_Z   1
loop_
 _symmetry_equiv_pos_site_id
 _symmetry_equiv_pos_as_xyz
  1  'x, y, z'
loop_
 _atom_site_type_symbol
 _atom_site_label
 _atom_site_symmetry_multiplicity
 _atom_site_fract_x
 _atom_site_fract_y
 _atom_site_fract_z
 _atom_site_occupancy
  Li  Li0  1  0.50174911  0.99707152  0.00637063  1
  Li  Li1  1  0.24993285  0.25066335  0.25140578  1
  Li  Li2  1  0.86355750  0.12287584  0.61784062  1
  Li  Li3  1  0.62500000  0.37500000  0.87500000  1
  Li  Li4  1  0.00006715  0.49933665  0.49859422  1
  Li  Li5  1  0.38644250  0.62712416  0.13215938  1
  Li  Li6  1  0.12500000  0.87500000  0.37500000  1
  Li  Li7  1  0.74825089  0.75292848  0.74362937  1
  Li  Li8  1  0.62500000  0.87500000  0.37500000  1
  Mn  Mn9  1  0.99170278  0.99589519  0.00178377  1
  Mn  Mn10  1  0.25829722  0.75410481  0.74821623  1
  Co  Co11  1  0.73504328  0.24177969  0.25568648  1
  Co  Co12  1  0.51495672  0.50822031  0.49431352  1
  Co  Co13  1  0.12500000  0.37500000  0.87500000  1
  Co  Co14  1  0.87149878  0.62463152  0.12577548  1
  Co  Co15  1  0.37850122  0.12536848  0.62422452  1
  O  O16  1  0.18635041  0.82543798  0.04801577  1
  O  O17  1  0.94317304  0.06528005  0.28972545  1
  O  O18  1  0.52547814  0.93413391  0.68863485  1
  O  O19  1  0.27864567  0.17666768  0.92345518  1
  O  O20  1  0.69248238  0.31717461  0.55828508  1
  O  O21  1  0.03427130  0.42944999  0.16685494  1
  O  O22  1  0.80086906  0.67070068  0.41939494  1
  O  O23  1  0.43398457  0.58048701  0.80978553  1
  O  O24  1  0.81601543  0.16951299  0.94021447  1
  O  O25  1  0.55751762  0.43282539  0.19171492  1
  O  O26  1  0.21572870  0.32055001  0.58314506  1
  O  O27  1  0.97135433  0.57333232  0.82654482  1
  O  O28  1  0.30682696  0.68471995  0.46027455  1
  O  O29  1  0.72452186  0.81586609  0.06136515  1
  O  O30  1  0.44913094  0.07929932  0.33060506  1
  O  O31  1  0.06364959  0.92456202  0.70198423  1
