# generated using pymatgen
data_Li9Mn2Co5O16
_symmetry_space_group_name_H-M   'P 1'
_cell_length_a   5.89711143
_cell_length_b   7.87248975
_cell_length_c   6.44151641
_cell_angle_alpha   86.06599382
_cell_angle_beta   76.88190255
_cell_angle_gamma   75.85912183
_symmetry_Int_Tables_number   1
_chemical_formula_structural   Li9Mn2Co5O16
_chemical_formula_sum   'Li9 Mn2 Co5 O16'
_cell_volume   282.39055326
_cell_formula_units_Z   1
loop_
 _symmetry_equiv_pos_site_id
 _symmetry_equiv_pos_as_xyz
  1  'x, y, z'
loop_
 _atom_site_type_symbol
 _atom_site_label
 _atom_site_symmetry_multiplicity
 _atom_site_fract_x
 _atom_site_fract_y
 _atom_site_fract_z
 _atom_site_occupancy
  Li  Li0  1  0.93292521  0.37891026  0.87343052  1
  Li  Li1  1  0.19851184  0.87313578  0.38350791  1
  Li  Li2  1  0.44417653  0.38521455  0.87497005  1
  Li  Li3  1  0.07279790  0.62659113  0.11775981  1
  Li  Li4  1  0.30582347  0.11478545  0.62502995  1
  Li  Li5  1  0.55148816  0.62686422  0.11649209  1
  Li  Li6  1  0.67720210  0.87340887  0.38224019  1
  Li  Li7  1  0.81707479  0.12108974  0.62656948  1
  Li  Li8  1  0.37500000  0.75000000  0.75000000  1
  Mn  Mn9  1  0.00370504  0.99511638  0.99673245  1
  Mn  Mn10  1  0.74629496  0.50488362  0.50326755  1
  Co  Co11  1  0.25294858  0.50571937  0.49871274  1
  Co  Co12  1  0.49705142  0.99428063  0.00128726  1
  Co  Co13  1  0.62710614  0.25204065  0.24947717  1
  Co  Co14  1  0.87500000  0.75000000  0.75000000  1
  Co  Co15  1  0.12289386  0.24795935  0.25052283  1
  O  O16  1  0.72326518  0.18310175  0.95745966  1
  O  O17  1  0.95567487  0.66888122  0.45487118  1
  O  O18  1  0.20815767  0.16663816  0.95577881  1
  O  O19  1  0.86161348  0.43150604  0.20191659  1
  O  O20  1  0.09036926  0.94150713  0.70436543  1
  O  O21  1  0.35458008  0.42985536  0.20634792  1
  O  O22  1  0.48822551  0.67699604  0.43502013  1
  O  O23  1  0.60736877  0.93279434  0.71342183  1
  O  O24  1  0.14263023  0.56720566  0.78657817  1
  O  O25  1  0.39541992  0.07014464  0.29365208  1
  O  O26  1  0.65962974  0.55849287  0.79563457  1
  O  O27  1  0.26177349  0.82300396  0.06497987  1
  O  O28  1  0.54184233  0.33336184  0.54422119  1
  O  O29  1  0.79432413  0.83111878  0.04512882  1
  O  O30  1  0.88838652  0.06849396  0.29808341  1
  O  O31  1  0.02673382  0.31689825  0.54254034  1
