# generated using pymatgen
data_Li7Mn2(CoO4)3
_symmetry_space_group_name_H-M   'P 1'
_cell_length_a   2.91374189
_cell_length_b   7.81771624
_cell_length_c   10.24097793
_cell_angle_alpha   69.13674469
_cell_angle_beta   90.00000006
_cell_angle_gamma   79.25985931
_symmetry_Int_Tables_number   1
_chemical_formula_structural   Li7Mn2(CoO4)3
_chemical_formula_sum   'Li7 Mn2 Co3 O12'
_cell_volume   213.60313470
_cell_formula_units_Z   1
loop_
 _symmetry_equiv_pos_site_id
 _symmetry_equiv_pos_as_xyz
  1  'x, y, z'
loop_
 _atom_site_type_symbol
 _atom_site_label
 _atom_site_symmetry_multiplicity
 _atom_site_fract_x
 _atom_site_fract_y
 _atom_site_fract_z
 _atom_site_occupancy
  Li  Li0  1  0.83392867  0.33214166  0.60451244  1
  Li  Li1  1  0.16794401  0.66411299  0.90723509  1
  Li  Li2  1  0.50487503  0.99024993  0.25083520  1
  Li  Li3  1  0.82891381  0.34217137  0.06257960  1
  Li  Li4  1  0.16285299  0.67429503  0.42400489  1
  Li  Li5  1  0.49582012  0.00835976  0.74903633  1
  Li  Li6  1  0.33394505  0.33210890  0.83035821  1
  Mn  Mn7  1  0.99760434  0.00479132  0.99604097  1
  Mn  Mn8  1  0.33193231  0.33613439  0.33286239  1
  Co  Co9  1  0.67945100  0.64109901  0.67957193  1
  Co  Co10  1  0.00776868  0.98446264  0.51175346  1
  Co  Co11  1  0.66646117  0.66707867  0.16649470  1
  O  O12  1  0.74247925  0.51504250  0.86611083  1
  O  O13  1  0.09157644  0.81684713  0.19773229  1
  O  O14  1  0.41317748  0.17364405  0.52251242  1
  O  O15  1  0.75469368  0.49061364  0.35838212  1
  O  O16  1  0.07904790  0.84190420  0.69735801  1
  O  O17  1  0.42940403  0.14119095  0.04197780  1
  O  O18  1  0.90428274  0.19143451  0.29582110  1
  O  O19  1  0.24613895  0.50772109  0.62321793  1
  O  O20  1  0.58030418  0.83939264  0.97607416  1
  O  O21  1  0.92667311  0.14665377  0.81082065  1
  O  O22  1  0.24337800  0.51324301  0.13741089  1
  O  O23  1  0.57734707  0.84530685  0.45729658  1
