# generated using pymatgen
data_Li9Mn2Co5O16
_symmetry_space_group_name_H-M   'P 1'
_cell_length_a   5.83258100
_cell_length_b   9.74946137
_cell_length_c   5.77771319
_cell_angle_alpha   88.67134898
_cell_angle_beta   61.53101927
_cell_angle_gamma   97.33892694
_symmetry_Int_Tables_number   1
_chemical_formula_structural   Li9Mn2Co5O16
_chemical_formula_sum   'Li9 Mn2 Co5 O16'
_cell_volume   285.11641498
_cell_formula_units_Z   1
loop_
 _symmetry_equiv_pos_site_id
 _symmetry_equiv_pos_as_xyz
  1  'x, y, z'
loop_
 _atom_site_type_symbol
 _atom_site_label
 _atom_site_symmetry_multiplicity
 _atom_site_fract_x
 _atom_site_fract_y
 _atom_site_fract_z
 _atom_site_occupancy
  Li  Li0  1  0.74017755  0.24577105  0.13332114  1
  Li  Li1  1  0.73727463  0.75174033  0.38545287  1
  Li  Li2  1  0.74710807  0.24807870  0.62326400  1
  Li  Li3  1  0.26272537  0.24825967  0.61454713  1
  Li  Li4  1  0.25982245  0.75422895  0.86667886  1
  Li  Li5  1  0.25106767  0.24543607  0.11832832  1
  Li  Li6  1  0.74893233  0.75456393  0.88167168  1
  Li  Li7  1  0.25289193  0.75192130  0.37673600  1
  Li  Li8  1  0.50000000  -0.00000000  0.50000000  1
  Mn  Mn9  1  -0.00000000  -0.00000000  -0.00000000  1
  Mn  Mn10  1  -0.00000000  -0.00000000  0.50000000  1
  Co  Co11  1  -0.00009495  0.50014436  0.24991694  1
  Co  Co12  1  0.00009495  0.49985564  0.75008306  1
  Co  Co13  1  0.50012033  0.49977520  0.75081306  1
  Co  Co14  1  0.50000000  -0.00000000  -0.00000000  1
  Co  Co15  1  0.49987967  0.50022480  0.24918694  1
  O  O16  1  0.90730785  0.11774734  0.79061164  1
  O  O17  1  0.87122191  0.61443206  0.07447789  1
  O  O18  1  0.88896561  0.11225606  0.29987421  1
  O  O19  1  0.35616019  0.10531765  0.30373664  1
  O  O20  1  0.37528844  0.61836068  0.56972961  1
  O  O21  1  0.35487172  0.10676147  0.83615549  1
  O  O22  1  0.87184857  0.61476768  0.57415566  1
  O  O23  1  0.37318393  0.61719286  0.07073859  1
  O  O24  1  0.62471156  0.38163932  0.43027039  1
  O  O25  1  0.64383981  0.89468235  0.69626336  1
  O  O26  1  0.62681607  0.38280714  0.92926141  1
  O  O27  1  0.12877809  0.38556794  0.92552211  1
  O  O28  1  0.09269215  0.88225266  0.20938836  1
  O  O29  1  0.12815143  0.38523232  0.42584434  1
  O  O30  1  0.64512828  0.89323853  0.16384451  1
  O  O31  1  0.11103439  0.88774394  0.70012579  1
