# generated using pymatgen
data_Li9Mn2Co5O16
_symmetry_space_group_name_H-M   'P 1'
_cell_length_a   5.90034892
_cell_length_b   6.44838840
_cell_length_c   8.58689023
_cell_angle_alpha   96.89050793
_cell_angle_beta   70.72311613
_cell_angle_gamma   113.79551230
_symmetry_Int_Tables_number   1
_chemical_formula_structural   Li9Mn2Co5O16
_chemical_formula_sum   'Li9 Mn2 Co5 O16'
_cell_volume   282.14511552
_cell_formula_units_Z   1
loop_
 _symmetry_equiv_pos_site_id
 _symmetry_equiv_pos_as_xyz
  1  'x, y, z'
loop_
 _atom_site_type_symbol
 _atom_site_label
 _atom_site_symmetry_multiplicity
 _atom_site_fract_x
 _atom_site_fract_y
 _atom_site_fract_z
 _atom_site_occupancy
  Li  Li0  1  0.25727612  0.25232891  0.24830855  1
  Li  Li1  1  0.73585715  0.99488262  0.49589835  1
  Li  Li2  1  0.74054631  0.24582378  0.25185861  1
  Li  Li3  1  0.26638063  0.99468788  0.49016951  1
  Li  Li4  1  0.25260247  0.74928595  0.74898942  1
  Li  Li5  1  0.74901855  0.75094230  0.75081999  1
  Li  Li6  1  0.74798370  0.50394992  0.00972300  1
  Li  Li7  1  0.24677283  0.50324089  0.00443311  1
  Li  Li8  1  0.49946383  0.75148935  0.25159292  1
  Mn  Mn9  1  0.99196786  0.99496074  0.00074797  1
  Mn  Mn10  1  0.50248691  0.50398799  0.49596120  1
  Co  Co11  1  0.00894677  0.50702404  0.49788301  1
  Co  Co12  1  0.49861917  0.24835700  0.74981660  1
  Co  Co13  1  0.49698360  0.99734340  0.00373558  1
  Co  Co14  1  0.99883289  0.75066330  0.24929704  1
  Co  Co15  1  0.00367367  0.25156698  0.74986281  1
  O  O16  1  0.89501506  0.98946576  0.23637677  1
  O  O17  1  0.38016694  0.73583106  0.50332493  1
  O  O18  1  0.37846959  0.99408133  0.23190418  1
  O  O19  1  0.85330655  0.72430589  0.49298691  1
  O  O20  1  0.89008140  0.48404976  0.73512133  1
  O  O21  1  0.39263155  0.48818593  0.74052382  1
  O  O22  1  0.35417590  0.22143955  0.98863954  1
  O  O23  1  0.89103408  0.24218008  0.98893901  1
  O  O24  1  0.61434363  0.49861720  0.26562887  1
  O  O25  1  0.14748000  0.27917789  0.50950716  1
  O  O26  1  0.10306484  0.51462435  0.26683930  1
  O  O27  1  0.61476289  0.25921612  0.51292944  1
  O  O28  1  0.61519966  0.01684133  0.76439545  1
  O  O29  1  0.11024974  0.01152119  0.75916714  1
  O  O30  1  0.10948998  0.75718751  0.00599649  1
  O  O31  1  0.65311573  0.78273999  0.99862197  1
