# generated using pymatgen
data_Li9Mn2Co5O16
_symmetry_space_group_name_H-M   'P 1'
_cell_length_a   5.90172650
_cell_length_b   5.87653871
_cell_length_c   8.27252007
_cell_angle_alpha   90.00643992
_cell_angle_beta   88.97653877
_cell_angle_gamma   89.61899890
_symmetry_Int_Tables_number   1
_chemical_formula_structural   Li9Mn2Co5O16
_chemical_formula_sum   'Li9 Mn2 Co5 O16'
_cell_volume   286.85313868
_cell_formula_units_Z   1
loop_
 _symmetry_equiv_pos_site_id
 _symmetry_equiv_pos_as_xyz
  1  'x, y, z'
loop_
 _atom_site_type_symbol
 _atom_site_label
 _atom_site_symmetry_multiplicity
 _atom_site_fract_x
 _atom_site_fract_y
 _atom_site_fract_z
 _atom_site_occupancy
  Li  Li0  1  0.50000000  0.00000000  -0.00000000  1
  Li  Li1  1  0.25195269  0.25493936  0.25463108  1
  Li  Li2  1  0.74505150  0.25609212  0.74387147  1
  Li  Li3  1  0.50000000  0.50000000  -0.00000000  1
  Li  Li4  1  0.00000000  0.50000000  0.50000000  1
  Li  Li5  1  0.74804731  0.74506064  0.74536892  1
  Li  Li6  1  0.25494850  0.74390788  0.25612853  1
  Li  Li7  1  0.00000000  0.00000000  0.50000000  1
  Li  Li8  1  0.50000000  0.50000000  0.50000000  1
  Mn  Mn9  1  0.00000000  0.00000000  -0.00000000  1
  Mn  Mn10  1  0.50000000  0.00000000  0.50000000  1
  Co  Co11  1  0.74019910  0.25683378  0.25482381  1
  Co  Co12  1  0.25980090  0.74316622  0.74517619  1
  Co  Co13  1  0.00000000  0.50000000  -0.00000000  1
  Co  Co14  1  0.74723986  0.74380671  0.25739122  1
  Co  Co15  1  0.25276014  0.25619329  0.74260878  1
  O  O16  1  0.22844664  0.76160025  0.00027001  1
  O  O17  1  0.98280663  0.00858877  0.23333280  1
  O  O18  1  0.49641900  -0.00012762  0.73426746  1
  O  O19  1  0.23184421  0.23540027  0.98913647  1
  O  O20  1  0.73403812  0.23157312  0.49458224  1
  O  O21  1  0.47835590  0.50906280  0.75891114  1
  O  O22  1  0.99429990  0.49781208  0.23991436  1
  O  O23  1  0.73784442  0.76493596  0.48568550  1
  O  O24  1  0.77155336  0.23839975  -0.00027001  1
  O  O25  1  0.52164410  0.49093720  0.24108886  1
  O  O26  1  0.00570010  0.50218792  0.76008564  1
  O  O27  1  0.76815579  0.76459973  0.01086353  1
  O  O28  1  0.26596188  0.76842688  0.50541776  1
  O  O29  1  0.01719337  0.99141123  0.76666720  1
  O  O30  1  0.50358100  0.00012762  0.26573254  1
  O  O31  1  0.26215558  0.23506404  0.51431450  1
