# generated using pymatgen
data_Li9Mn2Co5O16
_symmetry_space_group_name_H-M   'P 1'
_cell_length_a   5.83742812
_cell_length_b   10.10846090
_cell_length_c   5.85793150
_cell_angle_alpha   89.80799226
_cell_angle_beta   120.92189875
_cell_angle_gamma   74.17113134
_symmetry_Int_Tables_number   1
_chemical_formula_structural   Li9Mn2Co5O16
_chemical_formula_sum   'Li9 Mn2 Co5 O16'
_cell_volume   280.94150071
_cell_formula_units_Z   1
loop_
 _symmetry_equiv_pos_site_id
 _symmetry_equiv_pos_as_xyz
  1  'x, y, z'
loop_
 _atom_site_type_symbol
 _atom_site_label
 _atom_site_symmetry_multiplicity
 _atom_site_fract_x
 _atom_site_fract_y
 _atom_site_fract_z
 _atom_site_occupancy
  Li  Li0  1  -0.00810332  0.26124313  0.75198526  1
  Li  Li1  1  0.50540389  0.74694846  0.25457543  1
  Li  Li2  1  0.00149345  0.25250247  0.24192173  1
  Li  Li3  1  0.50758530  0.74885368  0.75602693  1
  Li  Li4  1  0.49241470  0.25114632  0.24397307  1
  Li  Li5  1  -0.00149345  0.74749753  0.75807827  1
  Li  Li6  1  0.49459611  0.25305154  0.74542457  1
  Li  Li7  1  0.00810332  0.73875687  0.24801474  1
  Li  Li8  1  0.00000000  0.50000000  0.00000000  1
  Mn  Mn9  1  0.00000000  0.00000000  0.00000000  1
  Mn  Mn10  1  0.50000000  0.50000000  0.00000000  1
  Co  Co11  1  0.50000000  0.50000000  0.50000000  1
  Co  Co12  1  0.00000000  0.00000000  0.50000000  1
  Co  Co13  1  0.50000000  0.00000000  0.50000000  1
  Co  Co14  1  0.50000000  0.00000000  0.00000000  1
  Co  Co15  1  0.00000000  0.50000000  0.50000000  1
  O  O16  1  0.23228125  0.12200235  0.10413491  1
  O  O17  1  0.75868310  0.60284372  0.60723090  1
  O  O18  1  0.27378954  0.11120881  0.62096221  1
  O  O19  1  0.75463851  0.61052220  0.14543150  1
  O  O20  1  0.75310129  0.11245938  0.63854577  1
  O  O21  1  0.28394829  0.60588886  0.14265256  1
  O  O22  1  0.76143595  0.11618230  0.11166142  1
  O  O23  1  0.24078133  0.61781680  0.64493733  1
  O  O24  1  0.75921867  0.38218320  0.35506267  1
  O  O25  1  0.23856405  0.88381770  0.88833858  1
  O  O26  1  0.71605171  0.39411114  0.85734744  1
  O  O27  1  0.24689871  0.88754062  0.36145423  1
  O  O28  1  0.24536149  0.38947780  0.85456850  1
  O  O29  1  0.72621046  0.88879119  0.37903779  1
  O  O30  1  0.24131690  0.39715628  0.39276910  1
  O  O31  1  0.76771875  0.87799765  0.89586509  1
