# generated using pymatgen
data_Li9Mn2Co5O16
_symmetry_space_group_name_H-M   'P 1'
_cell_length_a   5.90997822
_cell_length_b   6.44740692
_cell_length_c   7.89181509
_cell_angle_alpha   88.63036928
_cell_angle_beta   76.24545649
_cell_angle_gamma   75.04216456
_symmetry_Int_Tables_number   1
_chemical_formula_structural   Li9Mn2Co5O16
_chemical_formula_sum   'Li9 Mn2 Co5 O16'
_cell_volume   281.96454872
_cell_formula_units_Z   1
loop_
 _symmetry_equiv_pos_site_id
 _symmetry_equiv_pos_as_xyz
  1  'x, y, z'
loop_
 _atom_site_type_symbol
 _atom_site_label
 _atom_site_symmetry_multiplicity
 _atom_site_fract_x
 _atom_site_fract_y
 _atom_site_fract_z
 _atom_site_occupancy
  Li  Li0  1  0.11981898  0.37865376  0.11975183  1
  Li  Li1  1  0.74782235  0.74732063  0.24358867  1
  Li  Li2  1  0.99975435  0.50005255  0.49855196  1
  Li  Li3  1  0.62203856  0.87761939  0.62274589  1
  Li  Li4  1  0.87241127  0.61587983  0.88635158  1
  Li  Li5  1  0.50185728  0.00176227  0.00446135  1
  Li  Li6  1  0.38408919  0.12610414  0.36976372  1
  Li  Li7  1  0.25009692  0.25037640  0.75361046  1
  Li  Li8  1  0.62668559  0.37597281  0.12361853  1
  Mn  Mn9  1  0.99503837  0.00354274  0.00188437  1
  Mn  Mn10  1  0.49804999  0.49956027  0.49678007  1
  Co  Co11  1  0.25276912  0.74661202  0.24713573  1
  Co  Co12  1  0.86654032  0.12510044  0.36856782  1
  Co  Co13  1  0.12644014  0.87503814  0.62594026  1
  Co  Co14  1  0.75291284  0.25385493  0.75570428  1
  Co  Co15  1  0.38028253  0.62492932  0.87984822  1
  O  O16  1  0.94335345  0.29419747  0.93896205  1
  O  O17  1  0.53866150  0.69007267  0.07288949  1
  O  O18  1  0.80556051  0.42478999  0.33027466  1
  O  O19  1  0.43112675  0.80275156  0.44920816  1
  O  O20  1  0.66566076  0.55072298  0.68303785  1
  O  O21  1  0.30394911  0.92270828  0.82454356  1
  O  O22  1  0.16060606  0.05172528  0.18084012  1
  O  O23  1  0.04774232  0.17093540  0.57678454  1
  O  O24  1  0.32643179  0.45630303  0.32749297  1
  O  O25  1  0.95359770  0.82788882  0.42635659  1
  O  O26  1  0.19458414  0.57761647  0.67488008  1
  O  O27  1  0.83498268  0.95051778  0.81920554  1
  O  O28  1  0.07182803  0.69474331  0.05156904  1
  O  O29  1  0.70424191  0.05796790  0.17699388  1
  O  O30  1  0.57018464  0.19829674  0.55084473  1
  O  O31  1  0.45088586  0.32638668  0.91781501  1
