# generated using pymatgen
data_Li9Mn2Co5O16
_symmetry_space_group_name_H-M   'P 1'
_cell_length_a   5.76641512
_cell_length_b   10.11867320
_cell_length_c   5.85926860
_cell_angle_alpha   90.67961547
_cell_angle_beta   119.59357299
_cell_angle_gamma   73.54906896
_symmetry_Int_Tables_number   1
_chemical_formula_structural   Li9Mn2Co5O16
_chemical_formula_sum   'Li9 Mn2 Co5 O16'
_cell_volume   281.73345903
_cell_formula_units_Z   1
loop_
 _symmetry_equiv_pos_site_id
 _symmetry_equiv_pos_as_xyz
  1  'x, y, z'
loop_
 _atom_site_type_symbol
 _atom_site_label
 _atom_site_symmetry_multiplicity
 _atom_site_fract_x
 _atom_site_fract_y
 _atom_site_fract_z
 _atom_site_occupancy
  Li  Li0  1  0.00031521  0.24519498  0.74404063  1
  Li  Li1  1  0.49531398  0.75595563  0.24681679  1
  Li  Li2  1  -0.00146387  0.24801562  0.25448855  1
  Li  Li3  1  0.49304448  0.75560480  0.74762233  1
  Li  Li4  1  0.50695552  0.24439520  0.25237767  1
  Li  Li5  1  0.00146387  0.75198438  0.74551145  1
  Li  Li6  1  0.50468602  0.24404437  0.75318321  1
  Li  Li7  1  0.99968479  0.75480502  0.25595937  1
  Li  Li8  1  0.00000000  -0.00000000  0.50000000  1
  Mn  Mn9  1  0.00000000  -0.00000000  0.00000000  1
  Mn  Mn10  1  0.00000000  0.50000000  0.00000000  1
  Co  Co11  1  0.50000000  0.50000000  0.50000000  1
  Co  Co12  1  0.50000000  0.50000000  0.00000000  1
  Co  Co13  1  0.50000000  -0.00000000  0.50000000  1
  Co  Co14  1  0.50000000  -0.00000000  0.00000000  1
  Co  Co15  1  0.00000000  0.50000000  0.50000000  1
  O  O16  1  0.23921132  0.11662586  0.09627477  1
  O  O17  1  0.76607680  0.61711421  0.64842661  1
  O  O18  1  0.29048607  0.10361974  0.65158102  1
  O  O19  1  0.76864295  0.61544547  0.12630299  1
  O  O20  1  0.75155950  0.10723824  0.64242500  1
  O  O21  1  0.24269909  0.61569990  0.12638148  1
  O  O22  1  0.74661919  0.11156037  0.11048117  1
  O  O23  1  0.24517770  0.62043583  0.61224247  1
  O  O24  1  0.75482230  0.37956417  0.38775753  1
  O  O25  1  0.25338081  0.88843963  0.88951883  1
  O  O26  1  0.75730091  0.38430010  0.87361852  1
  O  O27  1  0.24844050  0.89276176  0.35757500  1
  O  O28  1  0.23135705  0.38455453  0.87369701  1
  O  O29  1  0.70951393  0.89638026  0.34841898  1
  O  O30  1  0.23392320  0.38288579  0.35157339  1
  O  O31  1  0.76078868  0.88337414  0.90372523  1
