# generated using pymatgen
data_Li9Mn2Co5O16
_symmetry_space_group_name_H-M   'P 1'
_cell_length_a   5.90752003
_cell_length_b   7.78182296
_cell_length_c   7.71159259
_cell_angle_alpha   114.80333465
_cell_angle_beta   111.40260766
_cell_angle_gamma   67.80975352
_symmetry_Int_Tables_number   1
_chemical_formula_structural   Li9Mn2Co5O16
_chemical_formula_sum   'Li9 Mn2 Co5 O16'
_cell_volume   288.84345517
_cell_formula_units_Z   1
loop_
 _symmetry_equiv_pos_site_id
 _symmetry_equiv_pos_as_xyz
  1  'x, y, z'
loop_
 _atom_site_type_symbol
 _atom_site_label
 _atom_site_symmetry_multiplicity
 _atom_site_fract_x
 _atom_site_fract_y
 _atom_site_fract_z
 _atom_site_occupancy
  Li  Li0  1  0.37947018  0.12617884  0.38188437  1
  Li  Li1  1  0.25000000  0.25000000  0.75000000  1
  Li  Li2  1  0.62571212  0.88287830  0.62585765  1
  Li  Li3  1  0.50141864  -0.00011013  0.99907485  1
  Li  Li4  1  0.87428788  0.61712170  0.87414235  1
  Li  Li5  1  0.75000000  0.75000000  0.25000000  1
  Li  Li6  1  0.12052982  0.37382116  0.11811563  1
  Li  Li7  1  -0.00141864  0.50011013  0.50092515  1
  Li  Li8  1  0.75000000  0.25000000  0.75000000  1
  Mn  Mn9  1  0.99453764  -0.00019339  0.99702863  1
  Mn  Mn10  1  0.50546236  0.50019339  0.50297137  1
  Co  Co11  1  0.87212656  0.12604936  0.38498228  1
  Co  Co12  1  0.62787344  0.37395064  0.11501772  1
  Co  Co13  1  0.37582430  0.61423666  0.86938156  1
  Co  Co14  1  0.25000000  0.75000000  0.25000000  1
  Co  Co15  1  0.12417570  0.88576334  0.63061844  1
  O  O16  1  0.99051571  0.22881165  0.23446890  1
  O  O17  1  0.84805039  0.38103454  0.60919014  1
  O  O18  1  0.23936306  0.00034163  0.49728120  1
  O  O19  1  0.12243823  0.10334783  0.87257491  1
  O  O20  1  0.49156757  0.73223896  0.73489224  1
  O  O21  1  0.34823504  0.86695426  0.11201660  1
  O  O22  1  0.73322423  0.50316436  0.01209962  1
  O  O23  1  0.60586721  0.61930027  0.37489472  1
  O  O24  1  0.76677577  -0.00316536  0.48789938  1
  O  O25  1  0.65194961  0.11896546  0.89080886  1
  O  O26  1  0.00843243  0.76776004  0.76510776  1
  O  O27  1  0.89413279  0.88069873  0.12510528  1
  O  O28  1  0.26063694  0.49965737  0.00271780  1
  O  O29  1  0.15176496  0.63304474  0.38798240  1
  O  O30  1  0.50948529  0.27118835  0.26553110  1
  O  O31  1  0.37756177  0.39665117  0.62742409  1
