# generated using pymatgen
data_Li9Mn2Co5O16
_symmetry_space_group_name_H-M   'P 1'
_cell_length_a   5.89127755
_cell_length_b   6.44995373
_cell_length_c   8.62045477
_cell_angle_alpha   96.97660103
_cell_angle_beta   70.50064918
_cell_angle_gamma   114.16533296
_symmetry_Int_Tables_number   1
_chemical_formula_structural   Li9Mn2Co5O16
_chemical_formula_sum   'Li9 Mn2 Co5 O16'
_cell_volume   281.67409327
_cell_formula_units_Z   1
loop_
 _symmetry_equiv_pos_site_id
 _symmetry_equiv_pos_as_xyz
  1  'x, y, z'
loop_
 _atom_site_type_symbol
 _atom_site_label
 _atom_site_symmetry_multiplicity
 _atom_site_fract_x
 _atom_site_fract_y
 _atom_site_fract_z
 _atom_site_occupancy
  Li  Li0  1  0.24259148  0.25507927  0.25717745  1
  Li  Li1  1  0.74802344  0.00189200  0.49904983  1
  Li  Li2  1  0.75384722  0.25252270  0.25491629  1
  Li  Li3  1  0.25197656  0.99810800  0.50095017  1
  Li  Li4  1  0.24615278  0.74747730  0.74508371  1
  Li  Li5  1  0.75740852  0.74492073  0.74282255  1
  Li  Li6  1  0.75578519  0.49918172  0.00018960  1
  Li  Li7  1  0.24421481  0.50081828  -0.00018960  1
  Li  Li8  1  -0.00000000  0.50000000  0.50000000  1
  Mn  Mn9  1  -0.00000000  -0.00000000  -0.00000000  1
  Mn  Mn10  1  0.50000000  0.50000000  0.50000000  1
  Co  Co11  1  0.48413804  0.74155158  0.25464604  1
  Co  Co12  1  0.51586196  0.25844842  0.74535396  1
  Co  Co13  1  0.50000000  -0.00000000  -0.00000000  1
  Co  Co14  1  0.99862204  0.74576718  0.25128251  1
  Co  Co15  1  0.00137796  0.25423282  0.74871749  1
  O  O16  1  0.88740030  0.98753873  0.23732871  1
  O  O17  1  0.38939918  0.74287887  0.48915836  1
  O  O18  1  0.39201668  0.98906901  0.23416685  1
  O  O19  1  0.85132956  0.73060430  0.48566320  1
  O  O20  1  0.87377972  0.47933731  0.75449370  1
  O  O21  1  0.39909938  0.49618601  0.73790903  1
  O  O22  1  0.35333907  0.22072151  0.99067148  1
  O  O23  1  0.88522114  0.23790739  0.99028638  1
  O  O24  1  0.60090062  0.50381399  0.26209097  1
  O  O25  1  0.14867044  0.26939570  0.51433680  1
  O  O26  1  0.12622028  0.52066269  0.24550630  1
  O  O27  1  0.61060082  0.25712113  0.51084164  1
  O  O28  1  0.60798332  0.01093099  0.76583315  1
  O  O29  1  0.11259970  0.01246127  0.76267129  1
  O  O30  1  0.11477886  0.76209261  0.00971362  1
  O  O31  1  0.64666093  0.77927849  0.00932852  1
