# generated using pymatgen
data_Li9Mn2Co5O16
_symmetry_space_group_name_H-M   'P 1'
_cell_length_a   5.90428651
_cell_length_b   8.59039290
_cell_length_c   5.89709347
_cell_angle_alpha   70.69488089
_cell_angle_beta   86.60233549
_cell_angle_gamma   88.04604610
_symmetry_Int_Tables_number   1
_chemical_formula_structural   Li9Mn2Co5O16
_chemical_formula_sum   'Li9 Mn2 Co5 O16'
_cell_volume   281.75378679
_cell_formula_units_Z   1
loop_
 _symmetry_equiv_pos_site_id
 _symmetry_equiv_pos_as_xyz
  1  'x, y, z'
loop_
 _atom_site_type_symbol
 _atom_site_label
 _atom_site_symmetry_multiplicity
 _atom_site_fract_x
 _atom_site_fract_y
 _atom_site_fract_z
 _atom_site_occupancy
  Li  Li0  1  0.24934300  0.25134482  0.12624610  1
  Li  Li1  1  0.99629537  0.49628650  0.24887640  1
  Li  Li2  1  0.25121619  0.24847629  0.62546550  1
  Li  Li3  1  0.99673123  0.49131205  0.75862694  1
  Li  Li4  1  0.74961462  0.74904817  0.87621684  1
  Li  Li5  1  0.75016546  0.75166071  0.37247889  1
  Li  Li6  1  0.50504144  0.00801828  0.49053686  1
  Li  Li7  1  0.50380563  0.00386365  0.00237392  1
  Li  Li8  1  0.74813113  0.24835208  0.12611274  1
  Mn  Mn9  1  0.99599169  0.00361451  0.00021078  1
  Mn  Mn10  1  0.50515232  0.50016101  0.75413918  1
  Co  Co11  1  0.50274426  0.49511677  0.25313755  1
  Co  Co12  1  0.25024466  0.74993524  0.37369310  1
  Co  Co13  1  0.99291771  0.00262834  0.49348601  1
  Co  Co14  1  0.74997051  0.25094242  0.62615052  1
  Co  Co15  1  0.25014731  0.75011792  0.87466224  1
  O  O16  1  0.00263349  0.23339448  0.88399768  1
  O  O17  1  0.71541924  0.50184175  0.98847641  1
  O  O18  1  0.98474544  0.23440402  0.40307480  1
  O  O19  1  0.74504668  0.49375465  0.51849889  1
  O  O20  1  0.48870009  0.74210710  0.64090374  1
  O  O21  1  0.48329486  0.73394847  0.14729284  1
  O  O22  1  0.22031750  0.99214382  0.24062388  1
  O  O23  1  0.24240157  0.98502891  0.76820899  1
  O  O24  1  0.50143251  0.26672923  0.36837687  1
  O  O25  1  0.28105841  0.51156458  0.50731199  1
  O  O26  1  0.51426471  0.26482327  0.84950054  1
  O  O27  1  0.25550237  0.51104398  0.97883980  1
  O  O28  1  0.01179607  0.75765446  0.10571792  1
  O  O29  1  0.01630055  0.76696472  0.60031843  1
  O  O30  1  0.77723053  0.00632240  0.75861720  1
  O  O31  1  0.76234348  0.99739538  0.23782446  1
