# generated using pymatgen
data_Li9Mn2Co5O16
_symmetry_space_group_name_H-M   'P 1'
_cell_length_a   5.90811341
_cell_length_b   8.10757736
_cell_length_c   6.45272868
_cell_angle_alpha   88.79831225
_cell_angle_beta   113.76498560
_cell_angle_gamma   90.80774871
_symmetry_Int_Tables_number   1
_chemical_formula_structural   Li9Mn2Co5O16
_chemical_formula_sum   'Li9 Mn2 Co5 O16'
_cell_volume   282.81239910
_cell_formula_units_Z   1
loop_
 _symmetry_equiv_pos_site_id
 _symmetry_equiv_pos_as_xyz
  1  'x, y, z'
loop_
 _atom_site_type_symbol
 _atom_site_label
 _atom_site_symmetry_multiplicity
 _atom_site_fract_x
 _atom_site_fract_y
 _atom_site_fract_z
 _atom_site_occupancy
  Li  Li0  1  0.24918011  0.00515384  0.50306434  1
  Li  Li1  1  0.86649388  0.25138847  0.24598276  1
  Li  Li2  1  0.62652240  0.74865179  0.75165951  1
  Li  Li3  1  0.98328768  0.49551313  0.99441905  1
  Li  Li4  1  0.38162635  0.24874748  0.25244906  1
  Li  Li5  1  0.75316865  0.00854381  0.50450379  1
  Li  Li6  1  0.12483078  0.75100468  0.74825572  1
  Li  Li7  1  0.51141425  0.49085330  0.99507902  1
  Li  Li8  1  0.62582309  0.25142540  0.75170905  1
  Mn  Mn9  1  0.99368141  0.00016955  0.99552278  1
  Mn  Mn10  1  0.74961675  0.49674726  0.50330162  1
  Co  Co11  1  0.25923568  0.49768405  0.50763422  1
  Co  Co12  1  0.87540798  0.74992757  0.24933748  1
  Co  Co13  1  0.49716106  0.00393819  0.99696720  1
  Co  Co14  1  0.12202923  0.24962062  0.74994264  1
  Co  Co15  1  0.37654521  0.74974382  0.25020582  1
  O  O16  1  0.88761265  0.98834152  0.24288010  1
  O  O17  1  0.49592578  0.23191445  0.99443716  1
  O  O18  1  0.26011206  0.73424093  0.48565155  1
  O  O19  1  0.63126376  0.50272082  0.73618596  1
  O  O20  1  0.01283262  0.23643729  0.98931055  1
  O  O21  1  0.34666530  0.98923789  0.22178953  1
  O  O22  1  0.75973810  0.74142802  0.48618166  1
  O  O23  1  0.10003011  0.49360600  0.72459912  1
  O  O24  1  0.65259734  0.99756001  0.78374210  1
  O  O25  1  0.23651601  0.26704677  0.51440837  1
  O  O26  1  0.99680331  0.75880423  0.01366663  1
  O  O27  1  0.40427761  0.50851502  0.27924522  1
  O  O28  1  0.74725756  0.26549070  0.49885229  1
  O  O29  1  0.11304085  0.00675223  0.75652855  1
  O  O30  1  0.49056145  0.76469757  0.01426019  1
  O  O31  1  0.86873997  0.51409358  0.25822696  1
