# generated using pymatgen
data_Li9Mn2Co5O16
_symmetry_space_group_name_H-M   'P 1'
_cell_length_a   6.44035331
_cell_length_b   6.47450450
_cell_length_c   7.83791871
_cell_angle_alpha   87.70681420
_cell_angle_beta   114.23496839
_cell_angle_gamma   108.22944506
_symmetry_Int_Tables_number   1
_chemical_formula_structural   Li9Mn2Co5O16
_chemical_formula_sum   'Li9 Mn2 Co5 O16'
_cell_volume   281.58756102
_cell_formula_units_Z   1
loop_
 _symmetry_equiv_pos_site_id
 _symmetry_equiv_pos_as_xyz
  1  'x, y, z'
loop_
 _atom_site_type_symbol
 _atom_site_label
 _atom_site_symmetry_multiplicity
 _atom_site_fract_x
 _atom_site_fract_y
 _atom_site_fract_z
 _atom_site_occupancy
  Li  Li0  1  0.87018240  0.05858861  0.30944470  1
  Li  Li1  1  0.86673426  0.56301827  0.81115159  1
  Li  Li2  1  0.13514609  0.93040458  0.68977101  1
  Li  Li3  1  0.12042827  0.44050791  0.18839803  1
  Li  Li4  1  0.37658495  0.81250691  0.05582462  1
  Li  Li5  1  0.38635954  0.32206226  0.57120848  1
  Li  Li6  1  0.62507186  0.68987636  0.44355715  1
  Li  Li7  1  0.61919557  0.18330789  0.93042668  1
  Li  Li8  1  0.49811492  0.75128886  0.74924358  1
  Mn  Mn9  1  0.99534748  0.99603819  0.99661983  1
  Mn  Mn10  1  0.25368574  0.38155183  0.87353992  1
  Co  Co11  1  0.00843783  0.50867646  0.50699993  1
  Co  Co12  1  0.25759272  0.87404520  0.38409005  1
  Co  Co13  1  0.50118354  0.24505558  0.24995233  1
  Co  Co14  1  0.74536999  0.62172812  0.11765923  1
  Co  Co15  1  0.74697116  0.12680339  0.62709442  1
  O  O16  1  0.71126642  0.89948910  0.04172681  1
  O  O17  1  0.69715354  0.39629730  0.52414794  1
  O  O18  1  0.95668797  0.77263275  0.40996498  1
  O  O19  1  0.95811854  0.27335720  0.91830367  1
  O  O20  1  0.18706539  0.63812222  0.78705397  1
  O  O21  1  0.19155661  0.13480621  0.26277140  1
  O  O22  1  0.43909206  0.51268182  0.13676507  1
  O  O23  1  0.45125733  0.03646687  0.64458888  1
  O  O24  1  0.06123357  0.24224385  0.61321257  1
  O  O25  1  0.04231391  0.72674150  0.08834574  1
  O  O26  1  0.29623251  0.10073939  0.96627352  1
  O  O27  1  0.28962929  0.59723631  0.45659634  1
  O  O28  1  0.54842964  0.97275342  0.34103438  1
  O  O29  1  0.54459690  0.46309207  0.84631098  1
  O  O30  1  0.82465563  0.87432116  0.73733157  1
  O  O31  1  0.79430436  0.35356443  0.22059264  1
