# generated using pymatgen
data_Li9Mn2Co5O16
_symmetry_space_group_name_H-M   'P 1'
_cell_length_a   5.89891928
_cell_length_b   8.11065984
_cell_length_c   6.44597039
_cell_angle_alpha   88.83264797
_cell_angle_beta   114.10346727
_cell_angle_gamma   90.61787051
_symmetry_Int_Tables_number   1
_chemical_formula_structural   Li9Mn2Co5O16
_chemical_formula_sum   'Li9 Mn2 Co5 O16'
_cell_volume   281.45265772
_cell_formula_units_Z   1
loop_
 _symmetry_equiv_pos_site_id
 _symmetry_equiv_pos_as_xyz
  1  'x, y, z'
loop_
 _atom_site_type_symbol
 _atom_site_label
 _atom_site_symmetry_multiplicity
 _atom_site_fract_x
 _atom_site_fract_y
 _atom_site_fract_z
 _atom_site_occupancy
  Li  Li0  1  0.24754955  0.99933185  0.50133258  1
  Li  Li1  1  0.86642732  0.24491790  0.24777297  1
  Li  Li2  1  0.62093992  0.75729401  0.75525218  1
  Li  Li3  1  0.00504938  0.49967531  0.00020437  1
  Li  Li4  1  0.38015327  0.24354379  0.24361002  1
  Li  Li5  1  0.75212459  0.00095300  0.49784063  1
  Li  Li6  1  0.13195310  0.75450589  0.75285386  1
  Li  Li7  1  0.49443257  0.49950203  0.00013089  1
  Li  Li8  1  0.50033306  0.00017504  0.00017793  1
  Mn  Mn9  1  -0.00021522  0.00070120  0.00023552  1
  Mn  Mn10  1  0.25014195  0.49896944  0.49995078  1
  Co  Co11  1  0.62288314  0.24776171  0.75289051  1
  Co  Co12  1  0.86166931  0.75422649  0.24186907  1
  Co  Co13  1  0.13812264  0.24717431  0.75809687  1
  Co  Co14  1  0.74930250  0.50061413  0.49991840  1
  Co  Co15  1  0.37389189  0.75119455  0.24535963  1
  O  O16  1  0.88418916  0.98805876  0.24321186  1
  O  O17  1  0.50922866  0.25234770  0.98318747  1
  O  O18  1  0.25652199  0.73726506  0.48788067  1
  O  O19  1  0.59791899  0.49193679  0.72009070  1
  O  O20  1  0.01546617  0.23882661  0.99490099  1
  O  O21  1  0.34410448  0.98634891  0.23031436  1
  O  O22  1  0.75891257  0.73404574  0.48908910  1
  O  O23  1  0.12989710  0.48884257  0.73859615  1
  O  O24  1  0.65804825  0.01297639  0.76973641  1
  O  O25  1  0.23909100  0.26178105  0.50712192  1
  O  O26  1  0.98299567  0.76190041  0.00397551  1
  O  O27  1  0.36885049  0.50953245  0.26223813  1
  O  O28  1  0.74286874  0.26647343  0.51518410  1
  O  O29  1  0.11622176  0.01348295  0.75753777  1
  O  O30  1  0.49828061  0.74596387  0.02045790  1
  O  O31  1  0.90264439  0.50967664  0.27898075  1
