# generated using pymatgen
data_Li9Mn2Co5O16
_symmetry_space_group_name_H-M   'P 1'
_cell_length_a   2.89527986
_cell_length_b   10.14883242
_cell_length_c   9.75591219
_cell_angle_alpha   95.18640173
_cell_angle_beta   82.54578015
_cell_angle_gamma   91.21238401
_symmetry_Int_Tables_number   1
_chemical_formula_structural   Li9Mn2Co5O16
_chemical_formula_sum   'Li9 Mn2 Co5 O16'
_cell_volume   283.06561154
_cell_formula_units_Z   1
loop_
 _symmetry_equiv_pos_site_id
 _symmetry_equiv_pos_as_xyz
  1  'x, y, z'
loop_
 _atom_site_type_symbol
 _atom_site_label
 _atom_site_symmetry_multiplicity
 _atom_site_fract_x
 _atom_site_fract_y
 _atom_site_fract_z
 _atom_site_occupancy
  Li  Li0  1  0.87579820  0.19646544  0.24213893  1
  Li  Li1  1  0.12420180  0.30353456  0.75786107  1
  Li  Li2  1  0.38447917  0.43136805  0.24528574  1
  Li  Li3  1  0.62239424  0.56287552  0.75030167  1
  Li  Li4  1  0.87446965  0.68980524  0.25146177  1
  Li  Li5  1  0.12553035  0.81019476  0.74853823  1
  Li  Li6  1  0.37760576  0.93712448  0.24969833  1
  Li  Li7  1  0.61552083  0.06863195  0.75471426  1
  Li  Li8  1  0.50000000  0.25000000  -0.00000000  1
  Mn  Mn9  1  0.00194784  0.00425611  0.99781940  1
  Mn  Mn10  1  0.99805216  0.49574389  0.00218060  1
  Co  Co11  1  0.24948206  0.12471943  0.49909840  1
  Co  Co12  1  0.75051794  0.37528057  0.50090160  1
  Co  Co13  1  0.24996862  0.62488624  0.50029502  1
  Co  Co14  1  0.50000000  0.75000000  -0.00000000  1
  Co  Co15  1  0.75003138  0.87511376  0.49970498  1
  O  O16  1  0.45614521  0.07985646  0.11136947  1
  O  O17  1  0.67475362  0.21504182  0.61711306  1
  O  O18  1  0.94122666  0.36146793  0.11645549  1
  O  O19  1  0.17481512  0.46467976  0.61769081  1
  O  O20  1  0.45507292  0.59564256  0.10623140  1
  O  O21  1  0.67397277  0.71523427  0.61843789  1
  O  O22  1  0.95651876  0.83925974  0.10593080  1
  O  O23  1  0.17552657  0.96323560  0.61481916  1
  O  O24  1  0.32524638  0.28495818  0.38288694  1
  O  O25  1  0.54385479  0.42014354  0.88863053  1
  O  O26  1  0.82447343  0.53676440  0.38518084  1
  O  O27  1  0.04348124  0.66074026  0.89406920  1
  O  O28  1  0.32602723  0.78476573  0.38156211  1
  O  O29  1  0.54492708  0.90435744  0.89376860  1
  O  O30  1  0.82518488  0.03532024  0.38230919  1
  O  O31  1  0.05877334  0.13853207  0.88354451  1
