# generated using pymatgen
data_Li9Mn2Co5O16
_symmetry_space_group_name_H-M   'P 1'
_cell_length_a   5.12031428
_cell_length_b   7.74537946
_cell_length_c   7.74537938
_cell_angle_alpha   96.13062824
_cell_angle_beta   76.07349960
_cell_angle_gamma   76.07350229
_symmetry_Int_Tables_number   1
_chemical_formula_structural   Li9Mn2Co5O16
_chemical_formula_sum   'Li9 Mn2 Co5 O16'
_cell_volume   284.92137430
_cell_formula_units_Z   1
loop_
 _symmetry_equiv_pos_site_id
 _symmetry_equiv_pos_as_xyz
  1  'x, y, z'
loop_
 _atom_site_type_symbol
 _atom_site_label
 _atom_site_symmetry_multiplicity
 _atom_site_fract_x
 _atom_site_fract_y
 _atom_site_fract_z
 _atom_site_occupancy
  Li  Li0  1  0.99337152  0.11191713  0.36899247  1
  Li  Li1  1  0.00662848  0.63100753  0.88808287  1
  Li  Li2  1  0.51753418  0.98540570  0.48864034  1
  Li  Li3  1  0.48246582  0.51135966  0.01459430  1
  Li  Li4  1  0.00860936  0.86835135  0.61288627  1
  Li  Li5  1  0.99139064  0.38711373  0.13164865  1
  Li  Li6  1  0.49541171  0.74838833  0.74493485  1
  Li  Li7  1  0.50458829  0.25506515  0.25161167  1
  Li  Li8  1  1.00000000  0.74804472  0.25195528  1
  Mn  Mn9  1  0.00000000  0.99755654  0.00244346  1
  Mn  Mn10  1  0.50000000  0.37766703  0.62233297  1
  Co  Co11  1  1.00000000  0.50506713  0.49493287  1
  Co  Co12  1  0.50000000  0.86384799  0.13615201  1
  Co  Co13  1  1.00000000  0.25075809  0.74924191  1
  Co  Co14  1  0.50000000  0.62224367  0.37775633  1
  Co  Co15  1  0.50000000  0.12571409  0.87428591  1
  O  O16  1  0.75378204  0.00168865  0.22778963  1
  O  O17  1  0.75735371  0.47665999  0.72701390  1
  O  O18  1  0.27656738  0.86377530  0.37349881  1
  O  O19  1  0.27365333  0.37231470  0.86276923  1
  O  O20  1  0.74830914  0.72282957  0.49063054  1
  O  O21  1  0.76731066  0.23641911  0.98061355  1
  O  O22  1  0.27792836  0.61339971  0.61869847  1
  O  O23  1  0.24101959  0.11324296  0.10882368  1
  O  O24  1  0.24264629  0.27298610  0.52334001  1
  O  O25  1  0.24621796  0.77221037  0.99831135  1
  O  O26  1  0.72634667  0.13723077  0.62768530  1
  O  O27  1  0.72343262  0.62650119  0.13622470  1
  O  O28  1  0.23268934  0.01938645  0.76358089  1
  O  O29  1  0.25169086  0.50936946  0.27717043  1
  O  O30  1  0.75898041  0.89117632  0.88675704  1
  O  O31  1  0.72207164  0.38130153  0.38660029  1
