# generated using pymatgen
data_Li9Mn2Co5O16
_symmetry_space_group_name_H-M   'P 1'
_cell_length_a   5.11030608
_cell_length_b   7.75382456
_cell_length_c   7.67986063
_cell_angle_alpha   97.34514420
_cell_angle_beta   108.11932315
_cell_angle_gamma   83.54105177
_symmetry_Int_Tables_number   1
_chemical_formula_structural   Li9Mn2Co5O16
_chemical_formula_sum   'Li9 Mn2 Co5 O16'
_cell_volume   285.99105044
_cell_formula_units_Z   1
loop_
 _symmetry_equiv_pos_site_id
 _symmetry_equiv_pos_as_xyz
  1  'x, y, z'
loop_
 _atom_site_type_symbol
 _atom_site_label
 _atom_site_symmetry_multiplicity
 _atom_site_fract_x
 _atom_site_fract_y
 _atom_site_fract_z
 _atom_site_occupancy
  Li  Li0  1  0.50130481  0.18420904  0.06186887  1
  Li  Li1  1  0.50516699  0.30406271  0.43758691  1
  Li  Li2  1  0.50021570  0.56575398  0.18758072  1
  Li  Li3  1  0.49791710  0.68482084  0.55890385  1
  Li  Li4  1  0.49715794  0.94535440  0.31980890  1
  Li  Li5  1  0.49118155  0.06243638  0.68045012  1
  Li  Li6  1  0.49722429  0.43637555  0.81152528  1
  Li  Li7  1  0.50695950  0.81490715  0.94268003  1
  Li  Li8  1  0.00005896  0.12424588  0.37582033  1
  Mn  Mn9  1  0.01089988  -0.00016615  0.00406602  1
  Mn  Mn10  1  0.99403629  0.49808344  0.49895580  1
  Co  Co11  1  0.99226424  0.24669284  0.73784935  1
  Co  Co12  1  0.00020074  0.37101447  0.12657621  1
  Co  Co13  1  0.00071634  0.62370796  0.87633115  1
  Co  Co14  1  -0.00289687  0.75777801  0.25068776  1
  Co  Co15  1  0.00070058  0.88005462  0.61625030  1
  O  O16  1  0.22812968  0.03017468  0.84228106  1
  O  O17  1  0.23170609  0.15220118  0.19795834  1
  O  O18  1  0.21916613  0.41583795  0.96682281  1
  O  O19  1  0.21953704  0.53608993  0.34570069  1
  O  O20  1  0.24123227  0.79646374  0.09607646  1
  O  O21  1  0.23916672  0.89661060  0.47801008  1
  O  O22  1  0.22337577  0.29504427  0.59669183  1
  O  O23  1  0.21148603  0.64537259  0.71072820  1
  O  O24  1  0.77510328  0.36025304  0.28535286  1
  O  O25  1  0.76073843  0.46436688  0.64496034  1
  O  O26  1  0.77053398  0.71137630  0.41404587  1
  O  O27  1  0.79417850  0.84185847  0.79722744  1
  O  O28  1  0.75736823  0.09058465  0.54424617  1
  O  O29  1  0.77616784  0.20780634  0.91271701  1
  O  O30  1  0.77765858  0.59684162  0.02832992  1
  O  O31  1  0.78134340  0.95978665  0.15190931  1
