# generated using pymatgen
data_Li9Mn2Co5O16
_symmetry_space_group_name_H-M   'P 1'
_cell_length_a   5.74112469
_cell_length_b   7.69039249
_cell_length_c   6.61091152
_cell_angle_alpha   94.26458183
_cell_angle_beta   102.53009250
_cell_angle_gamma   79.74876746
_symmetry_Int_Tables_number   1
_chemical_formula_structural   Li9Mn2Co5O16
_chemical_formula_sum   'Li9 Mn2 Co5 O16'
_cell_volume   280.18705848
_cell_formula_units_Z   1
loop_
 _symmetry_equiv_pos_site_id
 _symmetry_equiv_pos_as_xyz
  1  'x, y, z'
loop_
 _atom_site_type_symbol
 _atom_site_label
 _atom_site_symmetry_multiplicity
 _atom_site_fract_x
 _atom_site_fract_y
 _atom_site_fract_z
 _atom_site_occupancy
  Li  Li0  1  0.80788731  0.13505618  0.38077147  1
  Li  Li1  1  0.94098412  0.37396858  0.11711673  1
  Li  Li2  1  0.69069104  0.87582526  0.63261445  1
  Li  Li3  1  0.56910592  0.62048374  0.87488833  1
  Li  Li4  1  0.43153071  0.36587952  0.11824044  1
  Li  Li5  1  0.31391473  0.13615910  0.38024296  1
  Li  Li6  1  0.18725327  0.88035902  0.62970046  1
  Li  Li7  1  0.05945024  0.61107560  0.86582550  1
  Li  Li8  1  0.12829621  0.24862007  0.75353322  1
  Mn  Mn9  1  0.99715147  0.00586068  0.99576850  1
  Mn  Mn10  1  0.37479379  0.74930456  0.24725633  1
  Co  Co11  1  0.24939028  0.49184663  0.51026032  1
  Co  Co12  1  0.50145447  0.00193209  0.00173396  1
  Co  Co13  1  0.62334657  0.24877927  0.75163579  1
  Co  Co14  1  0.75871680  0.49005460  0.50545475  1
  Co  Co15  1  0.87601171  0.74963178  0.25235448  1
  O  O16  1  0.73068830  0.16520714  0.06723554  1
  O  O17  1  0.82317135  0.42841609  0.79643977  1
  O  O18  1  0.58594054  0.92530643  0.29064598  1
  O  O19  1  0.45938944  0.68441227  0.53233779  1
  O  O20  1  0.35724635  0.43350616  0.79766128  1
  O  O21  1  0.22240599  0.16532492  0.06191675  1
  O  O22  1  0.09406721  0.92145576  0.29359638  1
  O  O23  1  0.96635083  0.68114084  0.55547502  1
  O  O24  1  0.90479297  0.06646388  0.71475679  1
  O  O25  1  0.02448765  0.32858617  0.42926804  1
  O  O26  1  0.77819121  0.83070646  0.95019659  1
  O  O27  1  0.65088237  0.58536210  0.19463347  1
  O  O28  1  0.52758038  0.31874847  0.43419292  1
  O  O29  1  0.42798133  0.07190492  0.72000954  1
  O  O30  1  0.28051881  0.82827028  0.95623167  1
  O  O31  1  0.15632663  0.58035144  0.18800477  1
