# generated using pymatgen
data_Li9Mn2Co5O16
_symmetry_space_group_name_H-M   'P 1'
_cell_length_a   5.77532214
_cell_length_b   6.61323883
_cell_length_c   7.73642750
_cell_angle_alpha   89.46182970
_cell_angle_beta   101.26859364
_cell_angle_gamma   102.46655576
_symmetry_Int_Tables_number   1
_chemical_formula_structural   Li9Mn2Co5O16
_chemical_formula_sum   'Li9 Mn2 Co5 O16'
_cell_volume   282.78713025
_cell_formula_units_Z   1
loop_
 _symmetry_equiv_pos_site_id
 _symmetry_equiv_pos_as_xyz
  1  'x, y, z'
loop_
 _atom_site_type_symbol
 _atom_site_label
 _atom_site_symmetry_multiplicity
 _atom_site_fract_x
 _atom_site_fract_y
 _atom_site_fract_z
 _atom_site_occupancy
  Li  Li0  1  0.37608759  0.38085970  0.13230871  1
  Li  Li1  1  0.62520294  0.12672709  0.38493441  1
  Li  Li2  1  0.61833859  0.61574383  0.85868174  1
  Li  Li3  1  0.87578103  0.38100376  0.12658759  1
  Li  Li4  1  0.87030309  0.86822932  0.62310511  1
  Li  Li5  1  0.12648593  0.62395951  0.86883182  1
  Li  Li6  1  0.13518985  0.13388259  0.38477741  1
  Li  Li7  1  0.37437152  0.86653554  0.61897280  1
  Li  Li8  1  0.49922810  0.50207194  0.49947666  1
  Mn  Mn9  1  -0.00049593  0.99746531  0.00134177  1
  Mn  Mn10  1  0.74896750  0.74763515  0.25680124  1
  Co  Co11  1  0.25080958  0.75147744  0.25302755  1
  Co  Co12  1  0.74121505  0.25532900  0.73886144  1
  Co  Co13  1  0.49774977  0.00297096  0.99553749  1
  Co  Co14  1  0.00637346  0.50157950  0.50167296  1
  Co  Co15  1  0.24460516  0.25972714  0.73945514  1
  O  O16  1  0.30178807  0.04510997  0.17519533  1
  O  O17  1  0.56092915  0.81092217  0.41530104  1
  O  O18  1  0.55196631  0.30353466  0.92958763  1
  O  O19  1  0.81237901  0.04350708  0.17487908  1
  O  O20  1  0.82937481  0.54805704  0.67766627  1
  O  O21  1  0.04427353  0.28392139  0.93478029  1
  O  O22  1  0.05772871  0.81608305  0.41610116  1
  O  O23  1  0.30035258  0.55170409  0.68405968  1
  O  O24  1  0.44318504  0.69614641  0.08427555  1
  O  O25  1  0.70940950  0.46560129  0.31690372  1
  O  O26  1  0.69758267  0.93651076  0.83218173  1
  O  O27  1  0.94636696  0.70933106  0.07712173  1
  O  O28  1  0.94292624  0.18138559  0.56931182  1
  O  O29  1  0.18317777  0.94404787  0.83118743  1
  O  O30  1  0.18180930  0.46834032  0.32253940  1
  O  O31  1  0.44653710  0.18059948  0.57453432  1
