# generated using pymatgen
data_Li9Mn2Co5O16
_symmetry_space_group_name_H-M   'P 1'
_cell_length_a   5.90419368
_cell_length_b   7.84112555
_cell_length_c   6.45216525
_cell_angle_alpha   86.01655984
_cell_angle_beta   76.93812246
_cell_angle_gamma   75.95128777
_symmetry_Int_Tables_number   1
_chemical_formula_structural   Li9Mn2Co5O16
_chemical_formula_sum   'Li9 Mn2 Co5 O16'
_cell_volume   282.24085194
_cell_formula_units_Z   1
loop_
 _symmetry_equiv_pos_site_id
 _symmetry_equiv_pos_as_xyz
  1  'x, y, z'
loop_
 _atom_site_type_symbol
 _atom_site_label
 _atom_site_symmetry_multiplicity
 _atom_site_fract_x
 _atom_site_fract_y
 _atom_site_fract_z
 _atom_site_occupancy
  Li  Li0  1  0.93661830  0.37215670  0.87981746  1
  Li  Li1  1  0.19792611  0.88110393  0.37144620  1
  Li  Li2  1  0.43797650  0.37190035  0.87980277  1
  Li  Li3  1  0.06567153  0.62680019  0.11898553  1
  Li  Li4  1  0.31590123  0.11864493  0.63019171  1
  Li  Li5  1  0.55945805  0.62858138  0.12135357  1
  Li  Li6  1  0.67870428  0.88131774  0.37089473  1
  Li  Li7  1  0.80763998  0.11960913  0.62878676  1
  Li  Li8  1  0.50030728  0.00027901  0.99965683  1
  Mn  Mn9  1  0.00017924  -0.00008214  0.99924298  1
  Mn  Mn10  1  0.74979820  0.50001268  0.50082514  1
  Co  Co11  1  0.24928901  0.49965985  0.49928220  1
  Co  Co12  1  0.38267089  0.75714798  0.75090415  1
  Co  Co13  1  0.61811759  0.24260182  0.24716957  1
  Co  Co14  1  0.87119966  0.75272464  0.75137250  1
  Co  Co15  1  0.12593276  0.24636132  0.25058486  1
  O  O16  1  0.72870786  0.18549213  0.95371545  1
  O  O17  1  0.95733815  0.66545297  0.45632862  1
  O  O18  1  0.19583353  0.17585131  0.95940737  1
  O  O19  1  0.85152569  0.43128452  0.20773536  1
  O  O20  1  0.10855948  0.93558989  0.70309529  1
  O  O21  1  0.35344774  0.43303059  0.20872291  1
  O  O22  1  0.47832964  0.68260707  0.45161939  1
  O  O23  1  0.61224494  0.92272509  0.69114308  1
  O  O24  1  0.14800226  0.57013893  0.78727957  1
  O  O25  1  0.39064017  0.08028677  0.31199323  1
  O  O26  1  0.64444855  0.56522940  0.79726353  1
  O  O27  1  0.27154435  0.81403446  0.04560956  1
  O  O28  1  0.54167845  0.33245815  0.54411996  1
  O  O29  1  0.80685852  0.82482942  0.04014538  1
  O  O30  1  0.89263809  0.06261615  0.29445833  1
  O  O31  1  0.02080696  0.31955367  0.54704600  1
