# generated using pymatgen
data_Li9Mn2Co5O16
_symmetry_space_group_name_H-M   'P 1'
_cell_length_a   5.91421596
_cell_length_b   5.90262701
_cell_length_c   8.12827638
_cell_angle_alpha   90.74259956
_cell_angle_beta   89.13154311
_cell_angle_gamma   87.01283279
_symmetry_Int_Tables_number   1
_chemical_formula_structural   Li9Mn2Co5O16
_chemical_formula_sum   'Li9 Mn2 Co5 O16'
_cell_volume   283.30836868
_cell_formula_units_Z   1
loop_
 _symmetry_equiv_pos_site_id
 _symmetry_equiv_pos_as_xyz
  1  'x, y, z'
loop_
 _atom_site_type_symbol
 _atom_site_label
 _atom_site_symmetry_multiplicity
 _atom_site_fract_x
 _atom_site_fract_y
 _atom_site_fract_z
 _atom_site_occupancy
  Li  Li0  1  0.50378636  0.00523561  0.00374584  1
  Li  Li1  1  0.25061412  0.25102219  0.25141593  1
  Li  Li2  1  0.74944113  0.25143914  0.75020405  1
  Li  Li3  1  0.50360034  0.49418955  0.00765754  1
  Li  Li4  1  0.99662772  0.49716114  0.49623700  1
  Li  Li5  1  0.75148276  0.74822065  0.74882686  1
  Li  Li6  1  0.25154363  0.74993044  0.24978251  1
  Li  Li7  1  0.99636241  0.00432323  0.49213874  1
  Li  Li8  1  0.74796808  0.24995853  0.24978354  1
  Mn  Mn9  1  0.99705681  0.00086094  0.00344431  1
  Mn  Mn10  1  0.50508817  0.00478437  0.49926356  1
  Co  Co11  1  0.50209066  0.50038179  0.49611604  1
  Co  Co12  1  0.25113065  0.74882867  0.74977776  1
  Co  Co13  1  0.99198630  0.49430772  0.00617977  1
  Co  Co14  1  0.74763876  0.75247429  0.25071835  1
  Co  Co15  1  0.24843684  0.24701294  0.74909667  1
  O  O16  1  0.23377679  0.74976131  0.98694445  1
  O  O17  1  0.00372360  0.00231036  0.23346833  1
  O  O18  1  0.48727613  0.01466307  0.73931441  1
  O  O19  1  0.23000513  0.23098222  0.98972895  1
  O  O20  1  0.71523951  0.24136285  0.50111420  1
  O  O21  1  0.48619776  0.51314983  0.73769425  1
  O  O22  1  0.98611501  0.52089843  0.24012484  1
  O  O23  1  0.74523929  0.76705242  0.49295210  1
  O  O24  1  0.76974615  0.24509588  0.99743904  1
  O  O25  1  0.50158952  0.50095455  0.26662124  1
  O  O26  1  0.01488451  0.48404878  0.75740412  1
  O  O27  1  0.76739263  0.77000650  0.00684393  1
  O  O28  1  0.28226468  0.76068710  0.51147379  1
  O  O29  1  0.01248445  0.98102309  0.76067099  1
  O  O30  1  0.51386122  0.98279004  0.26357444  1
  O  O31  1  0.25534888  0.23508237  0.51024247  1
