# generated using pymatgen
data_Li9Mn2Co5O16
_symmetry_space_group_name_H-M   'P 1'
_cell_length_a   5.15846604
_cell_length_b   7.69494539
_cell_length_c   7.75805562
_cell_angle_alpha   94.45234281
_cell_angle_beta   108.93730028
_cell_angle_gamma   96.47844332
_symmetry_Int_Tables_number   1
_chemical_formula_structural   Li9Mn2Co5O16
_chemical_formula_sum   'Li9 Mn2 Co5 O16'
_cell_volume   287.27482637
_cell_formula_units_Z   1
loop_
 _symmetry_equiv_pos_site_id
 _symmetry_equiv_pos_as_xyz
  1  'x, y, z'
loop_
 _atom_site_type_symbol
 _atom_site_label
 _atom_site_symmetry_multiplicity
 _atom_site_fract_x
 _atom_site_fract_y
 _atom_site_fract_z
 _atom_site_occupancy
  Li  Li0  1  0.56206628  0.18483156  0.06268866  1
  Li  Li1  1  0.94033192  0.31358207  0.43901607  1
  Li  Li2  1  0.31521969  0.43785589  0.80865727  1
  Li  Li3  1  0.68992875  0.55885958  0.19106791  1
  Li  Li4  1  0.05620869  0.69148951  0.55891280  1
  Li  Li5  1  0.43775930  0.81525821  0.92956869  1
  Li  Li6  1  0.80968779  0.93746958  0.32297227  1
  Li  Li7  1  0.18367744  0.05968516  0.68059201  1
  Li  Li8  1  0.62667591  0.87452149  0.62692622  1
  Mn  Mn9  1  0.99497338  0.99869706  0.99690149  1
  Mn  Mn10  1  0.87147688  0.62697678  0.87179978  1
  Co  Co11  1  0.37900789  0.12557530  0.37792533  1
  Co  Co12  1  0.74756929  0.23948522  0.74094503  1
  Co  Co13  1  0.12357037  0.37642319  0.12884315  1
  Co  Co14  1  0.50529780  0.50761230  0.50246612  1
  Co  Co15  1  0.25849780  0.75490475  0.26051828  1
  O  O16  1  0.14093006  0.20976856  0.91701254  1
  O  O17  1  0.51238643  0.33513254  0.28424507  1
  O  O18  1  0.90179242  0.48018033  0.66981091  1
  O  O19  1  0.24828795  0.59562757  0.03464296  1
  O  O20  1  0.63626269  0.70659496  0.40131105  1
  O  O21  1  0.02523539  0.84115997  0.79966592  1
  O  O22  1  0.37510577  0.96858126  0.15200913  1
  O  O23  1  0.77488654  0.10571346  0.53593169  1
  O  O24  1  0.97834083  0.14952980  0.20554070  1
  O  O25  1  0.36032936  0.28426423  0.59049961  1
  O  O26  1  0.73747182  0.41449627  0.95829126  1
  O  O27  1  0.10423415  0.52659216  0.33919272  1
  O  O28  1  0.50142505  0.65026148  0.72702289  1
  O  O29  1  0.85380985  0.78435779  0.07767210  1
  O  O30  1  0.21989814  0.90808760  0.45305786  1
  O  O31  1  0.62765239  0.03641839  0.85428652  1
