# generated using pymatgen
data_Li9Mn2Co5O16
_symmetry_space_group_name_H-M   'P 1'
_cell_length_a   5.09167604
_cell_length_b   7.80082135
_cell_length_c   7.69256883
_cell_angle_alpha   99.14352529
_cell_angle_beta   102.21980960
_cell_angle_gamma   101.48294290
_symmetry_Int_Tables_number   1
_chemical_formula_structural   Li9Mn2Co5O16
_chemical_formula_sum   'Li9 Mn2 Co5 O16'
_cell_volume   286.12344860
_cell_formula_units_Z   1
loop_
 _symmetry_equiv_pos_site_id
 _symmetry_equiv_pos_as_xyz
  1  'x, y, z'
loop_
 _atom_site_type_symbol
 _atom_site_label
 _atom_site_symmetry_multiplicity
 _atom_site_fract_x
 _atom_site_fract_y
 _atom_site_fract_z
 _atom_site_occupancy
  Li  Li0  1  0.50361990  0.13084902  0.87746186  1
  Li  Li1  1  0.50251440  0.49340507  0.00301409  1
  Li  Li2  1  0.50007731  0.37497856  0.62648216  1
  Li  Li3  1  0.49860666  0.74717802  0.74882114  1
  Li  Li4  1  0.49246897  0.61975516  0.37291607  1
  Li  Li5  1  0.50178516  0.00119569  0.50191753  1
  Li  Li6  1  0.50018148  0.87522727  0.12321347  1
  Li  Li7  1  0.49762071  0.25868300  0.24631959  1
  Li  Li8  1  0.99590692  0.37364184  0.12331078  1
  Mn  Mn9  1  0.00513208  0.00410132  0.00112949  1
  Mn  Mn10  1  0.00118029  0.12925199  0.37319314  1
  Co  Co11  1  0.00253904  0.73806062  0.24401890  1
  Co  Co12  1  0.99487563  0.49693071  0.49215257  1
  Co  Co13  1  0.00651076  0.87356866  0.62468887  1
  Co  Co14  1  0.99081711  0.25834556  0.76327719  1
  Co  Co15  1  0.00024705  0.62488478  0.87671731  1
  O  O16  1  0.23198531  0.88492658  0.87528494  1
  O  O17  1  0.22908261  0.22962008  0.99443033  1
  O  O18  1  0.22000957  0.12431604  0.61294518  1
  O  O19  1  0.22093082  0.50281639  0.75175365  1
  O  O20  1  0.22593633  0.35929168  0.38066645  1
  O  O21  1  0.23753501  0.74720017  0.49904216  1
  O  O22  1  0.22993184  0.63451675  0.11690912  1
  O  O23  1  0.22458233  0.00538938  0.24206208  1
  O  O24  1  0.75434231  0.36713607  0.86618119  1
  O  O25  1  0.78244722  0.76030200  -0.00391401  1
  O  O26  1  0.78091995  0.62932284  0.64002149  1
  O  O27  1  0.77497066  0.99878022  0.76249720  1
  O  O28  1  0.78562627  0.88674548  0.37650624  1
  O  O29  1  0.76880483  0.24468105  0.49151795  1
  O  O30  1  0.77707654  0.11325795  0.13257318  1
  O  O31  1  0.76173494  0.51163905  0.26289071  1
