# generated using pymatgen
data_Li9Mn2Co5O16
_symmetry_space_group_name_H-M   'P 1'
_cell_length_a   5.91638510
_cell_length_b   6.45019744
_cell_length_c   7.88732164
_cell_angle_alpha   88.81260373
_cell_angle_beta   76.17502456
_cell_angle_gamma   75.18036733
_symmetry_Int_Tables_number   1
_chemical_formula_structural   Li9Mn2Co5O16
_chemical_formula_sum   'Li9 Mn2 Co5 O16'
_cell_volume   282.29099742
_cell_formula_units_Z   1
loop_
 _symmetry_equiv_pos_site_id
 _symmetry_equiv_pos_as_xyz
  1  'x, y, z'
loop_
 _atom_site_type_symbol
 _atom_site_label
 _atom_site_symmetry_multiplicity
 _atom_site_fract_x
 _atom_site_fract_y
 _atom_site_fract_z
 _atom_site_occupancy
  Li  Li0  1  0.12050068  0.37343882  0.13224420  1
  Li  Li1  1  0.74980463  0.75484326  0.25764108  1
  Li  Li2  1  0.00182148  0.49824378  0.50077821  1
  Li  Li3  1  0.62788645  0.88082825  0.61346035  1
  Li  Li4  1  0.87699331  0.62333516  0.87168573  1
  Li  Li5  1  0.50060552  0.99719893  0.00125345  1
  Li  Li6  1  0.37773582  0.12385552  0.38358293  1
  Li  Li7  1  0.24848777  0.25082775  0.74268783  1
  Li  Li8  1  0.87159513  0.12263478  0.37815241  1
  Mn  Mn9  1  0.00465881  0.99890295  0.00208169  1
  Mn  Mn10  1  0.62631422  0.37693917  0.13065554  1
  Co  Co11  1  0.24373610  0.75146363  0.25273687  1
  Co  Co12  1  0.49835360  0.49773760  0.49996837  1
  Co  Co13  1  0.12307424  0.87427437  0.62043467  1
  Co  Co14  1  0.74986190  0.24851258  0.74249391  1
  Co  Co15  1  0.37855608  0.62748683  0.87365417  1
  O  O16  1  0.93278346  0.30270846  0.95492671  1
  O  O17  1  0.54691030  0.67640583  0.07511704  1
  O  O18  1  0.77787734  0.43538714  0.30570354  1
  O  O19  1  0.42537409  0.80067200  0.44713782  1
  O  O20  1  0.67760288  0.55305433  0.70046106  1
  O  O21  1  0.30464722  0.92750762  0.82321289  1
  O  O22  1  0.17247626  0.04062016  0.17337159  1
  O  O23  1  0.05172124  0.17564885  0.57853775  1
  O  O24  1  0.32148276  0.44154356  0.29820142  1
  O  O25  1  0.95817209  0.80589024  0.42681124  1
  O  O26  1  0.20240266  0.57664300  0.67973863  1
  O  O27  1  0.83666460  0.95242487  0.81382454  1
  O  O28  1  0.07031145  0.69844930  0.04473344  1
  O  O29  1  0.69500681  0.07332908  0.16926315  1
  O  O30  1  0.55944345  0.20864867  0.56607933  1
  O  O31  1  0.46714268  0.33054751  0.93937144  1
