# generated using pymatgen
data_Li9Mn2Co5O16
_symmetry_space_group_name_H-M   'P 1'
_cell_length_a   5.84166446
_cell_length_b   9.75383197
_cell_length_c   5.78369671
_cell_angle_alpha   89.95621892
_cell_angle_beta   60.53691481
_cell_angle_gamma   98.37809137
_symmetry_Int_Tables_number   1
_chemical_formula_structural   Li9Mn2Co5O16
_chemical_formula_sum   'Li9 Mn2 Co5 O16'
_cell_volume   282.86023108
_cell_formula_units_Z   1
loop_
 _symmetry_equiv_pos_site_id
 _symmetry_equiv_pos_as_xyz
  1  'x, y, z'
loop_
 _atom_site_type_symbol
 _atom_site_label
 _atom_site_symmetry_multiplicity
 _atom_site_fract_x
 _atom_site_fract_y
 _atom_site_fract_z
 _atom_site_occupancy
  Li  Li0  1  0.75215177  0.25023427  0.11853753  1
  Li  Li1  1  0.75146737  0.75485521  0.37802628  1
  Li  Li2  1  0.74540357  0.24156724  0.63002449  1
  Li  Li3  1  0.24808658  0.24340118  0.62121211  1
  Li  Li4  1  0.25191214  0.75168673  0.87606690  1
  Li  Li5  1  0.26169525  0.24675613  0.11755613  1
  Li  Li6  1  0.73630895  0.75610735  0.88727322  1
  Li  Li7  1  0.24928762  0.75563818  0.37740204  1
  Li  Li8  1  0.49964243  0.00029875  0.00011358  1
  Mn  Mn9  1  0.00006582  0.00020914  -0.00002320  1
  Mn  Mn10  1  0.00065629  0.50007252  0.24943605  1
  Co  Co11  1  0.99979012  0.99955824  0.49968145  1
  Co  Co12  1  -0.00023063  0.50017066  0.74942853  1
  Co  Co13  1  0.49986290  0.99985158  0.49985147  1
  Co  Co14  1  0.50046222  0.49930440  0.74864634  1
  Co  Co15  1  0.50013187  0.50054928  0.25169870  1
  O  O16  1  0.89159569  0.10932837  0.79836860  1
  O  O17  1  0.87528775  0.61472963  0.07507551  1
  O  O18  1  0.90717741  0.11548788  0.29582610  1
  O  O19  1  0.34929968  0.10244087  0.34255275  1
  O  O20  1  0.35333431  0.61759226  0.57249536  1
  O  O21  1  0.35917664  0.10704186  0.80229512  1
  O  O22  1  0.87964141  0.61430680  0.54706902  1
  O  O23  1  0.35547149  0.61695480  0.08230336  1
  O  O24  1  0.64836183  0.38445734  0.41442129  1
  O  O25  1  0.64988042  0.89675293  0.65819141  1
  O  O26  1  0.64416400  0.38115539  0.92925047  1
  O  O27  1  0.12062341  0.38493589  0.95129691  1
  O  O28  1  0.10918979  0.89189548  0.19978551  1
  O  O29  1  0.12673541  0.38582157  0.42454170  1
  O  O30  1  0.64158168  0.89374540  0.19569159  1
  O  O31  1  0.09178480  0.88309268  0.70590368  1
