# generated using pymatgen
data_Li9Mn2Co5O16
_symmetry_space_group_name_H-M   'P 1'
_cell_length_a   5.85247862
_cell_length_b   9.74080150
_cell_length_c   5.84818152
_cell_angle_alpha   90.60911738
_cell_angle_beta   59.14847614
_cell_angle_gamma   99.00081711
_symmetry_Int_Tables_number   1
_chemical_formula_structural   Li9Mn2Co5O16
_chemical_formula_sum   'Li9 Mn2 Co5 O16'
_cell_volume   281.73852972
_cell_formula_units_Z   1
loop_
 _symmetry_equiv_pos_site_id
 _symmetry_equiv_pos_as_xyz
  1  'x, y, z'
loop_
 _atom_site_type_symbol
 _atom_site_label
 _atom_site_symmetry_multiplicity
 _atom_site_fract_x
 _atom_site_fract_y
 _atom_site_fract_z
 _atom_site_occupancy
  Li  Li0  1  0.75167793  0.25219829  0.12847721  1
  Li  Li1  1  0.75388097  0.74921634  0.37088609  1
  Li  Li2  1  0.75559191  0.25945450  0.61614728  1
  Li  Li3  1  0.25021506  0.25402177  0.62732304  1
  Li  Li4  1  0.24525884  0.74325001  0.88131416  1
  Li  Li5  1  0.24872910  0.25084248  0.12672349  1
  Li  Li6  1  0.74857806  0.74537230  0.87596734  1
  Li  Li7  1  0.24571598  0.74591975  0.36941065  1
  Li  Li8  1  0.00000890  0.50014172  0.24977796  1
  Mn  Mn9  1  0.00012457  0.00005361  0.00115659  1
  Mn  Mn10  1  0.49904740  0.49955690  0.24979216  1
  Co  Co11  1  -0.00023269  -0.00029900  0.50160163  1
  Co  Co12  1  -0.00011232  0.49962933  0.74949330  1
  Co  Co13  1  0.49966642  -0.00040739  0.50130358  1
  Co  Co14  1  0.50028483  0.50112539  0.74964549  1
  Co  Co15  1  0.50105798  0.00021290  -0.00162128  1
  O  O16  1  0.88616757  0.11513527  0.82269395  1
  O  O17  1  0.86268361  0.60864853  0.05075950  1
  O  O18  1  0.88074460  0.11854494  0.30061334  1
  O  O19  1  0.36450483  0.11484159  0.32940085  1
  O  O20  1  0.35422808  0.61728859  0.54569283  1
  O  O21  1  0.35618706  0.11739393  0.82048481  1
  O  O22  1  0.85916707  0.60375404  0.59188134  1
  O  O23  1  0.39135893  0.60847299  0.05510623  1
  O  O24  1  0.60895205  0.39303409  0.44529395  1
  O  O25  1  0.63483307  0.88305649  0.66921042  1
  O  O26  1  0.64374427  0.38171976  0.95336538  1
  O  O27  1  0.14246646  0.39839994  0.90733602  1
  O  O28  1  0.11538099  0.88170742  0.17907171  1
  O  O29  1  0.13559822  0.38979328  0.44860903  1
  O  O30  1  0.64538150  0.88388265  0.18049934  1
  O  O31  1  0.11910878  0.88403760  0.70258262  1
