# generated using pymatgen
data_Li9Mn2Co5O16
_symmetry_space_group_name_H-M   'P 1'
_cell_length_a   5.08016500
_cell_length_b   5.92208881
_cell_length_c   9.70735127
_cell_angle_alpha   88.80140735
_cell_angle_beta   78.18393534
_cell_angle_gamma   89.20261143
_symmetry_Int_Tables_number   1
_chemical_formula_structural   Li9Mn2Co5O16
_chemical_formula_sum   'Li9 Mn2 Co5 O16'
_cell_volume   285.78261428
_cell_formula_units_Z   1
loop_
 _symmetry_equiv_pos_site_id
 _symmetry_equiv_pos_as_xyz
  1  'x, y, z'
loop_
 _atom_site_type_symbol
 _atom_site_label
 _atom_site_symmetry_multiplicity
 _atom_site_fract_x
 _atom_site_fract_y
 _atom_site_fract_z
 _atom_site_occupancy
  Li  Li0  1  0.50094787  0.25070940  0.00044259  1
  Li  Li1  1  0.25223371  0.49175977  0.25412300  1
  Li  Li2  1  0.50386540  0.75200423  0.00225278  1
  Li  Li3  1  0.24860972  0.00979069  0.25419727  1
  Li  Li4  1  0.75020447  0.00239983  0.74774241  1
  Li  Li5  1  0.75136469  0.49357402  0.74621528  1
  Li  Li6  1  0.99579184  0.74895389  0.49827598  1
  Li  Li7  1  0.99674936  0.24921530  0.49980217  1
  Li  Li8  1  0.74674844  0.25030714  0.25091565  1
  Mn  Mn9  1  0.00140604  0.00672971  0.00292664  1
  Mn  Mn10  1  0.74750609  0.75374189  0.25025373  1
  Co  Co11  1  0.50128114  0.48915785  0.49243728  1
  Co  Co12  1  0.25705773  0.74661133  0.74772798  1
  Co  Co13  1  0.00124126  0.49983564  0.00206135  1
  Co  Co14  1  0.49393498  0.99893525  0.49721628  1
  Co  Co15  1  0.25905467  0.24689632  0.74510873  1
  O  O16  1  0.35228050  0.99567918  0.87743079  1
  O  O17  1  0.11210676  0.24747443  0.10833577  1
  O  O18  1  0.34779895  0.49969272  0.87647820  1
  O  O19  1  0.10344211  0.77487728  0.12807279  1
  O  O20  1  0.60158718  0.75989677  0.62027974  1
  O  O21  1  0.61190131  0.25658136  0.63028753  1
  O  O22  1  0.85190351  0.51717543  0.37325553  1
  O  O23  1  0.83864218  0.98126816  0.37341158  1
  O  O24  1  0.66046868  0.51918572  0.12636903  1
  O  O25  1  0.39399141  0.74022157  0.36480280  1
  O  O26  1  0.65239044  0.98911455  0.12446898  1
  O  O27  1  0.37801216  0.23887791  0.38829992  1
  O  O28  1  0.89373740  0.23146209  0.87660974  1
  O  O29  1  0.90390704  0.75581030  0.88738549  1
  O  O30  1  0.14769034  0.99898865  0.62565885  1
  O  O31  1  0.14214262  0.50307164  0.62715415  1
