# generated using pymatgen
data_Li9Mn2Co5O16
_symmetry_space_group_name_H-M   'P 1'
_cell_length_a   5.91813296
_cell_length_b   7.75756428
_cell_length_c   7.68161817
_cell_angle_alpha   115.67643002
_cell_angle_beta   111.18455230
_cell_angle_gamma   68.16461400
_symmetry_Int_Tables_number   1
_chemical_formula_structural   Li9Mn2Co5O16
_chemical_formula_sum   'Li9 Mn2 Co5 O16'
_cell_volume   286.46471278
_cell_formula_units_Z   1
loop_
 _symmetry_equiv_pos_site_id
 _symmetry_equiv_pos_as_xyz
  1  'x, y, z'
loop_
 _atom_site_type_symbol
 _atom_site_label
 _atom_site_symmetry_multiplicity
 _atom_site_fract_x
 _atom_site_fract_y
 _atom_site_fract_z
 _atom_site_occupancy
  Li  Li0  1  0.37591526  0.12753146  0.37672228  1
  Li  Li1  1  0.25114940  0.25691413  0.75482457  1
  Li  Li2  1  0.63072032  0.87318519  0.62773195  1
  Li  Li3  1  0.50042227  0.00601186  0.00015355  1
  Li  Li4  1  0.87428701  0.62221440  0.87289270  1
  Li  Li5  1  0.75176185  0.73566673  0.24846405  1
  Li  Li6  1  0.11747694  0.37987225  0.12370318  1
  Li  Li7  1  0.99534576  0.50174907  0.49622302  1
  Li  Li8  1  0.62753812  0.37475506  0.12531138  1
  Mn  Mn9  1  0.99497718  0.00278088  -0.00001293  1
  Mn  Mn10  1  0.86963707  0.12848227  0.37262592  1
  Co  Co11  1  0.74751579  0.26232388  0.76710672  1
  Co  Co12  1  0.50435278  0.49861196  0.49316073  1
  Co  Co13  1  0.37580616  0.62495055  0.87608852  1
  Co  Co14  1  0.25751064  0.73666567  0.24225322  1
  Co  Co15  1  0.12412231  0.87136883  0.62236646  1
  O  O16  1  0.00002245  0.22556732  0.24466588  1
  O  O17  1  0.87147738  0.36096684  0.60678022  1
  O  O18  1  0.22060401  0.99294183  0.48491412  1
  O  O19  1  0.11496766  0.11406679  0.87732583  1
  O  O20  1  0.47744065  0.74010980  0.74971198  1
  O  O21  1  0.34777558  0.86839176  0.10483068  1
  O  O22  1  0.75512730  0.48994899  0.98799264  1
  O  O23  1  0.60483744  0.62920489  0.38183823  1
  O  O24  1  0.76340596  0.01526662  0.50302548  1
  O  O25  1  0.65679859  0.11449104  0.87892362  1
  O  O26  1  -0.00091023  0.77026339  0.76026039  1
  O  O27  1  0.88273058  0.89354269  0.13071063  1
  O  O28  1  0.25423742  0.51915990  0.00214029  1
  O  O29  1  0.13396165  0.62771235  0.38114680  1
  O  O30  1  0.52998013  0.24391470  0.26640954  1
  O  O31  1  0.38900557  0.39136088  0.63970331  1
