# generated using pymatgen
data_Li9Mn2Co5O16
_symmetry_space_group_name_H-M   'P 1'
_cell_length_a   5.93617738
_cell_length_b   7.71113318
_cell_length_c   6.54331635
_cell_angle_alpha   90.23364198
_cell_angle_beta   76.65558520
_cell_angle_gamma   98.99471281
_symmetry_Int_Tables_number   1
_chemical_formula_structural   Li9Mn2Co5O16
_chemical_formula_sum   'Li9 Mn2 Co5 O16'
_cell_volume   287.68765292
_cell_formula_units_Z   1
loop_
 _symmetry_equiv_pos_site_id
 _symmetry_equiv_pos_as_xyz
  1  'x, y, z'
loop_
 _atom_site_type_symbol
 _atom_site_label
 _atom_site_symmetry_multiplicity
 _atom_site_fract_x
 _atom_site_fract_y
 _atom_site_fract_z
 _atom_site_occupancy
  Li  Li0  1  0.50078097  0.00026986  0.99936627  1
  Li  Li1  1  0.25000531  0.25531693  0.24355492  1
  Li  Li2  1  0.88103389  0.13109870  0.62762552  1
  Li  Li3  1  0.63134733  0.38308928  0.87136690  1
  Li  Li4  1  0.00136855  0.49520638  0.50779933  1
  Li  Li5  1  0.36748664  0.61897238  0.12513948  1
  Li  Li6  1  0.12187727  0.86697308  0.37787761  1
  Li  Li7  1  0.74697640  0.74973529  0.74502973  1
  Li  Li8  1  0.12382907  0.37307419  0.87674883  1
  Mn  Mn9  1  0.00620975  0.00439865  0.00135586  1
  Mn  Mn10  1  0.75844280  0.25218227  0.24707466  1
  Co  Co11  1  0.49206027  0.50271582  0.50059027  1
  Co  Co12  1  0.24958752  0.74070792  0.75361556  1
  Co  Co13  1  0.88033769  0.61933469  0.11543661  1
  Co  Co14  1  0.62482548  0.87567160  0.37273360  1
  Co  Co15  1  0.36732112  0.13198273  0.62938467  1
  O  O16  1  0.17071912  0.81707902  0.06046569  1
  O  O17  1  0.94217516  0.07363774  0.29187045  1
  O  O18  1  0.55065788  0.93661775  0.66296942  1
  O  O19  1  0.29322963  0.16715458  0.93677494  1
  O  O20  1  0.68004453  0.31276052  0.54547525  1
  O  O21  1  0.03218122  0.42867610  0.19683931  1
  O  O22  1  0.79222116  0.69127813  0.42070308  1
  O  O23  1  0.43057916  0.57351292  0.80362923  1
  O  O24  1  0.82017877  0.18078303  0.95838814  1
  O  O25  1  0.57727274  0.42773771  0.19316471  1
  O  O26  1  0.20639373  0.30396261  0.56213986  1
  O  O27  1  0.93600790  0.57363011  0.82775573  1
  O  O28  1  0.31266214  0.67914977  0.44314188  1
  O  O29  1  0.71071667  0.82874672  0.07708953  1
  O  O30  1  0.47427260  0.06670922  0.31624521  1
  O  O31  1  0.06719753  0.93783428  0.70864775  1
