# generated using pymatgen
data_Li9Mn2Co5O16
_symmetry_space_group_name_H-M   'P 1'
_cell_length_a   5.07325679
_cell_length_b   8.70904496
_cell_length_c   6.64880303
_cell_angle_alpha   98.06366132
_cell_angle_beta   98.06811466
_cell_angle_gamma   94.58001561
_symmetry_Int_Tables_number   1
_chemical_formula_structural   Li9Mn2Co5O16
_chemical_formula_sum   'Li9 Mn2 Co5 O16'
_cell_volume   286.49367941
_cell_formula_units_Z   1
loop_
 _symmetry_equiv_pos_site_id
 _symmetry_equiv_pos_as_xyz
  1  'x, y, z'
loop_
 _atom_site_type_symbol
 _atom_site_label
 _atom_site_symmetry_multiplicity
 _atom_site_fract_x
 _atom_site_fract_y
 _atom_site_fract_z
 _atom_site_occupancy
  Li  Li0  1  0.74537358  0.18074496  0.30902512  1
  Li  Li1  1  0.76293959  0.43920239  0.06388091  1
  Li  Li2  1  0.25980562  0.05723095  0.42173275  1
  Li  Li3  1  0.24449753  0.31386523  0.19236254  1
  Li  Li4  1  0.74306369  0.93301959  0.55999097  1
  Li  Li5  1  0.74293656  0.69434345  0.81858191  1
  Li  Li6  1  0.25948172  0.57272079  0.94452519  1
  Li  Li7  1  0.24787946  0.80952830  0.69089573  1
  Li  Li8  1  0.50180652  0.87460873  0.12418293  1
  Mn  Mn9  1  -0.00015357  0.00118590  0.00622234  1
  Mn  Mn10  1  0.50028293  0.37397098  0.62446084  1
  Co  Co11  1  0.99311350  0.24777333  0.75074748  1
  Co  Co12  1  0.00117869  0.50537786  0.49585595  1
  Co  Co13  1  0.99416824  0.75067429  0.23785684  1
  Co  Co14  1  0.49789709  0.11647066  0.88313880  1
  Co  Co15  1  0.49726064  0.63407267  0.36857461  1
  O  O16  1  0.87109837  0.20991659  0.02818306  1
  O  O17  1  0.86137229  0.44900853  0.76766654  1
  O  O18  1  0.35111157  0.09322532  0.13824429  1
  O  O19  1  0.36949498  0.33146428  0.87796980  1
  O  O20  1  0.89246663  0.96961946  0.26172345  1
  O  O21  1  0.88205065  0.70755486  0.52338067  1
  O  O22  1  0.38247050  0.57902909  0.65255220  1
  O  O23  1  0.36660240  0.82885013  0.40426175  1
  O  O24  1  0.62988009  0.16797544  0.60244531  1
  O  O25  1  0.62136163  0.41113141  0.36901053  1
  O  O26  1  0.10902250  0.04308449  0.74011891  1
  O  O27  1  0.14483735  0.29569656  0.48287893  1
  O  O28  1  0.63784192  0.92378230  0.84984788  1
  O  O29  1  0.64482395  0.65556034  0.10989340  1
  O  O30  1  0.13147491  0.53311859  0.22690632  1
  O  O31  1  0.11255846  0.79619253  0.97288606  1
