# generated using pymatgen
data_Li9Mn2Co5O16
_symmetry_space_group_name_H-M   'P 1'
_cell_length_a   5.87660144
_cell_length_b   7.78845448
_cell_length_c   7.78845500
_cell_angle_alpha   97.06126957
_cell_angle_beta   112.71742939
_cell_angle_gamma   112.71743475
_symmetry_Int_Tables_number   1
_chemical_formula_structural   Li9Mn2Co5O16
_chemical_formula_sum   'Li9 Mn2 Co5 O16'
_cell_volume   287.38589066
_cell_formula_units_Z   1
loop_
 _symmetry_equiv_pos_site_id
 _symmetry_equiv_pos_as_xyz
  1  'x, y, z'
loop_
 _atom_site_type_symbol
 _atom_site_label
 _atom_site_symmetry_multiplicity
 _atom_site_fract_x
 _atom_site_fract_y
 _atom_site_fract_z
 _atom_site_occupancy
  Li  Li0  1  0.00513401  0.12704352  0.38282060  1
  Li  Li1  1  0.99486599  0.61717940  0.87295648  1
  Li  Li2  1  0.50000000  0.25000000  0.75000000  1
  Li  Li3  1  0.50000000  0.75000000  0.25000000  1
  Li  Li4  1  0.99486599  0.37295648  0.11717940  1
  Li  Li5  1  0.00513401  0.88282060  0.62704352  1
  Li  Li6  1  0.50000000  0.50141675  0.49858325  1
  Li  Li7  1  0.50000000  -0.00141675  0.00141675  1
  Li  Li8  1  0.00000000  0.25000000  0.75000000  1
  Mn  Mn9  1  0.00000000  0.00065261  0.99934739  1
  Mn  Mn10  1  1.00000000  0.49934739  0.50065261  1
  Co  Co11  1  0.50920135  0.12852310  0.38516135  1
  Co  Co12  1  0.49079865  0.61483865  0.87147690  1
  Co  Co13  1  0.00000000  0.75000000  0.25000000  1
  Co  Co14  1  0.49079865  0.37147690  0.11483865  1
  Co  Co15  1  0.50920135  0.88516135  0.62852310  1
  O  O16  1  0.76636188  0.87225232  0.11735345  1
  O  O17  1  0.75792735  0.37982923  0.60801476  1
  O  O18  1  0.25432898  -0.00216130  0.49783870  1
  O  O19  1  0.28411446  0.50704449  0.00704449  1
  O  O20  1  0.75792735  0.10801476  0.87982923  1
  O  O21  1  0.76636188  0.61735345  0.37225232  1
  O  O22  1  0.24604163  0.23051838  0.23592627  1
  O  O23  1  0.24604163  0.73592627  0.73051838  1
  O  O24  1  0.24207265  0.39198524  0.62017077  1
  O  O25  1  0.23363812  0.88264655  0.12774768  1
  O  O26  1  0.74567102  0.50216130  0.00216130  1
  O  O27  1  0.71588554  0.99295551  0.49295551  1
  O  O28  1  0.23363812  0.62774768  0.38264655  1
  O  O29  1  0.24207265  0.12017077  0.89198524  1
  O  O30  1  0.75395837  0.76407373  0.76948162  1
  O  O31  1  0.75395837  0.26948162  0.26407373  1
