# generated using pymatgen
data_Li9Mn2Co5O16
_symmetry_space_group_name_H-M   'P 1'
_cell_length_a   5.88402520
_cell_length_b   8.08978220
_cell_length_c   6.46750291
_cell_angle_alpha   89.04256817
_cell_angle_beta   114.74329490
_cell_angle_gamma   90.23235649
_symmetry_Int_Tables_number   1
_chemical_formula_structural   Li9Mn2Co5O16
_chemical_formula_sum   'Li9 Mn2 Co5 O16'
_cell_volume   279.55214155
_cell_formula_units_Z   1
loop_
 _symmetry_equiv_pos_site_id
 _symmetry_equiv_pos_as_xyz
  1  'x, y, z'
loop_
 _atom_site_type_symbol
 _atom_site_label
 _atom_site_symmetry_multiplicity
 _atom_site_fract_x
 _atom_site_fract_y
 _atom_site_fract_z
 _atom_site_occupancy
  Li  Li0  1  0.23574330  0.98987186  0.49554318  1
  Li  Li1  1  0.86898576  0.25106732  0.25227260  1
  Li  Li2  1  0.62057062  0.74563036  0.74774248  1
  Li  Li3  1  -0.00010168  0.51067800  0.00736920  1
  Li  Li4  1  0.38022045  0.25574997  0.25037088  1
  Li  Li5  1  0.75786215  0.98900355  0.49100888  1
  Li  Li6  1  0.12738099  0.74772545  0.74571546  1
  Li  Li7  1  0.50556253  0.50944078  0.00791095  1
  Li  Li8  1  0.87483212  0.74780960  0.25241523  1
  Mn  Mn9  1  0.00297345  0.99497992  0.00616527  1
  Mn  Mn10  1  0.62946174  0.25080432  0.75128405  1
  Co  Co11  1  0.23711947  0.50609721  0.49086549  1
  Co  Co12  1  0.50987083  0.99516799  0.00785908  1
  Co  Co13  1  0.12630445  0.25267488  0.74852571  1
  Co  Co14  1  0.74580979  0.50336233  0.49287642  1
  Co  Co15  1  0.37166809  0.75020381  0.24984384  1
  O  O16  1  0.88592611  0.00366840  0.23697696  1
  O  O17  1  0.50903377  0.23397011  0.98907747  1
  O  O18  1  0.25862595  0.73699654  0.49282701  1
  O  O19  1  0.63209142  0.48597490  0.73967091  1
  O  O20  1  0.98178584  0.24309116  0.97373496  1
  O  O21  1  0.35304241  0.99471207  0.22667987  1
  O  O22  1  0.71494629  0.73580224  0.47807312  1
  O  O23  1  0.13881910  0.48520092  0.74130984  1
  O  O24  1  0.65103046  0.00679123  0.77407662  1
  O  O25  1  0.28133319  0.25573829  0.53133744  1
  O  O26  1  0.02141740  0.76477739  0.01113497  1
  O  O27  1  0.35599706  0.51325930  0.25568101  1
  O  O28  1  0.74275983  0.25781954  0.51174632  1
  O  O29  1  0.11850019  0.01684594  0.76001607  1
  O  O30  1  0.49052800  0.76972945  0.01064338  1
  O  O31  1  0.86989789  0.49535518  0.26924532  1
