# generated using pymatgen
data_Ce3Au
_symmetry_space_group_name_H-M   'P 1'
_cell_length_a   6.70814247
_cell_length_b   6.73508527
_cell_length_c   5.23280468
_cell_angle_alpha   89.98160564
_cell_angle_beta   89.98530354
_cell_angle_gamma   120.12967942
_symmetry_Int_Tables_number   1
_chemical_formula_structural   Ce3Au
_chemical_formula_sum   'Ce6 Au2'
_cell_volume   204.47558842
_cell_formula_units_Z   2
loop_
 _symmetry_equiv_pos_site_id
 _symmetry_equiv_pos_as_xyz
  1  'x, y, z'
loop_
 _atom_site_type_symbol
 _atom_site_label
 _atom_site_symmetry_multiplicity
 _atom_site_fract_x
 _atom_site_fract_y
 _atom_site_fract_z
 _atom_site_occupancy
  Ce  Ce0  1  0.17903393  0.35828835  0.25020989  1
  Ce  Ce1  1  0.64169717  0.82063912  0.25010861  1
  Ce  Ce2  1  0.17879809  0.82063785  0.25014681  1
  Ce  Ce3  1  0.82061900  0.64167817  0.74981275  1
  Ce  Ce4  1  0.35910928  0.17972029  0.74988081  1
  Ce  Ce5  1  0.82085222  0.17908680  0.74984163  1
  Au  Au6  1  0.33342610  0.66670194  0.75018026  1
  Au  Au7  1  0.66646521  0.33324648  0.24981923  1
