# generated using pymatgen
data_Li9Mn2Co5O16
_symmetry_space_group_name_H-M   'P 1'
_cell_length_a   5.14846170
_cell_length_b   7.73372544
_cell_length_c   7.73372535
_cell_angle_alpha   96.28460128
_cell_angle_beta   75.94413230
_cell_angle_gamma   75.94413509
_symmetry_Int_Tables_number   1
_chemical_formula_structural   Li9Mn2Co5O16
_chemical_formula_sum   'Li9 Mn2 Co5 O16'
_cell_volume   285.08818901
_cell_formula_units_Z   1
loop_
 _symmetry_equiv_pos_site_id
 _symmetry_equiv_pos_as_xyz
  1  'x, y, z'
loop_
 _atom_site_type_symbol
 _atom_site_label
 _atom_site_symmetry_multiplicity
 _atom_site_fract_x
 _atom_site_fract_y
 _atom_site_fract_z
 _atom_site_occupancy
  Li  Li0  1  0.01025667  0.12034388  0.37034388  1
  Li  Li1  1  0.98974333  0.62965612  0.87965612  1
  Li  Li2  1  0.50170816  0.00012235  0.49970234  1
  Li  Li3  1  0.49829184  0.50029766  0.99987765  1
  Li  Li4  1  -0.00000000  0.87500000  0.62500000  1
  Li  Li5  1  -0.00000000  0.37500000  0.12500000  1
  Li  Li6  1  0.49829184  0.74987765  0.75029766  1
  Li  Li7  1  0.50170816  0.24970234  0.25012235  1
  Li  Li8  1  0.50000000  0.87500000  0.12500000  1
  Mn  Mn9  1  0.00000000  -0.00017925  0.00017925  1
  Mn  Mn10  1  1.00000000  0.75017925  0.24982075  1
  Co  Co11  1  0.00000000  0.50111003  0.49888997  1
  Co  Co12  1  0.50000000  0.37500000  0.62500000  1
  Co  Co13  1  1.00000000  0.24888997  0.75111003  1
  Co  Co14  1  0.50000000  0.62711274  0.37288726  1
  Co  Co15  1  0.50000000  0.12288726  0.87711274  1
  O  O16  1  0.78296786  0.99181086  0.24181086  1
  O  O17  1  0.76181004  0.49355181  0.74355181  1
  O  O18  1  0.24695376  0.85043516  0.36324015  1
  O  O19  1  0.26522970  0.35731952  0.86247315  1
  O  O20  1  0.77165616  0.74752639  0.49015418  1
  O  O21  1  0.77165616  0.24015418  0.99752639  1
  O  O22  1  0.26522970  0.61247315  0.60731952  1
  O  O23  1  0.24695376  0.11324015  0.10043516  1
  O  O24  1  0.23818996  0.25644819  0.50644819  1
  O  O25  1  0.21703214  0.75818914  0.00818914  1
  O  O26  1  0.73477030  0.13752685  0.64268048  1
  O  O27  1  0.75304624  0.63675985  0.14956484  1
  O  O28  1  0.22834384  0.00247361  0.75984582  1
  O  O29  1  0.22834384  0.50984582  0.25247361  1
  O  O30  1  0.75304624  0.89956484  0.88675985  1
  O  O31  1  0.73477030  0.39268048  0.38752685  1
