# generated using pymatgen
data_Li9Mn2Co5O16
_symmetry_space_group_name_H-M   'P 1'
_cell_length_a   5.13220605
_cell_length_b   5.85622623
_cell_length_c   9.70311101
_cell_angle_alpha   89.62561570
_cell_angle_beta   79.66700997
_cell_angle_gamma   89.79329247
_symmetry_Int_Tables_number   1
_chemical_formula_structural   Li9Mn2Co5O16
_chemical_formula_sum   'Li9 Mn2 Co5 O16'
_cell_volume   286.89380150
_cell_formula_units_Z   1
loop_
 _symmetry_equiv_pos_site_id
 _symmetry_equiv_pos_as_xyz
  1  'x, y, z'
loop_
 _atom_site_type_symbol
 _atom_site_label
 _atom_site_symmetry_multiplicity
 _atom_site_fract_x
 _atom_site_fract_y
 _atom_site_fract_z
 _atom_site_occupancy
  Li  Li0  1  0.50023660  0.25052377  0.00351042  1
  Li  Li1  1  0.25026129  0.49054763  0.25067292  1
  Li  Li2  1  0.50236696  0.75323141  0.00224746  1
  Li  Li3  1  0.24844949  0.00756966  0.24964765  1
  Li  Li4  1  0.75233587  0.00066293  0.74933717  1
  Li  Li5  1  0.74762753  0.49970606  0.75161263  1
  Li  Li6  1  0.99802727  0.74945030  0.49887136  1
  Li  Li7  1  0.99942592  0.24681386  0.49563593  1
  Li  Li8  1  0.74940835  0.24730659  0.24937069  1
  Mn  Mn9  1  0.00151348  0.00471048  0.00382664  1
  Mn  Mn10  1  0.49586630  0.99816240  0.49578460  1
  Co  Co11  1  0.51474215  0.49371404  0.48883257  1
  Co  Co12  1  0.25080514  0.74651988  0.75088255  1
  Co  Co13  1  0.99257230  0.49934075  0.00987963  1
  Co  Co14  1  0.74951356  0.75340073  0.24988510  1
  Co  Co15  1  0.24959956  0.25347757  0.74845461  1
  O  O16  1  0.34754799  0.01086392  0.87344118  1
  O  O17  1  0.12318927  0.24003155  0.11474014  1
  O  O18  1  0.35633170  0.50360151  0.87406218  1
  O  O19  1  0.12383349  0.76586221  0.11565366  1
  O  O20  1  0.59859954  0.75815169  0.62194254  1
  O  O21  1  0.61240844  0.23416265  0.61494889  1
  O  O22  1  0.84940811  0.51234822  0.37590531  1
  O  O23  1  0.83516262  0.98306570  0.37684649  1
  O  O24  1  0.65490975  0.52000826  0.12639727  1
  O  O25  1  0.37558110  0.75827176  0.38448722  1
  O  O26  1  0.66330471  0.98983182  0.12100474  1
  O  O27  1  0.37649043  0.23695634  0.38538436  1
  O  O28  1  0.88674779  0.24266574  0.88486591  1
  O  O29  1  0.90076290  0.76404686  0.87805404  1
  O  O30  1  0.15146023  0.99596910  0.62256581  1
  O  O31  1  0.14151016  0.48902463  0.63124834  1
