# generated using pymatgen
data_Li9Mn2Co5O16
_symmetry_space_group_name_H-M   'P 1'
_cell_length_a   5.88970945
_cell_length_b   8.62089334
_cell_length_c   5.88698489
_cell_angle_alpha   70.29806917
_cell_angle_beta   87.72694182
_cell_angle_gamma   88.22759783
_symmetry_Int_Tables_number   1
_chemical_formula_structural   Li9Mn2Co5O16
_chemical_formula_sum   'Li9 Mn2 Co5 O16'
_cell_volume   281.14026066
_cell_formula_units_Z   1
loop_
 _symmetry_equiv_pos_site_id
 _symmetry_equiv_pos_as_xyz
  1  'x, y, z'
loop_
 _atom_site_type_symbol
 _atom_site_label
 _atom_site_symmetry_multiplicity
 _atom_site_fract_x
 _atom_site_fract_y
 _atom_site_fract_z
 _atom_site_occupancy
  Li  Li0  1  0.25304378  0.25540430  0.12145392  1
  Li  Li1  1  0.99136379  0.48944785  0.25029821  1
  Li  Li2  1  0.25417092  0.25207250  0.62430411  1
  Li  Li3  1  0.99163172  0.48909926  0.76232693  1
  Li  Li4  1  0.74824486  0.74801352  0.87622810  1
  Li  Li5  1  0.74764423  0.74697324  0.37698374  1
  Li  Li6  1  0.50805169  0.01271661  0.48970279  1
  Li  Li7  1  0.50575883  0.01061833  0.99767682  1
  Li  Li8  1  0.74678099  0.25201472  0.12569507  1
  Mn  Mn9  1  0.99359893  0.00530644  0.99728577  1
  Mn  Mn10  1  0.24958027  0.74891793  0.37215006  1
  Co  Co11  1  0.50758796  0.49708041  0.25270315  1
  Co  Co12  1  0.99247940  0.00507593  0.49065864  1
  Co  Co13  1  0.75036012  0.24989087  0.62843593  1
  Co  Co14  1  0.50886598  0.49326108  0.76158184  1
  Co  Co15  1  0.25066125  0.74677754  0.87491460  1
  O  O16  1  0.98716522  0.23402635  0.86669116  1
  O  O17  1  0.73146558  0.50610882  0.01161624  1
  O  O18  1  0.99141300  0.22989419  0.39991717  1
  O  O19  1  0.74353117  0.48514101  0.52919228  1
  O  O20  1  0.46864334  0.74492797  0.61457393  1
  O  O21  1  0.48655732  0.73964026  0.14204634  1
  O  O22  1  0.22596650  0.99419979  0.23950302  1
  O  O23  1  0.23982364  0.98065769  0.77064601  1
  O  O24  1  0.52200781  0.26389625  0.39148444  1
  O  O25  1  0.26321681  0.51581646  0.48066394  1
  O  O26  1  0.50826581  0.26422459  0.85586226  1
  O  O27  1  0.25737469  0.51361045  0.97583705  1
  O  O28  1  0.02695214  0.75702069  0.12783451  1
  O  O29  1  0.01022272  0.76624462  0.60055972  1
  O  O30  1  0.77391517  0.00457260  0.75701918  1
  O  O31  1  0.76365438  0.99734775  0.23415107  1
