# generated using pymatgen
data_Li9Mn2Co5O16
_symmetry_space_group_name_H-M   'P 1'
_cell_length_a   5.14645178
_cell_length_b   7.68166109
_cell_length_c   7.76187587
_cell_angle_alpha   93.77260932
_cell_angle_beta   109.25723561
_cell_angle_gamma   96.48941571
_symmetry_Int_Tables_number   1
_chemical_formula_structural   Li9Mn2Co5O16
_chemical_formula_sum   'Li9 Mn2 Co5 O16'
_cell_volume   286.08428561
_cell_formula_units_Z   1
loop_
 _symmetry_equiv_pos_site_id
 _symmetry_equiv_pos_as_xyz
  1  'x, y, z'
loop_
 _atom_site_type_symbol
 _atom_site_label
 _atom_site_symmetry_multiplicity
 _atom_site_fract_x
 _atom_site_fract_y
 _atom_site_fract_z
 _atom_site_occupancy
  Li  Li0  1  0.56282881  0.19081376  0.06162570  1
  Li  Li1  1  0.93915515  0.32181099  0.44288440  1
  Li  Li2  1  0.31982113  0.43756584  0.80741733  1
  Li  Li3  1  0.68125825  0.55770651  0.19309914  1
  Li  Li4  1  0.07816994  0.68311164  0.56461830  1
  Li  Li5  1  0.43526872  0.80933245  0.93311743  1
  Li  Li6  1  0.81326350  0.93946627  0.31704282  1
  Li  Li7  1  0.17611156  0.05925089  0.68284788  1
  Li  Li8  1  0.49881522  0.50435500  0.50002066  1
  Mn  Mn9  1  0.00192416  0.99787585  0.99694298  1
  Mn  Mn10  1  0.24777605  0.74901781  0.25265888  1
  Co  Co11  1  0.37611561  0.13158790  0.37786488  1
  Co  Co12  1  0.73847566  0.25444775  0.74455827  1
  Co  Co13  1  0.12328324  0.37764350  0.13133531  1
  Co  Co14  1  0.87457466  0.61738616  0.86164967  1
  Co  Co15  1  0.62622323  0.87246979  0.62376684  1
  O  O16  1  0.13107410  0.20879759  0.91033418  1
  O  O17  1  0.49808841  0.32979023  0.27779359  1
  O  O18  1  0.91893154  0.47230917  0.67300469  1
  O  O19  1  0.27669819  0.59907448  0.05032521  1
  O  O20  1  0.61700300  0.73171002  0.40181057  1
  O  O21  1  0.03704072  0.85121891  0.79725576  1
  O  O22  1  0.37195326  0.96178191  0.15380674  1
  O  O23  1  0.75819567  0.08432096  0.53705824  1
  O  O24  1  0.97416816  0.14814270  0.20427159  1
  O  O25  1  0.36709822  0.27093957  0.60346532  1
  O  O26  1  0.73943210  0.40769983  0.97029228  1
  O  O27  1  0.09423980  0.54317075  0.33203098  1
  O  O28  1  0.50081573  0.67353869  0.71808156  1
  O  O29  1  0.87566979  0.78437799  0.08629569  1
  O  O30  1  0.21493971  0.90610295  0.44740454  1
  O  O31  1  0.63158471  0.02317613  0.84531255  1
