# generated using pymatgen
data_Li9Mn2Co5O16
_symmetry_space_group_name_H-M   'P 1'
_cell_length_a   5.14351360
_cell_length_b   7.69920320
_cell_length_c   7.76365749
_cell_angle_alpha   97.80110882
_cell_angle_beta   108.87849323
_cell_angle_gamma   83.39976107
_symmetry_Int_Tables_number   1
_chemical_formula_structural   Li9Mn2Co5O16
_chemical_formula_sum   'Li9 Mn2 Co5 O16'
_cell_volume   287.38900642
_cell_formula_units_Z   1
loop_
 _symmetry_equiv_pos_site_id
 _symmetry_equiv_pos_as_xyz
  1  'x, y, z'
loop_
 _atom_site_type_symbol
 _atom_site_label
 _atom_site_symmetry_multiplicity
 _atom_site_fract_x
 _atom_site_fract_y
 _atom_site_fract_z
 _atom_site_occupancy
  Li  Li0  1  0.49443732  0.18483817  0.05646648  1
  Li  Li1  1  0.50841579  0.31640771  0.44174575  1
  Li  Li2  1  0.50027098  0.55887122  0.18995620  1
  Li  Li3  1  0.50015138  0.68698322  0.55779827  1
  Li  Li4  1  0.50541126  0.93562703  0.31727411  1
  Li  Li5  1  0.49255753  0.07393785  0.68863357  1
  Li  Li6  1  0.50359350  0.43041694  0.80715677  1
  Li  Li7  1  0.49733111  0.81284826  0.93825271  1
  Li  Li8  1  0.00060349  0.25222299  0.75131967  1
  Mn  Mn9  1  0.99844815  0.00053390  0.99691632  1
  Mn  Mn10  1  -0.00372679  0.62246279  0.87454170  1
  Co  Co11  1  0.00224883  0.12648124  0.38183218  1
  Co  Co12  1  0.99355274  0.37179363  0.11832788  1
  Co  Co13  1  0.00179428  0.49605729  0.50512061  1
  Co  Co14  1  0.00513986  0.74485208  0.25508579  1
  Co  Co15  1  0.00222089  0.88525311  0.62520308  1
  O  O16  1  0.22530662  0.02531900  0.85049842  1
  O  O17  1  0.22361543  0.14431403  0.20698308  1
  O  O18  1  0.22065385  0.42044718  0.97304047  1
  O  O19  1  0.23055049  0.53751073  0.33567054  1
  O  O20  1  0.22188126  0.78262560  0.07883629  1
  O  O21  1  0.23962403  0.90456506  0.46897865  1
  O  O22  1  0.23789106  0.29060468  0.57834138  1
  O  O23  1  0.21897276  0.65996911  0.72337712  1
  O  O24  1  0.77034135  0.34639660  0.28083951  1
  O  O25  1  0.76831634  0.48473648  0.66916897  1
  O  O26  1  0.77424894  0.71554024  0.41212995  1
  O  O27  1  0.77644721  0.84433167  0.79603718  1
  O  O28  1  0.77133147  0.08544193  0.52108933  1
  O  O29  1  0.76467582  0.20439993  0.91851345  1
  O  O30  1  0.76976999  0.59448591  0.02435494  1
  O  O31  1  0.78392306  0.95972441  0.15650962  1
