# generated using pymatgen
data_Li9Mn2Co5O16
_symmetry_space_group_name_H-M   'P 1'
_cell_length_a   5.07076025
_cell_length_b   5.13531162
_cell_length_c   11.69635926
_cell_angle_alpha   89.47401162
_cell_angle_beta   88.91734345
_cell_angle_gamma   109.09846928
_symmetry_Int_Tables_number   1
_chemical_formula_structural   Li9Mn2Co5O16
_chemical_formula_sum   'Li9 Mn2 Co5 O16'
_cell_volume   287.71862009
_cell_formula_units_Z   1
loop_
 _symmetry_equiv_pos_site_id
 _symmetry_equiv_pos_as_xyz
  1  'x, y, z'
loop_
 _atom_site_type_symbol
 _atom_site_label
 _atom_site_symmetry_multiplicity
 _atom_site_fract_x
 _atom_site_fract_y
 _atom_site_fract_z
 _atom_site_occupancy
  Li  Li0  1  0.99544129  0.49590233  0.12390593  1
  Li  Li1  1  0.49668024  0.50417706  0.24690384  1
  Li  Li2  1  0.99572367  0.49685893  0.37090537  1
  Li  Li3  1  0.50025800  0.50049297  0.49456142  1
  Li  Li4  1  0.99445651  0.49838299  0.62401388  1
  Li  Li5  1  0.49884176  0.50118299  0.75238748  1
  Li  Li6  1  0.01080351  0.50621944  0.87949453  1
  Li  Li7  1  0.50284686  0.49747776  0.00814835  1
  Li  Li8  1  0.49807734  0.99714637  0.12526475  1
  Mn  Mn9  1  0.00563612  0.00986153  0.00221238  1
  Mn  Mn10  1  0.49735661  0.99578281  0.62544962  1
  Co  Co11  1  0.00233251  0.98514944  0.24505737  1
  Co  Co12  1  0.50690725  0.00258468  0.36536771  1
  Co  Co13  1  -0.00027829  0.99845432  0.49385767  1
  Co  Co14  1  0.00630428  0.00227397  0.75191480  1
  Co  Co15  1  0.50329172  0.00414393  0.88466801  1
  O  O16  1  0.76676142  0.23186355  0.99365784  1
  O  O17  1  0.22386213  0.23268863  0.11862296  1
  O  O18  1  0.74565570  0.22692066  0.25740549  1
  O  O19  1  0.23213369  0.23055327  0.38037216  1
  O  O20  1  0.73213504  0.22428028  0.50691710  1
  O  O21  1  0.24651636  0.21718718  0.63162731  1
  O  O22  1  0.73629226  0.21504999  0.74537137  1
  O  O23  1  0.25010842  0.24094999  0.88002673  1
  O  O24  1  0.23825888  0.76507187  0.25536437  1
  O  O25  1  0.74747705  0.75907222  0.37637939  1
  O  O26  1  0.26333153  0.77563928  0.50759279  1
  O  O27  1  0.74212175  0.77369292  0.62277583  1
  O  O28  1  0.25543208  0.77477364  0.74682239  1
  O  O29  1  0.78034094  0.78687952  0.87463363  1
  O  O30  1  0.24997344  0.78053088  0.99196536  1
  O  O31  1  0.77491992  0.76875462  0.11634917  1
