# generated using pymatgen
data_Li9Mn2Co5O16
_symmetry_space_group_name_H-M   'P 1'
_cell_length_a   5.87097456
_cell_length_b   8.24611289
_cell_length_c   6.52108895
_cell_angle_alpha   89.24541289
_cell_angle_beta   115.55448692
_cell_angle_gamma   90.03537383
_symmetry_Int_Tables_number   1
_chemical_formula_structural   Li9Mn2Co5O16
_chemical_formula_sum   'Li9 Mn2 Co5 O16'
_cell_volume   284.79089890
_cell_formula_units_Z   1
loop_
 _symmetry_equiv_pos_site_id
 _symmetry_equiv_pos_as_xyz
  1  'x, y, z'
loop_
 _atom_site_type_symbol
 _atom_site_label
 _atom_site_symmetry_multiplicity
 _atom_site_fract_x
 _atom_site_fract_y
 _atom_site_fract_z
 _atom_site_occupancy
  Li  Li0  1  0.24429006  0.99933373  0.49354062  1
  Li  Li1  1  0.89004787  0.25601968  0.25438590  1
  Li  Li2  1  0.61545195  0.74159115  0.74688071  1
  Li  Li3  1  0.99633730  0.50225829  -0.00120157  1
  Li  Li4  1  0.36863941  0.25587025  0.25804500  1
  Li  Li5  1  0.74883267  0.99515192  0.49950713  1
  Li  Li6  1  0.13265572  0.74064746  0.74503577  1
  Li  Li7  1  0.50620940  0.50147214  0.00906108  1
  Li  Li8  1  0.25364552  0.50097909  0.50127265  1
  Mn  Mn9  1  0.00120779  0.00288510  0.00150484  1
  Mn  Mn10  1  0.12662357  0.25399181  0.74502483  1
  Co  Co11  1  0.61578806  0.25606961  0.73892220  1
  Co  Co12  1  0.87477921  0.74552360  0.25043834  1
  Co  Co13  1  0.49845526  0.99695677  0.00021986  1
  Co  Co14  1  0.75176853  0.49852788  0.50002803  1
  Co  Co15  1  0.37539133  0.74524931  0.25912359  1
  O  O16  1  0.87823402  0.99233185  0.23524633  1
  O  O17  1  0.47625122  0.25591032  0.96191679  1
  O  O18  1  0.24840483  0.75200415  0.48284618  1
  O  O19  1  0.63983065  0.48366783  0.73498629  1
  O  O20  1  0.01019042  0.23907931  0.99206208  1
  O  O21  1  0.34968714  0.99926883  0.23166653  1
  O  O22  1  0.74709389  0.73237280  0.49506324  1
  O  O23  1  0.09629116  0.48576113  0.73333227  1
  O  O24  1  0.65059787  0.01918287  0.76740576  1
  O  O25  1  0.24025421  0.24676685  0.51600887  1
  O  O26  1  0.00020835  0.76566041  0.00421837  1
  O  O27  1  0.41694780  0.50200810  0.27918518  1
  O  O28  1  0.76498743  0.26159942  0.52026530  1
  O  O29  1  0.11248651  0.01515876  0.76014972  1
  O  O30  1  0.49868498  0.74732550  0.01478651  1
  O  O31  1  0.86972485  0.50937409  0.26907160  1
