# generated using pymatgen
data_LiVF4
_symmetry_space_group_name_H-M   'P 1'
_cell_length_a   3.12779001
_cell_length_b   5.51757712
_cell_length_c   9.34515647
_cell_angle_alpha   96.14306278
_cell_angle_beta   80.36632727
_cell_angle_gamma   106.46554599
_symmetry_Int_Tables_number   1
_chemical_formula_structural   LiVF4
_chemical_formula_sum   'Li2 V2 F8'
_cell_volume   152.17901101
_cell_formula_units_Z   2
loop_
 _symmetry_equiv_pos_site_id
 _symmetry_equiv_pos_as_xyz
  1  'x, y, z'
loop_
 _atom_site_type_symbol
 _atom_site_label
 _atom_site_symmetry_multiplicity
 _atom_site_fract_x
 _atom_site_fract_y
 _atom_site_fract_z
 _atom_site_occupancy
  Li  Li0  1  0.24047150  0.75000000  0.25000000  1
  Li  Li1  1  0.75952850  0.25000000  0.75000000  1
  V  V2  1  -0.00000000  -0.00000000  0.00000000  1
  V  V3  1  0.50000000  0.50000000  0.50000000  1
  F  F4  1  0.48253566  0.10350606  0.13006753  1
  F  F5  1  0.78928695  0.69946207  0.10681627  1
  F  F6  1  0.00909713  0.39649394  0.36993247  1
  F  F7  1  0.30335886  0.19946207  0.60681627  1
  F  F8  1  0.69664114  0.80053793  0.39318373  1
  F  F9  1  0.99090287  0.60350606  0.63006753  1
  F  F10  1  0.21071305  0.30053793  0.89318373  1
  F  F11  1  0.51746434  0.89649394  0.86993247  1
