# generated using pymatgen
data_Li9Mn2Co5O16
_symmetry_space_group_name_H-M   'P 1'
_cell_length_a   5.09342307
_cell_length_b   11.67950935
_cell_length_c   5.04628455
_cell_angle_alpha   90.00000000
_cell_angle_beta   70.86987288
_cell_angle_gamma   90.00000000
_symmetry_Int_Tables_number   1
_chemical_formula_structural   Li9Mn2Co5O16
_chemical_formula_sum   'Li9 Mn2 Co5 O16'
_cell_volume   283.61896723
_cell_formula_units_Z   1
loop_
 _symmetry_equiv_pos_site_id
 _symmetry_equiv_pos_as_xyz
  1  'x, y, z'
loop_
 _atom_site_type_symbol
 _atom_site_label
 _atom_site_symmetry_multiplicity
 _atom_site_fract_x
 _atom_site_fract_y
 _atom_site_fract_z
 _atom_site_occupancy
  Li  Li0  1  0.50000000  0.13089975  -0.00000000  1
  Li  Li1  1  0.50000000  0.25301680  0.50000000  1
  Li  Li2  1  0.50000000  0.37833202  -0.00000000  1
  Li  Li3  1  0.50000000  0.50453726  0.50000000  1
  Li  Li4  1  0.50000000  0.62499078  -0.00000000  1
  Li  Li5  1  0.50000000  0.74339688  0.50000000  1
  Li  Li6  1  0.50000000  0.86638151  -0.00000000  1
  Li  Li7  1  0.50000000  -0.00097059  0.50000000  1
  Li  Li8  1  -0.00000000  0.74783513  -0.00000000  1
  Mn  Mn9  1  -0.00000000  -0.00142178  -0.00000000  1
  Mn  Mn10  1  -0.00000000  0.87251835  0.50000000  1
  Co  Co11  1  -0.00000000  0.12793077  0.50000000  1
  Co  Co12  1  -0.00000000  0.24894337  -0.00000000  1
  Co  Co13  1  -0.00000000  0.37740580  0.50000000  1
  Co  Co14  1  -0.00000000  0.50614429  -0.00000000  1
  Co  Co15  1  -0.00000000  0.62721009  0.50000000  1
  O  O16  1  0.22571176  0.12629182  0.77872389  1
  O  O17  1  0.22660229  0.25260897  0.23733288  1
  O  O18  1  0.22025306  0.36574432  0.77079532  1
  O  O19  1  0.23731928  0.49550803  0.25628056  1
  O  O20  1  0.22913288  0.61834969  0.74803910  1
  O  O21  1  0.23387483  0.75757446  0.27685254  1
  O  O22  1  0.22094918  0.88651699  0.74838888  1
  O  O23  1  0.22429954  0.99383048  0.24569545  1
  O  O24  1  0.77428824  0.12629182  0.22127611  1
  O  O25  1  0.77339771  0.25260897  0.76266712  1
  O  O26  1  0.77974694  0.36574432  0.22920468  1
  O  O27  1  0.76268072  0.49550803  0.74371944  1
  O  O28  1  0.77086712  0.61834969  0.25196090  1
  O  O29  1  0.76612517  0.75757446  0.72314746  1
  O  O30  1  0.77905082  0.88651699  0.25161112  1
  O  O31  1  0.77570046  0.99383048  0.75430455  1
