# generated using pymatgen
data_LiTiP2O7
_symmetry_space_group_name_H-M   'P 1'
_cell_length_a   6.37719863
_cell_length_b   6.37719863
_cell_length_c   13.20614075
_cell_angle_alpha   78.93266154
_cell_angle_beta   78.17019022
_cell_angle_gamma   100.25003577
_symmetry_Int_Tables_number   1
_chemical_formula_structural   LiTiP2O7
_chemical_formula_sum   'Li4 Ti4 P8 O28'
_cell_volume   502.51889714
_cell_formula_units_Z   4
loop_
 _symmetry_equiv_pos_site_id
 _symmetry_equiv_pos_as_xyz
  1  'x, y, z'
loop_
 _atom_site_type_symbol
 _atom_site_label
 _atom_site_symmetry_multiplicity
 _atom_site_fract_x
 _atom_site_fract_y
 _atom_site_fract_z
 _atom_site_occupancy
  Li  Li0  1  0.38961415  0.96709240  0.37686330  1
  Li  Li1  1  0.15604430  0.23352156  0.87686330  1
  Li  Li2  1  0.84395570  0.76647844  0.12313670  1
  Li  Li3  1  0.61038585  0.03290760  0.62313670  1
  Ti  Ti4  1  0.23273878  0.59360579  0.64346265  1
  Ti  Ti5  1  0.73706844  0.87620144  0.85653735  1
  Ti  Ti6  1  0.26293156  0.12379856  0.14346265  1
  Ti  Ti7  1  0.76726122  0.40639421  0.35653735  1
  P  P8  1  0.22578994  0.75386646  0.86664818  1
  P  P9  1  0.34504795  0.66689317  0.07394334  1
  P  P10  1  0.24083550  0.41899128  0.42605666  1
  P  P11  1  0.87948536  0.90756188  0.36664818  1
  P  P12  1  0.12051464  0.09243812  0.63335182  1
  P  P13  1  0.75916450  0.58100872  0.57394334  1
  P  P14  1  0.65495205  0.33310683  0.92605666  1
  P  P15  1  0.77421006  0.24613354  0.13335182  1
  O  O16  1  0.04569370  0.88106981  0.88976794  1
  O  O17  1  0.20819337  0.81011420  0.12681252  1
  O  O18  1  0.27083775  0.93546164  0.61023206  1
  O  O19  1  0.45007703  0.91255220  0.81547445  1
  O  O20  1  0.08526506  0.46504237  0.35487737  1
  O  O21  1  0.17448130  0.57427707  0.80685904  1
  O  O22  1  0.23268988  0.61054125  0.98017782  1
  O  O23  1  0.30825019  0.61180958  0.47550303  1
  O  O24  1  0.58731260  0.78375322  0.02449697  1
  O  O25  1  0.31991973  0.44014143  0.14512263  1
  O  O26  1  0.09071907  0.21286769  0.51982218  1
  O  O27  1  0.56307428  0.66499411  0.62681252  1
  O  O28  1  0.88113610  0.98134033  0.69314096  1
  O  O29  1  0.22802565  0.26555048  0.68452555  1
  O  O30  1  0.77197435  0.73444952  0.31547445  1
  O  O31  1  0.11886390  0.01865967  0.30685904  1
  O  O32  1  0.43692572  0.33500589  0.37318748  1
  O  O33  1  0.90928093  0.78713231  0.48017782  1
  O  O34  1  0.68008027  0.55985857  0.85487737  1
  O  O35  1  0.41268740  0.21624678  0.97550303  1
  O  O36  1  0.69174981  0.38819042  0.52449697  1
  O  O37  1  0.76731012  0.38945875  0.01982218  1
  O  O38  1  0.82551870  0.42572293  0.19314096  1
  O  O39  1  0.91473494  0.53495763  0.64512263  1
  O  O40  1  0.54992297  0.08744780  0.18452555  1
  O  O41  1  0.72916225  0.06453836  0.38976794  1
  O  O42  1  0.79180663  0.18988580  0.87318748  1
  O  O43  1  0.95430630  0.11893019  0.11023206  1
