# generated using pymatgen
data_Na2Fe2C4SO16
_symmetry_space_group_name_H-M   'P 1'
_cell_length_a   9.86329632
_cell_length_b   9.85680079
_cell_length_c   9.85883377
_cell_angle_alpha   60.02284490
_cell_angle_beta   89.81385394
_cell_angle_gamma   119.57040176
_symmetry_Int_Tables_number   1
_chemical_formula_structural   Na2Fe2C4SO16
_chemical_formula_sum   'Na4 Fe4 C8 S2 O32'
_cell_volume   681.26206185
_cell_formula_units_Z   2
loop_
 _symmetry_equiv_pos_site_id
 _symmetry_equiv_pos_as_xyz
  1  'x, y, z'
loop_
 _atom_site_type_symbol
 _atom_site_label
 _atom_site_symmetry_multiplicity
 _atom_site_fract_x
 _atom_site_fract_y
 _atom_site_fract_z
 _atom_site_occupancy
  Na  Na0  1  0.91291116  0.25043745  0.33946639  1
  Na  Na1  1  0.90732770  0.23738949  0.91342504  1
  Na  Na2  1  0.34062057  0.24859418  0.91259233  1
  Na  Na3  1  0.09190150  0.76312960  0.65168201  1
  Fe  Fe4  1  0.49661667  0.99334945  0.00025728  1
  Fe  Fe5  1  0.50015133  -0.00002578  0.50175158  1
  Fe  Fe6  1  0.50266406  0.50182637  0.49683530  1
  Fe  Fe7  1  0.00010993  0.50361932  0.49608067  1
  C  C8  1  0.71326835  0.07689979  0.71052399  1
  C  C9  1  0.71383802  0.42556706  0.36096917  1
  C  C10  1  0.36016129  0.07397388  0.71438278  1
  C  C11  1  0.71197583  0.42531003  0.71431341  1
  C  C12  1  0.28608106  0.57048353  0.28881842  1
  C  C13  1  0.64128881  0.92877492  0.28487158  1
  C  C14  1  0.28918479  0.92720793  0.28746234  1
  C  C15  1  0.28426159  0.57224225  0.64042953  1
  S  S16  1  0.12384876  0.25018648  0.12294659  1
  S  S17  1  0.87434040  0.75103917  0.87481232  1
  O  O18  1  0.64812724  0.04588375  0.13825289  1
  O  O19  1  0.85676551  0.21990323  0.59570549  1
  O  O20  1  0.68830926  0.28402144  0.35982435  1
  O  O21  1  0.40156460  0.03835594  0.31789722  1
  O  O22  1  0.85580120  0.54107626  0.35931963  1
  O  O23  1  0.30767614  0.37141337  0.06917833  1
  O  O24  1  0.06973347  0.13335524  0.05609563  1
  O  O25  1  0.59899516  0.45218130  0.36091024  1
  O  O26  1  0.68763959  0.04833202  0.85420764  1
  O  O27  1  0.35224166  0.03894367  0.60273929  1
  O  O28  1  0.86040887  0.46165081  0.68945094  1
  O  O29  1  0.05526278  0.36592548  0.06741391  1
  O  O30  1  0.07002154  0.12881210  0.30787537  1
  O  O31  1  0.63277800  0.78140091  0.31591475  1
  O  O32  1  0.40052531  0.71553616  0.14896176  1
  O  O33  1  0.68360760  0.53750630  0.59895768  1
  O  O34  1  0.31480120  0.45808922  0.40281286  1
  O  O35  1  0.36321334  0.21882841  0.68529941  1
  O  O36  1  0.59766929  0.28035222  0.85634849  1
  O  O37  1  0.93357547  0.87395778  0.68991848  1
  O  O38  1  0.93547984  0.62606539  0.93708334  1
  O  O39  1  0.13926655  0.53419155  0.31512293  1
  O  O40  1  0.64925904  0.96524439  0.39476532  1
  O  O41  1  0.31683747  0.96211188  0.14131978  1
  O  O42  1  0.39486926  0.53726935  0.64497126  1
  O  O43  1  0.93721802  0.87466010  0.93545557  1
  O  O44  1  0.68979735  0.62471228  0.93536197  1
  O  O45  1  0.13754125  0.45566943  0.64743249  1
  O  O46  1  0.60036958  0.96431645  0.68182130  1
  O  O47  1  0.31416150  0.71818827  0.63562505  1
  O  O48  1  0.14663688  0.78302854  0.40182990  1
  O  O49  1  0.35929019  0.95901167  0.85695901  1
