# generated using pymatgen
data_Mn3VFe2(PO4)6
_symmetry_space_group_name_H-M   'P 1'
_cell_length_a   8.53554059
_cell_length_b   8.64141154
_cell_length_c   8.64141219
_cell_angle_alpha   59.99999419
_cell_angle_beta   59.58882956
_cell_angle_gamma   59.58883064
_symmetry_Int_Tables_number   1
_chemical_formula_structural   Mn3VFe2(PO4)6
_chemical_formula_sum   'Mn3 V1 Fe2 P6 O24'
_cell_volume   447.87643668
_cell_formula_units_Z   1
loop_
 _symmetry_equiv_pos_site_id
 _symmetry_equiv_pos_as_xyz
  1  'x, y, z'
loop_
 _atom_site_type_symbol
 _atom_site_label
 _atom_site_symmetry_multiplicity
 _atom_site_fract_x
 _atom_site_fract_y
 _atom_site_fract_z
 _atom_site_occupancy
  Mn  Mn0  1  0.07057370  0.64314177  0.64314177  1
  Mn  Mn1  1  0.42932883  0.85689006  0.85689006  1
  Mn  Mn2  1  0.92998922  0.35667026  0.35667026  1
  V  V3  1  0.57197987  0.14267404  0.14267404  1
  Fe  Fe4  1  0.99953021  0.00015660  0.00015660  1
  Fe  Fe5  1  0.50196586  0.49934471  0.49934471  1
  P  P6  1  0.25111672  0.24930380  0.54212119  1
  P  P7  1  0.25111672  0.95745829  0.24930380  1
  P  P8  1  0.25111672  0.54212119  0.95745829  1
  P  P9  1  0.74877204  0.45857941  0.04331558  1
  P  P10  1  0.74877204  0.04331558  0.74933297  1
  P  P11  1  0.74877204  0.74933297  0.45857941  1
  O  O12  1  0.06529773  0.11409952  0.30960157  1
  O  O13  1  0.06529773  0.51100118  0.11409952  1
  O  O14  1  0.06529773  0.30960157  0.51100118  1
  O  O15  1  0.23235411  0.08631509  0.73857257  1
  O  O16  1  0.43347045  0.18340281  0.38103010  1
  O  O17  1  0.27805787  0.40954759  0.55103135  1
  O  O18  1  0.23235411  0.94275823  0.08631509  1
  O  O19  1  0.27805787  0.76136318  0.40954759  1
  O  O20  1  0.56380590  0.61781296  0.00999761  1
  O  O21  1  0.27805787  0.55103135  0.76136318  1
  O  O22  1  0.76218233  0.26082713  0.06259671  1
  O  O23  1  0.56380590  0.00999761  0.80838353  1
  O  O24  1  0.43347045  0.00209663  0.18340281  1
  O  O25  1  0.23235411  0.73857257  0.94275823  1
  O  O26  1  0.72814057  0.44114973  0.24104834  1
  O  O27  1  0.43347045  0.38103010  0.00209663  1
  O  O28  1  0.72814057  0.24104834  0.58966036  1
  O  O29  1  0.76218233  0.06259671  0.91439284  1
  O  O30  1  0.72814057  0.58966036  0.44114973  1
  O  O31  1  0.56380590  0.80838353  0.61781296  1
  O  O32  1  0.76218233  0.91439284  0.26082713  1
  O  O33  1  0.93568072  0.69048129  0.48714857  1
  O  O34  1  0.93568072  0.48714857  0.88668843  1
  O  O35  1  0.93568072  0.88668843  0.69048129  1
