# generated using pymatgen
data_MnGaO3
_symmetry_space_group_name_H-M   'P 1'
_cell_length_a   3.27193142
_cell_length_b   3.27007314
_cell_length_c   11.83701691
_cell_angle_alpha   89.99538648
_cell_angle_beta   89.94138042
_cell_angle_gamma   119.99788428
_symmetry_Int_Tables_number   1
_chemical_formula_structural   MnGaO3
_chemical_formula_sum   'Mn2 Ga2 O6'
_cell_volume   109.68405262
_cell_formula_units_Z   2
loop_
 _symmetry_equiv_pos_site_id
 _symmetry_equiv_pos_as_xyz
  1  'x, y, z'
loop_
 _atom_site_type_symbol
 _atom_site_label
 _atom_site_symmetry_multiplicity
 _atom_site_fract_x
 _atom_site_fract_y
 _atom_site_fract_z
 _atom_site_occupancy
  Mn  Mn0  1  0.00000106  0.99997356  -0.00000003  1
  Mn  Mn1  1  0.00000340  0.00000491  0.50000308  1
  Ga  Ga2  1  0.33322045  0.66651720  0.75000455  1
  Ga  Ga3  1  0.66678275  0.33342385  0.24999520  1
  O  O4  1  0.00030402  0.00023111  0.24990513  1
  O  O5  1  0.99969515  0.99971522  0.75009288  1
  O  O6  1  0.33367338  0.66672230  0.57986186  1
  O  O7  1  0.33243359  0.66591794  0.92015246  1
  O  O8  1  0.66631684  0.33327829  0.42013499  1
  O  O9  1  0.66756836  0.33401562  0.07984888  1
