# generated using pymatgen
data_LiNiBO3
_symmetry_space_group_name_H-M   'P 1'
_cell_length_a   8.09087171
_cell_length_b   8.09253731
_cell_length_c   3.11672578
_cell_angle_alpha   90.00000000
_cell_angle_beta   90.00000000
_cell_angle_gamma   119.98152518
_symmetry_Int_Tables_number   1
_chemical_formula_structural   LiNiBO3
_chemical_formula_sum   'Li3 Ni3 B3 O9'
_cell_volume   176.76247363
_cell_formula_units_Z   3
loop_
 _symmetry_equiv_pos_site_id
 _symmetry_equiv_pos_as_xyz
  1  'x, y, z'
loop_
 _atom_site_type_symbol
 _atom_site_label
 _atom_site_symmetry_multiplicity
 _atom_site_fract_x
 _atom_site_fract_y
 _atom_site_fract_z
 _atom_site_occupancy
  Li  Li0  1  0.37148841  0.33422620  0.00000000  1
  Li  Li1  1  0.66573547  0.03715170  0.00000000  1
  Li  Li2  1  0.96277589  0.62851393  0.00000000  1
  Ni  Ni3  1  0.29334805  0.95689518  0.50000000  1
  Ni  Ni4  1  0.04333032  0.33677798  0.50000000  1
  Ni  Ni5  1  0.66326989  0.70652305  0.50000000  1
  B  B6  1  0.33322548  0.66669964  0.50000000  1
  B  B7  1  0.00003440  -0.00001234  0.00000000  1
  B  B8  1  0.66667905  0.33327899  0.50000000  1
  O  O9  1  0.11789894  0.92158136  0.00000000  1
  O  O10  1  0.14423320  0.62061352  0.50000000  1
  O  O11  1  0.07833135  0.19631464  0.00000000  1
  O  O12  1  0.47660871  0.85596958  0.50000000  1
  O  O13  1  0.37949955  0.52339499  0.50000000  1
  O  O14  1  0.46811030  0.23376169  0.50000000  1
  O  O15  1  0.80348552  0.88188205  0.00000000  1
  O  O16  1  0.76559722  0.53196395  0.50000000  1
  O  O17  1  0.76634825  0.23446188  0.50000000  1
