# generated using pymatgen
data_Li9Mn2Co5O16
_symmetry_space_group_name_H-M   'P 1'
_cell_length_a   5.16062611
_cell_length_b   7.74320617
_cell_length_c   7.74320597
_cell_angle_alpha   98.00180946
_cell_angle_beta   77.13885395
_cell_angle_gamma   77.13884635
_symmetry_Int_Tables_number   1
_chemical_formula_structural   Li9Mn2Co5O16
_chemical_formula_sum   'Li9 Mn2 Co5 O16'
_cell_volume   288.22915769
_cell_formula_units_Z   1
loop_
 _symmetry_equiv_pos_site_id
 _symmetry_equiv_pos_as_xyz
  1  'x, y, z'
loop_
 _atom_site_type_symbol
 _atom_site_label
 _atom_site_symmetry_multiplicity
 _atom_site_fract_x
 _atom_site_fract_y
 _atom_site_fract_z
 _atom_site_occupancy
  Li  Li0  1  0.50000000  0.12827066  0.87172934  1
  Li  Li1  1  0.50921268  0.49599858  0.99599858  1
  Li  Li2  1  0.50000000  0.87270597  0.12729403  1
  Li  Li3  1  0.50000000  0.25000000  0.25000000  1
  Li  Li4  1  0.50000000  0.62729403  0.37270597  1
  Li  Li5  1  0.49078732  0.00400142  0.50400142  1
  Li  Li6  1  0.50000000  0.37172934  0.62827066  1
  Li  Li7  1  0.50000000  0.75000000  0.75000000  1
  Li  Li8  1  -0.00000000  0.25000000  0.75000000  1
  Mn  Mn9  1  0.00000000  0.00106580  0.99893420  1
  Mn  Mn10  1  1.00000000  0.49893420  0.50106580  1
  Co  Co11  1  0.99707282  0.37346756  0.11645007  1
  Co  Co12  1  -0.00000000  0.75000000  0.25000000  1
  Co  Co13  1  0.00292718  0.12653244  0.38354993  1
  Co  Co14  1  0.00292718  0.88354993  0.62653244  1
  Co  Co15  1  0.99707282  0.61645007  0.87346756  1
  O  O16  1  0.23118688  0.99313846  0.76426802  1
  O  O17  1  0.23331072  0.39078521  0.89078521  1
  O  O18  1  0.22235464  0.76103297  0.00577942  1
  O  O19  1  0.22012915  0.12015981  0.12537669  1
  O  O20  1  0.22235464  0.50577942  0.26103297  1
  O  O21  1  0.23768429  0.87876450  0.37876450  1
  O  O22  1  0.23118688  0.26426802  0.49313846  1
  O  O23  1  0.22012915  0.62537669  0.62015981  1
  O  O24  1  0.76881312  0.23573198  0.00686154  1
  O  O25  1  0.76231571  0.62123550  0.12123550  1
  O  O26  1  0.77764536  0.99422058  0.23896703  1
  O  O27  1  0.77987085  0.37984019  0.37462331  1
  O  O28  1  0.77764536  0.73896703  0.49422058  1
  O  O29  1  0.76668928  0.10921479  0.60921479  1
  O  O30  1  0.76881312  0.50686154  0.73573198  1
  O  O31  1  0.77987085  0.87462331  0.87984019  1
