# generated using pymatgen
data_Mn3Cr2Fe(PO4)6
_symmetry_space_group_name_H-M   'P 1'
_cell_length_a   8.44192754
_cell_length_b   8.44192731
_cell_length_c   8.44192829
_cell_angle_alpha   61.69044172
_cell_angle_beta   61.69044430
_cell_angle_gamma   61.69044566
_symmetry_Int_Tables_number   1
_chemical_formula_structural   Mn3Cr2Fe(PO4)6
_chemical_formula_sum   'Mn3 Cr2 Fe1 P6 O24'
_cell_volume   441.53322414
_cell_formula_units_Z   1
loop_
 _symmetry_equiv_pos_site_id
 _symmetry_equiv_pos_as_xyz
  1  'x, y, z'
loop_
 _atom_site_type_symbol
 _atom_site_label
 _atom_site_symmetry_multiplicity
 _atom_site_fract_x
 _atom_site_fract_y
 _atom_site_fract_z
 _atom_site_occupancy
  Mn  Mn0  1  0.14536904  0.14536904  0.14536904  1
  Mn  Mn1  1  0.35484686  0.35484686  0.35484686  1
  Mn  Mn2  1  0.64526218  0.64526218  0.64526218  1
  Cr  Cr3  1  0.99947695  0.99947695  0.99947695  1
  Cr  Cr4  1  0.50056399  0.50056399  0.50056399  1
  Fe  Fe5  1  0.85357880  0.85357880  0.85357880  1
  P  P6  1  0.24960018  0.54968356  0.95195591  1
  P  P7  1  0.54968356  0.95195591  0.24960018  1
  P  P8  1  0.95195591  0.24960018  0.54968356  1
  P  P9  1  0.04811916  0.75017950  0.45185515  1
  P  P10  1  0.45185515  0.04811916  0.75017950  1
  P  P11  1  0.75017950  0.45185515  0.04811916  1
  O  O12  1  0.10446883  0.32089617  0.51319481  1
  O  O13  1  0.32089617  0.51319481  0.10446883  1
  O  O14  1  0.06370305  0.90492688  0.24801003  1
  O  O15  1  0.51319481  0.10446883  0.32089617  1
  O  O16  1  0.00456965  0.82263761  0.60669964  1
  O  O17  1  0.25073510  0.59496117  0.44049166  1
  O  O18  1  0.24801003  0.06370305  0.90492688  1
  O  O19  1  0.44049166  0.25073510  0.59496117  1
  O  O20  1  0.18066926  0.39529978  0.98745324  1
  O  O21  1  0.59496117  0.44049166  0.25073510  1
  O  O22  1  0.09285825  0.75257083  0.93586200  1
  O  O23  1  0.39529978  0.98745324  0.18066926  1
  O  O24  1  0.60669964  0.00456965  0.82263761  1
  O  O25  1  0.90492688  0.24801003  0.06370305  1
  O  O26  1  0.40574430  0.56363740  0.74842616  1
  O  O27  1  0.82263761  0.60669964  0.00456965  1
  O  O28  1  0.56363740  0.74842616  0.40574430  1
  O  O29  1  0.75257083  0.93586200  0.09285825  1
  O  O30  1  0.74842616  0.40574430  0.56363740  1
  O  O31  1  0.98745324  0.18066926  0.39529978  1
  O  O32  1  0.48663236  0.89435202  0.68070654  1
  O  O33  1  0.93586200  0.09285825  0.75257083  1
  O  O34  1  0.68070654  0.48663236  0.89435202  1
  O  O35  1  0.89435202  0.68070654  0.48663236  1
