# generated using pymatgen
data_ZrCrCu
_symmetry_space_group_name_H-M   'P 1'
_cell_length_a   5.08374652
_cell_length_b   5.08374652
_cell_length_c   5.08374652
_cell_angle_alpha   93.15621983
_cell_angle_beta   55.63221352
_cell_angle_gamma   119.37710366
_symmetry_Int_Tables_number   1
_chemical_formula_structural   ZrCrCu
_chemical_formula_sum   'Zr2 Cr2 Cu2'
_cell_volume   89.89715325
_cell_formula_units_Z   2
loop_
 _symmetry_equiv_pos_site_id
 _symmetry_equiv_pos_as_xyz
  1  'x, y, z'
loop_
 _atom_site_type_symbol
 _atom_site_label
 _atom_site_symmetry_multiplicity
 _atom_site_fract_x
 _atom_site_fract_y
 _atom_site_fract_z
 _atom_site_occupancy
  Zr  Zr0  1  0.50000000  0.74213635  0.75786365  1
  Zr  Zr1  1  0.00000000  0.00786365  0.99213635  1
  Cr  Cr2  1  0.75000000  0.37500000  0.87500000  1
  Cr  Cr3  1  0.25000000  0.37500000  0.37500000  1
  Cu  Cu4  1  0.25000000  0.87500000  0.37500000  1
  Cu  Cu5  1  0.75000000  0.37500000  0.37500000  1
