# generated using pymatgen
data_LiFeP2O7
_symmetry_space_group_name_H-M   'P 1'
_cell_length_a   9.68690782
_cell_length_b   9.77485428
_cell_length_c   11.20881131
_cell_angle_alpha   89.76466202
_cell_angle_beta   101.27982724
_cell_angle_gamma   89.70030985
_symmetry_Int_Tables_number   1
_chemical_formula_structural   LiFeP2O7
_chemical_formula_sum   'Li8 Fe8 P16 O56'
_cell_volume   1040.81139756
_cell_formula_units_Z   8
loop_
 _symmetry_equiv_pos_site_id
 _symmetry_equiv_pos_as_xyz
  1  'x, y, z'
loop_
 _atom_site_type_symbol
 _atom_site_label
 _atom_site_symmetry_multiplicity
 _atom_site_fract_x
 _atom_site_fract_y
 _atom_site_fract_z
 _atom_site_occupancy
  Li  Li0  1  0.11796717  0.70163143  0.45568584  1
  Li  Li1  1  0.40453320  0.61225321  0.97352739  1
  Li  Li2  1  0.39890431  0.96976169  0.50266679  1
  Li  Li3  1  0.59387121  0.39826068  0.03241037  1
  Li  Li4  1  0.65184493  0.10415385  0.04887296  1
  Li  Li5  1  0.92305776  0.90007464  0.97911446  1
  Li  Li6  1  0.83506499  0.57387078  0.46806878  1
  Li  Li7  1  0.88639454  0.28639430  0.54608989  1
  Fe  Fe8  1  0.20512651  0.91777255  0.67444354  1
  Fe  Fe9  1  0.24228313  0.20223870  0.82848986  1
  Fe  Fe10  1  0.23798751  0.72094620  0.16992716  1
  Fe  Fe11  1  0.29391846  0.42240912  0.33118239  1
  Fe  Fe12  1  0.70480030  0.58463774  0.68205089  1
  Fe  Fe13  1  0.75225217  0.28825009  0.82410647  1
  Fe  Fe14  1  0.74824011  0.78890993  0.17311662  1
  Fe  Fe15  1  0.79411267  0.07582360  0.33363929  1
  P  P16  1  0.01828652  0.44798020  0.74836418  1
  P  P17  1  0.11128615  0.71122989  0.88130065  1
  P  P18  1  0.06715529  0.91743959  0.24437597  1
  P  P19  1  0.12523014  0.14533909  0.42113002  1
  P  P20  1  0.37952216  0.64145788  0.57584428  1
  P  P21  1  0.43813085  0.42277676  0.76654258  1
  P  P22  1  0.51907011  0.05293313  0.74832373  1
  P  P23  1  0.38225828  0.21310465  0.11758576  1
  P  P24  1  0.61399048  0.79343356  0.88518417  1
  P  P25  1  0.47512133  0.94497596  0.24525865  1
  P  P26  1  0.55841029  0.57955313  0.23708684  1
  P  P27  1  0.62055656  0.35492662  0.42108503  1
  P  P28  1  0.87573247  0.85371356  0.57131399  1
  P  P29  1  0.92984044  0.07318410  0.76004488  1
  P  P30  1  0.89268466  0.28186087  0.11517246  1
  P  P31  1  0.97364744  0.55153653  0.24096703  1
  O  O32  1  0.01146667  0.43084590  0.61439431  1
  O  O33  1  0.03358868  0.83763543  0.56655724  1
  O  O34  1  0.08545313  0.07771226  0.73878632  1
  O  O35  1  0.10167213  0.58599695  0.78676514  1
  O  O36  1  0.09670084  0.33765587  0.83348040  1
  O  O37  1  0.18557319  0.82026825  0.81769434  1
  O  O38  1  0.21363530  0.66163177  0.00008416  1
  O  O39  1  0.03401067  0.25307021  0.09261837  1
  O  O40  1  0.12096779  0.06295356  0.29383051  1
  O  O41  1  0.08725553  0.89571391  0.11437685  1
  O  O42  1  0.12930986  0.54189629  0.22161035  1
  O  O43  1  0.18347429  0.28448707  0.39823802  1
  O  O44  1  0.16131963  0.80577103  0.31746460  1
  O  O45  1  0.21264336  0.05711832  0.52140054  1
  O  O46  1  0.28571349  0.57236657  0.46789172  1
  O  O47  1  0.34414859  0.30134620  0.71952501  1
  O  O48  1  0.31955533  0.78556560  0.59401055  1
  O  O49  1  0.36575675  0.03407821  0.77581453  1
  O  O50  1  0.36706091  0.55625310  0.69651239  1
  O  O51  1  0.44354256  0.44472220  0.89973362  1
  O  O52  1  0.47179562  0.76427039  0.90848379  1
  O  O53  1  0.28549501  0.16974394  0.99728052  1
  O  O54  1  0.32268367  0.32894912  0.18303751  1
  O  O55  1  0.39022780  0.08525610  0.20996104  1
  O  O56  1  0.40649623  0.58944651  0.26292764  1
  O  O57  1  0.39728405  0.83762048  0.15659179  1
  O  O58  1  0.46831095  0.35087856  0.43473101  1
  O  O59  1  0.52167178  0.07693414  0.61795641  1
  O  O60  1  0.47784707  0.91808169  0.37583615  1
  O  O61  1  0.53548267  0.64645399  0.57118339  1
  O  O62  1  0.60164688  0.15488466  0.84283492  1
  O  O63  1  0.59098354  0.41294436  0.73653340  1
  O  O64  1  0.60360760  0.91164201  0.78432094  1
  O  O65  1  0.68641498  0.67699868  0.82819154  1
  O  O66  1  0.71661903  0.85190323  0.00197316  1
  O  O67  1  0.52994134  0.23716022  0.09709368  1
  O  O68  1  0.56442447  0.57267992  0.10368866  1
  O  O69  1  0.62543407  0.43910135  0.29681033  1
  O  O70  1  0.62848508  0.96521636  0.21425038  1
  O  O71  1  0.68538817  0.21551258  0.40102817  1
  O  O72  1  0.66156532  0.69261715  0.29520763  1
  O  O73  1  0.71967145  0.43215852  0.52257408  1
  O  O74  1  0.79408233  0.93187518  0.46291122  1
  O  O75  1  0.84281652  0.19665520  0.69711357  1
  O  O76  1  0.81608477  0.71152536  0.59189534  1
  O  O77  1  0.86442590  0.46221975  0.77808442  1
  O  O78  1  0.91014711  0.06813949  0.88941957  1
  O  O79  1  0.86640942  0.93742095  0.69239913  1
  O  O80  1  0.96784794  0.74680215  0.89930251  1
  O  O81  1  0.77889482  0.32607003  0.99824815  1
  O  O82  1  0.81641329  0.16961840  0.17763304  1
  O  O83  1  0.89177855  0.65712650  0.15096010  1
  O  O84  1  0.89453289  0.40961121  0.21012912  1
  O  O85  1  0.90866622  0.91330757  0.25743310  1
  O  O86  1  0.96939754  0.15789632  0.43469123  1
  O  O87  1  0.96884607  0.58314719  0.37204153  1
