# generated using pymatgen
data_Li5NiHO4
_symmetry_space_group_name_H-M   'P 1'
_cell_length_a   8.77687248
_cell_length_b   9.03391730
_cell_length_c   10.63851633
_cell_angle_alpha   90.00000000
_cell_angle_beta   90.00000000
_cell_angle_gamma   90.00000000
_symmetry_Int_Tables_number   1
_chemical_formula_structural   Li5NiHO4
_chemical_formula_sum   'Li40 Ni8 H8 O32'
_cell_volume   843.52306755
_cell_formula_units_Z   8
loop_
 _symmetry_equiv_pos_site_id
 _symmetry_equiv_pos_as_xyz
  1  'x, y, z'
loop_
 _atom_site_type_symbol
 _atom_site_label
 _atom_site_symmetry_multiplicity
 _atom_site_fract_x
 _atom_site_fract_y
 _atom_site_fract_z
 _atom_site_occupancy
  Li  Li0  1  0.97282854  0.58368529  0.19942516  1
  Li  Li1  1  0.97282854  0.91631471  0.19942516  1
  Li  Li2  1  0.07312749  0.06620810  0.42773105  1
  Li  Li3  1  0.07312749  0.43379190  0.42773105  1
  Li  Li4  1  0.07117530  0.75000000  0.43637807  1
  Li  Li5  1  0.12249514  0.25000000  0.97905249  1
  Li  Li6  1  0.11101870  0.56955033  0.99079355  1
  Li  Li7  1  0.11101870  0.93044967  0.99079355  1
  Li  Li8  1  0.20463950  0.58560070  0.63218162  1
  Li  Li9  1  0.20463950  0.91439930  0.63218162  1
  Li  Li10  1  0.29536050  0.08560070  0.13218162  1
  Li  Li11  1  0.29536050  0.41439930  0.13218162  1
  Li  Li12  1  0.38898130  0.06955033  0.49079355  1
  Li  Li13  1  0.38898130  0.43044967  0.49079355  1
  Li  Li14  1  0.37750486  0.75000000  0.47905249  1
  Li  Li15  1  0.42882470  0.25000000  0.93637807  1
  Li  Li16  1  0.42687251  0.56620810  0.92773105  1
  Li  Li17  1  0.42687251  0.93379190  0.92773105  1
  Li  Li18  1  0.52717146  0.08368529  0.69942516  1
  Li  Li19  1  0.52717146  0.41631471  0.69942516  1
  Li  Li20  1  0.47282854  0.58368529  0.30057484  1
  Li  Li21  1  0.47282854  0.91631471  0.30057484  1
  Li  Li22  1  0.57312749  0.06620810  0.07226895  1
  Li  Li23  1  0.57312749  0.43379190  0.07226895  1
  Li  Li24  1  0.57117530  0.75000000  0.06362193  1
  Li  Li25  1  0.62249514  0.25000000  0.52094751  1
  Li  Li26  1  0.61101870  0.56955033  0.50920645  1
  Li  Li27  1  0.61101870  0.93044967  0.50920645  1
  Li  Li28  1  0.70463950  0.58560070  0.86781838  1
  Li  Li29  1  0.70463950  0.91439930  0.86781838  1
  Li  Li30  1  0.79536050  0.08560070  0.36781838  1
  Li  Li31  1  0.79536050  0.41439930  0.36781838  1
  Li  Li32  1  0.88898130  0.06955033  0.00920645  1
  Li  Li33  1  0.88898130  0.43044967  0.00920645  1
  Li  Li34  1  0.87750486  0.75000000  0.02094751  1
  Li  Li35  1  0.92882470  0.25000000  0.56362193  1
  Li  Li36  1  0.92687251  0.93379190  0.57226895  1
  Li  Li37  1  0.92687251  0.56620810  0.57226895  1
  Li  Li38  1  0.02717146  0.08368529  0.80057484  1
  Li  Li39  1  0.02717146  0.41631471  0.80057484  1
  Ni  Ni40  1  0.01222140  0.25000000  0.21083395  1
  Ni  Ni41  1  0.21101293  0.25000000  0.63335799  1
  Ni  Ni42  1  0.28898707  0.75000000  0.13335799  1
  Ni  Ni43  1  0.48777860  0.75000000  0.71083395  1
  Ni  Ni44  1  0.51222140  0.25000000  0.28916605  1
  Ni  Ni45  1  0.71101293  0.25000000  0.86664201  1
  Ni  Ni46  1  0.78898707  0.75000000  0.36664201  1
  Ni  Ni47  1  0.98777860  0.75000000  0.78916605  1
  H  H48  1  0.20668632  0.58591095  0.31277878  1
  H  H49  1  0.20668632  0.91408905  0.31277878  1
  H  H50  1  0.29331368  0.08591095  0.81277878  1
  H  H51  1  0.29331368  0.41408905  0.81277878  1
  H  H52  1  0.70668632  0.58591095  0.18722122  1
  H  H53  1  0.70668632  0.91408905  0.18722122  1
  H  H54  1  0.79331368  0.08591095  0.68722122  1
  H  H55  1  0.79331368  0.41408905  0.68722122  1
  O  O56  1  0.05325208  0.75000000  0.62223545  1
  O  O57  1  0.07557109  0.41628686  0.12059821  1
  O  O58  1  0.07557109  0.08371314  0.12059821  1
  O  O59  1  0.07908734  0.41318232  0.61657799  1
  O  O60  1  0.07908734  0.08681768  0.61657799  1
  O  O61  1  0.08006806  0.75000000  0.10532314  1
  O  O62  1  0.24199696  0.07330847  0.89392308  1
  O  O63  1  0.24199696  0.42669153  0.89392308  1
  O  O64  1  0.25800304  0.57330847  0.39392308  1
  O  O65  1  0.25800304  0.92669153  0.39392308  1
  O  O66  1  0.41993194  0.25000000  0.60532314  1
  O  O67  1  0.42091266  0.58681768  0.11657799  1
  O  O68  1  0.42091266  0.91318232  0.11657799  1
  O  O69  1  0.42442891  0.58371314  0.62059821  1
  O  O70  1  0.42442891  0.91628686  0.62059821  1
  O  O71  1  0.44674792  0.25000000  0.12223545  1
  O  O72  1  0.55325208  0.75000000  0.87776455  1
  O  O73  1  0.57557109  0.08371314  0.37940179  1
  O  O74  1  0.57557109  0.41628686  0.37940179  1
  O  O75  1  0.57908734  0.08681768  0.88342201  1
  O  O76  1  0.57908734  0.41318232  0.88342201  1
  O  O77  1  0.58006806  0.75000000  0.39467686  1
  O  O78  1  0.74199696  0.07330847  0.60607692  1
  O  O79  1  0.74199696  0.42669153  0.60607692  1
  O  O80  1  0.75800304  0.57330847  0.10607692  1
  O  O81  1  0.75800304  0.92669153  0.10607692  1
  O  O82  1  0.91993194  0.25000000  0.89467686  1
  O  O83  1  0.92091266  0.91318232  0.38342201  1
  O  O84  1  0.92091266  0.58681768  0.38342201  1
  O  O85  1  0.92442891  0.91628686  0.87940179  1
  O  O86  1  0.92442891  0.58371314  0.87940179  1
  O  O87  1  0.94674792  0.25000000  0.37776455  1
