# generated using pymatgen
data_Li6Fe3Co5O16
_symmetry_space_group_name_H-M   'P 1'
_cell_length_a   5.24241532
_cell_length_b   2.90854223
_cell_length_c   18.99913987
_cell_angle_alpha   90.00000000
_cell_angle_beta   85.64784605
_cell_angle_gamma   90.00000000
_symmetry_Int_Tables_number   1
_chemical_formula_structural   Li6Fe3Co5O16
_chemical_formula_sum   'Li6 Fe3 Co5 O16'
_cell_volume   288.85948165
_cell_formula_units_Z   1
loop_
 _symmetry_equiv_pos_site_id
 _symmetry_equiv_pos_as_xyz
  1  'x, y, z'
loop_
 _atom_site_type_symbol
 _atom_site_label
 _atom_site_symmetry_multiplicity
 _atom_site_fract_x
 _atom_site_fract_y
 _atom_site_fract_z
 _atom_site_occupancy
  Li  Li0  1  0.01662745  0.00000000  0.00921922  1
  Li  Li1  1  0.23393475  0.00000000  0.23924559  1
  Li  Li2  1  0.37401293  0.50000000  0.37664623  1
  Li  Li3  1  0.51877991  0.00000000  0.51148378  1
  Li  Li4  1  0.73315544  0.00000000  0.73781995  1
  Li  Li5  1  0.87209015  0.50000000  0.87470755  1
  Fe  Fe6  1  0.61647650  0.00000000  0.12209048  1
  Fe  Fe7  1  0.74429512  0.50000000  0.25090133  1
  Fe  Fe8  1  0.88113639  0.00000000  0.37958121  1
  Co  Co9  1  0.00917182  0.50000000  0.50378061  1
  Co  Co10  1  0.12281393  0.00000000  0.62549774  1
  Co  Co11  1  0.24711349  0.50000000  0.75164208  1
  Co  Co12  1  0.37257958  0.00000000  0.87404720  1
  Co  Co13  1  0.50721831  0.50000000  0.99546459  1
  O  O14  1  0.04508908  0.50000000  0.31712912  1
  O  O15  1  0.16776630  0.00000000  0.44624957  1
  O  O16  1  0.07273700  0.00000000  0.81044246  1
  O  O17  1  0.35920221  0.00000000  0.04843791  1
  O  O18  1  0.26903271  0.50000000  0.56903075  1
  O  O19  1  0.21987745  0.50000000  0.93518181  1
  O  O20  1  0.45765893  0.50000000  0.18447213  1
  O  O21  1  0.38175693  0.00000000  0.68913892  1
  O  O22  1  0.58083177  0.00000000  0.31554320  1
  O  O23  1  0.54352005  0.50000000  0.80964138  1
  O  O24  1  0.77592552  0.50000000  0.05704792  1
  O  O25  1  0.71959622  0.50000000  0.44392497  1
  O  O26  1  0.66304702  0.00000000  0.93788334  1
  O  O27  1  0.89844307  0.00000000  0.19201889  1
  O  O28  1  0.87349889  -0.00000000  0.56066594  1
  O  O29  1  0.97209308  0.50000000  0.68109111  1
