# generated using pymatgen
data_Li4TiO4
_symmetry_space_group_name_H-M   'P 1'
_cell_length_a   9.26776247
_cell_length_b   9.42683267
_cell_length_c   9.42444166
_cell_angle_alpha   90.37864269
_cell_angle_beta   89.51101720
_cell_angle_gamma   90.58878531
_symmetry_Int_Tables_number   1
_chemical_formula_structural   Li4TiO4
_chemical_formula_sum   'Li32 Ti8 O32'
_cell_volume   823.28146986
_cell_formula_units_Z   8
loop_
 _symmetry_equiv_pos_site_id
 _symmetry_equiv_pos_as_xyz
  1  'x, y, z'
loop_
 _atom_site_type_symbol
 _atom_site_label
 _atom_site_symmetry_multiplicity
 _atom_site_fract_x
 _atom_site_fract_y
 _atom_site_fract_z
 _atom_site_occupancy
  Li  Li0  1  0.09981246  0.63963219  0.13362640  1
  Li  Li1  1  0.10469571  0.86404935  0.63541906  1
  Li  Li2  1  0.12433137  0.86809019  0.35441518  1
  Li  Li3  1  0.12450765  0.64667941  0.85971284  1
  Li  Li4  1  0.18000777  0.36516923  0.91783861  1
  Li  Li5  1  0.33166281  0.13540240  0.56863703  1
  Li  Li6  1  0.32898536  0.11064939  0.84427472  1
  Li  Li7  1  0.30682101  0.40098932  0.32485975  1
  Li  Li8  1  0.38004566  0.61260481  0.83594917  1
  Li  Li9  1  0.37623912  0.89495017  0.32781481  1
  Li  Li10  1  0.39804313  0.13836895  0.13174045  1
  Li  Li11  1  0.40266722  0.38380475  0.62823781  1
  Li  Li12  1  0.55304505  0.60427400  0.38408614  1
  Li  Li13  1  0.53954040  0.90243146  0.89285708  1
  Li  Li14  1  0.61636397  0.10862071  0.66416739  1
  Li  Li15  1  0.60076111  0.38296233  0.16009540  1
  Li  Li16  1  0.62781997  0.64200303  0.63113472  1
  Li  Li17  1  0.62219422  0.84919090  0.13164121  1
  Li  Li18  1  0.64746827  0.62179026  0.89291740  1
  Li  Li19  1  0.64964129  0.87605696  0.39565862  1
  Li  Li20  1  0.67269848  0.11556063  0.10373578  1
  Li  Li21  1  0.67665683  0.37796028  0.60260375  1
  Li  Li22  1  0.82753150  0.61568634  0.10133598  1
  Li  Li23  1  0.83223464  0.88214512  0.60096929  1
  Li  Li24  1  0.87774011  0.37793237  0.39331345  1
  Li  Li25  1  0.89267135  0.12586883  0.89726779  1
  Li  Li26  1  0.88523647  0.14356822  0.64112406  1
  Li  Li27  1  0.88695919  0.35779051  0.13687871  1
  Li  Li28  1  0.90533558  0.61155331  0.65569747  1
  Li  Li29  1  0.89422387  0.88548718  0.15419294  1
  Li  Li30  1  0.94386742  0.11220319  0.38989314  1
  Li  Li31  1  0.91333383  0.38861480  0.87638053  1
  Ti  Ti32  1  0.12598327  0.13455486  0.12566766  1
  Ti  Ti33  1  0.12383719  0.36823463  0.62003646  1
  Ti  Ti34  1  0.37740818  0.63823622  0.11894078  1
  Ti  Ti35  1  0.38350450  0.85162371  0.62100449  1
  Ti  Ti36  1  0.63195943  0.14928510  0.38463245  1
  Ti  Ti37  1  0.62675308  0.34640945  0.88162471  1
  Ti  Ti38  1  0.86483841  0.65206892  0.37753799  1
  Ti  Ti39  1  0.86306228  0.84864836  0.87743443  1
  O  O40  1  0.98476711  0.26544769  0.51880109  1
  O  O41  1  0.00720188  0.25525108  0.00866655  1
  O  O42  1  0.03327708  0.48913965  0.75186651  1
  O  O43  1  0.01995000  0.00841761  0.24083447  1
  O  O44  1  0.25518398  0.04787536  0.01516874  1
  O  O45  1  0.25229450  0.45424611  0.51043676  1
  O  O46  1  0.24738511  0.23472632  0.23451844  1
  O  O47  1  0.25056216  0.26083520  0.72687944  1
  O  O48  1  0.26521245  0.74993730  0.22987132  1
  O  O49  1  0.26561684  0.74659821  0.73199399  1
  O  O50  1  0.25082806  0.55050057  0.99633404  1
  O  O51  1  0.26284163  0.94650251  0.50261478  1
  O  O52  1  0.46807917  0.51072556  0.23292924  1
  O  O53  1  0.46601449  0.99422977  0.73094502  1
  O  O54  1  0.52154059  0.76257966  0.50763861  1
  O  O55  1  0.51240440  0.73069976  0.00037391  1
  O  O56  1  0.53429065  0.23619281  0.00814962  1
  O  O57  1  0.52749351  0.24350492  0.52036413  1
  O  O58  1  0.54629108  0.01592284  0.26438421  1
  O  O59  1  0.54317147  0.48033893  0.76017680  1
  O  O60  1  0.74954614  0.04021279  0.49663948  1
  O  O61  1  0.74234125  0.45879045  0.99492095  1
  O  O62  1  0.74355988  0.26023990  0.26729178  1
  O  O63  1  0.75316368  0.24525767  0.76975714  1
  O  O64  1  0.75061053  0.75639246  0.25980925  1
  O  O65  1  0.75652656  0.73708885  0.75731488  1
  O  O66  1  0.75618805  0.53591573  0.49592268  1
  O  O67  1  0.75146255  0.96014232  0.99644580  1
  O  O68  1  0.94883174  0.53030607  0.25099515  1
  O  O69  1  0.95002977  0.97235651  0.75313717  1
  O  O70  1  0.96605212  0.73778441  0.99700154  1
  O  O71  1  0.97062040  0.76399716  0.49761986  1
