# generated using pymatgen
data_Li4Ni5SbO12
_symmetry_space_group_name_H-M   'P 1'
_cell_length_a   5.08322425
_cell_length_b   5.08322492
_cell_length_c   10.00678537
_cell_angle_alpha   89.75558942
_cell_angle_beta   89.75558513
_cell_angle_gamma   119.31895728
_symmetry_Int_Tables_number   1
_chemical_formula_structural   Li4Ni5SbO12
_chemical_formula_sum   'Li4 Ni5 Sb1 O12'
_cell_volume   225.43846094
_cell_formula_units_Z   1
loop_
 _symmetry_equiv_pos_site_id
 _symmetry_equiv_pos_as_xyz
  1  'x, y, z'
loop_
 _atom_site_type_symbol
 _atom_site_label
 _atom_site_symmetry_multiplicity
 _atom_site_fract_x
 _atom_site_fract_y
 _atom_site_fract_z
 _atom_site_occupancy
  Li  Li0  1  0.15505543  0.64783766  0.74794989  1
  Li  Li1  1  0.35216234  0.84494457  0.25205011  1
  Li  Li2  1  0.64783766  0.15505543  0.74794989  1
  Li  Li3  1  0.84494457  0.35216234  0.25205011  1
  Ni  Ni4  1  0.16406006  0.83593994  0.50000000  1
  Ni  Ni5  1  0.33517003  0.66482997  1.00000000  1
  Ni  Ni6  1  0.50000000  0.50000000  0.50000000  1
  Ni  Ni7  1  0.66482997  0.33517003  0.00000000  1
  Ni  Ni8  1  0.83593994  0.16406006  0.50000000  1
  Sb  Sb9  1  0.00000000  -0.00000000  -0.00000000  1
  O  O10  1  0.01661720  0.67826269  0.11238799  1
  O  O11  1  0.32173731  0.98338280  0.88761201  1
  O  O12  1  0.16186939  0.51888204  0.39651803  1
  O  O13  1  0.48111796  0.83813061  0.60348197  1
  O  O14  1  0.16816990  0.16816990  0.59248372  1
  O  O15  1  0.32956303  0.32956303  0.10430963  1
  O  O16  1  0.67043697  0.67043697  0.89569037  1
  O  O17  1  0.83183010  0.83183010  0.40751628  1
  O  O18  1  0.51888204  0.16186939  0.39651803  1
  O  O19  1  0.83813061  0.48111796  0.60348197  1
  O  O20  1  0.67826269  0.01661720  0.11238799  1
  O  O21  1  0.98338280  0.32173731  0.88761201  1
