# generated using pymatgen
data_Li6NbNi3(PO4)6
_symmetry_space_group_name_H-M   'P 1'
_cell_length_a   8.73023700
_cell_length_b   8.78289356
_cell_length_c   8.79045415
_cell_angle_alpha   60.54599644
_cell_angle_beta   60.37842077
_cell_angle_gamma   60.67343272
_symmetry_Int_Tables_number   1
_chemical_formula_structural   Li6NbNi3(PO4)6
_chemical_formula_sum   'Li6 Nb1 Ni3 P6 O24'
_cell_volume   482.33590588
_cell_formula_units_Z   1
loop_
 _symmetry_equiv_pos_site_id
 _symmetry_equiv_pos_as_xyz
  1  'x, y, z'
loop_
 _atom_site_type_symbol
 _atom_site_label
 _atom_site_symmetry_multiplicity
 _atom_site_fract_x
 _atom_site_fract_y
 _atom_site_fract_z
 _atom_site_occupancy
  Li  Li0  1  0.03284135  0.02396346  0.01226500  1
  Li  Li1  1  0.74179606  0.15977402  0.35040563  1
  Li  Li2  1  0.47163442  0.49677586  0.48378440  1
  Li  Li3  1  0.31143869  0.83772609  0.64419540  1
  Li  Li4  1  0.64676593  0.31474935  0.83237484  1
  Li  Li5  1  0.83524061  0.64513991  0.31311529  1
  Nb  Nb6  1  0.85242459  0.85180134  0.85375427  1
  Ni  Ni7  1  0.14440560  0.14778204  0.14298213  1
  Ni  Ni8  1  0.35595624  0.35918649  0.35360986  1
  Ni  Ni9  1  0.64815659  0.65053710  0.64968851  1
  P  P10  1  0.04783922  0.75033874  0.44213847  1
  P  P11  1  0.44447659  0.04762431  0.74720881  1
  P  P12  1  0.74916216  0.44478419  0.04403454  1
  P  P13  1  0.25191479  0.53749397  0.95883104  1
  P  P14  1  0.53999569  0.96283433  0.25383222  1
  P  P15  1  0.95664402  0.25105836  0.53278241  1
  O  O16  1  0.13329337  0.26715306  0.50726850  1
  O  O17  1  0.27560414  0.52047274  0.12634639  1
  O  O18  1  0.05197950  0.92209789  0.26640611  1
  O  O19  1  0.54457382  0.12153481  0.27814987  1
  O  O20  1  0.23298760  0.59394807  0.44003481  1
  O  O21  1  0.98469169  0.81274632  0.61275280  1
  O  O22  1  0.26122575  0.07972374  0.90394836  1
  O  O23  1  0.47186902  0.22106588  0.57619449  1
  O  O24  1  0.59349228  0.44199780  0.23337503  1
  O  O25  1  0.19808637  0.38272671  0.98677210  1
  O  O26  1  0.09815322  0.73519639  0.90521814  1
  O  O27  1  0.37721338  0.00548408  0.20464583  1
  O  O28  1  0.61281214  0.97940857  0.81684538  1
  O  O29  1  0.90583953  0.25780471  0.07323101  1
  O  O30  1  0.81703716  0.61007152  0.98313255  1
  O  O31  1  0.42272107  0.55077342  0.77556162  1
  O  O32  1  0.55020715  0.77918120  0.42319319  1
  O  O33  1  0.73570671  0.90342472  0.09698163  1
  O  O34  1  0.96619047  0.20131275  0.38339500  1
  O  O35  1  0.77755679  0.42419358  0.55119950  1
  O  O36  1  0.46962111  0.88960198  0.69788080  1
  O  O37  1  0.90462653  0.09737730  0.73243580  1
  O  O38  1  0.69357911  0.47455513  0.88947737  1
  O  O39  1  0.89023852  0.69557908  0.47155193  1
