# generated using pymatgen
data_LiMnP2O7
_symmetry_space_group_name_H-M   'P 1'
_cell_length_a   9.74807487
_cell_length_b   9.73898421
_cell_length_c   11.22931807
_cell_angle_alpha   89.77516367
_cell_angle_beta   101.55922402
_cell_angle_gamma   90.19921408
_symmetry_Int_Tables_number   1
_chemical_formula_structural   LiMnP2O7
_chemical_formula_sum   'Li8 Mn8 P16 O56'
_cell_volume   1044.43652892
_cell_formula_units_Z   8
loop_
 _symmetry_equiv_pos_site_id
 _symmetry_equiv_pos_as_xyz
  1  'x, y, z'
loop_
 _atom_site_type_symbol
 _atom_site_label
 _atom_site_symmetry_multiplicity
 _atom_site_fract_x
 _atom_site_fract_y
 _atom_site_fract_z
 _atom_site_occupancy
  Li  Li0  1  0.08737491  0.10545529  0.02311561  1
  Li  Li1  1  0.33701816  0.91567323  0.46061740  1
  Li  Li2  1  0.39033706  0.21790254  0.54929136  1
  Li  Li3  1  0.57808522  0.40733471  0.02371932  1
  Li  Li4  1  0.64789038  0.09523708  0.04676307  1
  Li  Li5  1  0.90841082  0.88987687  0.97330829  1
  Li  Li6  1  0.83921797  0.58037325  0.46400362  1
  Li  Li7  1  0.89081215  0.28237488  0.55111576  1
  Mn  Mn8  1  0.20266677  0.91947178  0.67626335  1
  Mn  Mn9  1  0.26699457  0.21953516  0.83086352  1
  Mn  Mn10  1  0.23374977  0.71361519  0.17069508  1
  Mn  Mn11  1  0.30665043  0.42882745  0.33256727  1
  Mn  Mn12  1  0.70242890  0.58031796  0.67741923  1
  Mn  Mn13  1  0.76243057  0.28944422  0.82907120  1
  Mn  Mn14  1  0.72309306  0.77664320  0.16685365  1
  Mn  Mn15  1  0.80674746  0.06920060  0.33524715  1
  P  P16  1  0.02626768  0.44548034  0.75359477  1
  P  P17  1  0.11880336  0.70671616  0.88871333  1
  P  P18  1  0.06061912  0.93252582  0.24137707  1
  P  P19  1  0.13129691  0.15416369  0.42476001  1
  P  P20  1  0.37936578  0.64052536  0.57265768  1
  P  P21  1  0.43424382  0.42501042  0.75769817  1
  P  P22  1  0.52658647  0.05513326  0.75679426  1
  P  P23  1  0.37974654  0.21241080  0.11704471  1
  P  P24  1  0.60988645  0.79047950  0.88987637  1
  P  P25  1  0.46747547  0.93967932  0.24093117  1
  P  P26  1  0.56409511  0.56942625  0.24183929  1
  P  P27  1  0.63103809  0.34389735  0.42342336  1
  P  P28  1  0.87789766  0.85648820  0.57226183  1
  P  P29  1  0.93732751  0.07205406  0.75882495  1
  P  P30  1  0.88097794  0.29005786  0.11548501  1
  P  P31  1  0.97053604  0.56137053  0.24199561  1
  O  O32  1  0.01933329  0.42040859  0.62190946  1
  O  O33  1  0.03355847  0.85170916  0.56626854  1
  O  O34  1  0.08534842  0.08574990  0.73171200  1
  O  O35  1  0.11043096  0.34211886  0.84394022  1
  O  O36  1  0.10057601  0.59030624  0.78499391  1
  O  O37  1  0.19163896  0.82375686  0.83111393  1
  O  O38  1  0.21940704  0.65170759  0.00314172  1
  O  O39  1  0.01682462  0.25920892  0.08217717  1
  O  O40  1  0.12100759  0.07708824  0.29577639  1
  O  O41  1  0.05711352  0.93669140  0.10688594  1
  O  O42  1  0.12051985  0.55643712  0.21009408  1
  O  O43  1  0.19968101  0.29195028  0.40757757  1
  O  O44  1  0.16687487  0.82219314  0.30101035  1
  O  O45  1  0.22929239  0.06623035  0.51998141  1
  O  O46  1  0.29459596  0.55959034  0.46598008  1
  O  O47  1  0.33610680  0.30821754  0.69310089  1
  O  O48  1  0.32262025  0.78385735  0.58497705  1
  O  O49  1  0.37457192  0.04931848  0.78894325  1
  O  O50  1  0.36832802  0.56532274  0.69867663  1
  O  O51  1  0.42576709  0.41799999  0.88929946  1
  O  O52  1  0.47275643  0.76689959  0.92377267  1
  O  O53  1  0.27157197  0.16277686  0.00279434  1
  O  O54  1  0.32006388  0.32903906  0.18265906  1
  O  O55  1  0.39648764  0.08853090  0.21380729  1
  O  O56  1  0.41455559  0.58233039  0.27099234  1
  O  O57  1  0.37622854  0.84125823  0.14982585  1
  O  O58  1  0.52490305  0.08899590  0.62752744  1
  O  O59  1  0.48193217  0.33240996  0.44351415  1
  O  O60  1  0.53765354  0.64411864  0.56879116  1
  O  O61  1  0.47479684  0.91369753  0.37197070  1
  O  O62  1  0.61875893  0.14958082  0.85429320  1
  O  O63  1  0.58416965  0.41413664  0.73035430  1
  O  O64  1  0.59336786  0.90639708  0.78251311  1
  O  O65  1  0.68110192  0.67413655  0.83419615  1
  O  O66  1  0.71850966  0.85738696  0.00098757  1
  O  O67  1  0.52037849  0.23541637  0.08450909  1
  O  O68  1  0.57225006  0.57455325  0.10994723  1
  O  O69  1  0.62199937  0.42355077  0.29495316  1
  O  O70  1  0.61522619  0.94736452  0.20209581  1
  O  O71  1  0.69674154  0.20530436  0.40502335  1
  O  O72  1  0.66805657  0.68094895  0.30684369  1
  O  O73  1  0.72926111  0.42961279  0.51903192  1
  O  O74  1  0.79010299  0.93664408  0.46611805  1
  O  O75  1  0.84098282  0.19212384  0.70062111  1
  O  O76  1  0.82009493  0.71253146  0.58820597  1
  O  O77  1  0.87130202  0.45709129  0.78430225  1
  O  O78  1  0.93064712  0.06199699  0.89151642  1
  O  O79  1  0.86723112  0.93400085  0.69682981  1
  O  O80  1  0.97637953  0.73705478  0.91181005  1
  O  O81  1  0.76691950  0.33920709  0.00387407  1
  O  O82  1  0.81143290  0.17072697  0.17746511  1
  O  O83  1  0.90123615  0.41036775  0.21435377  1
  O  O84  1  0.87982680  0.66027441  0.14992370  1
  O  O85  1  0.91208142  0.91837349  0.27291144  1
  O  O86  1  0.98229320  0.16654445  0.44507374  1
  O  O87  1  0.97206631  0.58625901  0.37217045  1
