# generated using pymatgen
data_Ce3Sc
_symmetry_space_group_name_H-M   'P 1'
_cell_length_a   6.81867161
_cell_length_b   6.81867054
_cell_length_c   5.59820972
_cell_angle_alpha   90.00000000
_cell_angle_beta   90.00000000
_cell_angle_gamma   119.99999415
_symmetry_Int_Tables_number   1
_chemical_formula_structural   Ce3Sc
_chemical_formula_sum   'Ce6 Sc2'
_cell_volume   225.41317872
_cell_formula_units_Z   2
loop_
 _symmetry_equiv_pos_site_id
 _symmetry_equiv_pos_as_xyz
  1  'x, y, z'
loop_
 _atom_site_type_symbol
 _atom_site_label
 _atom_site_symmetry_multiplicity
 _atom_site_fract_x
 _atom_site_fract_y
 _atom_site_fract_z
 _atom_site_occupancy
  Ce  Ce0  1  0.17268719  0.34537338  0.25000000  1
  Ce  Ce1  1  0.65462662  0.82731381  0.25000000  1
  Ce  Ce2  1  0.17268719  0.82731381  0.25000000  1
  Ce  Ce3  1  0.82731381  0.65462662  0.74999900  1
  Ce  Ce4  1  0.34537338  0.17268719  0.74999900  1
  Ce  Ce5  1  0.82731381  0.17268719  0.74999900  1
  Sc  Sc6  1  0.33333400  0.66666800  0.74999900  1
  Sc  Sc7  1  0.66666800  0.33333200  0.25000000  1
