# generated using pymatgen
data_Li6Ni3Sb(PO4)6
_symmetry_space_group_name_H-M   'P 1'
_cell_length_a   8.65289336
_cell_length_b   8.71491798
_cell_length_c   8.72341652
_cell_angle_alpha   60.74342379
_cell_angle_beta   60.64363884
_cell_angle_gamma   60.86465323
_symmetry_Int_Tables_number   1
_chemical_formula_structural   Li6Ni3Sb(PO4)6
_chemical_formula_sum   'Li6 Ni3 Sb1 P6 O24'
_cell_volume   473.02732562
_cell_formula_units_Z   1
loop_
 _symmetry_equiv_pos_site_id
 _symmetry_equiv_pos_as_xyz
  1  'x, y, z'
loop_
 _atom_site_type_symbol
 _atom_site_label
 _atom_site_symmetry_multiplicity
 _atom_site_fract_x
 _atom_site_fract_y
 _atom_site_fract_z
 _atom_site_occupancy
  Li  Li0  1  0.02904714  0.02079330  0.00776790  1
  Li  Li1  1  0.74162985  0.15918447  0.35044336  1
  Li  Li2  1  0.47423004  0.49671265  0.48319858  1
  Li  Li3  1  0.30683617  0.84837159  0.63850039  1
  Li  Li4  1  0.64447991  0.31196368  0.83936989  1
  Li  Li5  1  0.84122927  0.64199026  0.31151356  1
  Ni  Ni6  1  0.14199730  0.14771890  0.14271695  1
  Ni  Ni7  1  0.35564843  0.35647043  0.35198304  1
  Ni  Ni8  1  0.64540457  0.64961239  0.64887247  1
  Sb  Sb9  1  0.85452222  0.85152675  0.85384071  1
  P  P10  1  0.04973876  0.74743205  0.44606883  1
  P  P11  1  0.44775746  0.04826588  0.74638353  1
  P  P12  1  0.74675406  0.44905972  0.04518771  1
  P  P13  1  0.24606713  0.54096093  0.95625419  1
  P  P14  1  0.54588634  0.96199093  0.24812285  1
  P  P15  1  0.95336004  0.24390096  0.53541247  1
  O  O16  1  0.13848175  0.24926916  0.50481576  1
  O  O17  1  0.26617968  0.52384475  0.12705044  1
  O  O18  1  0.05511717  0.91670931  0.26624522  1
  O  O19  1  0.55436633  0.11971592  0.27209606  1
  O  O20  1  0.23379856  0.58755071  0.44057998  1
  O  O21  1  0.00626306  0.80996621  0.61120728  1
  O  O22  1  0.26030044  0.08186099  0.90083212  1
  O  O23  1  0.47076648  0.22165290  0.57309220  1
  O  O24  1  0.58981194  0.44298681  0.23471600  1
  O  O25  1  0.17958531  0.39444352  0.98550397  1
  O  O26  1  0.10060502  0.75146534  0.89597192  1
  O  O27  1  0.38769698  0.01218815  0.18706989  1
  O  O28  1  0.61006227  0.99555606  0.81866418  1
  O  O29  1  0.90227539  0.25869411  0.07268575  1
  O  O30  1  0.81582319  0.60912075  0.00023325  1
  O  O31  1  0.42057952  0.54809641  0.77556722  1
  O  O32  1  0.54833553  0.78012339  0.42072699  1
  O  O33  1  0.75263056  0.89406330  0.09879566  1
  O  O34  1  0.95525462  0.18790568  0.39387282  1
  O  O35  1  0.78011561  0.42271087  0.55017882  1
  O  O36  1  0.47388449  0.88719668  0.70003478  1
  O  O37  1  0.89589059  0.09896216  0.74693970  1
  O  O38  1  0.69077314  0.48265805  0.88841192  1
  O  O39  1  0.88681168  0.69630390  0.48007066  1
