# generated using pymatgen
data_LiFe2OF3
_symmetry_space_group_name_H-M   'P 1'
_cell_length_a   6.18579197
_cell_length_b   6.26786094
_cell_length_c   8.56716151
_cell_angle_alpha   90.00000000
_cell_angle_beta   90.00000000
_cell_angle_gamma   90.00000000
_symmetry_Int_Tables_number   1
_chemical_formula_structural   LiFe2OF3
_chemical_formula_sum   'Li4 Fe8 O4 F12'
_cell_volume   332.16327774
_cell_formula_units_Z   4
loop_
 _symmetry_equiv_pos_site_id
 _symmetry_equiv_pos_as_xyz
  1  'x, y, z'
loop_
 _atom_site_type_symbol
 _atom_site_label
 _atom_site_symmetry_multiplicity
 _atom_site_fract_x
 _atom_site_fract_y
 _atom_site_fract_z
 _atom_site_occupancy
  Li  Li0  1  0.25689746  0.50000000  0.25000000  1
  Li  Li1  1  0.50000000  0.23884325  -0.00000000  1
  Li  Li2  1  0.50000000  0.76115675  0.50000000  1
  Li  Li3  1  0.74310254  0.50000000  0.75000000  1
  Fe  Fe4  1  0.00000000  0.24178575  -0.00000000  1
  Fe  Fe5  1  0.00000000  0.75821425  0.50000000  1
  Fe  Fe6  1  0.26111406  0.22528580  0.60785202  1
  Fe  Fe7  1  0.26111406  0.77471420  0.89214798  1
  Fe  Fe8  1  0.25848538  -0.00000000  0.25000000  1
  Fe  Fe9  1  0.74151462  -0.00000000  0.75000000  1
  Fe  Fe10  1  0.73888594  0.22528580  0.39214798  1
  Fe  Fe11  1  0.73888594  0.77471420  0.10785202  1
  O  O12  1  0.24991799  0.02695337  0.01893829  1
  O  O13  1  0.24991799  0.97304663  0.48106171  1
  O  O14  1  0.75008201  0.97304663  0.51893829  1
  O  O15  1  0.75008201  0.02695337  0.98106171  1
  F  F16  1  0.01709499  0.27135117  0.25617703  1
  F  F17  1  0.01709499  0.72864883  0.24382297  1
  F  F18  1  0.24603635  0.51581736  0.49192962  1
  F  F19  1  0.24603635  0.48418264  0.00807038  1
  F  F20  1  0.49174247  0.27224895  0.24338259  1
  F  F21  1  0.49174247  0.72775105  0.25661741  1
  F  F22  1  0.50825753  0.27224895  0.75661741  1
  F  F23  1  0.50825753  0.72775105  0.74338259  1
  F  F24  1  0.75396365  0.51581736  0.50807038  1
  F  F25  1  0.75396365  0.48418264  0.99192962  1
  F  F26  1  0.98290501  0.27135117  0.74382297  1
  F  F27  1  0.98290501  0.72864883  0.75617703  1
