# generated using pymatgen
data_Li4Mn3V3(FeO8)2
_symmetry_space_group_name_H-M   'P 1'
_cell_length_a   5.91502874
_cell_length_b   5.93655152
_cell_length_c   9.61285064
_cell_angle_alpha   90.83902297
_cell_angle_beta   90.88218546
_cell_angle_gamma   120.12589146
_symmetry_Int_Tables_number   1
_chemical_formula_structural   Li4Mn3V3(FeO8)2
_chemical_formula_sum   'Li4 Mn3 V3 Fe2 O16'
_cell_volume   291.82652854
_cell_formula_units_Z   1
loop_
 _symmetry_equiv_pos_site_id
 _symmetry_equiv_pos_as_xyz
  1  'x, y, z'
loop_
 _atom_site_type_symbol
 _atom_site_label
 _atom_site_symmetry_multiplicity
 _atom_site_fract_x
 _atom_site_fract_y
 _atom_site_fract_z
 _atom_site_occupancy
  Li  Li0  1  0.33580971  0.66447372  0.89411470  1
  Li  Li1  1  0.00820618  0.99914740  0.99450516  1
  Li  Li2  1  0.99181804  0.00458138  0.49536031  1
  Li  Li3  1  0.66733884  0.33419298  0.39477629  1
  Mn  Mn4  1  0.66404365  0.83066341  0.21158947  1
  Mn  Mn5  1  0.82907073  0.66462799  0.71295553  1
  Mn  Mn6  1  0.82673484  0.16994442  0.71518544  1
  V  V7  1  0.17140217  0.82953117  0.21466220  1
  V  V8  1  0.17573952  0.33673008  0.21588903  1
  V  V9  1  0.33387073  0.17482653  0.71513380  1
  Fe  Fe10  1  0.32485735  0.66971926  0.49110703  1
  Fe  Fe11  1  0.67244787  0.32666073  0.98971707  1
  O  O12  1  0.18653586  0.86854906  0.59801186  1
  O  O13  1  0.03459089  0.51686323  0.33544788  1
  O  O14  1  0.33864374  0.66375708  0.10627533  1
  O  O15  1  0.99405442  0.99673095  0.30847316  1
  O  O16  1  0.98874919  0.99804136  0.80767051  1
  O  O17  1  0.15383320  0.32864082  0.60630218  1
  O  O18  1  0.46392349  0.96081046  0.33643691  1
  O  O19  1  0.46195801  0.50159050  0.34213939  1
  O  O20  1  0.33537874  0.16080427  0.10459736  1
  O  O21  1  0.67122603  0.84593940  0.59686666  1
  O  O22  1  0.49264125  0.45251356  0.84221773  1
  O  O23  1  0.52424158  0.03460339  0.83284848  1
  O  O24  1  0.67098303  0.33656351  0.61006859  1
  O  O25  1  0.85778591  0.67506248  0.09791282  1
  O  O26  1  0.96033338  0.47412026  0.83929331  1
  O  O27  1  0.86378565  0.18061158  0.09827780  1
