# generated using pymatgen
data_Li3V8O11
_symmetry_space_group_name_H-M   'P 1'
_cell_length_a   11.00572566
_cell_length_b   4.34391055
_cell_length_c   5.26160462
_cell_angle_alpha   65.61973873
_cell_angle_beta   84.49584354
_cell_angle_gamma   101.38412961
_symmetry_Int_Tables_number   1
_chemical_formula_structural   Li3V8O11
_chemical_formula_sum   'Li3 V8 O11'
_cell_volume   220.12978400
_cell_formula_units_Z   1
loop_
 _symmetry_equiv_pos_site_id
 _symmetry_equiv_pos_as_xyz
  1  'x, y, z'
loop_
 _atom_site_type_symbol
 _atom_site_label
 _atom_site_symmetry_multiplicity
 _atom_site_fract_x
 _atom_site_fract_y
 _atom_site_fract_z
 _atom_site_occupancy
  Li  Li0  1  0.09495127  0.35924123  0.37236352  1
  Li  Li1  1  0.36203585  0.45580106  0.44621689  1
  Li  Li2  1  0.72907296  0.90939394  0.90671961  1
  V  V3  1  0.00429796  0.00087641  -0.00142717  1
  V  V4  1  0.19069501  0.73776026  0.71108098  1
  V  V5  1  0.26610191  0.07542032  0.11109228  1
  V  V6  1  0.45212068  0.81401957  0.82017453  1
  V  V7  1  0.63471894  0.54085761  0.54962132  1
  V  V8  1  0.54988425  0.18454878  0.17665069  1
  V  V9  1  0.90852386  0.63295064  0.63889438  1
  V  V10  1  0.82040227  0.27419400  0.26793411  1
  O  O11  1  0.08761085  0.85307996  0.37743024  1
  O  O12  1  0.18811851  0.21919658  0.74574305  1
  O  O13  1  0.00123775  0.51149785  0.97438413  1
  O  O14  1  0.45416756  0.30229140  0.84576697  1
  O  O15  1  0.37021604  0.96387675  0.43865449  1
  O  O16  1  0.26908120  0.59311791  0.07863834  1
  O  O17  1  0.63395373  0.05216332  0.52616059  1
  O  O18  1  0.72919647  0.40957558  0.90621849  1
  O  O19  1  0.54843484  0.68267955  0.17922106  1
  O  O20  1  0.90989175  0.13509463  0.63607505  1
  O  O21  1  0.82261033  0.76288465  0.29291844  1
