# generated using pymatgen
data_Li2Fe5Si5O16
_symmetry_space_group_name_H-M   'P 1'
_cell_length_a   6.84800610
_cell_length_b   10.32404073
_cell_length_c   10.21420600
_cell_angle_alpha   90.00000000
_cell_angle_beta   89.65180195
_cell_angle_gamma   90.00000000
_symmetry_Int_Tables_number   1
_chemical_formula_structural   Li2Fe5Si5O16
_chemical_formula_sum   'Li4 Fe10 Si10 O32'
_cell_volume   722.12177408
_cell_formula_units_Z   2
loop_
 _symmetry_equiv_pos_site_id
 _symmetry_equiv_pos_as_xyz
  1  'x, y, z'
loop_
 _atom_site_type_symbol
 _atom_site_label
 _atom_site_symmetry_multiplicity
 _atom_site_fract_x
 _atom_site_fract_y
 _atom_site_fract_z
 _atom_site_occupancy
  Li  Li0  1  0.99889102  0.34078438  0.83966933  1
  Li  Li1  1  0.00379649  0.32829566  0.34077744  1
  Li  Li2  1  0.50110898  0.84078438  0.91033067  1
  Li  Li3  1  0.49620351  0.82829566  0.40922256  1
  Fe  Fe4  1  0.00326435  0.16109423  0.59512491  1
  Fe  Fe5  1  0.96487432  0.16145984  0.07963387  1
  Fe  Fe6  1  0.53512568  0.66146084  0.67036613  1
  Fe  Fe7  1  0.49944947  0.36254312  0.85933154  1
  Fe  Fe8  1  0.49673565  0.66109523  0.15487509  1
  Fe  Fe9  1  0.50478834  0.36518228  0.34240619  1
  Fe  Fe10  1  0.46357900  0.15844216  0.09646051  1
  Fe  Fe11  1  0.00055053  0.86254312  0.89066846  1
  Fe  Fe12  1  0.03642100  0.65844216  0.65353949  1
  Fe  Fe13  1  0.99521166  0.86518228  0.40759381  1
  Si  Si14  1  0.28085303  0.90831247  0.66174902  1
  Si  Si15  1  0.24963146  0.40038652  0.58816462  1
  Si  Si16  1  0.25036854  0.90038652  0.16183538  1
  Si  Si17  1  0.21914697  0.40831247  0.08825098  1
  Si  Si18  1  0.50106800  0.16071209  0.59459171  1
  Si  Si19  1  0.77458166  0.59117709  0.90785941  1
  Si  Si20  1  0.72541834  0.09117709  0.84214059  1
  Si  Si21  1  0.75775382  0.58567171  0.39876813  1
  Si  Si22  1  0.74224618  0.08567171  0.35123187  1
  Si  Si23  1  0.99893200  0.66071209  0.15540829  1
  O  O24  1  0.07172662  0.85742727  0.60044380  1
  O  O25  1  0.05390947  0.80962460  0.10606237  1
  O  O26  1  0.05801628  0.33671798  0.65650444  1
  O  O27  1  0.03350621  0.33482428  0.15100954  1
  O  O28  1  0.26426401  0.89489359  0.81959706  1
  O  O29  1  0.28688729  0.54912149  0.63800123  1
  O  O30  1  0.25050201  0.87884887  0.31905732  1
  O  O31  1  0.23573599  0.39489359  0.93040294  1
  O  O32  1  0.30350080  0.06993982  0.61948125  1
  O  O33  1  0.19649920  0.56993982  0.13051875  1
  O  O34  1  0.24949799  0.37884887  0.43094268  1
  O  O35  1  0.21311271  0.04912149  0.11199877  1
  O  O36  1  0.46649379  0.83482428  0.59899046  1
  O  O37  1  0.44198372  0.83671798  0.09349556  1
  O  O38  1  0.44609053  0.30962460  0.64393763  1
  O  O39  1  0.42827338  0.35742727  0.14955620  1
  O  O40  1  0.56799028  0.65896321  0.86949154  1
  O  O41  1  0.55335665  0.64242127  0.34116983  1
  O  O42  1  0.53596949  0.16571966  0.90426437  1
  O  O43  1  0.55793201  0.16287206  0.43703473  1
  O  O44  1  0.73783837  0.93791908  0.87482387  1
  O  O45  1  0.78588136  0.63118955  0.55159004  1
  O  O46  1  0.76216163  0.43791908  0.87517613  1
  O  O47  1  0.72951016  0.93099133  0.37560470  1
  O  O48  1  0.80186005  0.61446437  0.07486758  1
  O  O49  1  0.69813995  0.11446437  0.67513242  1
  O  O50  1  0.77048984  0.43099133  0.37439530  1
  O  O51  1  0.71411864  0.13118955  0.19840996  1
  O  O52  1  0.96403051  0.66571966  0.84573563  1
  O  O53  1  0.94206799  0.66287206  0.31296527  1
  O  O54  1  0.93200972  0.15896321  0.88050846  1
  O  O55  1  0.94664335  0.14242127  0.40883017  1
