# generated using pymatgen
data_Li3MnV(PO4)3
_symmetry_space_group_name_H-M   'P 1'
_cell_length_a   10.31646761
_cell_length_b   10.22740151
_cell_length_c   10.22740197
_cell_angle_alpha   109.29413827
_cell_angle_beta   109.64772873
_cell_angle_gamma   109.64772966
_symmetry_Int_Tables_number   1
_chemical_formula_structural   Li3MnV(PO4)3
_chemical_formula_sum   'Li12 Mn4 V4 P12 O48'
_cell_volume   828.87504600
_cell_formula_units_Z   4
loop_
 _symmetry_equiv_pos_site_id
 _symmetry_equiv_pos_as_xyz
  1  'x, y, z'
loop_
 _atom_site_type_symbol
 _atom_site_label
 _atom_site_symmetry_multiplicity
 _atom_site_fract_x
 _atom_site_fract_y
 _atom_site_fract_z
 _atom_site_occupancy
  Li  Li0  1  0.24962626  0.87661676  0.62525342  1
  Li  Li1  1  0.12860859  0.37234102  0.74884493  1
  Li  Li2  1  0.12699150  0.25136434  0.37661676  1
  Li  Li3  1  0.62437284  0.87474658  0.75136434  1
  Li  Li4  1  0.37976365  0.75115507  0.12349609  1
  Li  Li5  1  0.25626757  0.37650391  0.12765898  1
  Li  Li6  1  0.74373343  0.62349609  0.87234102  1
  Li  Li7  1  0.62023635  0.24884493  0.87650391  1
  Li  Li8  1  0.37562716  0.12525342  0.24863566  1
  Li  Li9  1  0.87300850  0.74863566  0.62338324  1
  Li  Li10  1  0.87139141  0.62765898  0.25115507  1
  Li  Li11  1  0.75037374  0.12338324  0.37474658  1
  Mn  Mn12  1  0.00000000  -0.00000000  0.50000000  1
  Mn  Mn13  1  0.50000000  0.50000000  0.50000000  1
  Mn  Mn14  1  0.50000000  0.50000000  -0.00000000  1
  Mn  Mn15  1  0.50000000  -0.00000000  -0.00000000  1
  V  V16  1  0.00000000  0.50000000  0.50000000  1
  V  V17  1  0.00000000  0.50000000  -0.00000000  1
  V  V18  1  0.00000000  -0.00000000  -0.00000000  1
  V  V19  1  0.50000000  -0.00000000  0.50000000  1
  P  P20  1  0.12085358  0.74881597  0.87607855  1
  P  P21  1  0.12796240  0.87273742  0.24881597  1
  P  P22  1  0.37284612  0.62648185  0.74915775  1
  P  P23  1  0.24477503  0.62392145  0.37273742  1
  P  P24  1  0.24636427  0.12267590  0.87351815  1
  P  P25  1  0.37631163  0.24915775  0.62267590  1
  P  P26  1  0.62368837  0.75084225  0.37732410  1
  P  P27  1  0.75522497  0.37607855  0.62726258  1
  P  P28  1  0.75363573  0.87732410  0.12648185  1
  P  P29  1  0.62715388  0.37351815  0.25084225  1
  P  P30  1  0.87203760  0.12726258  0.75118403  1
  P  P31  1  0.87914742  0.25118403  0.12392145  1
  O  O32  1  0.10731988  0.98849441  0.69752780  1
  O  O33  1  0.10809651  0.60474764  0.90868643  1
  O  O34  1  0.00334888  0.30393880  0.89525236  1
  O  O35  1  0.08872609  0.70328572  0.70261347  1
  O  O36  1  0.09126636  0.87506588  0.38287155  1
  O  O37  1  0.10941901  0.61984610  0.40888738  1
  O  O38  1  0.20190567  0.49523478  0.60712559  1
  O  O39  1  0.40979208  0.80247220  0.79096660  1
  O  O40  1  0.37808659  0.59556962  0.88769225  1
  O  O41  1  0.28251698  0.29212263  0.90443038  1
  O  O42  1  0.29946836  0.90888738  0.28904128  1
  O  O43  1  0.01042709  0.21095872  0.11984610  1
  O  O44  1  0.20347029  0.20619405  0.58891799  1
  O  O45  1  0.19941008  0.59131357  0.19606120  1
  O  O46  1  0.38611262  0.79738653  0.50067225  1
  O  O47  1  0.28379952  0.49219433  0.37506588  1
  O  O48  1  0.29160518  0.88287155  0.00780567  1
  O  O49  1  0.11455963  0.00067225  0.20328572  1
  O  O50  1  0.50272476  0.61727706  0.70619405  1
  O  O51  1  0.38544770  0.08891799  0.88272294  1
  O  O52  1  0.50960566  0.38769225  0.79212263  1
  O  O53  1  0.38117452  0.29096660  0.48849441  1
  O  O54  1  0.59478007  0.89287441  0.38810819  1
  O  O55  1  0.20667189  0.11189181  0.00476522  1
  O  O56  1  0.79332811  0.88810819  0.99523478  1
  O  O57  1  0.40521993  0.10712559  0.61189181  1
  O  O58  1  0.61882548  0.70903340  0.51150559  1
  O  O59  1  0.49039434  0.61230775  0.20787737  1
  O  O60  1  0.61455230  0.91108201  0.11727706  1
  O  O61  1  0.49727524  0.38272294  0.29380595  1
  O  O62  1  0.88544037  0.99932775  0.79671428  1
  O  O63  1  0.70839482  0.11712845  0.99219433  1
  O  O64  1  0.71620048  0.50780567  0.62493412  1
  O  O65  1  0.61388738  0.20261347  0.49932775  1
  O  O66  1  0.80058992  0.40868643  0.80393880  1
  O  O67  1  0.79652971  0.79380595  0.41108201  1
  O  O68  1  0.98957291  0.78904128  0.88015390  1
  O  O69  1  0.70053164  0.09111262  0.71095872  1
  O  O70  1  0.71748302  0.70787737  0.09556962  1
  O  O71  1  0.62191341  0.40443038  0.11230775  1
  O  O72  1  0.59020792  0.19752780  0.20903340  1
  O  O73  1  0.79809433  0.50476522  0.39287441  1
  O  O74  1  0.89058099  0.38015390  0.59111262  1
  O  O75  1  0.90873364  0.12493412  0.61712845  1
  O  O76  1  0.91127391  0.29671428  0.29738653  1
  O  O77  1  0.99665112  0.69606120  0.10474764  1
  O  O78  1  0.89190349  0.39525236  0.09131357  1
  O  O79  1  0.89268012  0.01150559  0.30247220  1
