# generated using pymatgen
data_Li2TiCrO4
_symmetry_space_group_name_H-M   'P 1'
_cell_length_a   5.18845753
_cell_length_b   5.18845731
_cell_length_c   5.18845692
_cell_angle_alpha   132.54896909
_cell_angle_beta   132.54898578
_cell_angle_gamma   69.36335843
_symmetry_Int_Tables_number   1
_chemical_formula_structural   Li2TiCrO4
_chemical_formula_sum   'Li2 Ti1 Cr1 O4'
_cell_volume   74.37697577
_cell_formula_units_Z   1
loop_
 _symmetry_equiv_pos_site_id
 _symmetry_equiv_pos_as_xyz
  1  'x, y, z'
loop_
 _atom_site_type_symbol
 _atom_site_label
 _atom_site_symmetry_multiplicity
 _atom_site_fract_x
 _atom_site_fract_y
 _atom_site_fract_z
 _atom_site_occupancy
  Li  Li0  1  0.25000000  0.75000000  0.50000000  1
  Li  Li1  1  0.50000000  0.50000000  -0.00000000  1
  Ti  Ti2  1  0.75000000  0.25000000  0.50000000  1
  Cr  Cr3  1  0.00000000  0.00000000  0.00000000  1
  O  O4  1  0.52198074  0.02198074  0.50000000  1
  O  O5  1  0.24099087  0.24099087  1.00000000  1
  O  O6  1  0.97801926  0.47801926  0.50000000  1
  O  O7  1  0.75900913  0.75900913  0.00000000  1
