# generated using pymatgen
data_Li3VS3
_symmetry_space_group_name_H-M   'P 1'
_cell_length_a   6.76593367
_cell_length_b   6.76380346
_cell_length_c   6.76118222
_cell_angle_alpha   111.46819673
_cell_angle_beta   111.53257256
_cell_angle_gamma   111.56784025
_symmetry_Int_Tables_number   1
_chemical_formula_structural   Li3VS3
_chemical_formula_sum   'Li6 V2 S6'
_cell_volume   218.23173151
_cell_formula_units_Z   2
loop_
 _symmetry_equiv_pos_site_id
 _symmetry_equiv_pos_as_xyz
  1  'x, y, z'
loop_
 _atom_site_type_symbol
 _atom_site_label
 _atom_site_symmetry_multiplicity
 _atom_site_fract_x
 _atom_site_fract_y
 _atom_site_fract_z
 _atom_site_occupancy
  Li  Li0  1  0.29998691  0.85780308  0.39998713  1
  Li  Li1  1  0.35792369  0.79965356  0.90041674  1
  Li  Li2  1  0.79982511  0.90029320  0.35801227  1
  Li  Li3  1  0.39981767  0.29953919  0.85785267  1
  Li  Li4  1  0.85784996  0.40017098  0.29936733  1
  Li  Li5  1  0.90020635  0.35803603  0.79960368  1
  V  V6  1  0.60209846  0.60210301  0.60219514  1
  V  V7  1  0.10201732  0.10208347  0.10213224  1
  S  S8  1  0.02787415  0.84849892  0.67984627  1
  S  S9  1  0.34852219  0.52795771  0.17955978  1
  S  S10  1  0.17962371  0.34858615  0.52784479  1
  S  S11  1  0.84856921  0.67953113  0.02810461  1
  S  S12  1  0.52784322  0.18000453  0.34857688  1
  S  S13  1  0.67972307  0.02762004  0.84838047  1
