# generated using pymatgen
data_Li3MnV(PO4)3
_symmetry_space_group_name_H-M   'P 1'
_cell_length_a   10.23395342
_cell_length_b   10.36992284
_cell_length_c   10.20655843
_cell_angle_alpha   110.37329762
_cell_angle_beta   108.80093959
_cell_angle_gamma   109.45348233
_symmetry_Int_Tables_number   1
_chemical_formula_structural   Li3MnV(PO4)3
_chemical_formula_sum   'Li12 Mn4 V4 P12 O48'
_cell_volume   831.49919756
_cell_formula_units_Z   4
loop_
 _symmetry_equiv_pos_site_id
 _symmetry_equiv_pos_as_xyz
  1  'x, y, z'
loop_
 _atom_site_type_symbol
 _atom_site_label
 _atom_site_symmetry_multiplicity
 _atom_site_fract_x
 _atom_site_fract_y
 _atom_site_fract_z
 _atom_site_occupancy
  Li  Li0  1  0.25779157  0.87889579  0.62889579  1
  Li  Li1  1  0.13076537  0.37769399  0.75560810  1
  Li  Li2  1  0.13076537  0.25307138  0.37515727  1
  Li  Li3  1  0.62173354  0.87493562  0.74581636  1
  Li  Li4  1  0.37826646  0.75320208  0.12408281  1
  Li  Li5  1  0.25202342  0.37601171  0.12601171  1
  Li  Li6  1  0.74797658  0.62398829  0.87398829  1
  Li  Li7  1  0.62173354  0.24679792  0.87591719  1
  Li  Li8  1  0.37826646  0.12506438  0.25418364  1
  Li  Li9  1  0.86923463  0.74692862  0.62484273  1
  Li  Li10  1  0.86923463  0.62230601  0.24439190  1
  Li  Li11  1  0.74220843  0.12110421  0.37110421  1
  Mn  Mn12  1  0.50000000  0.50000000  0.50000000  1
  Mn  Mn13  1  0.50000000  -0.00000000  0.50000000  1
  Mn  Mn14  1  0.50000000  0.50000000  -0.00000000  1
  Mn  Mn15  1  0.50000000  -0.00000000  -0.00000000  1
  V  V16  1  -0.00000000  0.50000000  0.50000000  1
  V  V17  1  -0.00000000  -0.00000000  0.50000000  1
  V  V18  1  -0.00000000  0.50000000  -0.00000000  1
  V  V19  1  -0.00000000  -0.00000000  -0.00000000  1
  P  P20  1  0.12247470  0.74805493  0.87661837  1
  P  P21  1  0.12247470  0.87441876  0.24585633  1
  P  P22  1  0.37247885  0.62772221  0.74993249  1
  P  P23  1  0.24784435  0.62175354  0.37467729  1
  P  P24  1  0.24784435  0.12608981  0.87316607  1
  P  P25  1  0.37247885  0.24475664  0.62254736  1
  P  P26  1  0.62752115  0.75524336  0.37745264  1
  P  P27  1  0.75215565  0.37824646  0.62532271  1
  P  P28  1  0.75215565  0.87391019  0.12683393  1
  P  P29  1  0.62752115  0.37227779  0.25006751  1
  P  P30  1  0.87752530  0.12558124  0.75414367  1
  P  P31  1  0.87752530  0.25194507  0.12338163  1
  O  O32  1  0.10560211  0.99329418  0.69403392  1
  O  O33  1  0.11169134  0.60866874  0.90565782  1
  O  O34  1  0.00954647  0.29949462  0.88935163  1
  O  O35  1  0.08725816  0.70059518  0.69792410  1
  O  O36  1  0.08725816  0.88666298  0.38933406  1
  O  O37  1  0.10560211  0.61230793  0.41156819  1
  O  O38  1  0.19595914  0.49554472  0.60469899  1
  O  O39  1  0.40589674  0.79838282  0.78831452  1
  O  O40  1  0.37350996  0.59331646  0.88504083  1
  O  O41  1  0.28556938  0.29572963  0.90873144  1
  O  O42  1  0.29235252  0.90545382  0.28650251  1
  O  O43  1  0.00954647  0.21005186  0.12019484  1
  O  O44  1  0.19595914  0.20041442  0.59126015  1
  O  O45  1  0.20379640  0.59044742  0.20094422  1
  O  O46  1  0.38250021  0.79269779  0.50680281  1
  O  O47  1  0.28556938  0.48983974  0.37683794  1
  O  O48  1  0.29235252  0.88689970  0.00585001  1
  O  O49  1  0.11169134  0.00302260  0.20603352  1
  O  O50  1  0.50215445  0.61556781  0.70749686  1
  O  O51  1  0.38250021  0.08980142  0.87569740  1
  O  O52  1  0.50215445  0.38658665  0.79465659  1
  O  O53  1  0.37350996  0.28019350  0.48846913  1
  O  O54  1  0.59410326  0.89248607  0.38241778  1
  O  O55  1  0.20379640  0.11334798  0.00285218  1
  O  O56  1  0.79620360  0.88665202  0.99714782  1
  O  O57  1  0.40589674  0.10751393  0.61758222  1
  O  O58  1  0.62649004  0.71980650  0.51153087  1
  O  O59  1  0.49784555  0.61341335  0.20534341  1
  O  O60  1  0.61749979  0.91019858  0.12430260  1
  O  O61  1  0.49784555  0.38443219  0.29250314  1
  O  O62  1  0.88830866  0.99697740  0.79396648  1
  O  O63  1  0.70764748  0.11310030  0.99414999  1
  O  O64  1  0.71443062  0.51016026  0.62316206  1
  O  O65  1  0.61749979  0.20730221  0.49319719  1
  O  O66  1  0.79620360  0.40955258  0.79905578  1
  O  O67  1  0.80404086  0.79958558  0.40873985  1
  O  O68  1  0.99045353  0.78994814  0.87980516  1
  O  O69  1  0.70764748  0.09454618  0.71349749  1
  O  O70  1  0.71443062  0.70427037  0.09126856  1
  O  O71  1  0.62649004  0.40668354  0.11495917  1
  O  O72  1  0.59410326  0.20161718  0.21168548  1
  O  O73  1  0.80404086  0.50445528  0.39530101  1
  O  O74  1  0.89439789  0.38769207  0.58843181  1
  O  O75  1  0.91274184  0.11333702  0.61066594  1
  O  O76  1  0.91274184  0.29940482  0.30207590  1
  O  O77  1  0.99045353  0.70050538  0.11064837  1
  O  O78  1  0.88830866  0.39133126  0.09434218  1
  O  O79  1  0.89439789  0.00670582  0.30596608  1
