# generated using pymatgen
data_Li3Ti2NbO6
_symmetry_space_group_name_H-M   'P 1'
_cell_length_a   16.14598496
_cell_length_b   10.34869739
_cell_length_c   10.34869760
_cell_angle_alpha   16.28507565
_cell_angle_beta   15.75796949
_cell_angle_gamma   15.75796637
_symmetry_Int_Tables_number   1
_chemical_formula_structural   Li3Ti2NbO6
_chemical_formula_sum   'Li3 Ti2 Nb1 O6'
_cell_volume   113.49954639
_cell_formula_units_Z   1
loop_
 _symmetry_equiv_pos_site_id
 _symmetry_equiv_pos_as_xyz
  1  'x, y, z'
loop_
 _atom_site_type_symbol
 _atom_site_label
 _atom_site_symmetry_multiplicity
 _atom_site_fract_x
 _atom_site_fract_y
 _atom_site_fract_z
 _atom_site_occupancy
  Li  Li0  1  0.16666700  0.50000000  0.50000000  1
  Li  Li1  1  0.50541912  0.49274867  0.49274867  1
  Li  Li2  1  0.82791388  0.50725133  0.50725133  1
  Ti  Ti3  1  0.03139077  0.97679542  0.97679542  1
  Ti  Ti4  1  0.30194323  0.02320458  0.02320458  1
  Nb  Nb5  1  0.66666700  0.00000000  -0.00000000  1
  O  O6  1  0.22966539  0.26549807  0.26549807  1
  O  O7  1  0.57921627  0.26238694  0.26238693  1
  O  O8  1  0.10366761  0.73450193  0.73450193  1
  O  O9  1  0.92897862  0.23676221  0.23676221  1
  O  O10  1  0.40435438  0.76323779  0.76323779  1
  O  O11  1  0.75411773  0.73761306  0.73761307  1
