# generated using pymatgen
data_Li10Cr2Fe3Co3O16
_symmetry_space_group_name_H-M   'P 1'
_cell_length_a   5.98655457
_cell_length_b   5.97135827
_cell_length_c   9.84649718
_cell_angle_alpha   89.97372010
_cell_angle_beta   90.06606518
_cell_angle_gamma   119.94879629
_symmetry_Int_Tables_number   1
_chemical_formula_structural   Li10Cr2Fe3Co3O16
_chemical_formula_sum   'Li10 Cr2 Fe3 Co3 O16'
_cell_volume   304.99029725
_cell_formula_units_Z   1
loop_
 _symmetry_equiv_pos_site_id
 _symmetry_equiv_pos_as_xyz
  1  'x, y, z'
loop_
 _atom_site_type_symbol
 _atom_site_label
 _atom_site_symmetry_multiplicity
 _atom_site_fract_x
 _atom_site_fract_y
 _atom_site_fract_z
 _atom_site_occupancy
  Li  Li0  1  0.19186898  0.80103596  0.04646260  1
  Li  Li1  1  0.59968883  0.79658680  0.04763451  1
  Li  Li2  1  0.33257840  0.67393036  0.26869668  1
  Li  Li3  1  0.99206841  0.00105215  0.97738235  1
  Li  Li4  1  0.99324286  0.01023961  0.47926588  1
  Li  Li5  1  0.18834351  0.38577522  0.05045146  1
  Li  Li6  1  0.80812826  0.62007099  0.55089380  1
  Li  Li7  1  0.79552253  0.20146867  0.54706310  1
  Li  Li8  1  0.38587568  0.18762660  0.55110545  1
  Li  Li9  1  0.66200286  0.33865521  0.76932562  1
  Cr  Cr10  1  0.65793738  0.33990694  0.02290153  1
  Cr  Cr11  1  0.33386344  0.67687373  0.52331499  1
  Fe  Fe12  1  0.16321736  0.34108715  0.77854929  1
  Fe  Fe13  1  0.33439740  0.17717433  0.28090130  1
  Fe  Fe14  1  0.82760222  0.17858083  0.27798365  1
  Co  Co15  1  0.16516857  0.83531857  0.78129567  1
  Co  Co16  1  0.82885323  0.67281897  0.28208844  1
  Co  Co17  1  0.65394649  0.83553144  0.78087727  1
  O  O18  1  0.17607551  0.85606140  0.40863882  1
  O  O19  1  0.49665222  0.98102510  0.65630600  1
  O  O20  1  0.32789272  0.66301828  0.89950846  1
  O  O21  1  0.01920808  0.51066718  0.65175531  1
  O  O22  1  0.99309917  0.00735611  0.66938469  1
  O  O23  1  0.00107053  0.01665943  0.16873323  1
  O  O24  1  0.66175766  0.85264411  0.40306552  1
  O  O25  1  0.48339465  0.51057939  0.65289571  1
  O  O26  1  0.81017913  0.66918165  0.90301239  1
  O  O27  1  0.16346685  0.34502138  0.39772712  1
  O  O28  1  0.49907039  0.48720191  0.15377427  1
  O  O29  1  0.97237666  0.48910705  0.15043426  1
  O  O30  1  0.66017470  0.33506470  0.39861680  1
  O  O31  1  0.32648869  0.17606115  0.90385551  1
  O  O32  1  0.50473816  0.02499674  0.15412088  1
  O  O33  1  0.82690844  0.17343591  0.89940944  1
