# generated using pymatgen
data_Fe5OF11
_symmetry_space_group_name_H-M   'P 1'
_cell_length_a   5.21729099
_cell_length_b   5.54674730
_cell_length_c   9.18486871
_cell_angle_alpha   73.44645724
_cell_angle_beta   90.38084369
_cell_angle_gamma   116.82165778
_symmetry_Int_Tables_number   1
_chemical_formula_structural   Fe5OF11
_chemical_formula_sum   'Fe5 O1 F11'
_cell_volume   225.05275186
_cell_formula_units_Z   1
loop_
 _symmetry_equiv_pos_site_id
 _symmetry_equiv_pos_as_xyz
  1  'x, y, z'
loop_
 _atom_site_type_symbol
 _atom_site_label
 _atom_site_symmetry_multiplicity
 _atom_site_fract_x
 _atom_site_fract_y
 _atom_site_fract_z
 _atom_site_occupancy
  Fe  Fe0  1  0.81945996  0.58101654  0.39773511  1
  Fe  Fe1  1  0.53058817  0.06561280  0.13903455  1
  Fe  Fe2  1  0.50224678  0.98622484  0.49990652  1
  Fe  Fe3  1  0.03494600  0.09003243  0.66272262  1
  Fe  Fe4  1  0.26869920  0.56239063  0.91259781  1
  O  O5  1  0.91893947  0.26380003  0.49183041  1
  F  F6  1  0.95748642  0.30873783  0.08568521  1
  F  F7  1  0.03704201  0.31917847  0.79288818  1
  F  F8  1  0.45250749  0.30472286  0.59427158  1
  F  F9  1  0.53259029  0.28070863  0.27775193  1
  F  F10  1  0.46918014  0.32649622  0.96774473  1
  F  F11  1  0.58128674  0.79283817  0.72733762  1
  F  F12  1  0.59366117  0.81368443  0.33510367  1
  F  F13  1  0.52535041  0.81018335  0.02609354  1
  F  F14  1  0.12280763  0.83081662  0.20312888  1
  F  F15  1  0.06716068  0.82114520  0.54365604  1
  F  F16  1  0.09841145  0.81672395  0.84169961  1
