# generated using pymatgen
data_Li2Fe3WO8
_symmetry_space_group_name_H-M   'P 1'
_cell_length_a   8.61344154
_cell_length_b   8.63975480
_cell_length_c   8.54868810
_cell_angle_alpha   89.74968902
_cell_angle_beta   90.05411757
_cell_angle_gamma   90.18357281
_symmetry_Int_Tables_number   1
_chemical_formula_structural   Li2Fe3WO8
_chemical_formula_sum   'Li8 Fe12 W4 O32'
_cell_volume   636.16685550
_cell_formula_units_Z   4
loop_
 _symmetry_equiv_pos_site_id
 _symmetry_equiv_pos_as_xyz
  1  'x, y, z'
loop_
 _atom_site_type_symbol
 _atom_site_label
 _atom_site_symmetry_multiplicity
 _atom_site_fract_x
 _atom_site_fract_y
 _atom_site_fract_z
 _atom_site_occupancy
  Li  Li0  1  0.99986708  0.99966228  0.99596360  1
  Li  Li1  1  0.24953820  0.25207362  0.25527109  1
  Li  Li2  1  0.24994358  0.74775419  0.75524510  1
  Li  Li3  1  0.50305714  -0.00078226  0.49555099  1
  Li  Li4  1  0.49761161  0.50270869  -0.00108841  1
  Li  Li5  1  0.74807271  0.24759132  0.74855828  1
  Li  Li6  1  0.74624674  0.75168159  0.25235059  1
  Li  Li7  1  0.00452830  0.50044932  0.49979788  1
  Fe  Fe8  1  0.11701093  0.13494986  0.62364367  1
  Fe  Fe9  1  0.12716140  0.38220483  0.86618015  1
  Fe  Fe10  1  0.13739364  0.62517934  0.12222513  1
  Fe  Fe11  1  0.36936681  0.37687905  0.61594761  1
  Fe  Fe12  1  0.37694311  0.62029904  0.36883470  1
  Fe  Fe13  1  0.38342852  0.86323111  0.12778235  1
  Fe  Fe14  1  0.61196382  0.37055764  0.37570517  1
  Fe  Fe15  1  0.62417166  0.11710195  0.13025266  1
  Fe  Fe16  1  0.63000202  0.87303344  0.88229002  1
  Fe  Fe17  1  0.87057068  0.12299297  0.38171171  1
  Fe  Fe18  1  0.87013237  0.88415982  0.63051597  1
  Fe  Fe19  1  0.87935208  0.63394972  0.87387896  1
  W  W20  1  0.12743218  0.87236020  0.37705493  1
  W  W21  1  0.37387751  0.12439132  0.87543836  1
  W  W22  1  0.62307243  0.62414617  0.62250893  1
  W  W23  1  0.87510034  0.37639316  0.12613533  1
  O  O24  1  0.11125250  0.11201648  0.38551183  1
  O  O25  1  0.11558995  0.88599782  0.60652888  1
  O  O26  1  0.10925333  0.61211668  0.88687431  1
  O  O27  1  0.13592479  0.14096750  0.86395618  1
  O  O28  1  0.10351997  0.38290301  0.11691878  1
  O  O29  1  0.13642033  0.36537047  0.63336274  1
  O  O30  1  0.13351483  0.63908953  0.36050156  1
  O  O31  1  0.13273522  0.86681194  0.14435995  1
  O  O32  1  0.36431256  0.13327211  0.64538665  1
  O  O33  1  0.36170877  0.36187123  0.86452361  1
  O  O34  1  0.36198608  0.63680326  0.12615547  1
  O  O35  1  0.39704790  0.61453598  0.62333435  1
  O  O36  1  0.36262274  0.86442834  0.36270557  1
  O  O37  1  0.38520537  0.37979234  0.38682577  1
  O  O38  1  0.38178483  0.11675897  0.10571827  1
  O  O39  1  0.38751502  0.88820400  0.88593604  1
  O  O40  1  0.61386773  0.38601664  0.61351699  1
  O  O41  1  0.62238060  0.60533959  0.38644527  1
  O  O42  1  0.61478722  0.88838973  0.11801923  1
  O  O43  1  0.64747129  0.36441074  0.13012314  1
  O  O44  1  0.61163187  0.11216361  0.88886461  1
  O  O45  1  0.63952328  0.13864184  0.36088436  1
  O  O46  1  0.63552808  0.86157498  0.63732174  1
  O  O47  1  0.64054972  0.63701123  0.86427151  1
  O  O48  1  0.86996541  0.36678582  0.35341253  1
  O  O49  1  0.86907049  0.14800426  0.13188426  1
  O  O50  1  0.86615427  0.86365440  0.86404804  1
  O  O51  1  0.88713463  0.88820358  0.38716293  1
  O  O52  1  0.85491856  0.63405344  0.63426084  1
  O  O53  1  0.88596364  0.11538133  0.61545992  1
  O  O54  1  0.88226826  0.38405131  0.89580042  1
  O  O55  1  0.88254488  0.60254842  0.11830947  1
