# generated using pymatgen
data_Ca2Ti6N2O11
_symmetry_space_group_name_H-M   'P 1'
_cell_length_a   3.77398211
_cell_length_b   7.73896023
_cell_length_c   9.43948856
_cell_angle_alpha   80.66974419
_cell_angle_beta   90.00000000
_cell_angle_gamma   75.88729614
_symmetry_Int_Tables_number   1
_chemical_formula_structural   Ca2Ti6N2O11
_chemical_formula_sum   'Ca2 Ti6 N2 O11'
_cell_volume   263.61271269
_cell_formula_units_Z   1
loop_
 _symmetry_equiv_pos_site_id
 _symmetry_equiv_pos_as_xyz
  1  'x, y, z'
loop_
 _atom_site_type_symbol
 _atom_site_label
 _atom_site_symmetry_multiplicity
 _atom_site_fract_x
 _atom_site_fract_y
 _atom_site_fract_z
 _atom_site_occupancy
  Ca  Ca0  1  0.55301516  0.89396967  0.74647733  1
  Ca  Ca1  1  0.46355584  0.07288832  0.22754766  1
  Ti  Ti2  1  0.12235658  0.75528684  0.07646597  1
  Ti  Ti3  1  0.16289083  0.67421933  0.43711931  1
  Ti  Ti4  1  0.23821425  0.52357049  0.75019336  1
  Ti  Ti5  1  0.77284714  0.45430472  0.23734784  1
  Ti  Ti6  1  0.83674406  0.32651087  0.56743772  1
  Ti  Ti7  1  0.88872997  0.22254007  0.89304033  1
  N  N8  1  0.29396999  0.41205902  0.58132680  1
  N  N9  1  0.93680695  0.12638509  0.72076366  1
  O  O10  1  0.06110333  0.87779334  0.29956166  1
  O  O11  1  0.11963661  0.76072578  0.61232274  1
  O  O12  1  0.14558391  0.70883117  0.89307715  1
  O  O13  1  0.64171031  0.71657938  0.11356619  1
  O  O14  1  0.69750364  0.60499172  0.42492788  1
  O  O15  1  0.75332616  0.49334668  0.76784403  1
  O  O16  1  0.23863637  0.52272626  0.24232389  1
  O  O17  1  0.35526218  0.28947464  0.89259365  1
  O  O18  1  0.84314248  0.31371603  0.10547662  1
  O  O19  1  0.87657738  0.24684623  0.38914376  1
  O  O20  1  0.99838382  0.00323235  0.02144345  1
