# generated using pymatgen
data_Cr(WO4)3
_symmetry_space_group_name_H-M   'P 1'
_cell_length_a   5.38640071
_cell_length_b   10.76101754
_cell_length_c   9.38168921
_cell_angle_alpha   29.32222125
_cell_angle_beta   53.42072033
_cell_angle_gamma   58.68716702
_symmetry_Int_Tables_number   1
_chemical_formula_structural   Cr(WO4)3
_chemical_formula_sum   'Cr1 W3 O12'
_cell_volume   213.85274703
_cell_formula_units_Z   1
loop_
 _symmetry_equiv_pos_site_id
 _symmetry_equiv_pos_as_xyz
  1  'x, y, z'
loop_
 _atom_site_type_symbol
 _atom_site_label
 _atom_site_symmetry_multiplicity
 _atom_site_fract_x
 _atom_site_fract_y
 _atom_site_fract_z
 _atom_site_occupancy
  Cr  Cr0  1  0.97041037  0.50190854  0.96726622  1
  W  W1  1  0.99999038  0.99944227  0.00532996  1
  W  W2  1  0.43977345  0.01012029  0.49315745  1
  W  W3  1  0.53531697  0.49185906  0.47703045  1
  O  O4  1  0.31131062  0.29743447  0.16546425  1
  O  O5  1  0.25809940  0.06652588  0.68387480  1
  O  O6  1  0.18067000  0.28608793  0.75242579  1
  O  O7  1  0.83047042  0.22766694  0.22878850  1
  O  O8  1  0.32766279  0.78392270  0.18122852  1
  O  O9  1  0.76032596  0.42086616  0.31737656  1
  O  O10  1  0.23332583  0.57819393  0.68047497  1
  O  O11  1  0.68097300  0.21193199  0.82430689  1
  O  O12  1  0.15963409  0.78563393  0.75238216  1
  O  O13  1  0.82393190  0.70943502  0.25737746  1
  O  O14  1  0.75078510  0.92672645  0.32774897  1
  O  O15  1  0.68252072  0.70224443  0.83096607  1
