# generated using pymatgen
data_Li12V3NiP4(CO7)4
_symmetry_space_group_name_H-M   'P 1'
_cell_length_a   8.45175754
_cell_length_b   9.97812714
_cell_length_c   6.59350787
_cell_angle_alpha   90.00000000
_cell_angle_beta   90.00000000
_cell_angle_gamma   84.70989074
_symmetry_Int_Tables_number   1
_chemical_formula_structural   Li12V3NiP4(CO7)4
_chemical_formula_sum   'Li12 V3 Ni1 P4 C4 O28'
_cell_volume   553.67997898
_cell_formula_units_Z   1
loop_
 _symmetry_equiv_pos_site_id
 _symmetry_equiv_pos_as_xyz
  1  'x, y, z'
loop_
 _atom_site_type_symbol
 _atom_site_label
 _atom_site_symmetry_multiplicity
 _atom_site_fract_x
 _atom_site_fract_y
 _atom_site_fract_z
 _atom_site_occupancy
  Li  Li0  1  0.09690458  0.38295277  0.25000000  1
  Li  Li1  1  0.09825958  0.88328242  0.25000000  1
  Li  Li2  1  0.27934404  0.12455603  0.02679090  1
  Li  Li3  1  0.27934404  0.12455603  0.47320910  1
  Li  Li4  1  0.27829703  0.62470508  0.02699913  1
  Li  Li5  1  0.27829703  0.62470508  0.47300087  1
  Li  Li6  1  0.72191020  0.37785507  0.52480856  1
  Li  Li7  1  0.72191020  0.37785507  0.97519144  1
  Li  Li8  1  0.72114381  0.87450145  0.52642385  1
  Li  Li9  1  0.72114381  0.87450145  0.97357615  1
  Li  Li10  1  0.90366310  0.11653729  0.75000000  1
  Li  Li11  1  0.90460491  0.61699994  0.75000000  1
  V  V12  1  0.32868924  0.39662355  0.75000000  1
  V  V13  1  0.32867925  0.89595177  0.75000000  1
  V  V14  1  0.67271399  0.10405085  0.25000000  1
  Ni  Ni15  1  0.66865370  0.60289827  0.25000000  1
  P  P16  1  0.41194031  0.36333564  0.25000000  1
  P  P17  1  0.41267317  0.85875324  0.25000000  1
  P  P18  1  0.59024111  0.13991084  0.75000000  1
  P  P19  1  0.58950403  0.64008976  0.75000000  1
  C  C20  1  0.03381844  0.34815012  0.75000000  1
  C  C21  1  0.03406393  0.84785700  0.75000000  1
  C  C22  1  0.96722354  0.15133160  0.25000000  1
  C  C23  1  0.95978578  0.64942250  0.25000000  1
  O  O24  1  0.07318691  0.47091660  0.75000000  1
  O  O25  1  0.11379060  0.17844371  0.25000000  1
  O  O26  1  0.07332162  0.97085974  0.75000000  1
  O  O27  1  0.14783515  0.25105444  0.75000000  1
  O  O28  1  0.10553509  0.67993702  0.25000000  1
  O  O29  1  0.14790619  0.75082639  0.75000000  1
  O  O30  1  0.30757443  0.41575375  0.06734608  1
  O  O31  1  0.30757443  0.41575375  0.43265392  1
  O  O32  1  0.30760317  0.91089353  0.06761900  1
  O  O33  1  0.30760317  0.91089353  0.43238100  1
  O  O34  1  0.42244375  0.09017148  0.75000000  1
  O  O35  1  0.43262960  0.20609006  0.25000000  1
  O  O36  1  0.42192667  0.59055055  0.75000000  1
  O  O37  1  0.43645575  0.70102126  0.25000000  1
  O  O38  1  0.57058069  0.29712783  0.75000000  1
  O  O39  1  0.57966540  0.41462249  0.25000000  1
  O  O40  1  0.57056393  0.79728636  0.75000000  1
  O  O41  1  0.57833652  0.91168377  0.25000000  1
  O  O42  1  0.69389147  0.08602999  0.93276295  1
  O  O43  1  0.69389147  0.08602999  0.56723705  1
  O  O44  1  0.69206741  0.58702230  0.56428383  1
  O  O45  1  0.69206741  0.58702230  0.93571617  1
  O  O46  1  0.85286651  0.24819966  0.25000000  1
  O  O47  1  0.88681674  0.32136642  0.75000000  1
  O  O48  1  0.84211559  0.74400444  0.25000000  1
  O  O49  1  0.92798928  0.02824495  0.25000000  1
  O  O50  1  0.88713278  0.82105878  0.75000000  1
  O  O51  1  0.92382044  0.52575211  0.25000000  1
