# generated using pymatgen
data_Ho5Ti5O17
_symmetry_space_group_name_H-M   'P 1'
_cell_length_a   3.83330464
_cell_length_b   5.45092655
_cell_length_c   31.74936102
_cell_angle_alpha   90.00000000
_cell_angle_beta   90.00872524
_cell_angle_gamma   90.00000000
_symmetry_Int_Tables_number   1
_chemical_formula_structural   Ho5Ti5O17
_chemical_formula_sum   'Ho10 Ti10 O34'
_cell_volume   663.40486006
_cell_formula_units_Z   2
loop_
 _symmetry_equiv_pos_site_id
 _symmetry_equiv_pos_as_xyz
  1  'x, y, z'
loop_
 _atom_site_type_symbol
 _atom_site_label
 _atom_site_symmetry_multiplicity
 _atom_site_fract_x
 _atom_site_fract_y
 _atom_site_fract_z
 _atom_site_occupancy
  Ho  Ho0  1  0.01520518  0.17837818  0.01797389  1
  Ho  Ho1  1  0.01521196  0.73603214  0.69918604  1
  Ho  Ho2  1  0.01528409  0.26959768  0.79298652  1
  Ho  Ho3  1  0.01528923  0.32296127  0.56988502  1
  Ho  Ho4  1  0.01553733  0.79571930  0.89117907  1
  Ho  Ho5  1  0.51521196  0.26396786  0.19918604  1
  Ho  Ho6  1  0.51520518  0.82162182  0.51797389  1
  Ho  Ho7  1  0.51528409  0.73040232  0.29298652  1
  Ho  Ho8  1  0.51528923  0.67703873  0.06988502  1
  Ho  Ho9  1  0.51553733  0.20428170  0.39117907  1
  Ti  Ti10  1  0.01490076  0.75354962  0.20561323  1
  Ti  Ti11  1  0.01505190  0.25714374  0.29654904  1
  Ti  Ti12  1  0.01540951  0.75777429  0.38224212  1
  Ti  Ti13  1  0.01544655  0.28312997  0.46880735  1
  Ti  Ti14  1  0.51500640  0.77402729  0.61948353  1
  Ti  Ti15  1  0.51490076  0.24645038  0.70561323  1
  Ti  Ti16  1  0.51505190  0.74285626  0.79654904  1
  Ti  Ti17  1  0.51540951  0.24222571  0.88224212  1
  Ti  Ti18  1  0.51544655  0.71687003  0.96880735  1
  Ti  Ti19  1  0.01500640  0.22597271  0.11948353  1
  O  O20  1  0.01489476  0.19837021  0.71721492  1
  O  O21  1  0.01498963  0.69490585  0.79702977  1
  O  O22  1  0.01529167  0.20705327  0.87130111  1
  O  O23  1  0.01516246  0.45273597  0.07036366  1
  O  O24  1  0.01520996  0.95909804  0.08180227  1
  O  O25  1  0.01539492  0.75490373  0.96378312  1
  O  O26  1  0.01484961  0.54582475  0.16138184  1
  O  O27  1  0.01491234  0.07343144  0.17681674  1
  O  O28  1  0.01505174  0.95984207  0.26730299  1
  O  O29  1  0.01454149  0.45306202  0.24166168  1
  O  O30  1  0.51492015  0.88809182  0.85078171  1
  O  O31  1  0.51527037  0.39676636  0.82497231  1
  O  O32  1  0.51521362  0.44905252  0.00777570  1
  O  O33  1  0.51534136  0.94717955  0.01811576  1
  O  O34  1  0.51543765  0.01675917  0.92763140  1
  O  O35  1  0.51515000  0.53745311  0.91267571  1
  O  O36  1  0.51497335  0.27325485  0.12653353  1
  O  O37  1  0.51489476  0.80162979  0.21721492  1
  O  O38  1  0.51499063  0.30509415  0.29702977  1
  O  O39  1  0.51529167  0.79294673  0.37130111  1
  O  O40  1  0.51539492  0.24509627  0.46378312  1
  O  O41  1  0.51516246  0.54726403  0.57036366  1
  O  O42  1  0.51520996  0.04090196  0.58180227  1
  O  O43  1  0.51484961  0.45417525  0.66138184  1
  O  O44  1  0.51491234  0.92656856  0.67681674  1
  O  O45  1  0.51454149  0.54693798  0.74166168  1
  O  O46  1  0.51505174  0.04015793  0.76730299  1
  O  O47  1  0.01492015  0.11190818  0.35078171  1
  O  O48  1  0.01527037  0.60323364  0.32497231  1
  O  O49  1  0.01543765  0.98324083  0.42763140  1
  O  O50  1  0.01515000  0.46254689  0.41267571  1
  O  O51  1  0.01521362  0.55094748  0.50777570  1
  O  O52  1  0.01534136  0.05282045  0.51811576  1
  O  O53  1  0.01497335  0.72674515  0.62653353  1
