# generated using pymatgen
data_Fe3(OF)2
_symmetry_space_group_name_H-M   'P 1'
_cell_length_a   8.59487684
_cell_length_b   6.39906666
_cell_length_c   6.44475365
_cell_angle_alpha   89.85706386
_cell_angle_beta   90.06311871
_cell_angle_gamma   89.91335757
_symmetry_Int_Tables_number   1
_chemical_formula_structural   Fe3(OF)2
_chemical_formula_sum   'Fe12 O8 F8'
_cell_volume   354.45450421
_cell_formula_units_Z   4
loop_
 _symmetry_equiv_pos_site_id
 _symmetry_equiv_pos_as_xyz
  1  'x, y, z'
loop_
 _atom_site_type_symbol
 _atom_site_label
 _atom_site_symmetry_multiplicity
 _atom_site_fract_x
 _atom_site_fract_y
 _atom_site_fract_z
 _atom_site_occupancy
  Fe  Fe0  1  0.18093887  0.25007275  0.49938872  1
  Fe  Fe1  1  0.18085284  0.24997097  0.00042459  1
  Fe  Fe2  1  0.22057217  0.75022620  0.74988627  1
  Fe  Fe3  1  0.23040627  0.75012174  0.24993442  1
  Fe  Fe4  1  0.50008324  0.99994276  0.49980860  1
  Fe  Fe5  1  0.50030189  0.50015892  0.49972305  1
  Fe  Fe6  1  0.50055820  0.99986414  0.00042471  1
  Fe  Fe7  1  0.49968997  0.50015020  0.00019203  1
  Fe  Fe8  1  0.77898934  0.24991279  0.25004307  1
  Fe  Fe9  1  0.77889785  0.24992357  0.75010397  1
  Fe  Fe10  1  0.81927529  0.74870274  0.00164601  1
  Fe  Fe11  1  0.81937094  0.75103978  0.49826010  1
  O  O12  1  0.26979415  0.53200450  -0.00155919  1
  O  O13  1  0.27010749  0.96625041  0.00305848  1
  O  O14  1  0.27057144  0.96824941  0.50249892  1
  O  O15  1  0.26969686  0.53408839  0.49604053  1
  O  O16  1  0.72883788  0.03374295  0.50151512  1
  O  O17  1  0.72921130  0.03232534  0.00109593  1
  O  O18  1  0.72922402  0.46768064  0.49947272  1
  O  O19  1  0.72858968  0.46618551  0.99798781  1
  F  F20  1  0.01826451  0.25575096  0.24994613  1
  F  F21  1  0.01898286  0.24436663  0.74985211  1
  F  F22  1  0.48714818  0.25016356  0.75001167  1
  F  F23  1  0.48823481  0.24996977  0.25002401  1
  F  F24  1  0.51374075  0.74986770  0.25002375  1
  F  F25  1  0.50791666  0.75006767  0.74999261  1
  F  F26  1  0.97811424  0.75593309  0.24994123  1
  F  F27  1  0.98162831  0.74326492  0.75026564  1
