# generated using pymatgen
data_NaV2O5
_symmetry_space_group_name_H-M   'P 1'
_cell_length_a   3.72668655
_cell_length_b   5.06163090
_cell_length_c   11.71972822
_cell_angle_alpha   90.00000000
_cell_angle_beta   90.00000000
_cell_angle_gamma   90.00000000
_symmetry_Int_Tables_number   1
_chemical_formula_structural   NaV2O5
_chemical_formula_sum   'Na2 V4 O10'
_cell_volume   221.07054363
_cell_formula_units_Z   2
loop_
 _symmetry_equiv_pos_site_id
 _symmetry_equiv_pos_as_xyz
  1  'x, y, z'
loop_
 _atom_site_type_symbol
 _atom_site_label
 _atom_site_symmetry_multiplicity
 _atom_site_fract_x
 _atom_site_fract_y
 _atom_site_fract_z
 _atom_site_occupancy
  Na  Na0  1  0.00000000  0.40521755  0.52373423  1
  Na  Na1  1  0.49999900  0.59478345  0.02373423  1
  V  V2  1  0.00000000  0.10593648  0.15612975  1
  V  V3  1  0.49999900  0.89406452  0.65613075  1
  V  V4  1  0.00000000  0.89849910  0.85484166  1
  V  V5  1  0.49999900  0.10149890  0.35484166  1
  O  O6  1  0.49999900  0.42594393  0.37211691  1
  O  O7  1  -0.00000000  0.57405407  0.87211691  1
  O  O8  1  0.49999900  0.02792475  0.18572739  1
  O  O9  1  0.00000000  0.97207525  0.68572739  1
  O  O10  1  0.49999900  0.01959085  0.51665255  1
  O  O11  1  0.00000000  0.98040915  0.01665355  1
  O  O12  1  0.00000000  0.43015957  0.14049416  1
  O  O13  1  0.49999900  0.56984143  0.64049416  1
  O  O14  1  0.00000000  0.01008039  0.32226234  1
  O  O15  1  0.49999900  0.98991961  0.82226334  1
