# generated using pymatgen
data_NaO2
_symmetry_space_group_name_H-M   'P 1'
_cell_length_a   5.19512197
_cell_length_b   9.21828898
_cell_length_c   6.54575526
_cell_angle_alpha   89.89247176
_cell_angle_beta   90.21925106
_cell_angle_gamma   90.01604118
_symmetry_Int_Tables_number   1
_chemical_formula_structural   NaO2
_chemical_formula_sum   'Na8 O16'
_cell_volume   313.47424870
_cell_formula_units_Z   8
loop_
 _symmetry_equiv_pos_site_id
 _symmetry_equiv_pos_as_xyz
  1  'x, y, z'
loop_
 _atom_site_type_symbol
 _atom_site_label
 _atom_site_symmetry_multiplicity
 _atom_site_fract_x
 _atom_site_fract_y
 _atom_site_fract_z
 _atom_site_occupancy
  Na  Na0  1  0.65555667  0.38380069  0.12826359  1
  Na  Na1  1  0.15561606  0.61740202  0.36998311  1
  Na  Na2  1  0.34464203  0.11708103  0.63106085  1
  Na  Na3  1  0.84454578  0.88350938  0.87077786  1
  Na  Na4  1  0.34453980  0.61617305  0.86940825  1
  Na  Na5  1  0.84384636  0.38358526  0.62971929  1
  Na  Na6  1  0.65639809  0.88391111  0.37177276  1
  Na  Na7  1  0.15477882  0.11596825  0.12954429  1
  O  O8  1  0.67473890  0.08822891  0.13683146  1
  O  O9  1  0.17635983  0.91133677  0.36212093  1
  O  O10  1  0.32363312  0.41208455  0.63752553  1
  O  O11  1  0.82355355  0.58777494  0.86238138  1
  O  O12  1  0.32446245  0.91176686  0.86160849  1
  O  O13  1  0.82389024  0.08726520  0.63829058  1
  O  O14  1  0.67716816  0.58693144  0.36227602  1
  O  O15  1  0.17578586  0.41258098  0.13842151  1
  O  O16  1  0.43301055  0.34023579  0.79857673  1
  O  O17  1  0.93229534  0.66014900  0.70296498  1
  O  O18  1  0.56742052  0.16029397  0.29750975  1
  O  O19  1  0.06617501  0.84046094  0.20107430  1
  O  O20  1  0.56749672  0.66056021  0.20295828  1
  O  O21  1  0.06757292  0.33932077  0.29720240  1
  O  O22  1  0.43325250  0.83943871  0.70215799  1
  O  O23  1  0.93326274  0.16014015  0.79756866  1
