# generated using pymatgen
data_LiP3N2O11
_symmetry_space_group_name_H-M   'P 1'
_cell_length_a   8.46919369
_cell_length_b   16.60255156
_cell_length_c   7.61765807
_cell_angle_alpha   90.00000000
_cell_angle_beta   104.98787698
_cell_angle_gamma   90.00000000
_symmetry_Int_Tables_number   1
_chemical_formula_structural   LiP3N2O11
_chemical_formula_sum   'Li4 P12 N8 O44'
_cell_volume   1034.68169795
_cell_formula_units_Z   4
loop_
 _symmetry_equiv_pos_site_id
 _symmetry_equiv_pos_as_xyz
  1  'x, y, z'
loop_
 _atom_site_type_symbol
 _atom_site_label
 _atom_site_symmetry_multiplicity
 _atom_site_fract_x
 _atom_site_fract_y
 _atom_site_fract_z
 _atom_site_occupancy
  Li  Li0  1  0.41617591  0.22303472  0.82481665  1
  Li  Li1  1  0.58382409  0.72303472  0.67518335  1
  Li  Li2  1  0.58382409  0.77696528  0.17518335  1
  Li  Li3  1  0.41617591  0.27696528  0.32481665  1
  P  P4  1  0.49058980  0.11841286  0.14570806  1
  P  P5  1  0.50941020  0.61841286  0.35429194  1
  P  P6  1  0.50941020  0.88158714  0.85429194  1
  P  P7  1  0.49058980  0.38158714  0.64570806  1
  P  P8  1  0.16686836  0.10133860  0.88880473  1
  P  P9  1  0.83313164  0.60133860  0.61119527  1
  P  P10  1  0.83313164  0.89866140  0.11119527  1
  P  P11  1  0.16686836  0.39866140  0.38880473  1
  P  P12  1  0.75151301  0.01303436  0.36385885  1
  P  P13  1  0.24848699  0.51303436  0.13614115  1
  P  P14  1  0.24848699  0.98696564  0.63614115  1
  P  P15  1  0.75151301  0.48696564  0.86385885  1
  N  N16  1  0.02375418  0.18862511  0.11612674  1
  N  N17  1  0.97624582  0.68862511  0.38387326  1
  N  N18  1  0.97624582  0.81137489  0.88387326  1
  N  N19  1  0.02375418  0.31137489  0.61612674  1
  N  N20  1  0.72219836  0.37377097  0.13282536  1
  N  N21  1  0.27780164  0.87377097  0.36717464  1
  N  N22  1  0.27780164  0.62622903  0.86717464  1
  N  N23  1  0.72219836  0.12622903  0.63282536  1
  O  O24  1  0.55064591  0.15158926  0.99181147  1
  O  O25  1  0.44935409  0.65158926  0.50818853  1
  O  O26  1  0.44935409  0.84841074  0.00818853  1
  O  O27  1  0.55064591  0.34841074  0.49181147  1
  O  O28  1  0.48567888  0.17209883  0.30228170  1
  O  O29  1  0.51432112  0.67209883  0.19771830  1
  O  O30  1  0.51432112  0.82790117  0.69771830  1
  O  O31  1  0.48567888  0.32790117  0.80228170  1
  O  O32  1  0.30655593  0.07900246  0.06699653  1
  O  O33  1  0.69344407  0.57900246  0.43300347  1
  O  O34  1  0.69344407  0.92099754  0.93300347  1
  O  O35  1  0.30655593  0.42099754  0.56699653  1
  O  O36  1  0.14041024  0.01983982  0.77139430  1
  O  O37  1  0.85958976  0.51983982  0.72860570  1
  O  O38  1  0.85958976  0.98016018  0.22860570  1
  O  O39  1  0.14041024  0.48016018  0.27139430  1
  O  O40  1  0.20800178  0.17348854  0.79304044  1
  O  O41  1  0.79199822  0.67348854  0.70695956  1
  O  O42  1  0.79199822  0.82651146  0.20695956  1
  O  O43  1  0.20800178  0.32651146  0.29304044  1
  O  O44  1  0.00356858  0.10837267  0.94745325  1
  O  O45  1  0.99643142  0.60837267  0.55254675  1
  O  O46  1  0.99643142  0.89162733  0.05254675  1
  O  O47  1  0.00356858  0.39162733  0.44745325  1
  O  O48  1  0.27775843  0.04820107  0.50754848  1
  O  O49  1  0.72224157  0.54820107  0.99245152  1
  O  O50  1  0.72224157  0.95179893  0.49245152  1
  O  O51  1  0.27775843  0.45179893  0.00754848  1
  O  O52  1  0.83227267  0.09302395  0.44208004  1
  O  O53  1  0.16772733  0.59302395  0.05791996  1
  O  O54  1  0.16772733  0.90697605  0.55791996  1
  O  O55  1  0.83227267  0.40697605  0.94208004  1
  O  O56  1  0.58163332  0.03481948  0.21612924  1
  O  O57  1  0.41836668  0.53481948  0.28387076  1
  O  O58  1  0.41836668  0.96518052  0.78387076  1
  O  O59  1  0.58163332  0.46518052  0.71612924  1
  O  O60  1  0.65462280  0.42334447  0.18336516  1
  O  O61  1  0.34537720  0.92334447  0.31663484  1
  O  O62  1  0.34537720  0.57665553  0.81663484  1
  O  O63  1  0.65462280  0.07665553  0.68336516  1
  O  O64  1  0.89809016  0.28530620  0.60591429  1
  O  O65  1  0.10190984  0.78530620  0.89408571  1
  O  O66  1  0.10190984  0.71469380  0.39408571  1
  O  O67  1  0.89809016  0.21469380  0.10591429  1
