# generated using pymatgen
data_Fe3Co(BiO3)4
_symmetry_space_group_name_H-M   'P 1'
_cell_length_a   11.49116287
_cell_length_b   5.71858031
_cell_length_c   5.89339079
_cell_angle_alpha   58.27103789
_cell_angle_beta   57.37344185
_cell_angle_gamma   59.79585523
_symmetry_Int_Tables_number   1
_chemical_formula_structural   Fe3Co(BiO3)4
_chemical_formula_sum   'Fe3 Co1 Bi4 O12'
_cell_volume   264.06650650
_cell_formula_units_Z   1
loop_
 _symmetry_equiv_pos_site_id
 _symmetry_equiv_pos_as_xyz
  1  'x, y, z'
loop_
 _atom_site_type_symbol
 _atom_site_label
 _atom_site_symmetry_multiplicity
 _atom_site_fract_x
 _atom_site_fract_y
 _atom_site_fract_z
 _atom_site_occupancy
  Fe  Fe0  1  0.35685663  0.71360739  0.74541687  1
  Fe  Fe1  1  0.60932434  0.22167312  0.23613891  1
  Fe  Fe2  1  0.85300630  0.74123414  0.70892532  1
  Co  Co3  1  0.11186830  0.19668112  0.22673789  1
  Bi  Bi4  1  0.98983818  0.02106580  0.00175693  1
  Bi  Bi5  1  0.25142092  0.46835147  0.55165736  1
  Bi  Bi6  1  0.48060018  0.02578169  0.04138538  1
  Bi  Bi7  1  0.75989935  0.47010518  0.51598560  1
  O  O8  1  0.22554348  0.90987343  0.49791994  1
  O  O9  1  0.99977860  0.46502021  0.87398673  1
  O  O10  1  0.47917784  0.45598641  0.47655225  1
  O  O11  1  0.21064061  0.97087804  0.97201237  1
  O  O12  1  0.25093548  0.40587610  0.96173050  1
  O  O13  1  0.47506249  0.97247249  0.44809916  1
  O  O14  1  0.74640295  0.92903828  0.42895766  1
  O  O15  1  0.47405991  0.44918730  0.98545884  1
  O  O16  1  0.97908820  0.48273232  0.38907435  1
  O  O17  1  0.71287901  0.99237299  0.93099420  1
  O  O18  1  0.75165813  0.43676551  0.91659944  1
  O  O19  1  0.95995910  0.02729702  0.41061027  1
