# generated using pymatgen
data_ThAg3
_symmetry_space_group_name_H-M   'P 1'
_cell_length_a   6.56283049
_cell_length_b   6.56283142
_cell_length_c   4.87680929
_cell_angle_alpha   90.00000000
_cell_angle_beta   90.00000000
_cell_angle_gamma   120.00000100
_symmetry_Int_Tables_number   1
_chemical_formula_structural   ThAg3
_chemical_formula_sum   'Th2 Ag6'
_cell_volume   181.90675869
_cell_formula_units_Z   2
loop_
 _symmetry_equiv_pos_site_id
 _symmetry_equiv_pos_as_xyz
  1  'x, y, z'
loop_
 _atom_site_type_symbol
 _atom_site_label
 _atom_site_symmetry_multiplicity
 _atom_site_fract_x
 _atom_site_fract_y
 _atom_site_fract_z
 _atom_site_occupancy
  Th  Th0  1  0.33333400  0.66666800  0.75000200  1
  Th  Th1  1  0.66666600  0.33333200  0.25000100  1
  Ag  Ag2  1  0.15116179  0.30232357  0.25000100  1
  Ag  Ag3  1  0.69767643  0.84883721  0.25000100  1
  Ag  Ag4  1  0.15116079  0.84883721  0.25000100  1
  Ag  Ag5  1  0.84883821  0.69767643  0.75000200  1
  Ag  Ag6  1  0.30232257  0.15116079  0.75000200  1
  Ag  Ag7  1  0.84883721  0.15116079  0.75000200  1
