# generated using pymatgen
data_MgPt5
_symmetry_space_group_name_H-M   'P 1'
_cell_length_a   4.56253540
_cell_length_b   4.89226258
_cell_length_c   4.89479956
_cell_angle_alpha   59.97481569
_cell_angle_beta   90.00167805
_cell_angle_gamma   90.00186379
_symmetry_Int_Tables_number   1
_chemical_formula_structural   MgPt5
_chemical_formula_sum   'Mg1 Pt5'
_cell_volume   94.59567510
_cell_formula_units_Z   1
loop_
 _symmetry_equiv_pos_site_id
 _symmetry_equiv_pos_as_xyz
  1  'x, y, z'
loop_
 _atom_site_type_symbol
 _atom_site_label
 _atom_site_symmetry_multiplicity
 _atom_site_fract_x
 _atom_site_fract_y
 _atom_site_fract_z
 _atom_site_occupancy
  Mg  Mg0  1  0.50000249  0.66663413  0.33340942  1
  Pt  Pt1  1  0.99996241  0.32665570  0.33331177  1
  Pt  Pt2  1  0.49999648  0.00014960  0.66678814  1
  Pt  Pt3  1  0.00003599  0.66670091  0.67309700  1
  Pt  Pt4  1  0.00000015  0.00678724  0.99321781  1
  Pt  Pt5  1  0.50000248  0.33307741  0.00017286  1
