# generated using pymatgen
data_Sc3Bi
_symmetry_space_group_name_H-M   'P 1'
_cell_length_a   6.52834456
_cell_length_b   6.52834362
_cell_length_c   5.17358119
_cell_angle_alpha   90.00000000
_cell_angle_beta   90.00000000
_cell_angle_gamma   120.00000476
_symmetry_Int_Tables_number   1
_chemical_formula_structural   Sc3Bi
_chemical_formula_sum   'Sc6 Bi2'
_cell_volume   190.95364529
_cell_formula_units_Z   2
loop_
 _symmetry_equiv_pos_site_id
 _symmetry_equiv_pos_as_xyz
  1  'x, y, z'
loop_
 _atom_site_type_symbol
 _atom_site_label
 _atom_site_symmetry_multiplicity
 _atom_site_fract_x
 _atom_site_fract_y
 _atom_site_fract_z
 _atom_site_occupancy
  Sc  Sc0  1  0.16491339  0.32982677  0.25000000  1
  Sc  Sc1  1  0.67017423  0.83508761  0.25000000  1
  Sc  Sc2  1  0.16491339  0.83508761  0.25000000  1
  Sc  Sc3  1  0.83508861  0.67017523  0.75000100  1
  Sc  Sc4  1  0.32982677  0.16491239  0.75000100  1
  Sc  Sc5  1  0.83508661  0.16491239  0.75000100  1
  Bi  Bi6  1  0.33333400  0.66666700  0.75000100  1
  Bi  Bi7  1  0.66666600  0.33333300  0.25000000  1
