# generated using pymatgen
data_Pu3Au
_symmetry_space_group_name_H-M   'P 1'
_cell_length_a   6.59494043
_cell_length_b   6.59107556
_cell_length_c   5.32638333
_cell_angle_alpha   90.00614915
_cell_angle_beta   90.00406856
_cell_angle_gamma   120.06856395
_symmetry_Int_Tables_number   1
_chemical_formula_structural   Pu3Au
_chemical_formula_sum   'Pu6 Au2'
_cell_volume   200.36863689
_cell_formula_units_Z   2
loop_
 _symmetry_equiv_pos_site_id
 _symmetry_equiv_pos_as_xyz
  1  'x, y, z'
loop_
 _atom_site_type_symbol
 _atom_site_label
 _atom_site_symmetry_multiplicity
 _atom_site_fract_x
 _atom_site_fract_y
 _atom_site_fract_z
 _atom_site_occupancy
  Pu  Pu0  1  0.17237300  0.34459169  0.25001285  1
  Pu  Pu1  1  0.65537384  0.82762453  0.25000300  1
  Pu  Pu2  1  0.17230231  0.82771766  0.24999368  1
  Pu  Pu3  1  0.82759966  0.65519979  0.74998438  1
  Pu  Pu4  1  0.34474576  0.17243587  0.74999650  1
  Pu  Pu5  1  0.82770599  0.17245333  0.75000699  1
  Au  Au6  1  0.33329115  0.66667671  0.75003587  1
  Au  Au7  1  0.66660429  0.33329642  0.24996272  1
