# generated using pymatgen
data_YSi3
_symmetry_space_group_name_H-M   'P 1'
_cell_length_a   7.23353620
_cell_length_b   7.23353620
_cell_length_c   7.45692503
_cell_angle_alpha   119.01386810
_cell_angle_beta   119.01386810
_cell_angle_gamma   90.00000000
_symmetry_Int_Tables_number   1
_chemical_formula_structural   YSi3
_chemical_formula_sum   'Y4 Si12'
_cell_volume   283.92107723
_cell_formula_units_Z   4
loop_
 _symmetry_equiv_pos_site_id
 _symmetry_equiv_pos_as_xyz
  1  'x, y, z'
loop_
 _atom_site_type_symbol
 _atom_site_label
 _atom_site_symmetry_multiplicity
 _atom_site_fract_x
 _atom_site_fract_y
 _atom_site_fract_z
 _atom_site_occupancy
  Y  Y0  1  0.17097723  0.17097723  0.34195445  1
  Y  Y1  1  0.82902277  0.82902277  0.65804555  1
  Y  Y2  1  0.25000000  0.75000000  0.50000000  1
  Y  Y3  1  0.75000000  0.25000000  0.50000000  1
  Si  Si4  1  1.00000000  0.32827525  1.00000000  1
  Si  Si5  1  0.00000000  0.67172475  0.00000000  1
  Si  Si6  1  0.32827525  1.00000000  1.00000000  1
  Si  Si7  1  0.67172475  0.00000000  0.00000000  1
  Si  Si8  1  0.79841333  0.42586924  0.22428258  1
  Si  Si9  1  0.42586924  0.79841333  0.22428258  1
  Si  Si10  1  0.42586924  0.42586924  0.22428258  1
  Si  Si11  1  0.79841333  0.79841333  0.22428258  1
  Si  Si12  1  0.20158667  0.57413076  0.77571742  1
  Si  Si13  1  0.57413076  0.20158667  0.77571742  1
  Si  Si14  1  0.57413076  0.57413076  0.77571742  1
  Si  Si15  1  0.20158667  0.20158667  0.77571742  1
