# generated using pymatgen
data_Zn3In
_symmetry_space_group_name_H-M   'P 1'
_cell_length_a   7.00075987
_cell_length_b   7.00075951
_cell_length_c   4.53184039
_cell_angle_alpha   90.00000000
_cell_angle_beta   90.00000000
_cell_angle_gamma   136.99592370
_symmetry_Int_Tables_number   1
_chemical_formula_structural   Zn3In
_chemical_formula_sum   'Zn6 In2'
_cell_volume   151.48910801
_cell_formula_units_Z   2
loop_
 _symmetry_equiv_pos_site_id
 _symmetry_equiv_pos_as_xyz
  1  'x, y, z'
loop_
 _atom_site_type_symbol
 _atom_site_label
 _atom_site_symmetry_multiplicity
 _atom_site_fract_x
 _atom_site_fract_y
 _atom_site_fract_z
 _atom_site_occupancy
  Zn  Zn0  1  0.88460343  0.11539857  0.74999900  1
  Zn  Zn1  1  0.32892119  0.18451965  0.74999900  1
  Zn  Zn2  1  0.81547735  0.67107581  0.74999900  1
  Zn  Zn3  1  0.11539657  0.88460043  0.24999900  1
  Zn  Zn4  1  0.67107781  0.81547935  0.24999900  1
  Zn  Zn5  1  0.18452365  0.32892319  0.24999900  1
  In  In6  1  0.70532499  0.29467301  0.25000100  1
  In  In7  1  0.29467601  0.70532599  0.74999900  1
