# generated using pymatgen
data_CsO3
_symmetry_space_group_name_H-M   'P 1'
_cell_length_a   6.48965461
_cell_length_b   6.90130119
_cell_length_c   8.14287493
_cell_angle_alpha   75.55243104
_cell_angle_beta   90.00000000
_cell_angle_gamma   90.00000000
_symmetry_Int_Tables_number   1
_chemical_formula_structural   CsO3
_chemical_formula_sum   'Cs4 O12'
_cell_volume   353.16243852
_cell_formula_units_Z   4
loop_
 _symmetry_equiv_pos_site_id
 _symmetry_equiv_pos_as_xyz
  1  'x, y, z'
loop_
 _atom_site_type_symbol
 _atom_site_label
 _atom_site_symmetry_multiplicity
 _atom_site_fract_x
 _atom_site_fract_y
 _atom_site_fract_z
 _atom_site_occupancy
  Cs  Cs0  1  0.74593246  0.35246149  0.41492815  1
  Cs  Cs1  1  0.24593246  0.14753851  0.08507185  1
  Cs  Cs2  1  0.25406754  0.64753851  0.58507185  1
  Cs  Cs3  1  0.75406754  0.85246149  0.91492815  1
  O  O4  1  0.27946948  0.61254805  0.12220596  1
  O  O5  1  0.77946948  0.88745195  0.37779404  1
  O  O6  1  0.72053052  0.38745195  0.87779404  1
  O  O7  1  0.22053052  0.11254805  0.62220596  1
  O  O8  1  0.24865493  0.21840235  0.45727800  1
  O  O9  1  0.74865493  0.28159765  0.04272200  1
  O  O10  1  0.75134507  0.78159765  0.54272200  1
  O  O11  1  0.25134507  0.71840235  0.95727800  1
  O  O12  1  0.42342060  0.69371185  0.20830487  1
  O  O13  1  0.92342060  0.80628815  0.29169513  1
  O  O14  1  0.57657940  0.30628815  0.79169513  1
  O  O15  1  0.07657940  0.19371185  0.70830487  1
