# generated using pymatgen
data_Tb2Mn3Cu9P7
_symmetry_space_group_name_H-M   'P 1'
_cell_length_a   3.75229836
_cell_length_b   9.43332133
_cell_length_c   9.43472693
_cell_angle_alpha   119.59913522
_cell_angle_beta   90.00000000
_cell_angle_gamma   90.00000000
_symmetry_Int_Tables_number   1
_chemical_formula_structural   Tb2Mn3Cu9P7
_chemical_formula_sum   'Tb2 Mn3 Cu9 P7'
_cell_volume   290.37692648
_cell_formula_units_Z   1
loop_
 _symmetry_equiv_pos_site_id
 _symmetry_equiv_pos_as_xyz
  1  'x, y, z'
loop_
 _atom_site_type_symbol
 _atom_site_label
 _atom_site_symmetry_multiplicity
 _atom_site_fract_x
 _atom_site_fract_y
 _atom_site_fract_z
 _atom_site_occupancy
  Tb  Tb0  1  0.00000000  0.66538634  0.33032064  1
  Tb  Tb1  1  0.50000000  0.33461456  0.67072112  1
  Mn  Mn2  1  0.50000000  0.12720790  0.91979197  1
  Mn  Mn3  1  0.50000000  0.08625780  0.21235529  1
  Mn  Mn4  1  0.50000000  0.78171499  0.86349931  1
  Cu  Cu5  1  0.00000000  0.38451850  0.95375304  1
  Cu  Cu6  1  0.00000000  0.04756765  0.43401673  1
  Cu  Cu7  1  -0.00000000  0.56614561  0.61628905  1
  Cu  Cu8  1  0.00000000  0.87901311  0.71413953  1
  Cu  Cu9  1  0.00000000  0.28027788  0.16564890  1
  Cu  Cu10  1  0.00000000  0.84118466  0.11509664  1
  Cu  Cu11  1  0.50000000  0.96244174  0.57606903  1
  Cu  Cu12  1  0.50000000  0.42573619  0.38643028  1
  Cu  Cu13  1  0.50000000  0.61684979  0.04248928  1
  P  P14  1  0.00000000  0.12971631  0.72200726  1
  P  P15  1  0.00000000  0.28285492  0.41424127  1
  P  P16  1  0.00000000  0.59080975  0.87330215  1
  P  P17  1  0.50000000  0.70530823  0.58123934  1
  P  P18  1  0.50000000  0.41221072  0.12123333  1
  P  P19  1  0.50000000  0.87971649  0.29220086  1
  P  P20  1  0.00000000  0.00046684  0.99515497  1
