# generated using pymatgen
data_ZnN6
_symmetry_space_group_name_H-M   'P 1'
_cell_length_a   3.55660016
_cell_length_b   7.13099673
_cell_length_c   16.69050409
_cell_angle_alpha   90.00000000
_cell_angle_beta   90.00000000
_cell_angle_gamma   94.36008204
_symmetry_Int_Tables_number   1
_chemical_formula_structural   ZnN6
_chemical_formula_sum   'Zn4 N24'
_cell_volume   422.08123711
_cell_formula_units_Z   4
loop_
 _symmetry_equiv_pos_site_id
 _symmetry_equiv_pos_as_xyz
  1  'x, y, z'
loop_
 _atom_site_type_symbol
 _atom_site_label
 _atom_site_symmetry_multiplicity
 _atom_site_fract_x
 _atom_site_fract_y
 _atom_site_fract_z
 _atom_site_occupancy
  Zn  Zn0  1  0.53742242  0.60060077  0.91602093  1
  Zn  Zn1  1  0.03742242  0.10060077  0.58397907  1
  Zn  Zn2  1  0.46257758  0.39939923  0.08397907  1
  Zn  Zn3  1  0.96257758  0.89939923  0.41602093  1
  N  N4  1  0.04581680  0.66378558  0.86454975  1
  N  N5  1  0.54581680  0.16378558  0.63545025  1
  N  N6  1  0.95418320  0.33621442  0.13545025  1
  N  N7  1  0.45418320  0.83621442  0.36454975  1
  N  N8  1  0.05248322  0.75957237  0.80328034  1
  N  N9  1  0.55248322  0.25957237  0.69671966  1
  N  N10  1  0.94751678  0.24042763  0.19671966  1
  N  N11  1  0.44751678  0.74042763  0.30328034  1
  N  N12  1  0.05522959  0.84929685  0.74605200  1
  N  N13  1  0.55522959  0.34929685  0.75394800  1
  N  N14  1  0.94477041  0.15070315  0.25394800  1
  N  N15  1  0.44477041  0.65070315  0.24605200  1
  N  N16  1  0.49657956  0.33378848  0.96380376  1
  N  N17  1  0.99657956  0.83378848  0.53619624  1
  N  N18  1  0.50342044  0.66621152  0.03619624  1
  N  N19  1  0.00342044  0.16621152  0.46380376  1
  N  N20  1  0.57602249  0.18581821  0.93422448  1
  N  N21  1  0.07602249  0.68581821  0.56577552  1
  N  N22  1  0.42397751  0.81418179  0.06577552  1
  N  N23  1  0.92397751  0.31418179  0.43422448  1
  N  N24  1  0.64921121  0.04525251  0.90641521  1
  N  N25  1  0.14921121  0.54525251  0.59358479  1
  N  N26  1  0.35078879  0.95474749  0.09358479  1
  N  N27  1  0.85078879  0.45474749  0.40641521  1
