# generated using pymatgen
data_CdH10S2(NO2)4
_symmetry_space_group_name_H-M   'P 1'
_cell_length_a   5.56892390
_cell_length_b   6.04758550
_cell_length_c   7.48303909
_cell_angle_alpha   91.21600228
_cell_angle_beta   103.70710029
_cell_angle_gamma   100.38132360
_symmetry_Int_Tables_number   1
_chemical_formula_structural   CdH10S2(NO2)4
_chemical_formula_sum   'Cd1 H10 S2 N4 O8'
_cell_volume   240.29297693
_cell_formula_units_Z   1
loop_
 _symmetry_equiv_pos_site_id
 _symmetry_equiv_pos_as_xyz
  1  'x, y, z'
loop_
 _atom_site_type_symbol
 _atom_site_label
 _atom_site_symmetry_multiplicity
 _atom_site_fract_x
 _atom_site_fract_y
 _atom_site_fract_z
 _atom_site_occupancy
  Cd  Cd0  1  0.00000000  0.00000000  -0.00000000  1
  H  H1  1  0.86801060  0.08082968  0.61369696  1
  H  H2  1  0.13198940  0.91917032  0.38630304  1
  H  H3  1  0.08246763  0.30291166  0.71712802  1
  H  H4  1  0.91753237  0.69708834  0.28287198  1
  H  H5  1  0.69869153  0.39574395  0.58655768  1
  H  H6  1  0.30130847  0.60425605  0.41344232  1
  H  H7  1  0.55862607  0.19948067  0.71174848  1
  H  H8  1  0.44137393  0.80051933  0.28825152  1
  H  H9  1  0.76425224  0.43357634  0.82317235  1
  H  H10  1  0.23574776  0.56642366  0.17682765  1
  S  S11  1  0.35707055  0.74521865  0.77490124  1
  S  S12  1  0.64292945  0.25478135  0.22509876  1
  N  N13  1  0.92339844  0.19000781  0.72932819  1
  N  N14  1  0.07660156  0.80999219  0.27067181  1
  N  N15  1  0.72340649  0.31726044  0.71229531  1
  N  N16  1  0.27659351  0.68273956  0.28770469  1
  O  O17  1  0.61065305  0.75827508  0.90102137  1
  O  O18  1  0.38934695  0.24172492  0.09897863  1
  O  O19  1  0.16086932  0.71195916  0.88452781  1
  O  O20  1  0.83913068  0.28804084  0.11547219  1
  O  O21  1  0.34168191  0.95303002  0.67204845  1
  O  O22  1  0.65831809  0.04696998  0.32795155  1
  O  O23  1  0.30440589  0.54438022  0.64150817  1
  O  O24  1  0.69559411  0.45561978  0.35849183  1
