# generated using pymatgen
data_Ag3RuO4
_symmetry_space_group_name_H-M   'P 1'
_cell_length_a   9.05781015
_cell_length_b   9.05781015
_cell_length_c   12.41577789
_cell_angle_alpha   109.32445569
_cell_angle_beta   104.93350836
_cell_angle_gamma   101.13782913
_symmetry_Int_Tables_number   1
_chemical_formula_structural   Ag3RuO4
_chemical_formula_sum   'Ag24 Ru8 O32'
_cell_volume   884.41419100
_cell_formula_units_Z   8
loop_
 _symmetry_equiv_pos_site_id
 _symmetry_equiv_pos_as_xyz
  1  'x, y, z'
loop_
 _atom_site_type_symbol
 _atom_site_label
 _atom_site_symmetry_multiplicity
 _atom_site_fract_x
 _atom_site_fract_y
 _atom_site_fract_z
 _atom_site_occupancy
  Ag  Ag0  1  0.95114520  0.20114520  0.75000000  1
  Ag  Ag1  1  0.04885480  0.79885480  0.25000000  1
  Ag  Ag2  1  0.13049371  0.92078130  0.72863845  1
  Ag  Ag3  1  0.69214285  0.40185527  0.77136155  1
  Ag  Ag4  1  0.86950629  0.07921870  0.27136155  1
  Ag  Ag5  1  0.30785715  0.59814473  0.22863845  1
  Ag  Ag6  1  0.05592670  0.53317933  0.73880795  1
  Ag  Ag7  1  0.29437138  0.31711874  0.76119205  1
  Ag  Ag8  1  0.94407330  0.46682067  0.26119205  1
  Ag  Ag9  1  0.70562862  0.68288126  0.23880795  1
  Ag  Ag10  1  0.60213218  0.35213218  0.25000000  1
  Ag  Ag11  1  0.39786782  0.64786782  0.75000000  1
  Ag  Ag12  1  0.00000000  -0.00000000  0.50000000  1
  Ag  Ag13  1  0.00000000  0.50000000  -0.00000000  1
  Ag  Ag14  1  0.11704890  0.37496751  0.48941107  1
  Ag  Ag15  1  0.38555644  0.62763783  0.01058893  1
  Ag  Ag16  1  0.88295110  0.62503249  0.51058893  1
  Ag  Ag17  1  0.61444356  0.37236217  0.98941107  1
  Ag  Ag18  1  0.50000000  0.50000000  0.50000000  1
  Ag  Ag19  1  0.50000000  -0.00000000  -0.00000000  1
  Ag  Ag20  1  0.45759902  0.92972325  0.22511827  1
  Ag  Ag21  1  0.20460498  0.23248076  0.27488173  1
  Ag  Ag22  1  0.54240098  0.07027675  0.77488173  1
  Ag  Ag23  1  0.79539502  0.76751924  0.72511827  1
  Ru  Ru24  1  0.72080671  0.24359256  0.49183460  1
  Ru  Ru25  1  0.25175797  0.22897212  0.00816540  1
  Ru  Ru26  1  0.27919329  0.75640744  0.50816540  1
  Ru  Ru27  1  0.74824203  0.77102788  0.99183460  1
  Ru  Ru28  1  0.62227012  0.89155189  0.49865055  1
  Ru  Ru29  1  0.89290134  0.12361957  0.00134945  1
  Ru  Ru30  1  0.37772988  0.10844811  0.50134945  1
  Ru  Ru31  1  0.10709866  0.87638043  0.99865055  1
  O  O32  1  0.17816688  0.77565126  0.10564640  1
  O  O33  1  0.17000487  0.07252049  0.39435360  1
  O  O34  1  0.82183312  0.22434874  0.89435360  1
  O  O35  1  0.82999513  0.92747951  0.60564640  1
  O  O36  1  0.61967170  0.13209054  0.59106429  1
  O  O37  1  0.04102625  0.02860741  0.90893571  1
  O  O38  1  0.38032830  0.86790946  0.40893571  1
  O  O39  1  0.95897375  0.97139259  0.09106429  1
  O  O40  1  0.94518294  0.28330319  0.58542704  1
  O  O41  1  0.19787615  0.35975590  0.91457296  1
  O  O42  1  0.05481706  0.71669681  0.41457296  1
  O  O43  1  0.80212385  0.64024410  0.08542704  1
  O  O44  1  0.72233194  0.46144570  0.59033036  1
  O  O45  1  0.37111535  0.13200158  0.90966964  1
  O  O46  1  0.27766806  0.53855430  0.40966964  1
  O  O47  1  0.62888465  0.86799842  0.09033036  1
  O  O48  1  0.69410212  0.00477923  0.39795887  1
  O  O49  1  0.10682037  0.29614326  0.10204113  1
  O  O50  1  0.30589788  0.99522077  0.60204113  1
  O  O51  1  0.89317963  0.70385674  0.89795887  1
  O  O52  1  0.77713505  0.29614235  0.36935825  1
  O  O53  1  0.42678410  0.40777680  0.13064175  1
  O  O54  1  0.22286495  0.70385765  0.63064175  1
  O  O55  1  0.57321590  0.59222320  0.86935825  1
  O  O56  1  0.60322427  0.68874665  0.38221806  1
  O  O57  1  0.80652859  0.22100621  0.11778194  1
  O  O58  1  0.39677573  0.31125335  0.61778194  1
  O  O59  1  0.19347141  0.77899379  0.88221806  1
  O  O60  1  0.28652689  0.07680803  0.09954228  1
  O  O61  1  0.47726575  0.18698461  0.40045772  1
  O  O62  1  0.71347311  0.92319197  0.90045772  1
  O  O63  1  0.52273425  0.81301539  0.59954228  1
