# generated using pymatgen
data_H3S
_symmetry_space_group_name_H-M   'P 1'
_cell_length_a   5.28225190
_cell_length_b   9.03786979
_cell_length_c   9.03786979
_cell_angle_alpha   91.47861160
_cell_angle_beta   90.00000000
_cell_angle_gamma   90.00000000
_symmetry_Int_Tables_number   1
_chemical_formula_structural   H3S
_chemical_formula_sum   'H24 S8'
_cell_volume   431.32699070
_cell_formula_units_Z   8
loop_
 _symmetry_equiv_pos_site_id
 _symmetry_equiv_pos_as_xyz
  1  'x, y, z'
loop_
 _atom_site_type_symbol
 _atom_site_label
 _atom_site_symmetry_multiplicity
 _atom_site_fract_x
 _atom_site_fract_y
 _atom_site_fract_z
 _atom_site_occupancy
  H  H0  1  0.25203922  0.66565527  0.99873174  1
  H  H1  1  0.25203922  0.33434473  0.00126826  1
  H  H2  1  0.24796078  0.00126826  0.33434473  1
  H  H3  1  0.24796078  0.99873174  0.66565527  1
  H  H4  1  0.74796078  0.33434473  0.00126826  1
  H  H5  1  0.74796078  0.66565527  0.99873174  1
  H  H6  1  0.75203922  0.99873174  0.66565527  1
  H  H7  1  0.75203922  0.00126826  0.33434473  1
  H  H8  1  -0.00000000  0.52886936  0.84364245  1
  H  H9  1  0.00000000  0.47113064  0.15635755  1
  H  H10  1  0.50000000  0.15635755  0.47113064  1
  H  H11  1  0.50000000  0.84364245  0.52886936  1
  H  H12  1  0.50000000  0.53923341  0.15557322  1
  H  H13  1  0.50000000  0.46076659  0.84442678  1
  H  H14  1  -0.00000000  0.84442678  0.46076659  1
  H  H15  1  0.00000000  0.15557322  0.53923341  1
  H  H16  1  0.17912703  0.00000000  -0.00000000  1
  H  H17  1  0.32087297  0.00000000  -0.00000000  1
  H  H18  1  0.82087297  0.00000000  -0.00000000  1
  H  H19  1  0.67912703  0.00000000  -0.00000000  1
  H  H20  1  0.25000000  0.52969042  0.52969042  1
  H  H21  1  0.25000000  0.47030958  0.47030958  1
  H  H22  1  0.75000000  0.47030958  0.47030958  1
  H  H23  1  0.75000000  0.52969042  0.52969042  1
  S  S24  1  -0.00000000  0.67391057  0.88575126  1
  S  S25  1  -0.00000000  0.32608943  0.11424874  1
  S  S26  1  0.50000000  0.11424874  0.32608943  1
  S  S27  1  0.50000000  0.88575126  0.67391057  1
  S  S28  1  0.50000000  0.68099379  0.11048112  1
  S  S29  1  0.50000000  0.31900621  0.88951888  1
  S  S30  1  -0.00000000  0.88951888  0.31900621  1
  S  S31  1  -0.00000000  0.11048112  0.68099379  1
