# generated using pymatgen
data_NaBeSi3O8
_symmetry_space_group_name_H-M   'P 1'
_cell_length_a   7.41117484
_cell_length_b   12.79872010
_cell_length_c   13.83893318
_cell_angle_alpha   90.00000000
_cell_angle_beta   90.00000000
_cell_angle_gamma   90.00000000
_symmetry_Int_Tables_number   1
_chemical_formula_structural   NaBeSi3O8
_chemical_formula_sum   'Na8 Be8 Si24 O64'
_cell_volume   1312.67197340
_cell_formula_units_Z   8
loop_
 _symmetry_equiv_pos_site_id
 _symmetry_equiv_pos_as_xyz
  1  'x, y, z'
loop_
 _atom_site_type_symbol
 _atom_site_label
 _atom_site_symmetry_multiplicity
 _atom_site_fract_x
 _atom_site_fract_y
 _atom_site_fract_z
 _atom_site_occupancy
  Na  Na0  1  0.99897509  0.60119801  0.06857699  1
  Na  Na1  1  0.50102491  0.10119801  0.43142301  1
  Na  Na2  1  0.00102491  0.39880199  0.56857699  1
  Na  Na3  1  0.49897509  0.89880199  0.93142301  1
  Na  Na4  1  0.00102491  0.39880199  0.93142301  1
  Na  Na5  1  0.49897509  0.89880199  0.56857699  1
  Na  Na6  1  0.99897509  0.60119801  0.43142301  1
  Na  Na7  1  0.50102491  0.10119801  0.06857699  1
  Be  Be8  1  0.15636213  0.99474234  0.99960929  1
  Be  Be9  1  0.34363787  0.49474234  0.50039071  1
  Be  Be10  1  0.84363787  0.00525766  0.49960929  1
  Be  Be11  1  0.65636213  0.50525766  0.00039071  1
  Be  Be12  1  0.84363787  0.00525766  0.00039071  1
  Be  Be13  1  0.65636213  0.50525766  0.49960929  1
  Be  Be14  1  0.15636213  0.99474234  0.50039071  1
  Be  Be15  1  0.34363787  0.49474234  0.99960929  1
  Si  Si16  1  0.48416571  0.65908164  0.13808818  1
  Si  Si17  1  0.01583429  0.15908164  0.36191182  1
  Si  Si18  1  0.51583429  0.34091836  0.63808818  1
  Si  Si19  1  0.98416571  0.84091836  0.86191182  1
  Si  Si20  1  0.51583429  0.34091836  0.86191182  1
  Si  Si21  1  0.98416571  0.84091836  0.63808818  1
  Si  Si22  1  0.48416571  0.65908164  0.36191182  1
  Si  Si23  1  0.01583429  0.15908164  0.13808818  1
  Si  Si24  1  0.76784067  0.84423325  0.13699573  1
  Si  Si25  1  0.73215933  0.34423325  0.36300427  1
  Si  Si26  1  0.23215933  0.15576675  0.63699573  1
  Si  Si27  1  0.26784067  0.65576675  0.86300427  1
  Si  Si28  1  0.23215933  0.15576675  0.86300427  1
  Si  Si29  1  0.26784067  0.65576675  0.63699573  1
  Si  Si30  1  0.76784067  0.84423325  0.36300427  1
  Si  Si31  1  0.73215933  0.34423325  0.13699573  1
  Si  Si32  1  0.19505794  0.83319986  0.13814781  1
  Si  Si33  1  0.30494206  0.33319986  0.36185219  1
  Si  Si34  1  0.80494206  0.16680014  0.63814781  1
  Si  Si35  1  0.69505794  0.66680014  0.86185219  1
  Si  Si36  1  0.80494206  0.16680014  0.86185219  1
  Si  Si37  1  0.69505794  0.66680014  0.63814781  1
  Si  Si38  1  0.19505794  0.83319986  0.36185219  1
  Si  Si39  1  0.30494206  0.33319986  0.13814781  1
  O  O40  1  0.50046091  0.61995189  0.25000000  1
  O  O41  1  0.99953909  0.11995189  0.25000000  1
  O  O42  1  0.49953909  0.38004811  0.75000000  1
  O  O43  1  0.00046091  0.88004811  0.75000000  1
  O  O44  1  0.28827132  0.71685585  0.12299796  1
  O  O45  1  0.21172868  0.21685585  0.37700204  1
  O  O46  1  0.71172868  0.28314415  0.62299796  1
  O  O47  1  0.78827132  0.78314415  0.87700204  1
  O  O48  1  0.71172868  0.28314415  0.87700204  1
  O  O49  1  0.78827132  0.78314415  0.62299796  1
  O  O50  1  0.28827132  0.71685585  0.37700204  1
  O  O51  1  0.21172868  0.21685585  0.12299796  1
  O  O52  1  0.49343430  0.56053025  0.06575556  1
  O  O53  1  0.00656570  0.06053025  0.43424444  1
  O  O54  1  0.50656570  0.43946975  0.56575556  1
  O  O55  1  0.99343430  0.93946975  0.93424444  1
  O  O56  1  0.50656570  0.43946975  0.93424444  1
  O  O57  1  0.99343430  0.93946975  0.56575556  1
  O  O58  1  0.49343430  0.56053025  0.43424444  1
  O  O59  1  0.00656570  0.06053025  0.06575556  1
  O  O60  1  0.65167164  0.73769284  0.11435919  1
  O  O61  1  0.84832836  0.23769284  0.38564081  1
  O  O62  1  0.34832836  0.26230716  0.61435919  1
  O  O63  1  0.15167164  0.76230716  0.88564081  1
  O  O64  1  0.34832836  0.26230716  0.88564081  1
  O  O65  1  0.15167164  0.76230716  0.61435919  1
  O  O66  1  0.65167164  0.73769284  0.38564081  1
  O  O67  1  0.84832836  0.23769284  0.11435919  1
  O  O68  1  0.71040954  0.93542749  0.06326934  1
  O  O69  1  0.78959046  0.43542749  0.43673066  1
  O  O70  1  0.28959046  0.06457251  0.56326934  1
  O  O71  1  0.21040954  0.56457251  0.93673066  1
  O  O72  1  0.28959046  0.06457251  0.93673066  1
  O  O73  1  0.21040954  0.56457251  0.56326934  1
  O  O74  1  0.71040954  0.93542749  0.43673066  1
  O  O75  1  0.78959046  0.43542749  0.06326934  1
  O  O76  1  0.73325898  0.87884460  0.25000000  1
  O  O77  1  0.76674102  0.37884460  0.25000000  1
  O  O78  1  0.26674102  0.12115540  0.75000000  1
  O  O79  1  0.23325898  0.62115540  0.75000000  1
  O  O80  1  0.97900893  0.80504236  0.12445045  1
  O  O81  1  0.52099107  0.30504236  0.37554955  1
  O  O82  1  0.02099107  0.19495764  0.62445045  1
  O  O83  1  0.47900893  0.69495764  0.87554955  1
  O  O84  1  0.02099107  0.19495764  0.87554955  1
  O  O85  1  0.47900893  0.69495764  0.62445045  1
  O  O86  1  0.97900893  0.80504236  0.37554955  1
  O  O87  1  0.52099107  0.30504236  0.12445045  1
  O  O88  1  0.23224125  0.87100320  0.25000000  1
  O  O89  1  0.26775875  0.37100320  0.25000000  1
  O  O90  1  0.76775875  0.12899680  0.75000000  1
  O  O91  1  0.73224125  0.62899680  0.75000000  1
  O  O92  1  0.27329969  0.91577972  0.06185660  1
  O  O93  1  0.22670031  0.41577972  0.43814340  1
  O  O94  1  0.72670031  0.08422028  0.56185660  1
  O  O95  1  0.77329969  0.58422028  0.93814340  1
  O  O96  1  0.72670031  0.08422028  0.93814340  1
  O  O97  1  0.77329969  0.58422028  0.56185660  1
  O  O98  1  0.27329969  0.91577972  0.43814340  1
  O  O99  1  0.22670031  0.41577972  0.06185660  1
  O  O100  1  0.01014003  0.55947306  0.25000000  1
  O  O101  1  0.48985997  0.05947306  0.25000000  1
  O  O102  1  0.98985997  0.44052694  0.75000000  1
  O  O103  1  0.51014003  0.94052694  0.75000000  1
