# generated using pymatgen
data_CeB4ClO8
_symmetry_space_group_name_H-M   'P 1'
_cell_length_a   6.56969032
_cell_length_b   6.56969032
_cell_length_c   9.27211783
_cell_angle_alpha   97.84634968
_cell_angle_beta   97.84634968
_cell_angle_gamma   119.82123399
_symmetry_Int_Tables_number   1
_chemical_formula_structural   CeB4ClO8
_chemical_formula_sum   'Ce2 B8 Cl2 O16'
_cell_volume   334.07964283
_cell_formula_units_Z   2
loop_
 _symmetry_equiv_pos_site_id
 _symmetry_equiv_pos_as_xyz
  1  'x, y, z'
loop_
 _atom_site_type_symbol
 _atom_site_label
 _atom_site_symmetry_multiplicity
 _atom_site_fract_x
 _atom_site_fract_y
 _atom_site_fract_z
 _atom_site_occupancy
  Ce  Ce0  1  0.16369080  0.56445847  0.06828694  1
  Ce  Ce1  1  0.56445847  0.16369080  0.56828694  1
  B  B2  1  0.30847373  0.12468455  0.22715308  1
  B  B3  1  0.12468455  0.30847373  0.72715308  1
  B  B4  1  0.61228671  0.50396326  0.17356312  1
  B  B5  1  0.50396326  0.61228671  0.67356312  1
  B  B6  1  0.73804823  0.22434993  0.24744442  1
  B  B7  1  0.22434993  0.73804823  0.74744442  1
  B  B8  1  0.86573659  0.93369507  0.15332316  1
  B  B9  1  0.93369507  0.86573659  0.65332316  1
  Cl  Cl10  1  0.33218622  0.69327935  0.38824850  1
  Cl  Cl11  1  0.69327935  0.33218622  0.88824850  1
  O  O12  1  0.64698124  0.71895449  0.13939216  1
  O  O13  1  0.71895449  0.64698124  0.63939216  1
  O  O14  1  0.17274330  0.33989021  0.88828207  1
  O  O15  1  0.33989021  0.17274330  0.38828207  1
  O  O16  1  0.37525166  0.34342619  0.16977863  1
  O  O17  1  0.34342619  0.37525166  0.66977863  1
  O  O18  1  0.47414187  0.03973045  0.19336543  1
  O  O19  1  0.03973045  0.47414187  0.69336543  1
  O  O20  1  0.06616834  0.92094897  0.14983781  1
  O  O21  1  0.92094897  0.06616834  0.64983781  1
  O  O22  1  0.87892372  0.15139370  0.16871898  1
  O  O23  1  0.15139370  0.87892372  0.66871898  1
  O  O24  1  0.23834967  0.78509022  0.90619005  1
  O  O25  1  0.78509022  0.23834967  0.40619005  1
  O  O26  1  0.79292144  0.46048362  0.21424166  1
  O  O27  1  0.46048362  0.79292144  0.71424166  1
