# generated using pymatgen
data_Th6OF24
_symmetry_space_group_name_H-M   'P 1'
_cell_length_a   8.85617221
_cell_length_b   8.85617221
_cell_length_c   8.85617221
_cell_angle_alpha   97.38710713
_cell_angle_beta   115.83072137
_cell_angle_gamma   115.83072137
_symmetry_Int_Tables_number   1
_chemical_formula_structural   Th6OF24
_chemical_formula_sum   'Th6 O1 F24'
_cell_volume   517.44982880
_cell_formula_units_Z   1
loop_
 _symmetry_equiv_pos_site_id
 _symmetry_equiv_pos_as_xyz
  1  'x, y, z'
loop_
 _atom_site_type_symbol
 _atom_site_label
 _atom_site_symmetry_multiplicity
 _atom_site_fract_x
 _atom_site_fract_y
 _atom_site_fract_z
 _atom_site_occupancy
  Th  Th0  1  0.21141514  0.38467835  0.82673680  1
  Th  Th1  1  0.78858486  0.61532165  0.17326320  1
  Th  Th2  1  0.44205845  0.82673680  0.61532165  1
  Th  Th3  1  0.55794155  0.17326320  0.38467835  1
  Th  Th4  1  -0.00000000  0.22050420  0.22050420  1
  Th  Th5  1  -0.00000000  0.77949580  0.77949580  1
  O  O6  1  -0.00000000  -0.00000000  -0.00000000  1
  F  F7  1  0.50000000  0.60965275  0.10965275  1
  F  F8  1  0.50000000  0.10965275  0.60965275  1
  F  F9  1  0.50000000  0.39034725  0.89034725  1
  F  F10  1  0.50000000  0.89034725  0.39034725  1
  F  F11  1  0.86425051  0.23252819  0.63172232  1
  F  F12  1  0.13574949  0.76747181  0.36827768  1
  F  F13  1  0.39919414  0.63172232  0.76747181  1
  F  F14  1  0.60080586  0.36827768  0.23252819  1
  F  F15  1  0.11600809  0.32456871  0.03432783  1
  F  F16  1  0.88399191  0.91831974  0.20856062  1
  F  F17  1  0.70975912  0.03432783  0.91831974  1
  F  F18  1  0.29024088  0.20856062  0.32456871  1
  F  F19  1  0.88399191  0.67543129  0.96567217  1
  F  F20  1  0.11600809  0.08168026  0.79143938  1
  F  F21  1  0.29024088  0.96567217  0.08168026  1
  F  F22  1  0.70975912  0.79143938  0.67543129  1
  F  F23  1  0.87223394  0.40272515  0.14523202  1
  F  F24  1  0.12776606  0.27299809  0.53049121  1
  F  F25  1  0.74250687  0.14523202  0.27299809  1
  F  F26  1  0.25749313  0.53049121  0.40272515  1
  F  F27  1  0.12776606  0.59727485  0.85476798  1
  F  F28  1  0.87223394  0.72700191  0.46950879  1
  F  F29  1  0.25749313  0.85476798  0.72700191  1
  F  F30  1  0.74250687  0.46950879  0.59727485  1
