# generated using pymatgen
data_Fe2Cu(PO5)2
_symmetry_space_group_name_H-M   'P 1'
_cell_length_a   6.90291106
_cell_length_b   7.29829415
_cell_length_c   8.08031643
_cell_angle_alpha   90.00000000
_cell_angle_beta   90.00000000
_cell_angle_gamma   118.32112417
_symmetry_Int_Tables_number   1
_chemical_formula_structural   Fe2Cu(PO5)2
_chemical_formula_sum   'Fe4 Cu2 P4 O20'
_cell_volume   358.35539436
_cell_formula_units_Z   2
loop_
 _symmetry_equiv_pos_site_id
 _symmetry_equiv_pos_as_xyz
  1  'x, y, z'
loop_
 _atom_site_type_symbol
 _atom_site_label
 _atom_site_symmetry_multiplicity
 _atom_site_fract_x
 _atom_site_fract_y
 _atom_site_fract_z
 _atom_site_occupancy
  Fe  Fe0  1  0.78038218  0.51977530  0.21935411  1
  Fe  Fe1  1  0.28038218  0.01977530  0.28064589  1
  Fe  Fe2  1  0.21961782  0.48022470  0.78064589  1
  Fe  Fe3  1  0.71961782  0.98022470  0.71935411  1
  Cu  Cu4  1  0.50000000  0.50000000  0.50000000  1
  Cu  Cu5  1  0.00000000  -0.00000000  -0.00000000  1
  P  P6  1  0.00029517  0.25803202  0.40529968  1
  P  P7  1  0.50029517  0.75803202  0.09470032  1
  P  P8  1  0.99970483  0.74196798  0.59470032  1
  P  P9  1  0.49970483  0.24196798  0.90529968  1
  O  O10  1  0.79554663  0.14171861  0.51497669  1
  O  O11  1  0.29554663  0.64171861  0.98502331  1
  O  O12  1  0.20445337  0.85828139  0.48502331  1
  O  O13  1  0.70445337  0.35828139  0.01497669  1
  O  O14  1  0.98549147  0.42265794  0.29809309  1
  O  O15  1  0.48549147  0.92265794  0.20190691  1
  O  O16  1  0.01450853  0.57734206  0.70190691  1
  O  O17  1  0.51450853  0.07734206  0.79809309  1
  O  O18  1  0.19592846  0.35944841  0.53628419  1
  O  O19  1  0.69592846  0.85944841  0.96371581  1
  O  O20  1  0.80407154  0.64055159  0.46371581  1
  O  O21  1  0.30407154  0.14055159  0.03628419  1
  O  O22  1  0.04884836  0.11268830  0.29681604  1
  O  O23  1  0.54884836  0.61268830  0.20318396  1
  O  O24  1  0.95115164  0.88731170  0.70318396  1
  O  O25  1  0.45115164  0.38731170  0.79681604  1
  O  O26  1  0.00911894  0.80132115  0.13719124  1
  O  O27  1  0.50911894  0.30132115  0.36280876  1
  O  O28  1  0.99088106  0.19867885  0.86280876  1
  O  O29  1  0.49088106  0.69867885  0.63719124  1
