# generated using pymatgen
data_ZnN6
_symmetry_space_group_name_H-M   'P 1'
_cell_length_a   6.15059186
_cell_length_b   6.15059186
_cell_length_c   19.13693028
_cell_angle_alpha   90.00000000
_cell_angle_beta   90.00000000
_cell_angle_gamma   119.99999416
_symmetry_Int_Tables_number   1
_chemical_formula_structural   ZnN6
_chemical_formula_sum   'Zn6 N36'
_cell_volume   626.95554788
_cell_formula_units_Z   6
loop_
 _symmetry_equiv_pos_site_id
 _symmetry_equiv_pos_as_xyz
  1  'x, y, z'
loop_
 _atom_site_type_symbol
 _atom_site_label
 _atom_site_symmetry_multiplicity
 _atom_site_fract_x
 _atom_site_fract_y
 _atom_site_fract_z
 _atom_site_occupancy
  Zn  Zn0  1  0.15310448  0.80772838  0.35858029  1
  Zn  Zn1  1  0.65462390  0.84689552  0.69191429  1
  Zn  Zn2  1  0.19227162  0.34537610  0.02524729  1
  Zn  Zn3  1  0.34537336  0.19227680  0.64142484  1
  Zn  Zn4  1  0.80772320  0.15309657  0.30809084  1
  Zn  Zn5  1  0.84690343  0.65462664  0.97475784  1
  N  N6  1  0.42933737  0.97252960  0.28644518  1
  N  N7  1  0.54319222  0.57066263  0.61977918  1
  N  N8  1  0.02747040  0.45680778  0.95311218  1
  N  N9  1  0.45680911  0.02746891  0.71355643  1
  N  N10  1  0.97253109  0.42934020  0.38022243  1
  N  N11  1  0.57065980  0.54319089  0.04688943  1
  N  N12  1  0.37160773  0.00970660  0.22815846  1
  N  N13  1  0.63809887  0.62839227  0.56149246  1
  N  N14  1  0.99029340  0.36190113  0.89482546  1
  N  N15  1  0.36190283  0.99029308  0.77184235  1
  N  N16  1  0.00970692  0.37160975  0.43850835  1
  N  N17  1  0.62839025  0.63809717  0.10517535  1
  N  N18  1  0.31885972  0.04590992  0.17329453  1
  N  N19  1  0.72705020  0.68114028  0.50662853  1
  N  N20  1  0.95409008  0.27294980  0.83996153  1
  N  N21  1  0.27294769  0.95408942  0.82670676  1
  N  N22  1  0.04591058  0.31885828  0.49337276  1
  N  N23  1  0.68114172  0.72705231  0.16003976  1
  N  N24  1  0.85859602  0.85859590  0.33333317  1
  N  N25  1  -0.00000011  0.14140398  0.66666717  1
  N  N26  1  0.14140410  0.00000011  0.00000017  1
  N  N27  1  0.65838891  0.65838846  0.33333302  1
  N  N28  1  0.99999956  0.34161109  0.66666702  1
  N  N29  1  0.34161154  0.00000044  0.00000002  1
  N  N30  1  0.47166190  0.47166111  0.33333294  1
  N  N31  1  0.99999921  0.52833810  0.66666694  1
  N  N32  1  0.52833889  0.00000080  0.99999994  1
  N  N33  1  0.37964045  0.97839335  0.43888025  1
  N  N34  1  0.59875290  0.62035955  0.77221425  1
  N  N35  1  0.02160665  0.40124710  0.10554725  1
  N  N36  1  0.40125117  0.02159907  0.56114203  1
  N  N37  1  0.97840093  0.37965210  0.22780803  1
  N  N38  1  0.62034790  0.59874883  0.89447503  1
  N  N39  1  0.38303953  -0.00000156  0.50000176  1
  N  N40  1  0.61695890  0.61696047  0.83333576  1
  N  N41  1  0.00000156  0.38304110  0.16666876  1
