# generated using pymatgen
data_AsH2SNF10
_symmetry_space_group_name_H-M   'P 1'
_cell_length_a   5.64564179
_cell_length_b   6.89815760
_cell_length_c   10.73832173
_cell_angle_alpha   89.15506303
_cell_angle_beta   87.87744159
_cell_angle_gamma   75.35482503
_symmetry_Int_Tables_number   1
_chemical_formula_structural   AsH2SNF10
_chemical_formula_sum   'As2 H4 S2 N2 F20'
_cell_volume   404.32775692
_cell_formula_units_Z   2
loop_
 _symmetry_equiv_pos_site_id
 _symmetry_equiv_pos_as_xyz
  1  'x, y, z'
loop_
 _atom_site_type_symbol
 _atom_site_label
 _atom_site_symmetry_multiplicity
 _atom_site_fract_x
 _atom_site_fract_y
 _atom_site_fract_z
 _atom_site_occupancy
  As  As0  1  0.00000000  -0.00000000  0.50000000  1
  As  As1  1  0.00000000  -0.00000000  -0.00000000  1
  H  H2  1  0.58049648  0.89744619  0.34089792  1
  H  H3  1  0.41950352  0.10255381  0.65910208  1
  H  H4  1  0.51582596  0.91125199  0.17858540  1
  H  H5  1  0.48417404  0.08874801  0.82141460  1
  S  S6  1  0.63500838  0.59694261  0.25105804  1
  S  S7  1  0.36499162  0.40305739  0.74894196  1
  N  N8  1  0.56560447  0.82831389  0.25796370  1
  N  N9  1  0.43439553  0.17168611  0.74203630  1
  F  F10  1  0.12569847  0.13624854  0.38640509  1
  F  F11  1  0.87430153  0.86375146  0.61359491  1
  F  F12  1  0.70413848  0.08589389  0.43393007  1
  F  F13  1  0.29586152  0.91410611  0.56606993  1
  F  F14  1  0.06539096  0.78976419  0.40015760  1
  F  F15  1  0.93460904  0.21023581  0.59984240  1
  F  F16  1  0.78312927  0.12180738  0.11567085  1
  F  F17  1  0.21687073  0.87819262  0.88432915  1
  F  F18  1  0.93491620  0.21994550  0.90677879  1
  F  F19  1  0.06508380  0.78005450  0.09322121  1
  F  F20  1  0.76352317  0.91793975  0.92753718  1
  F  F21  1  0.23647683  0.08206025  0.07246282  1
  F  F22  1  0.67151863  0.57721771  0.39730029  1
  F  F23  1  0.32848137  0.42278229  0.60269971  1
  F  F24  1  0.89797194  0.46467939  0.22915589  1
  F  F25  1  0.10202806  0.53532061  0.77084411  1
  F  F26  1  0.45903590  0.45664084  0.26501132  1
  F  F27  1  0.54096410  0.54335916  0.73498868  1
  F  F28  1  0.59734183  0.60217743  0.10521807  1
  F  F29  1  0.40265817  0.39782257  0.89478193  1
