# generated using pymatgen
data_FeSn4H24C8(Se5N)2
_symmetry_space_group_name_H-M   'P 1'
_cell_length_a   10.45704857
_cell_length_b   10.45704857
_cell_length_c   11.01614581
_cell_angle_alpha   118.33485437
_cell_angle_beta   118.33485437
_cell_angle_gamma   90.00000000
_symmetry_Int_Tables_number   1
_chemical_formula_structural   FeSn4H24C8(Se5N)2
_chemical_formula_sum   'Fe1 Sn4 H24 C8 Se10 N2'
_cell_volume   892.93077604
_cell_formula_units_Z   1
loop_
 _symmetry_equiv_pos_site_id
 _symmetry_equiv_pos_as_xyz
  1  'x, y, z'
loop_
 _atom_site_type_symbol
 _atom_site_label
 _atom_site_symmetry_multiplicity
 _atom_site_fract_x
 _atom_site_fract_y
 _atom_site_fract_z
 _atom_site_occupancy
  Fe  Fe0  1  0.50000000  0.50000000  0.00000000  1
  Sn  Sn1  1  0.40441963  0.02731500  0.68031524  1
  Sn  Sn2  1  0.27589561  0.65300024  0.68031524  1
  Sn  Sn3  1  0.34699976  0.59558037  0.31968476  1
  Sn  Sn4  1  0.97268500  0.72410439  0.31968476  1
  H  H5  1  0.95639590  0.25506341  0.68182574  1
  H  H6  1  0.72542984  0.42676233  0.68182574  1
  H  H7  1  0.57323767  0.04360410  0.31817426  1
  H  H8  1  0.74493659  0.27457016  0.31817426  1
  H  H9  1  0.79087570  0.20879771  0.68332404  1
  H  H10  1  0.89244833  0.47452633  0.68332404  1
  H  H11  1  0.52547367  0.20912430  0.31667596  1
  H  H12  1  0.79120229  0.10755167  0.31667596  1
  H  H13  1  0.81982021  0.07047198  0.52757402  1
  H  H14  1  0.70775382  0.45710204  0.52757402  1
  H  H15  1  0.54289796  0.18017979  0.47242598  1
  H  H16  1  0.92952802  0.29224618  0.47242598  1
  H  H17  1  0.89107089  0.05127749  0.81827709  1
  H  H18  1  0.92720621  0.76699960  0.81827709  1
  H  H19  1  0.23300040  0.10892911  0.18172291  1
  H  H20  1  0.94872251  0.07279379  0.18172291  1
  H  H21  1  0.08664978  0.16228164  0.97387165  1
  H  H22  1  0.88722188  0.81159001  0.97387165  1
  H  H23  1  0.18840999  0.91335022  0.02612835  1
  H  H24  1  0.83771836  0.11277812  0.02612835  1
  H  H25  1  0.04093913  0.96690340  0.81743441  1
  H  H26  1  0.77649528  0.85053100  0.81743441  1
  H  H27  1  0.14946900  0.95906087  0.18256559  1
  H  H28  1  0.03309660  0.22350472  0.18256559  1
  C  C29  1  0.83622864  0.19120460  0.60638736  1
  C  C30  1  0.77015872  0.41518276  0.60638736  1
  C  C31  1  0.58481724  0.16377136  0.39361264  1
  C  C32  1  0.80879540  0.22984128  0.39361264  1
  C  C33  1  0.00514310  0.04900410  0.89425659  1
  C  C34  1  0.88911349  0.84525249  0.89425659  1
  C  C35  1  0.15474751  0.99485690  0.10574341  1
  C  C36  1  0.95099590  0.11088651  0.10574341  1
  Se  Se37  1  0.12664382  0.00858976  0.48999463  1
  Se  Se38  1  0.36335081  0.48140487  0.48999463  1
  Se  Se39  1  0.51859513  0.87335618  0.51000537  1
  Se  Se40  1  0.99141024  0.63664919  0.51000537  1
  Se  Se41  1  0.43579859  0.93579859  0.87159718  1
  Se  Se42  1  0.06420141  0.56420141  0.12840282  1
  Se  Se43  1  0.57802191  0.29630723  0.85239032  1
  Se  Se44  1  0.27436841  0.55608309  0.85239032  1
  Se  Se45  1  0.44391691  0.42197809  0.14760968  1
  Se  Se46  1  0.70369277  0.72563159  0.14760968  1
  N  N47  1  0.75000000  0.25000000  0.50000000  1
  N  N48  1  0.00000000  0.00000000  0.00000000  1
