# generated using pymatgen
data_K2Cu5TeS3O19
_symmetry_space_group_name_H-M   'P 1'
_cell_length_a   7.85307586
_cell_length_b   9.67150838
_cell_length_c   12.01980969
_cell_angle_alpha   90.00000000
_cell_angle_beta   90.00000000
_cell_angle_gamma   115.59186844
_symmetry_Int_Tables_number   1
_chemical_formula_structural   K2Cu5TeS3O19
_chemical_formula_sum   'K4 Cu10 Te2 S6 O38'
_cell_volume   823.35479220
_cell_formula_units_Z   2
loop_
 _symmetry_equiv_pos_site_id
 _symmetry_equiv_pos_as_xyz
  1  'x, y, z'
loop_
 _atom_site_type_symbol
 _atom_site_label
 _atom_site_symmetry_multiplicity
 _atom_site_fract_x
 _atom_site_fract_y
 _atom_site_fract_z
 _atom_site_occupancy
  K  K0  1  0.53921869  0.51795402  0.75000000  1
  K  K1  1  0.46078131  0.48204598  0.25000000  1
  K  K2  1  0.00000000  0.00000000  0.50000000  1
  K  K3  1  0.00000000  0.00000000  0.00000000  1
  Cu  Cu4  1  0.26173840  0.72975487  0.62500194  1
  Cu  Cu5  1  0.73826160  0.27024513  0.12500194  1
  Cu  Cu6  1  0.73826160  0.27024513  0.37499806  1
  Cu  Cu7  1  0.26173840  0.72975487  0.87499806  1
  Cu  Cu8  1  0.77022652  0.27384452  0.63226875  1
  Cu  Cu9  1  0.22977348  0.72615548  0.13226875  1
  Cu  Cu10  1  0.22977348  0.72615548  0.36773125  1
  Cu  Cu11  1  0.77022652  0.27384452  0.86773125  1
  Cu  Cu12  1  0.50000000  0.00000000  0.50000000  1
  Cu  Cu13  1  0.50000000  0.00000000  0.00000000  1
  Te  Te14  1  0.30534576  0.07660715  0.75000000  1
  Te  Te15  1  0.69465424  0.92339285  0.25000000  1
  S  S16  1  0.18973643  0.40278036  0.53116727  1
  S  S17  1  0.81026357  0.59721964  0.03116727  1
  S  S18  1  0.81026357  0.59721964  0.46883273  1
  S  S19  1  0.18973643  0.40278036  0.96883273  1
  S  S20  1  0.72972561  0.93188288  0.75000000  1
  S  S21  1  0.27027439  0.06811712  0.25000000  1
  O  O22  1  0.12275461  0.69406851  0.75000000  1
  O  O23  1  0.87724539  0.30593149  0.25000000  1
  O  O24  1  0.60797166  0.21138884  0.51081465  1
  O  O25  1  0.39202834  0.78861116  0.01081465  1
  O  O26  1  0.39202834  0.78861116  0.48918535  1
  O  O27  1  0.60797166  0.21138884  0.98918535  1
  O  O28  1  0.92059383  0.35296197  0.75000000  1
  O  O29  1  0.07940617  0.64703803  0.25000000  1
  O  O30  1  0.56907818  0.22962016  0.75000000  1
  O  O31  1  0.43092182  0.77037984  0.25000000  1
  O  O32  1  0.31002424  0.95253606  0.62459453  1
  O  O33  1  0.68997576  0.04746394  0.12459453  1
  O  O34  1  0.68997576  0.04746394  0.37540547  1
  O  O35  1  0.31002424  0.95253606  0.87540547  1
  O  O36  1  0.97277757  0.31935839  0.52483345  1
  O  O37  1  0.02722243  0.68064161  0.02483345  1
  O  O38  1  0.02722243  0.68064161  0.47516655  1
  O  O39  1  0.97277757  0.31935839  0.97516655  1
  O  O40  1  0.74133167  0.02457590  0.64723225  1
  O  O41  1  0.25866833  0.97542410  0.14723225  1
  O  O42  1  0.25866833  0.97542410  0.35276775  1
  O  O43  1  0.74133167  0.02457590  0.85276775  1
  O  O44  1  0.24779381  0.52270239  0.62224001  1
  O  O45  1  0.75220619  0.47729761  0.12224001  1
  O  O46  1  0.75220619  0.47729761  0.37775999  1
  O  O47  1  0.24779381  0.52270239  0.87775999  1
  O  O48  1  0.54462175  0.79273222  0.75000000  1
  O  O49  1  0.45537825  0.20726778  0.25000000  1
  O  O50  1  0.26349448  0.29203268  0.56312549  1
  O  O51  1  0.73650552  0.70796732  0.06312549  1
  O  O52  1  0.73650552  0.70796732  0.43687451  1
  O  O53  1  0.26349448  0.29203268  0.93687451  1
  O  O54  1  0.75048227  0.52928470  0.57891303  1
  O  O55  1  0.24951773  0.47071530  0.07891303  1
  O  O56  1  0.24951773  0.47071530  0.42108697  1
  O  O57  1  0.75048227  0.52928470  0.92108697  1
  O  O58  1  0.88983619  0.88789711  0.75000000  1
  O  O59  1  0.11016381  0.11210289  0.25000000  1
