# generated using pymatgen
data_As2H2CCl4
_symmetry_space_group_name_H-M   'P 1'
_cell_length_a   11.60986259
_cell_length_b   12.32059524
_cell_length_c   12.45465593
_cell_angle_alpha   116.23516374
_cell_angle_beta   114.22405759
_cell_angle_gamma   96.47516009
_symmetry_Int_Tables_number   1
_chemical_formula_structural   As2H2CCl4
_chemical_formula_sum   'As12 H12 C6 Cl24'
_cell_volume   1359.81214300
_cell_formula_units_Z   6
loop_
 _symmetry_equiv_pos_site_id
 _symmetry_equiv_pos_as_xyz
  1  'x, y, z'
loop_
 _atom_site_type_symbol
 _atom_site_label
 _atom_site_symmetry_multiplicity
 _atom_site_fract_x
 _atom_site_fract_y
 _atom_site_fract_z
 _atom_site_occupancy
  As  As0  1  0.37918592  0.27336298  0.26309398  1
  As  As1  1  0.61609194  0.01026900  0.73690602  1
  As  As2  1  0.50310173  0.58101631  0.36052584  1
  As  As3  1  0.64257589  0.22049047  0.63947416  1
  As  As4  1  0.79373464  0.75894883  0.93144978  1
  As  As5  1  0.36228486  0.82749905  0.06855022  1
  As  As6  1  0.77327916  0.55083441  0.03375546  1
  As  As7  1  0.23952369  0.51707895  0.96624454  1
  As  As8  1  0.90496962  0.18266463  0.30069268  1
  As  As9  1  0.10427694  0.88197195  0.69930732  1
  As  As10  1  0.03545650  0.48948786  0.40374982  1
  As  As11  1  0.13170668  0.08573805  0.59625018  1
  H  H12  1  0.45430811  0.48171758  0.49037731  1
  H  H13  1  0.46393079  0.99134027  0.50962269  1
  H  H14  1  0.59690913  0.45492733  0.47292798  1
  H  H15  1  0.62398116  0.98199935  0.52707202  1
  H  H16  1  0.78543575  0.78729321  0.14142185  1
  H  H17  1  0.14401389  0.64587136  0.85857815  1
  H  H18  1  0.94699820  0.78231973  0.16139583  1
  H  H19  1  0.28560237  0.62092390  0.83860417  1
  H  H20  1  0.81531954  0.31246500  0.19203623  1
  H  H21  1  0.12328332  0.12042878  0.80796377  1
  H  H22  1  0.95611314  0.28306393  0.17216659  1
  H  H23  1  0.28394655  0.11089734  0.82783341  1
  C  C24  1  0.49439368  0.45565375  0.42021530  1
  C  C25  1  0.57417838  0.03543845  0.57978470  1
  C  C26  1  0.83685766  0.73535169  0.09009705  1
  C  C27  1  0.24676061  0.64525464  0.90990295  1
  C  C28  1  0.91677582  0.30917372  0.24304319  1
  C  C29  1  0.17373263  0.06613053  0.75695681  1
  Cl  Cl30  1  0.49171667  0.25255939  0.15182775  1
  Cl  Cl31  1  0.83988892  0.10073164  0.84817225  1
  Cl  Cl32  1  0.21103884  0.31732399  0.13717193  1
  Cl  Cl33  1  0.57386691  0.18015206  0.86282807  1
  Cl  Cl34  1  0.36339201  0.66758654  0.41728492  1
  Cl  Cl35  1  0.44610709  0.25030162  0.58271508  1
  Cl  Cl36  1  0.69806849  0.73579691  0.55199526  1
  Cl  Cl37  1  0.64607323  0.18380165  0.44800474  1
  Cl  Cl38  1  0.83430692  0.58883603  0.80429573  1
  Cl  Cl39  1  0.53001119  0.78454031  0.19570427  1
  Cl  Cl40  1  0.56950368  0.66864259  0.81943428  1
  Cl  Cl41  1  0.25006940  0.84920831  0.18056572  1
  Cl  Cl42  1  0.77339513  0.58767279  0.22667308  1
  Cl  Cl43  1  0.04672205  0.36099971  0.77332692  1
  Cl  Cl44  1  0.97144805  0.52445663  0.09042695  1
  Cl  Cl45  1  0.38102109  0.43402968  0.90957305  1
  Cl  Cl46  1  0.70985036  0.02999581  0.10805663  1
  Cl  Cl47  1  0.10179373  0.92193918  0.89194337  1
  Cl  Cl48  1  0.04488277  0.09405849  0.24549265  1
  Cl  Cl49  1  0.29939012  0.84856584  0.75450735  1
  Cl  Cl50  1  0.19992290  0.43903314  0.52422969  1
  Cl  Cl51  1  0.17569321  0.91480346  0.47577031  1
  Cl  Cl52  1  0.92385591  0.50781705  0.51606292  1
  Cl  Cl53  1  0.90779299  0.99175412  0.48393708  1
