# generated using pymatgen
data_MnTe2H20(CN)4
_symmetry_space_group_name_H-M   'P 1'
_cell_length_a   6.54774870
_cell_length_b   9.58149549
_cell_length_c   12.34449287
_cell_angle_alpha   104.50799101
_cell_angle_beta   90.00000000
_cell_angle_gamma   109.97970234
_symmetry_Int_Tables_number   1
_chemical_formula_structural   MnTe2H20(CN)4
_chemical_formula_sum   'Mn2 Te4 H40 C8 N8'
_cell_volume   701.51303822
_cell_formula_units_Z   2
loop_
 _symmetry_equiv_pos_site_id
 _symmetry_equiv_pos_as_xyz
  1  'x, y, z'
loop_
 _atom_site_type_symbol
 _atom_site_label
 _atom_site_symmetry_multiplicity
 _atom_site_fract_x
 _atom_site_fract_y
 _atom_site_fract_z
 _atom_site_occupancy
  Mn  Mn0  1  0.50000000  0.00000000  0.50000000  1
  Mn  Mn1  1  0.50000000  0.00000000  0.00000000  1
  Te  Te2  1  0.17254848  0.87096672  0.29277897  1
  Te  Te3  1  0.30158176  0.12903328  0.20722103  1
  Te  Te4  1  0.82745152  0.12903328  0.70722103  1
  Te  Te5  1  0.69841824  0.87096672  0.79277897  1
  H  H6  1  0.66037043  0.11472301  0.32873380  1
  H  H7  1  0.54564742  0.88527699  0.17126620  1
  H  H8  1  0.33962957  0.88527699  0.67126620  1
  H  H9  1  0.45435258  0.11472301  0.82873380  1
  H  H10  1  0.85399503  0.06473196  0.37624188  1
  H  H11  1  0.78926307  0.93526804  0.12375812  1
  H  H12  1  0.14600497  0.93526804  0.62375812  1
  H  H13  1  0.21073693  0.06473196  0.87624188  1
  H  H14  1  0.95914797  0.31503252  0.52966113  1
  H  H15  1  0.64411545  0.68496748  0.97033887  1
  H  H16  1  0.04085203  0.68496748  0.47033887  1
  H  H17  1  0.35588455  0.31503252  0.02966113  1
  H  H18  1  0.78648756  0.36139661  0.44330539  1
  H  H19  1  0.42509095  0.63860339  0.05669461  1
  H  H20  1  0.21351244  0.63860339  0.55669461  1
  H  H21  1  0.57490905  0.36139661  0.94330539  1
  H  H22  1  0.02403224  0.32918947  0.39082299  1
  H  H23  1  0.69484277  0.67081053  0.10917701  1
  H  H24  1  0.97596776  0.67081053  0.60917701  1
  H  H25  1  0.30515723  0.32918947  0.89082299  1
  H  H26  1  0.78234047  0.84681891  0.43758327  1
  H  H27  1  0.93552157  0.15318109  0.06241673  1
  H  H28  1  0.21765953  0.15318109  0.56241673  1
  H  H29  1  0.06447843  0.84681891  0.93758327  1
  H  H30  1  0.64388062  0.78167691  0.53611457  1
  H  H31  1  0.86220371  0.21832309  0.96388543  1
  H  H32  1  0.35611938  0.21832309  0.46388543  1
  H  H33  1  0.13779629  0.78167691  0.03611457  1
  H  H34  1  0.51238249  0.66149491  0.29102959  1
  H  H35  1  0.85088758  0.33850509  0.20897041  1
  H  H36  1  0.48761751  0.33850509  0.70897041  1
  H  H37  1  0.14911242  0.66149491  0.79102959  1
  H  H38  1  0.63039069  0.57137356  0.37062335  1
  H  H39  1  0.05901713  0.42862644  0.12937665  1
  H  H40  1  0.36960931  0.42862644  0.62937665  1
  H  H41  1  0.94098287  0.57137356  0.87062335  1
  H  H42  1  0.36802335  0.58113238  0.39574799  1
  H  H43  1  0.78689098  0.41886762  0.10425201  1
  H  H44  1  0.63197665  0.41886762  0.60425201  1
  H  H45  1  0.21310902  0.58113238  0.89574799  1
  C  C46  1  0.89007874  0.29234050  0.44304742  1
  C  C47  1  0.59773823  0.70765950  0.05695258  1
  C  C48  1  0.10992126  0.70765950  0.55695258  1
  C  C49  1  0.40226177  0.29234050  0.94304742  1
  C  C50  1  0.53036584  0.64409888  0.37454452  1
  C  C51  1  0.88626696  0.35590112  0.12545548  1
  C  C52  1  0.46963416  0.35590112  0.62545548  1
  C  C53  1  0.11373304  0.64409888  0.87454452  1
  N  N54  1  0.75495463  0.12764009  0.40011194  1
  N  N55  1  0.62731454  0.87235991  0.09988806  1
  N  N56  1  0.24504537  0.87235991  0.59988806  1
  N  N57  1  0.37268546  0.12764009  0.90011194  1
  N  N58  1  0.62637194  0.79587052  0.45715980  1
  N  N59  1  0.83050142  0.20412948  0.04284020  1
  N  N60  1  0.37362806  0.20412948  0.54284020  1
  N  N61  1  0.16949858  0.79587052  0.95715980  1
