# generated using pymatgen
data_CeH(SeO3)2
_symmetry_space_group_name_H-M   'P 1'
_cell_length_a   7.15360200
_cell_length_b   8.48306518
_cell_length_c   19.60025354
_cell_angle_alpha   90.00000000
_cell_angle_beta   90.00000000
_cell_angle_gamma   90.00000000
_symmetry_Int_Tables_number   1
_chemical_formula_structural   CeH(SeO3)2
_chemical_formula_sum   'Ce8 H8 Se16 O48'
_cell_volume   1189.43103788
_cell_formula_units_Z   8
loop_
 _symmetry_equiv_pos_site_id
 _symmetry_equiv_pos_as_xyz
  1  'x, y, z'
loop_
 _atom_site_type_symbol
 _atom_site_label
 _atom_site_symmetry_multiplicity
 _atom_site_fract_x
 _atom_site_fract_y
 _atom_site_fract_z
 _atom_site_occupancy
  Ce  Ce0  1  0.41445840  0.84590810  0.06470228  1
  Ce  Ce1  1  0.58554160  0.15409190  0.56470228  1
  Ce  Ce2  1  0.41445840  0.65409190  0.56470228  1
  Ce  Ce3  1  0.58554160  0.34590810  0.06470228  1
  Ce  Ce4  1  0.91237805  0.94525792  0.15241171  1
  Ce  Ce5  1  0.08762195  0.05474208  0.65241171  1
  Ce  Ce6  1  0.91237805  0.55474208  0.65241171  1
  Ce  Ce7  1  0.08762195  0.44525792  0.15241171  1
  H  H8  1  0.71947090  0.58005100  0.85542959  1
  H  H9  1  0.28052910  0.41994900  0.35542959  1
  H  H10  1  0.71947090  0.91994900  0.35542959  1
  H  H11  1  0.28052910  0.08005100  0.85542959  1
  H  H12  1  0.21353190  0.17971728  0.35779466  1
  H  H13  1  0.78646810  0.82028272  0.85779466  1
  H  H14  1  0.21353190  0.32028272  0.85779466  1
  H  H15  1  0.78646810  0.67971728  0.35779466  1
  Se  Se16  1  0.42854771  0.09383688  0.20334704  1
  Se  Se17  1  0.57145229  0.90616312  0.70334704  1
  Se  Se18  1  0.42854771  0.40616312  0.70334704  1
  Se  Se19  1  0.57145229  0.59383688  0.20334704  1
  Se  Se20  1  0.43755349  0.62500267  0.91776463  1
  Se  Se21  1  0.56244651  0.37499733  0.41776463  1
  Se  Se22  1  0.43755349  0.87499733  0.41776463  1
  Se  Se23  1  0.56244651  0.12500267  0.91776463  1
  Se  Se24  1  0.93206980  0.69335073  0.01455533  1
  Se  Se25  1  0.06793020  0.30664927  0.51455533  1
  Se  Se26  1  0.93206980  0.80664927  0.51455533  1
  Se  Se27  1  0.06793020  0.19335073  0.01455533  1
  Se  Se28  1  0.92428728  0.17283562  0.30211261  1
  Se  Se29  1  0.07571272  0.82716438  0.80211261  1
  Se  Se30  1  0.92428728  0.32716438  0.80211261  1
  Se  Se31  1  0.07571272  0.67283562  0.30211261  1
  O  O32  1  0.63630405  0.78222788  0.18373273  1
  O  O33  1  0.36369595  0.21777212  0.68373273  1
  O  O34  1  0.63630405  0.71777212  0.68373273  1
  O  O35  1  0.36369595  0.28222788  0.18373273  1
  O  O36  1  0.40508280  0.57637836  0.13772501  1
  O  O37  1  0.59491720  0.42362164  0.63772501  1
  O  O38  1  0.40508280  0.92362164  0.63772501  1
  O  O39  1  0.59491720  0.07637836  0.13772501  1
  O  O40  1  0.26182000  0.96969515  0.16840431  1
  O  O41  1  0.73818000  0.03030485  0.66840431  1
  O  O42  1  0.26182000  0.53030485  0.66840431  1
  O  O43  1  0.73818000  0.46969515  0.16840431  1
  O  O44  1  0.36485929  0.81242718  0.92776420  1
  O  O45  1  0.63514071  0.18757282  0.42776420  1
  O  O46  1  0.36485929  0.68757282  0.42776420  1
  O  O47  1  0.63514071  0.31242718  0.92776420  1
  O  O48  1  0.47085864  0.58229916  0.00209034  1
  O  O49  1  0.52914136  0.41770084  0.50209034  1
  O  O50  1  0.47085864  0.91770084  0.50209034  1
  O  O51  1  0.52914136  0.08229916  0.00209034  1
  O  O52  1  0.67752425  0.66331731  0.88974768  1
  O  O53  1  0.32247575  0.33668269  0.38974768  1
  O  O54  1  0.67752425  0.83668269  0.38974768  1
  O  O55  1  0.32247575  0.16331731  0.88974768  1
  O  O56  1  0.76401475  0.81746685  0.04853421  1
  O  O57  1  0.23598525  0.18253315  0.54853421  1
  O  O58  1  0.76401475  0.68253315  0.54853421  1
  O  O59  1  0.23598525  0.31746685  0.04853421  1
  O  O60  1  0.09553917  0.71133341  0.08146720  1
  O  O61  1  0.90446083  0.28866659  0.58146720  1
  O  O62  1  0.09553917  0.78866659  0.58146720  1
  O  O63  1  0.90446083  0.21133341  0.08146720  1
  O  O64  1  0.86435885  0.50557270  0.03391797  1
  O  O65  1  0.13564115  0.49442730  0.53391797  1
  O  O66  1  0.86435885  0.99442730  0.53391797  1
  O  O67  1  0.13564115  0.00557270  0.03391797  1
  O  O68  1  0.81718382  0.99732560  0.28899167  1
  O  O69  1  0.18281618  0.00267440  0.78899167  1
  O  O70  1  0.81718382  0.50267440  0.78899167  1
  O  O71  1  0.18281618  0.49732560  0.28899167  1
  O  O72  1  0.98301825  0.20861236  0.21913831  1
  O  O73  1  0.01698175  0.79138764  0.71913831  1
  O  O74  1  0.98301825  0.29138764  0.71913831  1
  O  O75  1  0.01698175  0.70861236  0.21913831  1
  O  O76  1  0.13763454  0.09115097  0.33720654  1
  O  O77  1  0.86236546  0.90884903  0.83720654  1
  O  O78  1  0.13763454  0.40884903  0.83720654  1
  O  O79  1  0.86236546  0.59115097  0.33720654  1
