# generated using pymatgen
data_SbP2AuF12
_symmetry_space_group_name_H-M   'P 1'
_cell_length_a   8.55785567
_cell_length_b   8.56686036
_cell_length_c   9.12457841
_cell_angle_alpha   90.00000000
_cell_angle_beta   90.00000000
_cell_angle_gamma   120.58838292
_symmetry_Int_Tables_number   1
_chemical_formula_structural   SbP2AuF12
_chemical_formula_sum   'Sb2 P4 Au2 F24'
_cell_volume   575.87009456
_cell_formula_units_Z   2
loop_
 _symmetry_equiv_pos_site_id
 _symmetry_equiv_pos_as_xyz
  1  'x, y, z'
loop_
 _atom_site_type_symbol
 _atom_site_label
 _atom_site_symmetry_multiplicity
 _atom_site_fract_x
 _atom_site_fract_y
 _atom_site_fract_z
 _atom_site_occupancy
  Sb  Sb0  1  -0.00000000  0.50000000  0.50000000  1
  Sb  Sb1  1  0.00000000  -0.00000000  -0.00000000  1
  P  P2  1  0.30982562  0.65669707  0.02662924  1
  P  P3  1  0.69017438  0.84330293  0.52662924  1
  P  P4  1  0.69017438  0.34330293  0.97337076  1
  P  P5  1  0.30982562  0.15669707  0.47337076  1
  Au  Au6  1  -0.00000000  0.50000000  0.00000000  1
  Au  Au7  1  0.00000000  -0.00000000  0.50000000  1
  F  F8  1  0.83562330  0.56908238  0.42108648  1
  F  F9  1  0.16437670  0.93091762  0.92108648  1
  F  F10  1  0.16437670  0.43091762  0.57891352  1
  F  F11  1  0.83562330  0.06908238  0.07891352  1
  F  F12  1  0.85993284  0.26523137  0.41045349  1
  F  F13  1  0.14006716  0.23476863  0.91045349  1
  F  F14  1  0.14006716  0.73476863  0.58954651  1
  F  F15  1  0.85993284  0.76523137  0.08954651  1
  F  F16  1  0.85186140  0.41156786  0.67355435  1
  F  F17  1  0.14813860  0.08843214  0.17355435  1
  F  F18  1  0.14813860  0.58843214  0.32644565  1
  F  F19  1  0.85186140  0.91156786  0.82644565  1
  F  F20  1  0.39788248  0.83670258  0.11444672  1
  F  F21  1  0.60211752  0.66329742  0.61444672  1
  F  F22  1  0.60211752  0.16329742  0.88555328  1
  F  F23  1  0.39788248  0.33670258  0.38555328  1
  F  F24  1  0.39479202  0.55452041  0.10194999  1
  F  F25  1  0.60520798  0.94547959  0.60194999  1
  F  F26  1  0.60520798  0.44547959  0.89805001  1
  F  F27  1  0.39479202  0.05452041  0.39805001  1
  F  F28  1  0.41901517  0.71798203  0.88115622  1
  F  F29  1  0.58098483  0.78201797  0.38115622  1
  F  F30  1  0.58098483  0.28201797  0.11884378  1
  F  F31  1  0.41901517  0.21798203  0.61884378  1
