# generated using pymatgen
data_UH24C8N2(Cl2O)2
_symmetry_space_group_name_H-M   'P 1'
_cell_length_a   9.33421217
_cell_length_b   9.33421217
_cell_length_c   12.24277207
_cell_angle_alpha   90.00000000
_cell_angle_beta   90.00000000
_cell_angle_gamma   90.00000000
_symmetry_Int_Tables_number   1
_chemical_formula_structural   UH24C8N2(Cl2O)2
_chemical_formula_sum   'U2 H48 C16 N4 Cl8 O4'
_cell_volume   1066.68232963
_cell_formula_units_Z   2
loop_
 _symmetry_equiv_pos_site_id
 _symmetry_equiv_pos_as_xyz
  1  'x, y, z'
loop_
 _atom_site_type_symbol
 _atom_site_label
 _atom_site_symmetry_multiplicity
 _atom_site_fract_x
 _atom_site_fract_y
 _atom_site_fract_z
 _atom_site_occupancy
  U  U0  1  0.50000000  0.50000000  0.50000000  1
  U  U1  1  0.00000000  0.00000000  -0.00000000  1
  H  H2  1  0.47201103  0.15567676  0.12627573  1
  H  H3  1  0.52798897  0.84432324  0.12627573  1
  H  H4  1  0.02798897  0.65567676  0.62627573  1
  H  H5  1  0.97201103  0.34432324  0.62627573  1
  H  H6  1  0.52798897  0.84432324  0.87372427  1
  H  H7  1  0.47201103  0.15567676  0.87372427  1
  H  H8  1  0.97201103  0.34432324  0.37372427  1
  H  H9  1  0.02798897  0.65567676  0.37372427  1
  H  H10  1  0.15567676  0.47201103  0.12627573  1
  H  H11  1  0.84432324  0.52798897  0.12627573  1
  H  H12  1  0.65567676  0.02798897  0.62627573  1
  H  H13  1  0.34432324  0.97201103  0.62627573  1
  H  H14  1  0.84432324  0.52798897  0.87372427  1
  H  H15  1  0.15567676  0.47201103  0.87372427  1
  H  H16  1  0.34432324  0.97201103  0.37372427  1
  H  H17  1  0.65567676  0.02798897  0.37372427  1
  H  H18  1  0.59830438  0.20327323  0.23087148  1
  H  H19  1  0.40169562  0.79672677  0.23087148  1
  H  H20  1  0.90169562  0.70327323  0.73087148  1
  H  H21  1  0.09830438  0.29672677  0.73087148  1
  H  H22  1  0.40169562  0.79672677  0.76912852  1
  H  H23  1  0.59830438  0.20327323  0.76912852  1
  H  H24  1  0.09830438  0.29672677  0.26912852  1
  H  H25  1  0.90169562  0.70327323  0.26912852  1
  H  H26  1  0.20327323  0.59830438  0.23087148  1
  H  H27  1  0.79672677  0.40169562  0.23087148  1
  H  H28  1  0.70327323  0.90169562  0.73087148  1
  H  H29  1  0.29672677  0.09830438  0.73087148  1
  H  H30  1  0.79672677  0.40169562  0.76912852  1
  H  H31  1  0.20327323  0.59830438  0.76912852  1
  H  H32  1  0.29672677  0.09830438  0.26912852  1
  H  H33  1  0.70327323  0.90169562  0.26912852  1
  H  H34  1  0.64568308  0.07172979  0.12898925  1
  H  H35  1  0.35431692  0.92827021  0.12898925  1
  H  H36  1  0.85431692  0.57172979  0.62898925  1
  H  H37  1  0.14568308  0.42827021  0.62898925  1
  H  H38  1  0.35431692  0.92827021  0.87101075  1
  H  H39  1  0.64568308  0.07172979  0.87101075  1
  H  H40  1  0.14568308  0.42827021  0.37101075  1
  H  H41  1  0.85431692  0.57172979  0.37101075  1
  H  H42  1  0.07172979  0.64568308  0.12898925  1
  H  H43  1  0.92827021  0.35431692  0.12898925  1
  H  H44  1  0.57172979  0.85431692  0.62898925  1
  H  H45  1  0.42827021  0.14568308  0.62898925  1
  H  H46  1  0.92827021  0.35431692  0.87101075  1
  H  H47  1  0.07172979  0.64568308  0.87101075  1
  H  H48  1  0.42827021  0.14568308  0.37101075  1
  H  H49  1  0.57172979  0.85431692  0.37101075  1
  C  C50  1  0.55908924  0.11669206  0.17860410  1
  C  C51  1  0.44091076  0.88330794  0.17860410  1
  C  C52  1  0.94091076  0.61669206  0.67860410  1
  C  C53  1  0.05908924  0.38330794  0.67860410  1
  C  C54  1  0.44091076  0.88330794  0.82139590  1
  C  C55  1  0.55908924  0.11669206  0.82139590  1
  C  C56  1  0.05908924  0.38330794  0.32139590  1
  C  C57  1  0.94091076  0.61669206  0.32139590  1
  C  C58  1  0.11669206  0.55908924  0.17860410  1
  C  C59  1  0.88330794  0.44091076  0.17860410  1
  C  C60  1  0.61669206  0.94091076  0.67860410  1
  C  C61  1  0.38330794  0.05908924  0.67860410  1
  C  C62  1  0.88330794  0.44091076  0.82139590  1
  C  C63  1  0.11669206  0.55908924  0.82139590  1
  C  C64  1  0.38330794  0.05908924  0.32139590  1
  C  C65  1  0.61669206  0.94091076  0.32139590  1
  N  N66  1  0.50000000  0.00000000  0.25000000  1
  N  N67  1  -0.00000000  0.50000000  0.75000000  1
  N  N68  1  0.50000000  0.00000000  0.75000000  1
  N  N69  1  -0.00000000  0.50000000  0.25000000  1
  Cl  Cl70  1  0.50000000  0.50000000  0.28292030  1
  Cl  Cl71  1  -0.00000000  -0.00000000  0.78292030  1
  Cl  Cl72  1  0.50000000  0.50000000  0.71707970  1
  Cl  Cl73  1  -0.00000000  0.00000000  0.21707970  1
  Cl  Cl74  1  0.70397260  0.29602740  0.50000000  1
  Cl  Cl75  1  0.29602740  0.70397260  0.50000000  1
  Cl  Cl76  1  0.79602740  0.79602740  -0.00000000  1
  Cl  Cl77  1  0.20397260  0.20397260  -0.00000000  1
  O  O78  1  0.36226316  0.36226316  0.50000000  1
  O  O79  1  0.63773684  0.63773684  0.50000000  1
  O  O80  1  0.13773684  0.86226316  -0.00000000  1
  O  O81  1  0.86226316  0.13773684  -0.00000000  1
