# generated using pymatgen
data_H14Pb6C8O13
_symmetry_space_group_name_H-M   'P 1'
_cell_length_a   7.42985718
_cell_length_b   11.93040680
_cell_length_c   14.18777688
_cell_angle_alpha   113.08198801
_cell_angle_beta   99.78997732
_cell_angle_gamma   90.07367287
_symmetry_Int_Tables_number   1
_chemical_formula_structural   H14Pb6C8O13
_chemical_formula_sum   'H28 Pb12 C16 O26'
_cell_volume   1136.88784535
_cell_formula_units_Z   2
loop_
 _symmetry_equiv_pos_site_id
 _symmetry_equiv_pos_as_xyz
  1  'x, y, z'
loop_
 _atom_site_type_symbol
 _atom_site_label
 _atom_site_symmetry_multiplicity
 _atom_site_fract_x
 _atom_site_fract_y
 _atom_site_fract_z
 _atom_site_occupancy
  H  H0  1  0.29406443  0.55004413  0.34536303  1
  H  H1  1  0.70593557  0.44995587  0.65463697  1
  H  H2  1  0.08276291  0.52572895  0.34264236  1
  H  H3  1  0.91723709  0.47427105  0.65735764  1
  H  H4  1  0.86202739  0.54446917  0.46177299  1
  H  H5  1  0.13797261  0.45553083  0.53822701  1
  H  H6  1  0.71974351  0.66692136  0.47160777  1
  H  H7  1  0.28025649  0.33307864  0.52839223  1
  H  H8  1  0.62934483  0.53236457  0.47641757  1
  H  H9  1  0.37065517  0.46763543  0.52358243  1
  H  H10  1  0.45381426  0.32386678  0.35593146  1
  H  H11  1  0.54618574  0.67613322  0.64406854  1
  H  H12  1  0.33413769  0.17968223  0.32085102  1
  H  H13  1  0.66586231  0.82031777  0.67914898  1
  H  H14  1  0.57784251  0.19007086  0.33384174  1
  H  H15  1  0.42215749  0.80992914  0.66615826  1
  H  H16  1  0.13658979  0.79610717  0.54277494  1
  H  H17  1  0.86341021  0.20389283  0.45722506  1
  H  H18  1  0.93389116  0.86362355  0.51023856  1
  H  H19  1  0.06610884  0.13637645  0.48976144  1
  H  H20  1  0.15633523  0.93007462  0.52013628  1
  H  H21  1  0.84366477  0.06992538  0.47986372  1
  H  H22  1  0.59910120  0.23577550  0.63619072  1
  H  H23  1  0.40089880  0.76422450  0.36380928  1
  H  H24  1  0.61999901  0.10517629  0.66666950  1
  H  H25  1  0.38000099  0.89482371  0.33333050  1
  H  H26  1  0.39819550  0.15759649  0.64346807  1
  H  H27  1  0.60180450  0.84240351  0.35653193  1
  Pb  Pb28  1  0.65699202  0.41360405  0.07998026  1
  Pb  Pb29  1  0.34300798  0.58639595  0.92001974  1
  Pb  Pb30  1  0.92404937  0.22333859  0.20501919  1
  Pb  Pb31  1  0.07595063  0.77666141  0.79498081  1
  Pb  Pb32  1  0.13988051  0.40738921  0.06840608  1
  Pb  Pb33  1  0.86011949  0.59261079  0.93159392  1
  Pb  Pb34  1  0.86528250  0.08922714  0.92128679  1
  Pb  Pb35  1  0.13471750  0.91077286  0.07871321  1
  Pb  Pb36  1  0.05821331  0.27742021  0.78424865  1
  Pb  Pb37  1  0.94178669  0.72257979  0.21575135  1
  Pb  Pb38  1  0.33610675  0.08913885  0.91528387  1
  Pb  Pb39  1  0.66389325  0.91086115  0.08471613  1
  C  C40  1  0.65946770  0.51615490  0.32284518  1
  C  C41  1  0.34053230  0.48384510  0.67715482  1
  C  C42  1  0.72240935  0.56689840  0.44008066  1
  C  C43  1  0.27759065  0.43310160  0.55991934  1
  C  C44  1  0.43033820  0.20803986  0.19579543  1
  C  C45  1  0.56966180  0.79196014  0.80420457  1
  C  C46  1  0.45094730  0.22542054  0.30859515  1
  C  C47  1  0.54905270  0.77457946  0.69140485  1
  C  C48  1  0.08108209  0.96168977  0.66851213  1
  C  C49  1  0.91891791  0.03831023  0.33148787  1
  C  C50  1  0.07511658  0.88309749  0.55351236  1
  C  C51  1  0.92488342  0.11690251  0.44648764  1
  C  C52  1  0.56866300  0.26936439  0.79182390  1
  C  C53  1  0.43133700  0.73063561  0.20817610  1
  C  C54  1  0.54294483  0.18653542  0.67721757  1
  C  C55  1  0.45705517  0.81346458  0.32278243  1
  O  O56  1  0.88561931  0.28514888  0.07391165  1
  O  O57  1  0.11438069  0.71485112  0.92608835  1
  O  O58  1  0.88405171  0.03507772  0.07665193  1
  O  O59  1  0.11594829  0.96492228  0.92334807  1
  O  O60  1  0.11085997  0.46204033  0.91935636  1
  O  O61  1  0.88914003  0.53795967  0.08064364  1
  O  O62  1  0.11131659  0.21547453  0.91847374  1
  O  O63  1  0.88868341  0.78452547  0.08152626  1
  O  O64  1  0.18637232  0.58680043  0.37530950  1
  O  O65  1  0.81362768  0.41319957  0.62469050  1
  O  O66  1  0.78632331  0.48869687  0.26648760  1
  O  O67  1  0.21367669  0.51130313  0.73351240  1
  O  O68  1  0.49112850  0.50348322  0.28421260  1
  O  O69  1  0.50887150  0.49651678  0.71578740  1
  O  O70  1  0.26967670  0.19813529  0.14256262  1
  O  O71  1  0.73032330  0.80186471  0.85743738  1
  O  O72  1  0.57396159  0.20344007  0.15528800  1
  O  O73  1  0.42603841  0.79655993  0.84471200  1
  O  O74  1  0.42896357  0.30335272  0.83495144  1
  O  O75  1  0.57103643  0.69664728  0.16504856  1
  O  O76  1  0.73279469  0.30250732  0.84370351  1
  O  O77  1  0.26720531  0.69749268  0.15629649  1
  O  O78  1  0.24302233  0.99284120  0.72551297  1
  O  O79  1  0.75697767  0.00715880  0.27448703  1
  O  O80  1  0.93314083  0.99135614  0.70160767  1
  O  O81  1  0.06685917  0.00864386  0.29839233  1
