# generated using pymatgen
data_Mn7(AsO8)2
_symmetry_space_group_name_H-M   'P 1'
_cell_length_a   5.16794058
_cell_length_b   9.95517558
_cell_length_c   11.55332874
_cell_angle_alpha   90.00000000
_cell_angle_beta   90.00000000
_cell_angle_gamma   94.65012069
_symmetry_Int_Tables_number   1
_chemical_formula_structural   Mn7(AsO8)2
_chemical_formula_sum   'Mn14 As4 O32'
_cell_volume   592.43629818
_cell_formula_units_Z   2
loop_
 _symmetry_equiv_pos_site_id
 _symmetry_equiv_pos_as_xyz
  1  'x, y, z'
loop_
 _atom_site_type_symbol
 _atom_site_label
 _atom_site_symmetry_multiplicity
 _atom_site_fract_x
 _atom_site_fract_y
 _atom_site_fract_z
 _atom_site_occupancy
  Mn  Mn0  1  0.50000000  0.50000000  0.50000000  1
  Mn  Mn1  1  -0.00000000  -0.00000000  -0.00000000  1
  Mn  Mn2  1  0.75832792  0.71298443  0.67725531  1
  Mn  Mn3  1  0.74167208  0.78701557  0.17725531  1
  Mn  Mn4  1  0.24167208  0.28701557  0.32274469  1
  Mn  Mn5  1  0.25832792  0.21298443  0.82274469  1
  Mn  Mn6  1  0.76360034  0.49668236  0.92118637  1
  Mn  Mn7  1  0.73639966  0.00331764  0.42118637  1
  Mn  Mn8  1  0.23639966  0.50331764  0.07881363  1
  Mn  Mn9  1  0.26360034  0.99668236  0.57881363  1
  Mn  Mn10  1  0.25118031  0.49951634  0.78596183  1
  Mn  Mn11  1  0.24881969  0.00048366  0.28596183  1
  Mn  Mn12  1  0.74881969  0.50048366  0.21403817  1
  Mn  Mn13  1  0.75118031  0.99951634  0.71403817  1
  As  As14  1  0.93855556  0.29067382  0.57365155  1
  As  As15  1  0.56144444  0.20932618  0.07365155  1
  As  As16  1  0.06144444  0.70932618  0.42634845  1
  As  As17  1  0.43855556  0.79067382  0.92634845  1
  O  O18  1  0.93475179  0.59288385  0.79123006  1
  O  O19  1  0.56524821  0.90711615  0.29123006  1
  O  O20  1  0.06524821  0.40711615  0.20876994  1
  O  O21  1  0.43475179  0.09288385  0.70876994  1
  O  O22  1  0.56026498  0.38567723  0.06478659  1
  O  O23  1  0.93973502  0.11432277  0.56478659  1
  O  O24  1  0.43973502  0.61432277  0.93521341  1
  O  O25  1  0.06026498  0.88567723  0.43521341  1
  O  O26  1  0.44727633  0.58379696  0.65560428  1
  O  O27  1  0.05272367  0.91620304  0.15560428  1
  O  O28  1  0.55272367  0.41620304  0.34439572  1
  O  O29  1  0.94727633  0.08379696  0.84439572  1
  O  O30  1  0.09033985  0.32342710  0.70314246  1
  O  O31  1  0.40966015  0.17657290  0.20314246  1
  O  O32  1  0.90966015  0.67657290  0.29685754  1
  O  O33  1  0.59033985  0.82342710  0.79685754  1
  O  O34  1  0.07275782  0.40809954  0.92858547  1
  O  O35  1  0.42724218  0.09190046  0.42858547  1
  O  O36  1  0.92724218  0.59190046  0.07141453  1
  O  O37  1  0.57275782  0.90809954  0.57141453  1
  O  O38  1  0.48789190  0.62446025  0.17425472  1
  O  O39  1  0.01210810  0.87553975  0.67425472  1
  O  O40  1  0.51210810  0.37553975  0.82574528  1
  O  O41  1  0.98789190  0.12446025  0.32574528  1
  O  O42  1  0.13034215  0.36991974  0.46780549  1
  O  O43  1  0.36965785  0.13008026  0.96780549  1
  O  O44  1  0.86965785  0.63008026  0.53219451  1
  O  O45  1  0.63034215  0.86991974  0.03219451  1
  O  O46  1  0.13574948  0.84061151  0.92761815  1
  O  O47  1  0.36425052  0.65938849  0.42761815  1
  O  O48  1  0.86425052  0.15938849  0.07238185  1
  O  O49  1  0.63574948  0.34061151  0.57238185  1
