# generated using pymatgen
data_Ca2Y2Si4CO16
_symmetry_space_group_name_H-M   'P 1'
_cell_length_a   6.80372105
_cell_length_b   13.15130461
_cell_length_c   14.47472980
_cell_angle_alpha   90.00000000
_cell_angle_beta   90.00000000
_cell_angle_gamma   90.00000000
_symmetry_Int_Tables_number   1
_chemical_formula_structural   Ca2Y2Si4CO16
_chemical_formula_sum   'Ca8 Y8 Si16 C4 O64'
_cell_volume   1295.16709404
_cell_formula_units_Z   4
loop_
 _symmetry_equiv_pos_site_id
 _symmetry_equiv_pos_as_xyz
  1  'x, y, z'
loop_
 _atom_site_type_symbol
 _atom_site_label
 _atom_site_symmetry_multiplicity
 _atom_site_fract_x
 _atom_site_fract_y
 _atom_site_fract_z
 _atom_site_occupancy
  Ca  Ca0  1  0.19373854  0.07365415  0.94979636  1
  Ca  Ca1  1  0.30626146  0.42634585  0.44979636  1
  Ca  Ca2  1  0.80626146  0.57365415  0.05020364  1
  Ca  Ca3  1  0.69373854  0.92634585  0.55020364  1
  Ca  Ca4  1  0.80626146  0.92634585  0.05020364  1
  Ca  Ca5  1  0.69373854  0.57365415  0.55020364  1
  Ca  Ca6  1  0.19373854  0.42634585  0.94979636  1
  Ca  Ca7  1  0.30626146  0.07365415  0.44979636  1
  Y  Y8  1  0.38690134  0.06027746  0.72011410  1
  Y  Y9  1  0.11309866  0.43972254  0.22011410  1
  Y  Y10  1  0.61309866  0.56027746  0.27988590  1
  Y  Y11  1  0.88690134  0.93972254  0.77988590  1
  Y  Y12  1  0.61309866  0.93972254  0.27988590  1
  Y  Y13  1  0.88690134  0.56027746  0.77988590  1
  Y  Y14  1  0.38690134  0.43972254  0.72011410  1
  Y  Y15  1  0.11309866  0.06027746  0.22011410  1
  Si  Si16  1  0.88793529  0.13043760  0.64735119  1
  Si  Si17  1  0.61206471  0.36956240  0.14735119  1
  Si  Si18  1  0.11206471  0.63043760  0.35264881  1
  Si  Si19  1  0.38793529  0.86956240  0.85264881  1
  Si  Si20  1  0.11206471  0.86956240  0.35264881  1
  Si  Si21  1  0.38793529  0.63043760  0.85264881  1
  Si  Si22  1  0.88793529  0.36956240  0.64735119  1
  Si  Si23  1  0.61206471  0.13043760  0.14735119  1
  Si  Si24  1  0.66291832  0.13175705  0.93161511  1
  Si  Si25  1  0.83708168  0.36824295  0.43161511  1
  Si  Si26  1  0.33708168  0.63175705  0.06838489  1
  Si  Si27  1  0.16291832  0.86824295  0.56838489  1
  Si  Si28  1  0.33708168  0.86824295  0.06838489  1
  Si  Si29  1  0.16291832  0.63175705  0.56838489  1
  Si  Si30  1  0.66291832  0.36824295  0.93161511  1
  Si  Si31  1  0.83708168  0.13175705  0.43161511  1
  C  C32  1  0.38772466  0.25000000  0.62084717  1
  C  C33  1  0.11227534  0.25000000  0.12084717  1
  C  C34  1  0.61227534  0.75000000  0.37915283  1
  C  C35  1  0.88772466  0.75000000  0.87915283  1
  O  O36  1  0.93876153  0.11197302  0.53608980  1
  O  O37  1  0.56123847  0.38802698  0.03608980  1
  O  O38  1  0.06123847  0.61197302  0.46391020  1
  O  O39  1  0.43876153  0.88802698  0.96391020  1
  O  O40  1  0.06123847  0.88802698  0.46391020  1
  O  O41  1  0.43876153  0.61197302  0.96391020  1
  O  O42  1  0.93876153  0.38802698  0.53608980  1
  O  O43  1  0.56123847  0.11197302  0.03608980  1
  O  O44  1  0.70520693  0.05383986  0.67188819  1
  O  O45  1  0.79479307  0.44616014  0.17188819  1
  O  O46  1  0.29479307  0.55383986  0.32811181  1
  O  O47  1  0.20520693  0.94616014  0.82811181  1
  O  O48  1  0.29479307  0.94616014  0.32811181  1
  O  O49  1  0.20520693  0.55383986  0.82811181  1
  O  O50  1  0.70520693  0.44616014  0.67188819  1
  O  O51  1  0.79479307  0.05383986  0.17188819  1
  O  O52  1  0.06183407  0.09172741  0.71481367  1
  O  O53  1  0.43816593  0.40827259  0.21481367  1
  O  O54  1  0.93816593  0.59172741  0.28518633  1
  O  O55  1  0.56183407  0.90827259  0.78518633  1
  O  O56  1  0.93816593  0.90827259  0.28518633  1
  O  O57  1  0.56183407  0.59172741  0.78518633  1
  O  O58  1  0.06183407  0.40827259  0.71481367  1
  O  O59  1  0.43816593  0.09172741  0.21481367  1
  O  O60  1  0.83063543  0.25000000  0.66162165  1
  O  O61  1  0.66936457  0.25000000  0.16162165  1
  O  O62  1  0.16936457  0.75000000  0.33837835  1
  O  O63  1  0.33063543  0.75000000  0.83837835  1
  O  O64  1  0.84394312  0.05115573  0.91817903  1
  O  O65  1  0.65605688  0.44884427  0.41817903  1
  O  O66  1  0.15605688  0.55115573  0.08182097  1
  O  O67  1  0.34394312  0.94884427  0.58182097  1
  O  O68  1  0.15605688  0.94884427  0.08182097  1
  O  O69  1  0.34394312  0.55115573  0.58182097  1
  O  O70  1  0.84394312  0.44884427  0.91817903  1
  O  O71  1  0.65605688  0.05115573  0.41817903  1
  O  O72  1  0.47675081  0.11220164  0.86362915  1
  O  O73  1  0.02324919  0.38779836  0.36362915  1
  O  O74  1  0.52324919  0.61220164  0.13637085  1
  O  O75  1  0.97675081  0.88779836  0.63637085  1
  O  O76  1  0.52324919  0.88779836  0.13637085  1
  O  O77  1  0.97675081  0.61220164  0.63637085  1
  O  O78  1  0.47675081  0.38779836  0.86362915  1
  O  O79  1  0.02324919  0.11220164  0.36362915  1
  O  O80  1  0.74343474  0.25000000  0.92701154  1
  O  O81  1  0.75656526  0.25000000  0.42701154  1
  O  O82  1  0.25656526  0.75000000  0.07298846  1
  O  O83  1  0.24343474  0.75000000  0.57298846  1
  O  O84  1  0.38138504  0.16357800  0.57828806  1
  O  O85  1  0.11861496  0.33642200  0.07828806  1
  O  O86  1  0.61861496  0.66357800  0.42171194  1
  O  O87  1  0.88138504  0.83642200  0.92171194  1
  O  O88  1  0.61861496  0.83642200  0.42171194  1
  O  O89  1  0.88138504  0.66357800  0.92171194  1
  O  O90  1  0.38138504  0.33642200  0.57828806  1
  O  O91  1  0.11861496  0.16357800  0.07828806  1
  O  O92  1  0.39952492  0.25000000  0.70984544  1
  O  O93  1  0.10047508  0.25000000  0.20984544  1
  O  O94  1  0.60047508  0.75000000  0.29015456  1
  O  O95  1  0.89952492  0.75000000  0.79015456  1
  O  O96  1  0.15495482  0.25000000  0.89687072  1
  O  O97  1  0.34504518  0.25000000  0.39687072  1
  O  O98  1  0.84504518  0.75000000  0.10312928  1
  O  O99  1  0.65495482  0.75000000  0.60312928  1
