# generated using pymatgen
data_Cu2As(HO3)2
_symmetry_space_group_name_H-M   'P 1'
_cell_length_a   5.41032210
_cell_length_b   9.06408336
_cell_length_c   9.94258754
_cell_angle_alpha   74.59639805
_cell_angle_beta   82.22515805
_cell_angle_gamma   79.42552542
_symmetry_Int_Tables_number   1
_chemical_formula_structural   Cu2As(HO3)2
_chemical_formula_sum   'Cu8 As4 H8 O24'
_cell_volume   460.15265629
_cell_formula_units_Z   4
loop_
 _symmetry_equiv_pos_site_id
 _symmetry_equiv_pos_as_xyz
  1  'x, y, z'
loop_
 _atom_site_type_symbol
 _atom_site_label
 _atom_site_symmetry_multiplicity
 _atom_site_fract_x
 _atom_site_fract_y
 _atom_site_fract_z
 _atom_site_occupancy
  Cu  Cu0  1  0.76672340  0.49185296  0.74667467  1
  Cu  Cu1  1  0.23327660  0.50814704  0.25332533  1
  Cu  Cu2  1  0.00000000  0.50000000  -0.00000000  1
  Cu  Cu3  1  0.50000000  0.50000000  0.50000000  1
  Cu  Cu4  1  0.13634430  0.10429524  0.87164561  1
  Cu  Cu5  1  0.86365570  0.89570476  0.12835439  1
  Cu  Cu6  1  0.41320810  0.00189465  0.36373590  1
  Cu  Cu7  1  0.58679190  0.99810535  0.63626410  1
  As  As8  1  0.58977684  0.24713170  0.04133177  1
  As  As9  1  0.41022316  0.75286830  0.95866823  1
  As  As10  1  0.06987094  0.24691235  0.54100432  1
  As  As11  1  0.93012906  0.75308765  0.45899568  1
  H  H12  1  0.48062507  0.31444672  0.72973118  1
  H  H13  1  0.51937493  0.68555328  0.27026882  1
  H  H14  1  0.19147751  0.53211756  0.75799198  1
  H  H15  1  0.80852249  0.46788244  0.24200802  1
  H  H16  1  0.60402466  0.06956726  0.84727455  1
  H  H17  1  0.39597534  0.93043274  0.15272545  1
  H  H18  1  0.16069957  0.15429721  0.19206480  1
  H  H19  1  0.83930043  0.84570279  0.80793520  1
  O  O20  1  0.29690143  0.25337208  0.99306268  1
  O  O21  1  0.70309857  0.74662792  0.00693732  1
  O  O22  1  0.59938736  0.23548408  0.21138151  1
  O  O23  1  0.40061264  0.76451592  0.78861849  1
  O  O24  1  0.72975254  0.41048404  0.94375384  1
  O  O25  1  0.27024746  0.58951596  0.05624616  1
  O  O26  1  0.79843984  0.09161505  0.98139578  1
  O  O27  1  0.20156016  0.90838495  0.01860422  1
  O  O28  1  0.04151622  0.26702739  0.71227387  1
  O  O29  1  0.95848378  0.73297261  0.28772613  1
  O  O30  1  0.78355835  0.25811048  0.49018899  1
  O  O31  1  0.21644165  0.74188952  0.50981101  1
  O  O32  1  0.29586893  0.08032540  0.52917680  1
  O  O33  1  0.70413107  0.91967460  0.47082320  1
  O  O34  1  0.22256089  0.40615878  0.44779430  1
  O  O35  1  0.77743911  0.59384122  0.55220570  1
  O  O36  1  0.47892678  0.42829594  0.70081075  1
  O  O37  1  0.52107322  0.57170406  0.29918925  1
  O  O38  1  0.02253784  0.57364038  0.79972492  1
  O  O39  1  0.97746216  0.42635962  0.20027508  1
  O  O40  1  0.47175187  0.09664726  0.78029925  1
  O  O41  1  0.52824813  0.90335274  0.21970075  1
  O  O42  1  0.12517996  0.07192604  0.27659702  1
  O  O43  1  0.87482004  0.92807396  0.72340298  1
