# generated using pymatgen
data_Nb5H50C12(NO7)3
_symmetry_space_group_name_H-M   'P 1'
_cell_length_a   11.32742376
_cell_length_b   12.43108244
_cell_length_c   13.71312597
_cell_angle_alpha   86.35556883
_cell_angle_beta   68.32402266
_cell_angle_gamma   87.94661763
_symmetry_Int_Tables_number   1
_chemical_formula_structural   Nb5H50C12(NO7)3
_chemical_formula_sum   'Nb10 H100 C24 N6 O42'
_cell_volume   1790.64291221
_cell_formula_units_Z   2
loop_
 _symmetry_equiv_pos_site_id
 _symmetry_equiv_pos_as_xyz
  1  'x, y, z'
loop_
 _atom_site_type_symbol
 _atom_site_label
 _atom_site_symmetry_multiplicity
 _atom_site_fract_x
 _atom_site_fract_y
 _atom_site_fract_z
 _atom_site_occupancy
  Nb  Nb0  1  0.64195335  0.46622409  0.01716730  1
  Nb  Nb1  1  0.35804665  0.53377591  0.98283270  1
  Nb  Nb2  1  0.52293140  0.72609560  0.04593735  1
  Nb  Nb3  1  0.47706860  0.27390440  0.95406265  1
  Nb  Nb4  1  0.64691069  0.63002561  0.80570202  1
  Nb  Nb5  1  0.35308931  0.36997439  0.19429798  1
  Nb  Nb6  1  0.51941966  0.55963940  0.25803643  1
  Nb  Nb7  1  0.48058034  0.44036060  0.74196357  1
  Nb  Nb8  1  0.76011690  0.37047704  0.77764548  1
  Nb  Nb9  1  0.23988310  0.62952296  0.22235452  1
  H  H10  1  0.98824696  0.04859539  0.31319700  1
  H  H11  1  0.01175304  0.95140461  0.68680300  1
  H  H12  1  0.90156895  0.95063310  0.38236294  1
  H  H13  1  0.09843105  0.04936690  0.61763706  1
  H  H14  1  0.71021424  0.11681703  0.25313514  1
  H  H15  1  0.28978576  0.88318297  0.74686486  1
  H  H16  1  0.77748541  0.06576630  0.33012815  1
  H  H17  1  0.22251459  0.93423370  0.66987185  1
  H  H18  1  0.71388135  0.12441515  0.06728689  1
  H  H19  1  0.28611865  0.87558485  0.93271311  1
  H  H20  1  0.65236752  0.22956308  0.12053472  1
  H  H21  1  0.34763248  0.77043692  0.87946528  1
  H  H22  1  0.60801201  0.66553599  0.57057120  1
  H  H23  1  0.39198799  0.33446401  0.42942880  1
  H  H24  1  0.61078891  0.65566424  0.45545407  1
  H  H25  1  0.38921109  0.34433576  0.54454593  1
  H  H26  1  0.17524516  0.05344868  0.16039066  1
  H  H27  1  0.82475484  0.94655132  0.83960934  1
  H  H28  1  0.18140179  0.15356718  0.22452011  1
  H  H29  1  0.81859821  0.84643282  0.77547989  1
  H  H30  1  0.34253762  0.01887975  0.03097924  1
  H  H31  1  0.65746238  0.98112025  0.96902076  1
  H  H32  1  0.30882549  0.89915000  0.08459104  1
  H  H33  1  0.69117451  0.10085000  0.91540896  1
  H  H34  1  0.94626632  0.75850652  0.37984974  1
  H  H35  1  0.05373368  0.24149348  0.62015026  1
  H  H36  1  0.79506684  0.76688471  0.44335964  1
  H  H37  1  0.20493316  0.23311529  0.55664036  1
  H  H38  1  0.32217535  0.12611965  0.38049217  1
  H  H39  1  0.67782465  0.87388035  0.61950783  1
  H  H40  1  0.32776278  0.04323331  0.49145641  1
  H  H41  1  0.67223722  0.95676669  0.50854359  1
  H  H42  1  0.47237256  0.09490713  0.39360818  1
  H  H43  1  0.52762744  0.90509287  0.60639182  1
  H  H44  1  0.39930418  0.05833581  0.20940363  1
  H  H45  1  0.60069582  0.94166419  0.79059637  1
  H  H46  1  0.54934391  0.02791384  0.22042702  1
  H  H47  1  0.45065609  0.97208616  0.77957298  1
  H  H48  1  0.46538661  0.92386147  0.18849645  1
  H  H49  1  0.53461339  0.07613853  0.81150355  1
  H  H50  1  0.21254398  0.90834326  0.45206003  1
  H  H51  1  0.78745602  0.09165674  0.54793997  1
  H  H52  1  0.20906851  0.98296090  0.33707967  1
  H  H53  1  0.79093149  0.01703910  0.66292033  1
  H  H54  1  0.27407330  0.84834492  0.32575703  1
  H  H55  1  0.72592670  0.15165508  0.67424297  1
  H  H56  1  0.56255387  0.91854278  0.36461156  1
  H  H57  1  0.43744613  0.08145722  0.63538844  1
  H  H58  1  0.42238370  0.86625647  0.46639882  1
  H  H59  1  0.57761630  0.13374353  0.53360118  1
  H  H60  1  0.47687642  0.81144040  0.33822492  1
  H  H61  1  0.52312358  0.18855960  0.66177508  1
  H  H62  1  0.66848505  0.39291940  0.40146151  1
  H  H63  1  0.33151495  0.60708060  0.59853849  1
  H  H64  1  0.72901394  0.25657671  0.39700064  1
  H  H65  1  0.27098606  0.74342329  0.60299936  1
  H  H66  1  0.69737520  0.33260537  0.51293216  1
  H  H67  1  0.30262480  0.66739463  0.48706784  1
  H  H68  1  0.94638678  0.22554092  0.39546800  1
  H  H69  1  0.05361322  0.77445908  0.60453200  1
  H  H70  1  0.04438157  0.33917597  0.38587714  1
  H  H71  1  0.95561843  0.66082403  0.61412286  1
  H  H72  1  0.91344832  0.30682669  0.50672963  1
  H  H73  1  0.08655168  0.69317331  0.49327037  1
  H  H74  1  0.82465990  0.48488547  0.50595166  1
  H  H75  1  0.17534010  0.51511453  0.49404834  1
  H  H76  1  0.95720568  0.52170598  0.38686709  1
  H  H77  1  0.04279432  0.47829402  0.61313291  1
  H  H78  1  0.79603063  0.54023709  0.39310962  1
  H  H79  1  0.20396937  0.45976291  0.60689038  1
  H  H80  1  0.84495905  0.43213444  0.23902452  1
  H  H81  1  0.15504095  0.56786556  0.76097548  1
  H  H82  1  0.00622394  0.41601149  0.23536422  1
  H  H83  1  0.99377606  0.58398851  0.76463578  1
  H  H84  1  0.91306149  0.29998335  0.24102576  1
  H  H85  1  0.08693851  0.70001665  0.75897424  1
  H  H86  1  0.03208603  0.36488300  0.85233302  1
  H  H87  1  0.96791397  0.63511700  0.14766698  1
  H  H88  1  0.19937324  0.35176323  0.83107971  1
  H  H89  1  0.80062676  0.64823677  0.16892029  1
  H  H90  1  0.13612373  0.28939877  0.74593374  1
  H  H91  1  0.86387627  0.71060123  0.25406626  1
  H  H92  1  0.28538450  0.17705396  0.86047648  1
  H  H93  1  0.71461550  0.82294604  0.13952352  1
  H  H94  1  0.18107168  0.06429615  0.91270920  1
  H  H95  1  0.81892832  0.93570385  0.08729080  1
  H  H96  1  0.21513460  0.11526900  0.77977536  1
  H  H97  1  0.78486540  0.88473100  0.22022464  1
  H  H98  1  0.95618071  0.08650490  0.94409218  1
  H  H99  1  0.04381929  0.91349510  0.05590782  1
  H  H100  1  0.89441556  0.21625625  0.92099041  1
  H  H101  1  0.10558444  0.78374375  0.07900959  1
  H  H102  1  0.99367124  0.14141150  0.81172705  1
  H  H103  1  0.00632876  0.85858850  0.18827295  1
  H  H104  1  0.14891622  0.28494015  0.00685948  1
  H  H105  1  0.85108378  0.71505985  0.99314052  1
  H  H106  1  0.98039796  0.29156114  0.03326973  1
  H  H107  1  0.01960204  0.70843886  0.96673027  1
  H  H108  1  0.05376814  0.16772886  0.05748685  1
  H  H109  1  0.94623186  0.83227114  0.94251315  1
  C  C110  1  0.37704161  0.06571796  0.40812233  1
  C  C111  1  0.62295839  0.93428204  0.59187767  1
  C  C112  1  0.45589774  0.99597966  0.23268227  1
  C  C113  1  0.54410226  0.00402034  0.76731773  1
  C  C114  1  0.26197607  0.92281069  0.36717584  1
  C  C115  1  0.73802393  0.07718931  0.63282416  1
  C  C116  1  0.46897825  0.88392431  0.38173743  1
  C  C117  1  0.53102175  0.11607569  0.61826257  1
  C  C118  1  0.72913082  0.33629920  0.42698914  1
  C  C119  1  0.27086918  0.66370080  0.57301086  1
  C  C120  1  0.94806120  0.30704608  0.42080554  1
  C  C121  1  0.05193880  0.69295392  0.57919446  1
  C  C122  1  0.86061333  0.48991547  0.41988420  1
  C  C123  1  0.13938667  0.51008453  0.58011580  1
  C  C124  1  0.91040349  0.38245445  0.26553629  1
  C  C125  1  0.08959651  0.61754555  0.73446371  1
  C  C126  1  0.11687640  0.31288008  0.82599929  1
  C  C127  1  0.88312360  0.68711992  0.17400071  1
  C  C128  1  0.20159572  0.13646992  0.85953330  1
  C  C129  1  0.79840428  0.86353008  0.14046670  1
  C  C130  1  0.97498195  0.16009670  0.89303506  1
  C  C131  1  0.02501805  0.83990330  0.10696494  1
  C  C132  1  0.06665561  0.24137448  0.00669760  1
  C  C133  1  0.93334439  0.75862552  0.99330240  1
  N  N134  1  0.39070565  0.96669650  0.34743850  1
  N  N135  1  0.60929435  0.03330350  0.65256150  1
  N  N136  1  0.86217792  0.37860403  0.38320998  1
  N  N137  1  0.13782208  0.62139597  0.61679002  1
  N  N138  1  0.09014489  0.21238807  0.89665197  1
  N  N139  1  0.90985511  0.78761193  0.10334803  1
  O  O140  1  0.53574990  0.32882068  0.07551097  1
  O  O141  1  0.46425010  0.67117932  0.92448903  1
  O  O142  1  0.90728215  0.31209390  0.69587935  1
  O  O143  1  0.09271785  0.68790610  0.30412065  1
  O  O144  1  0.71465071  0.75912080  0.75495777  1
  O  O145  1  0.28534929  0.24087920  0.24504223  1
  O  O146  1  0.58293327  0.85836177  0.99855483  1
  O  O147  1  0.41706673  0.14163823  0.00144517  1
  O  O148  1  0.57902883  0.57589833  0.35980553  1
  O  O149  1  0.42097117  0.42410167  0.64019447  1
  O  O150  1  0.78443321  0.40026297  0.91975038  1
  O  O151  1  0.21556679  0.59973703  0.08024962  1
  O  O152  1  0.67198910  0.48831606  0.14024974  1
  O  O153  1  0.32801090  0.51168394  0.85975026  1
  O  O154  1  0.78843298  0.52998853  0.74942864  1
  O  O155  1  0.21156702  0.47001147  0.25057136  1
  O  O156  1  0.34530733  0.75461651  0.13315471  1
  O  O157  1  0.65469267  0.24538349  0.86684529  1
  O  O158  1  0.34536446  0.62371464  0.30898305  1
  O  O159  1  0.65463554  0.37628536  0.69101695  1
  O  O160  1  0.55875989  0.58840187  0.71556276  1
  O  O161  1  0.44124011  0.41159813  0.28443724  1
  O  O162  1  0.57665355  0.69459237  0.16364207  1
  O  O163  1  0.42334645  0.30540763  0.83635793  1
  O  O164  1  0.67246029  0.62019766  0.95429178  1
  O  O165  1  0.32753971  0.37980234  0.04570822  1
  O  O166  1  0.44872924  0.53953115  0.09931181  1
  O  O167  1  0.55127076  0.46046885  0.90068819  1
  O  O168  1  0.90363209  0.02976325  0.36718746  1
  O  O169  1  0.09636791  0.97023675  0.63281254  1
  O  O170  1  0.69380251  0.08534799  0.32469236  1
  O  O171  1  0.30619749  0.91465201  0.67530764  1
  O  O172  1  0.71321608  0.17141421  0.12261060  1
  O  O173  1  0.28678392  0.82858579  0.87738940  1
  O  O174  1  0.63716849  0.70181916  0.50007747  1
  O  O175  1  0.36283151  0.29818084  0.49992253  1
  O  O176  1  0.12210584  0.10153177  0.21455158  1
  O  O177  1  0.87789416  0.89846823  0.78544842  1
  O  O178  1  0.27676784  0.96121733  0.05253356  1
  O  O179  1  0.72323216  0.03878267  0.94746644  1
  O  O180  1  0.87340047  0.80891410  0.40710254  1
  O  O181  1  0.12659953  0.19108590  0.59289746  1
