# generated using pymatgen
data_Dy5Mg5Al12(Fe2Si3)2
_symmetry_space_group_name_H-M   'P 1'
_cell_length_a   3.99307485
_cell_length_b   11.88342594
_cell_length_c   11.88342594
_cell_angle_alpha   90.00000000
_cell_angle_beta   90.00000000
_cell_angle_gamma   90.00000000
_symmetry_Int_Tables_number   1
_chemical_formula_structural   Dy5Mg5Al12(Fe2Si3)2
_chemical_formula_sum   'Dy5 Mg5 Al12 Fe4 Si6'
_cell_volume   563.88530760
_cell_formula_units_Z   1
loop_
 _symmetry_equiv_pos_site_id
 _symmetry_equiv_pos_as_xyz
  1  'x, y, z'
loop_
 _atom_site_type_symbol
 _atom_site_label
 _atom_site_symmetry_multiplicity
 _atom_site_fract_x
 _atom_site_fract_y
 _atom_site_fract_z
 _atom_site_occupancy
  Dy  Dy0  1  0.00000000  0.50000000  0.25164767  1
  Dy  Dy1  1  0.00000000  0.50000000  0.74835233  1
  Dy  Dy2  1  -0.00000000  0.74835233  0.50000000  1
  Dy  Dy3  1  0.00000000  0.25164767  0.50000000  1
  Dy  Dy4  1  0.00000000  0.00000000  -0.00000000  1
  Mg  Mg5  1  -0.00000000  0.20218825  0.20218825  1
  Mg  Mg6  1  0.00000000  0.79781175  0.79781175  1
  Mg  Mg7  1  0.00000000  0.79781175  0.20218825  1
  Mg  Mg8  1  -0.00000000  0.20218825  0.79781175  1
  Mg  Mg9  1  0.50000000  0.50000000  0.50000000  1
  Al  Al10  1  0.50000000  0.37289831  0.11229847  1
  Al  Al11  1  0.50000000  0.62710169  0.88770153  1
  Al  Al12  1  0.50000000  0.62710169  0.11229847  1
  Al  Al13  1  0.50000000  0.37289831  0.88770153  1
  Al  Al14  1  0.50000000  0.88770153  0.37289831  1
  Al  Al15  1  0.50000000  0.11229847  0.62710169  1
  Al  Al16  1  0.50000000  0.11229847  0.37289831  1
  Al  Al17  1  0.50000000  0.88770153  0.62710169  1
  Al  Al18  1  0.50000000  0.33178466  0.33178466  1
  Al  Al19  1  0.50000000  0.66821534  0.66821534  1
  Al  Al20  1  0.50000000  0.66821534  0.33178466  1
  Al  Al21  1  0.50000000  0.33178466  0.66821534  1
  Fe  Fe22  1  0.00000000  0.00000000  0.30514743  1
  Fe  Fe23  1  -0.00000000  0.00000000  0.69485257  1
  Fe  Fe24  1  0.00000000  0.69485257  -0.00000000  1
  Fe  Fe25  1  -0.00000000  0.30514743  -0.00000000  1
  Si  Si26  1  0.50000000  0.00000000  0.18779303  1
  Si  Si27  1  0.50000000  0.00000000  0.81220697  1
  Si  Si28  1  0.50000000  0.81220697  -0.00000000  1
  Si  Si29  1  0.50000000  0.18779303  -0.00000000  1
  Si  Si30  1  0.00000000  0.50000000  -0.00000000  1
  Si  Si31  1  0.00000000  0.00000000  0.50000000  1
