# generated using pymatgen
data_YbSi4H36C12N2Cl
_symmetry_space_group_name_H-M   'P 1'
_cell_length_a   9.53248163
_cell_length_b   12.51797372
_cell_length_c   25.93416397
_cell_angle_alpha   95.64158209
_cell_angle_beta   94.92352675
_cell_angle_gamma   110.21536309
_symmetry_Int_Tables_number   1
_chemical_formula_structural   YbSi4H36C12N2Cl
_chemical_formula_sum   'Yb4 Si16 H144 C48 N8 Cl4'
_cell_volume   2866.08243885
_cell_formula_units_Z   4
loop_
 _symmetry_equiv_pos_site_id
 _symmetry_equiv_pos_as_xyz
  1  'x, y, z'
loop_
 _atom_site_type_symbol
 _atom_site_label
 _atom_site_symmetry_multiplicity
 _atom_site_fract_x
 _atom_site_fract_y
 _atom_site_fract_z
 _atom_site_occupancy
  Yb  Yb0  1  0.90941835  0.30732855  0.17605169  1
  Yb  Yb1  1  0.09058165  0.69267145  0.82394831  1
  Yb  Yb2  1  0.13627854  0.34546975  0.32062070  1
  Yb  Yb3  1  0.86372146  0.65453025  0.67937930  1
  Si  Si4  1  0.86154514  0.08225687  0.08965849  1
  Si  Si5  1  0.13845486  0.91774313  0.91034151  1
  Si  Si6  1  0.63842691  0.01723735  0.17187424  1
  Si  Si7  1  0.36157309  0.98276265  0.82812576  1
  Si  Si8  1  0.99566605  0.57502909  0.13549324  1
  Si  Si9  1  0.00433395  0.42497091  0.86450676  1
  Si  Si10  1  0.66081109  0.41544662  0.10316992  1
  Si  Si11  1  0.33918891  0.58455338  0.89683008  1
  Si  Si12  1  0.49712053  0.50084483  0.35597935  1
  Si  Si13  1  0.50287947  0.49915517  0.64402065  1
  Si  Si14  1  0.31451506  0.65921624  0.36662226  1
  Si  Si15  1  0.68548494  0.34078376  0.63337774  1
  Si  Si16  1  0.95885140  0.22288435  0.42120288  1
  Si  Si17  1  0.04114860  0.77711565  0.57879712  1
  Si  Si18  1  0.08797258  0.06073050  0.36050111  1
  Si  Si19  1  0.91202742  0.93926950  0.63949889  1
  H  H20  1  0.95476437  0.28752111  0.06775692  1
  H  H21  1  0.04523563  0.71247889  0.93224308  1
  H  H22  1  0.09991353  0.25761944  0.10638095  1
  H  H23  1  0.90008647  0.74238056  0.89361905  1
  H  H24  1  0.05040538  0.20339974  0.03951425  1
  H  H25  1  0.94959462  0.79660026  0.96048575  1
  H  H26  1  0.91292135  0.91501824  0.12296284  1
  H  H27  1  0.08707865  0.08498176  0.87703716  1
  H  H28  1  0.00154761  0.95168809  0.06660797  1
  H  H29  1  0.99845239  0.04831191  0.93339203  1
  H  H30  1  0.08038240  0.03723899  0.12844171  1
  H  H31  1  0.91961760  0.96276101  0.87155829  1
  H  H32  1  0.64717017  0.05950679  0.02073886  1
  H  H33  1  0.35282983  0.94049321  0.97926114  1
  H  H34  1  0.79090503  0.02048519  0.99396658  1
  H  H35  1  0.20909497  0.97951481  0.00603342  1
  H  H36  1  0.66131842  0.92377138  0.02829171  1
  H  H37  1  0.33868158  0.07622862  0.97170829  1
  H  H38  1  0.40462401  0.99465048  0.11063742  1
  H  H39  1  0.59537599  0.00534952  0.88936258  1
  H  H40  1  0.48057747  0.88704810  0.09191920  1
  H  H41  1  0.51942253  0.11295190  0.90808080  1
  H  H42  1  0.38104984  0.87792460  0.14724700  1
  H  H43  1  0.61895016  0.12207540  0.85275300  1
  H  H44  1  0.55965879  0.16318677  0.22761968  1
  H  H45  1  0.44034121  0.83681323  0.77238032  1
  H  H46  1  0.48203887  0.02011773  0.24161119  1
  H  H47  1  0.51796113  0.97988227  0.75838881  1
  H  H48  1  0.67264351  0.10407151  0.26482567  1
  H  H49  1  0.32735649  0.89592849  0.73517433  1
  H  H50  1  0.59992142  0.82690666  0.20019644  1
  H  H51  1  0.40007858  0.17309334  0.79980356  1
  H  H52  1  0.77123276  0.87276955  0.17231066  1
  H  H53  1  0.22876724  0.12723045  0.82768934  1
  H  H54  1  0.76372564  0.93288248  0.23651269  1
  H  H55  1  0.23627436  0.06711752  0.76348731  1
  H  H56  1  0.94784257  0.66128314  0.22148852  1
  H  H57  1  0.05215743  0.33871686  0.77851148  1
  H  H58  1  0.09271887  0.76063334  0.19283565  1
  H  H59  1  0.90728113  0.23936666  0.80716435  1
  H  H60  1  0.90036190  0.72953058  0.16902967  1
  H  H61  1  0.09963810  0.27046942  0.83097033  1
  H  H62  1  0.20354608  0.49054834  0.13454489  1
  H  H63  1  0.79645392  0.50945166  0.86545511  1
  H  H64  1  0.26921922  0.63578387  0.16329690  1
  H  H65  1  0.73078078  0.36421613  0.83670310  1
  H  H66  1  0.17318544  0.52754837  0.19955050  1
  H  H67  1  0.82681456  0.47245163  0.80044950  1
  H  H68  1  0.08439972  0.60018456  0.04690276  1
  H  H69  1  0.91560028  0.39981544  0.95309724  1
  H  H70  1  0.90937832  0.62059881  0.04882390  1
  H  H71  1  0.09062168  0.37940119  0.95117610  1
  H  H72  1  0.07863189  0.73008928  0.07951397  1
  H  H73  1  0.92136811  0.26991072  0.92048603  1
  H  H74  1  0.68463982  0.61628035  0.08782902  1
  H  H75  1  0.31536018  0.38371965  0.91217098  1
  H  H76  1  0.49521243  0.51995645  0.07535631  1
  H  H77  1  0.50478757  0.48004355  0.92464369  1
  H  H78  1  0.58010472  0.57530050  0.14074543  1
  H  H79  1  0.41989528  0.42469950  0.85925457  1
  H  H80  1  0.55040591  0.22556554  0.13526432  1
  H  H81  1  0.44959409  0.77443446  0.86473568  1
  H  H82  1  0.50553085  0.33153345  0.17498479  1
  H  H83  1  0.49446915  0.66846655  0.82501521  1
  H  H84  1  0.41237229  0.27803963  0.11055729  1
  H  H85  1  0.58762771  0.72196037  0.88944271  1
  H  H86  1  0.69526680  0.39112016  0.00619194  1
  H  H87  1  0.30473320  0.60887984  0.99380806  1
  H  H88  1  0.63568714  0.25768507  0.03213647  1
  H  H89  1  0.36431286  0.74231493  0.96786353  1
  H  H90  1  0.50564887  0.32814419  0.01953581  1
  H  H91  1  0.49435113  0.67185581  0.98046419  1
  H  H92  1  0.41063139  0.29016214  0.36757173  1
  H  H93  1  0.58936861  0.70983786  0.63242827  1
  H  H94  1  0.38699934  0.30484186  0.29936161  1
  H  H95  1  0.61300066  0.69515814  0.70063839  1
  H  H96  1  0.56686047  0.33357385  0.33209781  1
  H  H97  1  0.43313953  0.66642615  0.66790219  1
  H  H98  1  0.62200845  0.46707302  0.43853401  1
  H  H99  1  0.37799155  0.53292698  0.56146599  1
  H  H100  1  0.72308824  0.60489193  0.42174483  1
  H  H101  1  0.27691176  0.39510807  0.57825517  1
  H  H102  1  0.55608714  0.58213574  0.45176140  1
  H  H103  1  0.44391286  0.41786426  0.54823860  1
  H  H104  1  0.56901164  0.56639639  0.26982230  1
  H  H105  1  0.43098836  0.43360361  0.73017770  1
  H  H106  1  0.68165016  0.66929389  0.32339835  1
  H  H107  1  0.31834984  0.33070611  0.67660165  1
  H  H108  1  0.71601943  0.54001332  0.30736530  1
  H  H109  1  0.28398057  0.45998668  0.69263470  1
  H  H110  1  0.51662564  0.75220973  0.44366683  1
  H  H111  1  0.48337436  0.24779027  0.55633317  1
  H  H112  1  0.36677985  0.80611229  0.44456592  1
  H  H113  1  0.63322015  0.19388771  0.55543408  1
  H  H114  1  0.34335452  0.66941654  0.46433998  1
  H  H115  1  0.65664548  0.33058346  0.53566002  1
  H  H116  1  0.04918121  0.61648012  0.38808621  1
  H  H117  1  0.95081879  0.38351988  0.61191379  1
  H  H118  1  0.11946215  0.74550041  0.36016197  1
  H  H119  1  0.88053785  0.25449959  0.63983803  1
  H  H120  1  0.05330697  0.61076235  0.31950809  1
  H  H121  1  0.94669303  0.38923765  0.68049191  1
  H  H122  1  0.53690255  0.77131059  0.32322926  1
  H  H123  1  0.46309745  0.22868941  0.67677074  1
  H  H124  1  0.36499209  0.73025687  0.28089858  1
  H  H125  1  0.63500791  0.26974313  0.71910142  1
  H  H126  1  0.41138157  0.84647796  0.33232845  1
  H  H127  1  0.58861843  0.15352204  0.66767155  1
  H  H128  1  0.10869886  0.43611277  0.43726202  1
  H  H129  1  0.89130114  0.56388723  0.56273798  1
  H  H130  1  0.94353965  0.40476140  0.39125623  1
  H  H131  1  0.05646035  0.59523860  0.60874377  1
  H  H132  1  0.92793279  0.40121911  0.45832887  1
  H  H133  1  0.07206721  0.59878089  0.54167113  1
  H  H134  1  0.71022880  0.06881406  0.42742092  1
  H  H135  1  0.28977120  0.93118594  0.57257908  1
  H  H136  1  0.69016097  0.20275684  0.42025251  1
  H  H137  1  0.30983903  0.79724316  0.57974749  1
  H  H138  1  0.70867948  0.11587017  0.36478131  1
  H  H139  1  0.29132052  0.88412983  0.63521869  1
  H  H140  1  0.14347872  0.21665496  0.49544064  1
  H  H141  1  0.85652128  0.78334504  0.50455936  1
  H  H142  1  0.98282629  0.23810157  0.51809028  1
  H  H143  1  0.01717371  0.76189843  0.48190972  1
  H  H144  1  0.96957219  0.09875241  0.49063329  1
  H  H145  1  0.03042781  0.90124759  0.50936671  1
  H  H146  1  0.33670632  0.13929217  0.41977253  1
  H  H147  1  0.66329368  0.86070783  0.58022747  1
  H  H148  1  0.20371521  0.02421343  0.44489679  1
  H  H149  1  0.79628479  0.97578657  0.55510321  1
  H  H150  1  0.29519407  0.99532321  0.39092290  1
  H  H151  1  0.70480593  0.00467679  0.60907710  1
  H  H152  1  0.81539508  0.93625711  0.34094121  1
  H  H153  1  0.18460492  0.06374289  0.65905879  1
  H  H154  1  0.92977713  0.85352000  0.35433610  1
  H  H155  1  0.07022287  0.14648000  0.64566390  1
  H  H156  1  0.88578714  0.93449610  0.40658404  1
  H  H157  1  0.11421286  0.06550390  0.59341596  1
  H  H158  1  0.25508844  0.09648804  0.28877542  1
  H  H159  1  0.74491156  0.90351196  0.71122458  1
  H  H160  1  0.14619197  0.94926254  0.28791090  1
  H  H161  1  0.85380803  0.05073746  0.71208910  1
  H  H162  1  0.06231894  0.04201078  0.26177510  1
  H  H163  1  0.93768106  0.95798922  0.73822490  1
  C  C164  1  0.00331844  0.22147627  0.07523415  1
  C  C165  1  0.99668156  0.77852373  0.92476585  1
  C  C166  1  0.97421802  0.98731668  0.10321050  1
  C  C167  1  0.02578198  0.01268332  0.89678950  1
  C  C168  1  0.72697386  0.01484797  0.02759314  1
  C  C169  1  0.27302614  0.98515203  0.97240686  1
  C  C170  1  0.45963686  0.93782828  0.12540328  1
  C  C171  1  0.54036314  0.06217172  0.87459672  1
  C  C172  1  0.58441363  0.08471015  0.23148453  1
  C  C173  1  0.41558637  0.91528985  0.76851547  1
  C  C174  1  0.70036097  0.90168753  0.19739290  1
  C  C175  1  0.29963903  0.09831247  0.80260710  1
  C  C176  1  0.98045985  0.69175749  0.18460702  1
  C  C177  1  0.01954015  0.30824251  0.81539298  1
  C  C178  1  0.17474620  0.55308168  0.16010708  1
  C  C179  1  0.82525380  0.44691832  0.83989292  1
  C  C180  1  0.01911709  0.63633283  0.07142469  1
  C  C181  1  0.98088291  0.36366717  0.92857531  1
  C  C182  1  0.60099210  0.54443021  0.10211938  1
  C  C183  1  0.39900790  0.45556979  0.89788062  1
  C  C184  1  0.52175347  0.30348056  0.13526994  1
  C  C185  1  0.47824653  0.69651944  0.86473006  1
  C  C186  1  0.62434227  0.34206098  0.03317279  1
  C  C187  1  0.37565773  0.65793902  0.96682721  1
  C  C188  1  0.45751179  0.34242898  0.33722048  1
  C  C189  1  0.54248821  0.65757102  0.66277952  1
  C  C190  1  0.60970435  0.54313818  0.42365188  1
  C  C191  1  0.39029565  0.45686182  0.57634812  1
  C  C192  1  0.62692558  0.57714537  0.30943975  1
  C  C193  1  0.37307442  0.42285463  0.69056025  1
  C  C194  1  0.39382997  0.72770903  0.43648605  1
  C  C195  1  0.60617003  0.27229097  0.56351395  1
  C  C196  1  0.11482336  0.65579390  0.35766882  1
  C  C197  1  0.88517664  0.34420610  0.64233118  1
  C  C198  1  0.41769352  0.76102176  0.32154976  1
  C  C199  1  0.58230648  0.23897824  0.67845024  1
  C  C200  1  0.98959991  0.38099068  0.42700066  1
  C  C201  1  0.01040009  0.61900932  0.57299934  1
  C  C202  1  0.74700266  0.14405527  0.40657122  1
  C  C203  1  0.25299734  0.85594473  0.59342878  1
  C  C204  1  0.02048235  0.19075851  0.48746865  1
  C  C205  1  0.97951765  0.80924149  0.51253135  1
  C  C206  1  0.24606932  0.05536163  0.40907476  1
  C  C207  1  0.75393068  0.94463837  0.59092524  1
  C  C208  1  0.91295369  0.93467736  0.36627076  1
  C  C209  1  0.08704631  0.06532264  0.63372924  1
  C  C210  1  0.14279257  0.03691813  0.29342761  1
  C  C211  1  0.85720743  0.96308187  0.70657239  1
  N  N212  1  0.77538824  0.11396437  0.14241800  1
  N  N213  1  0.22461176  0.88603563  0.85758200  1
  N  N214  1  0.84542226  0.44524741  0.13056807  1
  N  N215  1  0.15457774  0.55475259  0.86943193  1
  N  N216  1  0.32766061  0.52417605  0.35461018  1
  N  N217  1  0.67233939  0.47582395  0.64538982  1
  N  N218  1  0.06136921  0.19182616  0.37287542  1
  N  N219  1  0.93863079  0.80817384  0.62712458  1
  Cl  Cl220  1  0.16682138  0.29232305  0.22075428  1
  Cl  Cl221  1  0.83317862  0.70767695  0.77924572  1
  Cl  Cl222  1  0.88554440  0.36803246  0.27565451  1
  Cl  Cl223  1  0.11445560  0.63196754  0.72434549  1
