# generated using pymatgen
data_UCu4(SeO7)2
_symmetry_space_group_name_H-M   'P 1'
_cell_length_a   5.38418885
_cell_length_b   5.88528197
_cell_length_c   19.93518318
_cell_angle_alpha   90.00000000
_cell_angle_beta   90.00000000
_cell_angle_gamma   90.00000000
_symmetry_Int_Tables_number   1
_chemical_formula_structural   UCu4(SeO7)2
_chemical_formula_sum   'U2 Cu8 Se4 O28'
_cell_volume   631.69551023
_cell_formula_units_Z   2
loop_
 _symmetry_equiv_pos_site_id
 _symmetry_equiv_pos_as_xyz
  1  'x, y, z'
loop_
 _atom_site_type_symbol
 _atom_site_label
 _atom_site_symmetry_multiplicity
 _atom_site_fract_x
 _atom_site_fract_y
 _atom_site_fract_z
 _atom_site_occupancy
  U  U0  1  0.68574014  0.50000000  0.49967078  1
  U  U1  1  0.31425986  0.00000000  0.99967078  1
  Cu  Cu2  1  0.60491971  0.50000000  0.24930509  1
  Cu  Cu3  1  0.39508029  0.00000000  0.74930509  1
  Cu  Cu4  1  0.39169004  0.50000000  0.75259311  1
  Cu  Cu5  1  0.60830996  0.00000000  0.25259311  1
  Cu  Cu6  1  0.10721969  0.25171269  0.25085709  1
  Cu  Cu7  1  0.10721969  0.74828731  0.25085709  1
  Cu  Cu8  1  0.89278031  0.24828731  0.75085709  1
  Cu  Cu9  1  0.89278031  0.75171269  0.75085709  1
  Se  Se10  1  0.98247726  0.50000000  0.08299846  1
  Se  Se11  1  0.01752274  -0.00000000  0.58299846  1
  Se  Se12  1  0.64636333  0.50000000  0.91743104  1
  Se  Se13  1  0.35363667  -0.00000000  0.41743104  1
  O  O14  1  0.39745071  0.50000000  0.54722100  1
  O  O15  1  0.60254929  0.00000000  0.04722100  1
  O  O16  1  0.97171593  0.50000000  0.45135865  1
  O  O17  1  0.02828407  -0.00000000  0.95135865  1
  O  O18  1  0.93324985  0.50000000  0.16727405  1
  O  O19  1  0.06675015  -0.00000000  0.66727405  1
  O  O20  1  0.68868471  0.50000000  0.83257574  1
  O  O21  1  0.31131529  -0.00000000  0.33257574  1
  O  O22  1  0.18084459  0.27557629  0.07014418  1
  O  O23  1  0.18084459  0.72442371  0.07014418  1
  O  O24  1  0.81915541  0.22442371  0.57014418  1
  O  O25  1  0.81915541  0.77557629  0.57014418  1
  O  O26  1  0.44705181  0.27609591  0.92990338  1
  O  O27  1  0.44705181  0.72390409  0.92990338  1
  O  O28  1  0.55294819  0.22390409  0.42990338  1
  O  O29  1  0.55294819  0.77609591  0.42990338  1
  O  O30  1  0.99070683  0.50000000  0.70517165  1
  O  O31  1  0.00929317  0.00000000  0.20517165  1
  O  O32  1  0.20083433  0.50000000  0.29855013  1
  O  O33  1  0.79916567  0.00000000  0.79855013  1
  O  O34  1  0.78594137  0.25730514  0.28680741  1
  O  O35  1  0.78594137  0.74269486  0.28680741  1
  O  O36  1  0.21405863  0.24269486  0.78680741  1
  O  O37  1  0.21405863  0.75730514  0.78680741  1
  O  O38  1  0.42875486  0.24541015  0.21426309  1
  O  O39  1  0.42875486  0.75458985  0.21426309  1
  O  O40  1  0.57124514  0.25458985  0.71426309  1
  O  O41  1  0.57124514  0.74541015  0.71426309  1
