# generated using pymatgen
data_Na4Zr2Ge5O17
_symmetry_space_group_name_H-M   'P 1'
_cell_length_a   5.53698173
_cell_length_b   7.19312553
_cell_length_c   20.54986506
_cell_angle_alpha   92.55001129
_cell_angle_beta   90.00000000
_cell_angle_gamma   90.00000000
_symmetry_Int_Tables_number   1
_chemical_formula_structural   Na4Zr2Ge5O17
_chemical_formula_sum   'Na8 Zr4 Ge10 O34'
_cell_volume   817.65376051
_cell_formula_units_Z   2
loop_
 _symmetry_equiv_pos_site_id
 _symmetry_equiv_pos_as_xyz
  1  'x, y, z'
loop_
 _atom_site_type_symbol
 _atom_site_label
 _atom_site_symmetry_multiplicity
 _atom_site_fract_x
 _atom_site_fract_y
 _atom_site_fract_z
 _atom_site_occupancy
  Na  Na0  1  0.00701094  0.46182187  0.71158044  1
  Na  Na1  1  0.00701094  0.03817813  0.78841956  1
  Na  Na2  1  0.99298906  0.53817813  0.28841956  1
  Na  Na3  1  0.99298906  0.96182187  0.21158044  1
  Na  Na4  1  0.23975990  0.14142910  0.52634877  1
  Na  Na5  1  0.23975990  0.35857090  0.97365123  1
  Na  Na6  1  0.76024010  0.85857090  0.47365123  1
  Na  Na7  1  0.76024010  0.64142910  0.02634877  1
  Zr  Zr8  1  0.23436510  0.70439060  0.58926466  1
  Zr  Zr9  1  0.23436510  0.79560940  0.91073534  1
  Zr  Zr10  1  0.76563490  0.29560940  0.41073534  1
  Zr  Zr11  1  0.76563490  0.20439060  0.08926466  1
  Ge  Ge12  1  0.71378315  0.38628880  0.57852165  1
  Ge  Ge13  1  0.71378315  0.11371120  0.92147835  1
  Ge  Ge14  1  0.28621685  0.61371120  0.42147835  1
  Ge  Ge15  1  0.28621685  0.88628880  0.07852165  1
  Ge  Ge16  1  0.74210483  0.51268479  0.86493645  1
  Ge  Ge17  1  0.74210483  0.98731521  0.63506355  1
  Ge  Ge18  1  0.25789517  0.48731521  0.13506355  1
  Ge  Ge19  1  0.25789517  0.01268479  0.36493645  1
  Ge  Ge20  1  0.50868117  0.75000000  0.75000000  1
  Ge  Ge21  1  0.49131883  0.25000000  0.25000000  1
  O  O22  1  0.90954824  0.56433579  0.60630283  1
  O  O23  1  0.90954824  0.93566421  0.89369717  1
  O  O24  1  0.09045176  0.43566421  0.39369717  1
  O  O25  1  0.09045176  0.06433579  0.10630283  1
  O  O26  1  0.41201925  0.44861500  0.56416999  1
  O  O27  1  0.41201925  0.05138500  0.93583001  1
  O  O28  1  0.58798075  0.55138500  0.43583001  1
  O  O29  1  0.58798075  0.94861500  0.06416999  1
  O  O30  1  0.33131033  0.65866501  0.68651240  1
  O  O31  1  0.33131033  0.84133499  0.81348760  1
  O  O32  1  0.66868967  0.34133499  0.31348760  1
  O  O33  1  0.66868967  0.15866501  0.18651240  1
  O  O34  1  0.83111330  0.25696773  0.51072070  1
  O  O35  1  0.83111330  0.24303227  0.98927930  1
  O  O36  1  0.16888670  0.74303227  0.48927930  1
  O  O37  1  0.16888670  0.75696773  0.01072070  1
  O  O38  1  0.04026827  0.54648069  0.89040336  1
  O  O39  1  0.04026827  0.95351931  0.60959664  1
  O  O40  1  0.95973173  0.45351931  0.10959664  1
  O  O41  1  0.95973173  0.04648069  0.39040336  1
  O  O42  1  0.53289733  0.60926573  0.92064440  1
  O  O43  1  0.53289733  0.89073427  0.57935560  1
  O  O44  1  0.46710267  0.39073427  0.07935560  1
  O  O45  1  0.46710267  0.10926573  0.42064440  1
  O  O46  1  0.70779609  0.23560178  0.64735710  1
  O  O47  1  0.70779609  0.26439822  0.85264290  1
  O  O48  1  0.29220391  0.76439822  0.35264290  1
  O  O49  1  0.29220391  0.73560178  0.14735710  1
  O  O50  1  0.71341230  0.58281593  0.78224842  1
  O  O51  1  0.71341230  0.91718407  0.71775158  1
  O  O52  1  0.28658770  0.41718407  0.21775158  1
  O  O53  1  0.28658770  0.08281593  0.28224842  1
  O  O54  1  0.30555631  0.25000000  0.75000000  1
  O  O55  1  0.69444369  0.75000000  0.25000000  1
