# generated using pymatgen
data_CaSnP6(HO)12
_symmetry_space_group_name_H-M   'P 1'
_cell_length_a   7.78342448
_cell_length_b   7.78342448
_cell_length_c   7.78342401
_cell_angle_alpha   102.80682250
_cell_angle_beta   102.80682250
_cell_angle_gamma   102.80682879
_symmetry_Int_Tables_number   1
_chemical_formula_structural   CaSnP6(HO)12
_chemical_formula_sum   'Ca1 Sn1 P6 H12 O12'
_cell_volume   429.79693212
_cell_formula_units_Z   1
loop_
 _symmetry_equiv_pos_site_id
 _symmetry_equiv_pos_as_xyz
  1  'x, y, z'
loop_
 _atom_site_type_symbol
 _atom_site_label
 _atom_site_symmetry_multiplicity
 _atom_site_fract_x
 _atom_site_fract_y
 _atom_site_fract_z
 _atom_site_occupancy
  Ca  Ca0  1  0.50000000  0.50000000  0.50000000  1
  Sn  Sn1  1  -0.00000000  -0.00000000  0.00000000  1
  P  P2  1  0.59524654  0.75407291  0.99160507  1
  P  P3  1  0.75407291  0.99160507  0.59524654  1
  P  P4  1  0.99160507  0.59524654  0.75407291  1
  P  P5  1  0.40475346  0.24592709  0.00839493  1
  P  P6  1  0.24592709  0.00839493  0.40475346  1
  P  P7  1  0.00839493  0.40475346  0.24592709  1
  H  H8  1  0.70062995  0.68165352  0.11428647  1
  H  H9  1  0.68165352  0.11428647  0.70062995  1
  H  H10  1  0.11428647  0.70062995  0.68165352  1
  H  H11  1  0.29937005  0.31834648  0.88571353  1
  H  H12  1  0.31834648  0.88571353  0.29937005  1
  H  H13  1  0.88571353  0.29937005  0.31834648  1
  H  H14  1  0.46930443  0.81258806  0.07957774  1
  H  H15  1  0.81258806  0.07957774  0.46930443  1
  H  H16  1  0.07957774  0.46930443  0.81258806  1
  H  H17  1  0.53069557  0.18741194  0.92042226  1
  H  H18  1  0.18741194  0.92042226  0.53069557  1
  H  H19  1  0.92042226  0.53069557  0.18741194  1
  O  O20  1  0.72456736  0.93854958  0.99061461  1
  O  O21  1  0.93854958  0.99061461  0.72456736  1
  O  O22  1  0.99061461  0.72456736  0.93854958  1
  O  O23  1  0.27543264  0.06145042  0.00938539  1
  O  O24  1  0.06145042  0.00938539  0.27543264  1
  O  O25  1  0.00938539  0.27543264  0.06145042  1
  O  O26  1  0.49600429  0.61292532  0.80866085  1
  O  O27  1  0.61292532  0.80866085  0.49600429  1
  O  O28  1  0.80866085  0.49600429  0.61292532  1
  O  O29  1  0.50399571  0.38707468  0.19133915  1
  O  O30  1  0.38707468  0.19133915  0.50399571  1
  O  O31  1  0.19133915  0.50399571  0.38707468  1
