# generated using pymatgen
data_Er2Al17
_symmetry_space_group_name_H-M   'P 1'
_cell_length_a   8.83843904
_cell_length_b   9.42030331
_cell_length_c   9.42030331
_cell_angle_alpha   119.82772047
_cell_angle_beta   90.00000000
_cell_angle_gamma   90.00000000
_symmetry_Int_Tables_number   1
_chemical_formula_structural   Er2Al17
_chemical_formula_sum   'Er4 Al34'
_cell_volume   680.43602128
_cell_formula_units_Z   2
loop_
 _symmetry_equiv_pos_site_id
 _symmetry_equiv_pos_as_xyz
  1  'x, y, z'
loop_
 _atom_site_type_symbol
 _atom_site_label
 _atom_site_symmetry_multiplicity
 _atom_site_fract_x
 _atom_site_fract_y
 _atom_site_fract_z
 _atom_site_occupancy
  Er  Er0  1  0.75000000  0.99977817  0.00022183  1
  Er  Er1  1  0.25000000  0.00022183  0.99977817  1
  Er  Er2  1  0.25000000  0.66652820  0.33347180  1
  Er  Er3  1  0.75000000  0.33347180  0.66652820  1
  Al  Al4  1  0.60133605  0.66707758  0.33292242  1
  Al  Al5  1  0.39866395  0.33292242  0.66707758  1
  Al  Al6  1  0.10133605  0.33292242  0.66707758  1
  Al  Al7  1  0.89866395  0.66707758  0.33292242  1
  Al  Al8  1  0.50000000  0.50000000  -0.00000000  1
  Al  Al9  1  0.50000000  0.50000000  0.50000000  1
  Al  Al10  1  0.50000000  -0.00000000  0.50000000  1
  Al  Al11  1  -0.00000000  0.50000000  -0.00000000  1
  Al  Al12  1  -0.00000000  0.50000000  0.50000000  1
  Al  Al13  1  0.00000000  -0.00000000  0.50000000  1
  Al  Al14  1  0.75000000  0.67218953  0.03294261  1
  Al  Al15  1  0.75000000  0.35971494  0.32634443  1
  Al  Al16  1  0.75000000  0.96707101  0.63939826  1
  Al  Al17  1  0.75000000  0.36060174  0.03292899  1
  Al  Al18  1  0.75000000  0.96705739  0.32781047  1
  Al  Al19  1  0.75000000  0.67365557  0.64028506  1
  Al  Al20  1  0.25000000  0.32781047  0.96705739  1
  Al  Al21  1  0.25000000  0.64028506  0.67365557  1
  Al  Al22  1  0.25000000  0.03292899  0.36060174  1
  Al  Al23  1  0.25000000  0.63939826  0.96707101  1
  Al  Al24  1  0.25000000  0.03294261  0.67218953  1
  Al  Al25  1  0.25000000  0.32634443  0.35971494  1
  Al  Al26  1  0.47756215  0.83758998  0.67432646  1
  Al  Al27  1  0.47806462  0.83739511  0.16260489  1
  Al  Al28  1  0.47756215  0.32567354  0.16241002  1
  Al  Al29  1  0.52243785  0.16241002  0.32567354  1
  Al  Al30  1  0.52193538  0.16260489  0.83739511  1
  Al  Al31  1  0.52243785  0.67432646  0.83758998  1
  Al  Al32  1  0.97756215  0.16241002  0.32567354  1
  Al  Al33  1  0.97806462  0.16260489  0.83739511  1
  Al  Al34  1  0.97756215  0.67432646  0.83758998  1
  Al  Al35  1  0.02243785  0.83758998  0.67432646  1
  Al  Al36  1  0.02193538  0.83739511  0.16260489  1
  Al  Al37  1  0.02243785  0.32567354  0.16241002  1
