# generated using pymatgen
data_AlBi2Te2BrCl4
_symmetry_space_group_name_H-M   'P 1'
_cell_length_a   8.69871417
_cell_length_b   11.65520738
_cell_length_c   13.77818698
_cell_angle_alpha   98.40814143
_cell_angle_beta   90.00000000
_cell_angle_gamma   111.91116448
_symmetry_Int_Tables_number   1
_chemical_formula_structural   AlBi2Te2BrCl4
_chemical_formula_sum   'Al4 Bi8 Te8 Br4 Cl16'
_cell_volume   1279.80050544
_cell_formula_units_Z   4
loop_
 _symmetry_equiv_pos_site_id
 _symmetry_equiv_pos_as_xyz
  1  'x, y, z'
loop_
 _atom_site_type_symbol
 _atom_site_label
 _atom_site_symmetry_multiplicity
 _atom_site_fract_x
 _atom_site_fract_y
 _atom_site_fract_z
 _atom_site_occupancy
  Al  Al0  1  0.61019280  0.46585466  0.67346188  1
  Al  Al1  1  0.14433814  0.53414534  0.82653812  1
  Al  Al2  1  0.38980720  0.53414534  0.32653812  1
  Al  Al3  1  0.85566186  0.46585466  0.17346188  1
  Bi  Bi4  1  0.68840392  0.13314343  0.61039201  1
  Bi  Bi5  1  0.55526048  0.86685657  0.88960799  1
  Bi  Bi6  1  0.31159608  0.86685657  0.38960799  1
  Bi  Bi7  1  0.44473952  0.13314343  0.11039201  1
  Bi  Bi8  1  0.81097454  0.87792652  0.38919112  1
  Bi  Bi9  1  0.93304801  0.12207348  0.11080888  1
  Bi  Bi10  1  0.18902546  0.12207348  0.61080888  1
  Bi  Bi11  1  0.06695199  0.87792652  0.88919112  1
  Te  Te12  1  0.55482355  0.85592702  0.54009812  1
  Te  Te13  1  0.69889654  0.14407298  0.95990188  1
  Te  Te14  1  0.44517645  0.14407298  0.45990188  1
  Te  Te15  1  0.30110346  0.85592702  0.04009812  1
  Te  Te16  1  0.95444180  0.15550677  0.46516318  1
  Te  Te17  1  0.79893503  0.84449323  0.03483682  1
  Te  Te18  1  0.04555820  0.84449323  0.53483682  1
  Te  Te19  1  0.20106497  0.15550677  0.96516318  1
  Br  Br20  1  0.12463342  0.00000000  0.25000000  1
  Br  Br21  1  0.87536658  0.00000000  0.75000000  1
  Br  Br22  1  0.62537648  0.00000000  0.25000000  1
  Br  Br23  1  0.37462352  0.00000000  0.75000000  1
  Cl  Cl24  1  0.79255098  0.42827606  0.58166232  1
  Cl  Cl25  1  0.36427492  0.57172394  0.91833768  1
  Cl  Cl26  1  0.20744902  0.57172394  0.41833768  1
  Cl  Cl27  1  0.63572508  0.42827606  0.08166232  1
  Cl  Cl28  1  0.37439650  0.41474485  0.59163068  1
  Cl  Cl29  1  0.95965165  0.58525515  0.90836932  1
  Cl  Cl30  1  0.62560350  0.58525515  0.40836932  1
  Cl  Cl31  1  0.04034835  0.41474485  0.09163068  1
  Cl  Cl32  1  0.55793411  0.34109582  0.78038227  1
  Cl  Cl33  1  0.21683829  0.65890418  0.71961773  1
  Cl  Cl34  1  0.44206589  0.65890418  0.21961773  1
  Cl  Cl35  1  0.78316171  0.34109582  0.28038227  1
  Cl  Cl36  1  0.70324070  0.66358993  0.73065969  1
  Cl  Cl37  1  0.03965078  0.33641007  0.76934031  1
  Cl  Cl38  1  0.29675930  0.33641007  0.26934031  1
  Cl  Cl39  1  0.96034922  0.66358993  0.23065969  1
