# generated using pymatgen
data_Si6H31C10N
_symmetry_space_group_name_H-M   'P 1'
_cell_length_a   7.78919883
_cell_length_b   10.21708583
_cell_length_c   17.11201248
_cell_angle_alpha   105.46417959
_cell_angle_beta   90.00000000
_cell_angle_gamma   112.40710094
_symmetry_Int_Tables_number   1
_chemical_formula_structural   Si6H31C10N
_chemical_formula_sum   'Si12 H62 C20 N2'
_cell_volume   1205.50511758
_cell_formula_units_Z   2
loop_
 _symmetry_equiv_pos_site_id
 _symmetry_equiv_pos_as_xyz
  1  'x, y, z'
loop_
 _atom_site_type_symbol
 _atom_site_label
 _atom_site_symmetry_multiplicity
 _atom_site_fract_x
 _atom_site_fract_y
 _atom_site_fract_z
 _atom_site_occupancy
  Si  Si0  1  0.07526102  0.01193917  0.33906347  1
  Si  Si1  1  0.06332185  0.98806083  0.16093653  1
  Si  Si2  1  0.92473898  0.98806083  0.66093653  1
  Si  Si3  1  0.93667815  0.01193917  0.83906347  1
  Si  Si4  1  0.04321705  0.23861633  0.35055904  1
  Si  Si5  1  0.80460072  0.76138367  0.14944096  1
  Si  Si6  1  0.95678295  0.76138367  0.64944096  1
  Si  Si7  1  0.19539928  0.23861633  0.85055904  1
  Si  Si8  1  0.00076344  0.20666175  0.20782017  1
  Si  Si9  1  0.79410169  0.79333825  0.29217983  1
  Si  Si10  1  0.99923656  0.79333825  0.79217983  1
  Si  Si11  1  0.20589831  0.20666175  0.70782017  1
  H  H12  1  0.31999070  -0.00000000  0.25000000  1
  H  H13  1  0.68000930  -0.00000000  0.75000000  1
  H  H14  1  0.36610816  0.10521505  0.43689946  1
  H  H15  1  0.26089311  0.89478495  0.06310054  1
  H  H16  1  0.63389184  0.89478495  0.56310054  1
  H  H17  1  0.73910689  0.10521505  0.93689946  1
  H  H18  1  0.15920363  0.02908368  0.48227612  1
  H  H19  1  0.13011995  0.97091632  0.01772388  1
  H  H20  1  0.84079637  0.97091632  0.51772388  1
  H  H21  1  0.86988005  0.02908368  0.98227612  1
  H  H22  1  0.24829257  0.91023315  0.41507084  1
  H  H23  1  0.33805942  0.08976685  0.08492916  1
  H  H24  1  0.75170743  0.08976685  0.58492916  1
  H  H25  1  0.66194058  0.91023315  0.91507084  1
  H  H26  1  0.29102058  0.41166507  0.46688410  1
  H  H27  1  0.87935551  0.58833493  0.03311590  1
  H  H28  1  0.70897942  0.58833493  0.53311590  1
  H  H29  1  0.12064449  0.41166507  0.96688410  1
  H  H30  1  0.39317813  0.39153418  0.37389240  1
  H  H31  1  0.00164394  0.60846582  0.12610760  1
  H  H32  1  0.60682187  0.60846582  0.62610760  1
  H  H33  1  0.99835606  0.39153418  0.87389240  1
  H  H34  1  0.26303692  0.50434073  0.39688797  1
  H  H35  1  0.75869619  0.49565927  0.10311203  1
  H  H36  1  0.73696308  0.49565927  0.60311203  1
  H  H37  1  0.24130381  0.50434073  0.89688797  1
  H  H38  1  0.84243353  0.37715518  0.40740086  1
  H  H39  1  0.46527835  0.62284482  0.09259914  1
  H  H40  1  0.15756647  0.62284482  0.59259914  1
  H  H41  1  0.53472165  0.37715518  0.90740086  1
  H  H42  1  0.70896529  0.18346376  0.37962138  1
  H  H43  1  0.52550153  0.81653624  0.12037862  1
  H  H44  1  0.29103471  0.81653624  0.62037862  1
  H  H45  1  0.47449847  0.18346376  0.87962138  1
  H  H46  1  0.86553552  0.27141377  0.47106146  1
  H  H47  1  0.59412175  0.72858623  0.02893854  1
  H  H48  1  0.13446448  0.72858623  0.52893854  1
  H  H49  1  0.40587825  0.27141377  0.97106146  1
  H  H50  1  0.15703731  0.46798881  0.20323077  1
  H  H51  1  0.68904850  0.53201119  0.29676923  1
  H  H52  1  0.84296269  0.53201119  0.79676923  1
  H  H53  1  0.31095150  0.46798881  0.70323077  1
  H  H54  1  0.32192148  0.38413988  0.19192201  1
  H  H55  1  0.93778160  0.61586012  0.30807799  1
  H  H56  1  0.67807852  0.61586012  0.80807799  1
  H  H57  1  0.06221840  0.38413988  0.69192201  1
  H  H58  1  0.15614735  0.34417949  0.10824738  1
  H  H59  1  0.81196785  0.65582051  0.39175262  1
  H  H60  1  0.84385265  0.65582051  0.89175262  1
  H  H61  1  0.18803215  0.34417949  0.60824738  1
  H  H62  1  0.73486884  0.16394211  0.10801382  1
  H  H63  1  0.57092673  0.83605789  0.39198618  1
  H  H64  1  0.26513116  0.83605789  0.89198618  1
  H  H65  1  0.42907327  0.16394211  0.60801382  1
  H  H66  1  0.65023062  0.09982431  0.19318926  1
  H  H67  1  0.55040631  0.90017569  0.30681074  1
  H  H68  1  0.34976938  0.90017569  0.80681074  1
  H  H69  1  0.44959369  0.09982431  0.69318926  1
  H  H70  1  0.73798627  0.29181945  0.20253261  1
  H  H71  1  0.44616682  0.70818055  0.29746739  1
  H  H72  1  0.26201373  0.70818055  0.79746739  1
  H  H73  1  0.55383318  0.29181945  0.70253261  1
  C  C74  1  0.22713735  0.01397661  0.42630778  1
  C  C75  1  0.21316073  0.98602339  0.07369222  1
  C  C76  1  0.77286265  0.98602339  0.57369222  1
  C  C77  1  0.78683927  0.01397661  0.92630778  1
  C  C78  1  0.26966112  0.40096776  0.40162901  1
  C  C79  1  0.86869336  0.59903224  0.09837099  1
  C  C80  1  0.73033888  0.59903224  0.59837099  1
  C  C81  1  0.13130664  0.40096776  0.90162901  1
  C  C82  1  0.84620868  0.27044754  0.40720488  1
  C  C83  1  0.57576115  0.72955246  0.09279512  1
  C  C84  1  0.15379132  0.72955246  0.59279512  1
  C  C85  1  0.42423885  0.27044754  0.90720488  1
  C  C86  1  0.17667742  0.36532402  0.17468299  1
  C  C87  1  0.81135340  0.63467598  0.32531701  1
  C  C88  1  0.82332258  0.63467598  0.82531701  1
  C  C89  1  0.18864660  0.36532402  0.67468299  1
  C  C90  1  0.75816804  0.18907799  0.17468495  1
  C  C91  1  0.56909005  0.81092201  0.32531505  1
  C  C92  1  0.24183196  0.81092201  0.82531505  1
  C  C93  1  0.43090995  0.18907799  0.67468495  1
  N  N94  1  0.19002463  -0.00000000  0.25000000  1
  N  N95  1  0.80997537  0.00000000  0.75000000  1
