# generated using pymatgen
data_ZrHgH10C6O17
_symmetry_space_group_name_H-M   'P 1'
_cell_length_a   9.07297471
_cell_length_b   10.12666508
_cell_length_c   17.09362796
_cell_angle_alpha   90.00000000
_cell_angle_beta   90.00000000
_cell_angle_gamma   105.51822587
_symmetry_Int_Tables_number   1
_chemical_formula_structural   ZrHgH10C6O17
_chemical_formula_sum   'Zr4 Hg4 H40 C24 O68'
_cell_volume   1513.29143864
_cell_formula_units_Z   4
loop_
 _symmetry_equiv_pos_site_id
 _symmetry_equiv_pos_as_xyz
  1  'x, y, z'
loop_
 _atom_site_type_symbol
 _atom_site_label
 _atom_site_symmetry_multiplicity
 _atom_site_fract_x
 _atom_site_fract_y
 _atom_site_fract_z
 _atom_site_occupancy
  Zr  Zr0  1  0.80327993  0.60699967  0.90522070  1
  Zr  Zr1  1  0.19672007  0.89300033  0.40522070  1
  Zr  Zr2  1  0.19672007  0.39300033  0.09477930  1
  Zr  Zr3  1  0.80327993  0.10699967  0.59477930  1
  Hg  Hg4  1  0.43874852  0.01750214  0.87681182  1
  Hg  Hg5  1  0.56125148  0.48249786  0.37681182  1
  Hg  Hg6  1  0.56125148  0.98249786  0.12318818  1
  Hg  Hg7  1  0.43874852  0.51750214  0.62318818  1
  H  H8  1  0.11564808  0.48331073  0.94435501  1
  H  H9  1  0.88435192  0.01668927  0.44435501  1
  H  H10  1  0.88435192  0.51668927  0.05564499  1
  H  H11  1  0.11564808  0.98331073  0.55564499  1
  H  H12  1  0.10991369  0.32252253  0.93604695  1
  H  H13  1  0.89008631  0.17747747  0.43604695  1
  H  H14  1  0.89008631  0.67747747  0.06395305  1
  H  H15  1  0.10991369  0.82252253  0.56395305  1
  H  H16  1  0.40717264  0.99133998  0.69305006  1
  H  H17  1  0.59282736  0.50866002  0.19305006  1
  H  H18  1  0.59282736  0.00866002  0.30694994  1
  H  H19  1  0.40717264  0.49133998  0.80694994  1
  H  H20  1  0.33926511  0.11473653  0.71053471  1
  H  H21  1  0.66073489  0.38526347  0.21053471  1
  H  H22  1  0.66073489  0.88526347  0.28946529  1
  H  H23  1  0.33926511  0.61473653  0.78946529  1
  H  H24  1  0.76174501  0.50673329  0.74959626  1
  H  H25  1  0.23825499  0.99326671  0.24959626  1
  H  H26  1  0.23825499  0.49326671  0.25040374  1
  H  H27  1  0.76174501  0.00673329  0.75040374  1
  H  H28  1  0.92237460  0.48015256  0.77742018  1
  H  H29  1  0.07762540  0.01984744  0.27742018  1
  H  H30  1  0.07762540  0.51984744  0.22257982  1
  H  H31  1  0.92237460  0.98015256  0.72257982  1
  H  H32  1  0.01679480  0.30040597  0.79437496  1
  H  H33  1  0.98320520  0.19959403  0.29437496  1
  H  H34  1  0.98320520  0.69959403  0.20562504  1
  H  H35  1  0.01679480  0.80040597  0.70562504  1
  H  H36  1  0.14305168  0.43135843  0.76830779  1
  H  H37  1  0.85694832  0.06864157  0.26830779  1
  H  H38  1  0.85694832  0.56864157  0.23169221  1
  H  H39  1  0.14305168  0.93135843  0.73169221  1
  H  H40  1  0.92290821  0.88798064  0.10398052  1
  H  H41  1  0.07709179  0.61201936  0.60398052  1
  H  H42  1  0.07709179  0.11201936  0.89601948  1
  H  H43  1  0.92290821  0.38798064  0.39601948  1
  H  H44  1  0.08092422  0.84833807  0.09917551  1
  H  H45  1  0.91907578  0.65166193  0.59917551  1
  H  H46  1  0.91907578  0.15166193  0.90082449  1
  H  H47  1  0.08092422  0.34833807  0.40082449  1
  C  C48  1  0.39276030  0.19793449  0.06417843  1
  C  C49  1  0.60723970  0.30206551  0.56417843  1
  C  C50  1  0.60723970  0.80206551  0.93582157  1
  C  C51  1  0.39276030  0.69793449  0.43582157  1
  C  C52  1  0.35891584  0.18502918  0.15306260  1
  C  C53  1  0.64108416  0.31497082  0.65306260  1
  C  C54  1  0.64108416  0.81497082  0.84693740  1
  C  C55  1  0.35891584  0.68502918  0.34693740  1
  C  C56  1  0.69831256  0.29353022  0.90492103  1
  C  C57  1  0.30168744  0.20646978  0.40492103  1
  C  C58  1  0.30168744  0.70646978  0.09507897  1
  C  C59  1  0.69831256  0.79353022  0.59507897  1
  C  C60  1  0.55387185  0.33548498  0.87791970  1
  C  C61  1  0.44612815  0.16451502  0.37791970  1
  C  C62  1  0.44612815  0.66451502  0.12208030  1
  C  C63  1  0.55387185  0.83548498  0.62208030  1
  C  C64  1  0.84761257  0.76385298  0.38675648  1
  C  C65  1  0.15238743  0.73614702  0.88675648  1
  C  C66  1  0.15238743  0.23614702  0.61324352  1
  C  C67  1  0.84761257  0.26385298  0.11324352  1
  C  C68  1  0.08686433  0.85819688  0.90678196  1
  C  C69  1  0.91313567  0.64180312  0.40678196  1
  C  C70  1  0.91313567  0.14180312  0.09321804  1
  C  C71  1  0.08686433  0.35819688  0.59321804  1
  O  O72  1  0.45767759  0.11873711  0.03081864  1
  O  O73  1  0.54232241  0.38126289  0.53081864  1
  O  O74  1  0.54232241  0.88126289  0.96918136  1
  O  O75  1  0.45767759  0.61873711  0.46918136  1
  O  O76  1  0.65313167  0.70741920  0.96932444  1
  O  O77  1  0.34686833  0.79258080  0.46932444  1
  O  O78  1  0.34686833  0.29258080  0.03067556  1
  O  O79  1  0.65313167  0.20741920  0.53067556  1
  O  O80  1  0.70719103  0.72810752  0.81990274  1
  O  O81  1  0.29280897  0.77189248  0.31990274  1
  O  O82  1  0.29280897  0.27189248  0.18009726  1
  O  O83  1  0.70719103  0.22810752  0.68009726  1
  O  O84  1  0.60721560  0.90715035  0.80711335  1
  O  O85  1  0.39278440  0.59284965  0.30711335  1
  O  O86  1  0.39278440  0.09284965  0.19288665  1
  O  O87  1  0.60721560  0.40715035  0.69288665  1
  O  O88  1  0.19055226  0.10524959  0.42669957  1
  O  O89  1  0.80944774  0.39475041  0.92669957  1
  O  O90  1  0.80944774  0.89475041  0.57330043  1
  O  O91  1  0.19055226  0.60524959  0.07330043  1
  O  O92  1  0.29702797  0.32840828  0.40257255  1
  O  O93  1  0.70297203  0.17159172  0.90257255  1
  O  O94  1  0.70297203  0.67159172  0.59742745  1
  O  O95  1  0.29702797  0.82840828  0.09742745  1
  O  O96  1  0.57098381  0.46608392  0.87733024  1
  O  O97  1  0.42901619  0.03391608  0.37733024  1
  O  O98  1  0.42901619  0.53391608  0.12266976  1
  O  O99  1  0.57098381  0.96608392  0.62266976  1
  O  O100  1  0.56448625  0.25142600  0.35639921  1
  O  O101  1  0.43551375  0.24857400  0.85639921  1
  O  O102  1  0.43551375  0.74857400  0.64360079  1
  O  O103  1  0.56448625  0.75142600  0.14360079  1
  O  O104  1  0.94581250  0.88163986  0.39663163  1
  O  O105  1  0.05418750  0.61836014  0.89663163  1
  O  O106  1  0.05418750  0.11836014  0.60336837  1
  O  O107  1  0.94581250  0.38163986  0.10336837  1
  O  O108  1  0.28594628  0.75504092  0.86311450  1
  O  O109  1  0.71405372  0.74495908  0.36311450  1
  O  O110  1  0.71405372  0.24495908  0.13688550  1
  O  O111  1  0.28594628  0.25504092  0.63688550  1
  O  O112  1  0.17207452  0.97896842  0.90903038  1
  O  O113  1  0.82792548  0.52103158  0.40903038  1
  O  O114  1  0.82792548  0.02103158  0.09096962  1
  O  O115  1  0.17207452  0.47896842  0.59096962  1
  O  O116  1  0.05634568  0.17498353  0.07911187  1
  O  O117  1  0.94365432  0.32501647  0.57911187  1
  O  O118  1  0.94365432  0.82501647  0.92088813  1
  O  O119  1  0.05634568  0.67498353  0.42088813  1
  O  O120  1  0.15337970  0.40912280  0.96789906  1
  O  O121  1  0.84662030  0.09087720  0.46789906  1
  O  O122  1  0.84662030  0.59087720  0.03210094  1
  O  O123  1  0.15337970  0.90912280  0.53210094  1
  O  O124  1  0.34064344  0.02357843  0.72999038  1
  O  O125  1  0.65935656  0.47642157  0.22999038  1
  O  O126  1  0.65935656  0.97642157  0.27000962  1
  O  O127  1  0.34064344  0.52357843  0.77000962  1
  O  O128  1  0.85067390  0.54196951  0.78468767  1
  O  O129  1  0.14932610  0.95803049  0.28468767  1
  O  O130  1  0.14932610  0.45803049  0.21531233  1
  O  O131  1  0.85067390  0.04196951  0.71531233  1
  O  O132  1  0.03319348  0.38270865  0.76135211  1
  O  O133  1  0.96680652  0.11729135  0.26135211  1
  O  O134  1  0.96680652  0.61729135  0.23864789  1
  O  O135  1  0.03319348  0.88270865  0.73864789  1
  O  O136  1  0.97247626  0.81308124  0.11343222  1
  O  O137  1  0.02752374  0.68691876  0.61343222  1
  O  O138  1  0.02752374  0.18691876  0.88656778  1
  O  O139  1  0.97247626  0.31308124  0.38656778  1
