# generated using pymatgen
data_NaZn4H6SClO16
_symmetry_space_group_name_H-M   'P 1'
_cell_length_a   8.62862132
_cell_length_b   8.46989910
_cell_length_c   12.37871093
_cell_angle_alpha   89.56787101
_cell_angle_beta   90.15286591
_cell_angle_gamma   121.24214604
_symmetry_Int_Tables_number   1
_chemical_formula_structural   NaZn4H6SClO16
_chemical_formula_sum   'Na2 Zn8 H12 S2 Cl2 O32'
_cell_volume   773.46332034
_cell_formula_units_Z   2
loop_
 _symmetry_equiv_pos_site_id
 _symmetry_equiv_pos_as_xyz
  1  'x, y, z'
loop_
 _atom_site_type_symbol
 _atom_site_label
 _atom_site_symmetry_multiplicity
 _atom_site_fract_x
 _atom_site_fract_y
 _atom_site_fract_z
 _atom_site_occupancy
  Na  Na0  1  0.67306890  0.37492586  0.52737869  1
  Na  Na1  1  0.32693110  0.62507414  0.47262131  1
  Zn  Zn2  1  0.41842791  0.13324397  0.00304540  1
  Zn  Zn3  1  0.87114860  0.28441410  0.00480210  1
  Zn  Zn4  1  0.71492006  0.58412081  0.00616040  1
  Zn  Zn5  1  0.58157209  0.86675603  0.99695460  1
  Zn  Zn6  1  0.12885140  0.71558590  0.99519790  1
  Zn  Zn7  1  0.28507994  0.41587919  0.99383960  1
  Zn  Zn8  1  0.00316426  0.99960320  0.14063369  1
  Zn  Zn9  1  0.99683574  0.00039680  0.85936631  1
  H  H10  1  0.62124922  0.09721968  0.15342034  1
  H  H11  1  0.90466575  0.52004080  0.15582738  1
  H  H12  1  0.46888444  0.37015862  0.15531102  1
  H  H13  1  0.37875078  0.90278032  0.84657966  1
  H  H14  1  0.09533425  0.47995920  0.84417262  1
  H  H15  1  0.53111556  0.62984138  0.84468898  1
  H  H16  1  0.23531560  0.91723381  0.16538082  1
  H  H17  1  0.08762030  0.32152956  0.16460349  1
  H  H18  1  0.68248511  0.76481247  0.16562996  1
  H  H19  1  0.76468440  0.08276619  0.83461918  1
  H  H20  1  0.91237970  0.67847044  0.83539651  1
  H  H21  1  0.31751489  0.23518753  0.83437004  1
  S  S22  1  0.65735717  0.32872972  0.76725353  1
  S  S23  1  0.34264283  0.67127028  0.23274647  1
  Cl  Cl24  1  0.01435108  0.00467790  0.31938481  1
  Cl  Cl25  1  0.98564892  0.99532210  0.68061519  1
  O  O26  1  0.62548699  0.10298663  0.07480809  1
  O  O27  1  0.89655827  0.51976814  0.07726225  1
  O  O28  1  0.47671936  0.37428980  0.07673628  1
  O  O29  1  0.37451301  0.89701337  0.92519191  1
  O  O30  1  0.10344173  0.48023186  0.92273775  1
  O  O31  1  0.52328064  0.62571020  0.92326372  1
  O  O32  1  0.19051710  0.94034922  0.09673211  1
  O  O33  1  0.06045718  0.25188749  0.09615854  1
  O  O34  1  0.75186495  0.80979466  0.09691975  1
  O  O35  1  0.80948290  0.05965078  0.90326789  1
  O  O36  1  0.93954282  0.74811251  0.90384146  1
  O  O37  1  0.24813505  0.19020534  0.90308025  1
  O  O38  1  0.66132502  0.33399941  0.89092874  1
  O  O39  1  0.33867498  0.66600059  0.10907126  1
  O  O40  1  0.65700997  0.16186664  0.73117366  1
  O  O41  1  0.81920247  0.49839338  0.72421248  1
  O  O42  1  0.49077354  0.32277623  0.72777162  1
  O  O43  1  0.34299003  0.83813336  0.26882634  1
  O  O44  1  0.18079753  0.50160662  0.27578752  1
  O  O45  1  0.50922646  0.67722377  0.27222838  1
  O  O46  1  0.65181845  0.30764224  0.28326856  1
  O  O47  1  0.80497195  0.39413876  0.33724983  1
  O  O48  1  0.50752889  0.28478769  0.33227816  1
  O  O49  1  0.34818155  0.69235776  0.71673144  1
  O  O50  1  0.19502805  0.60586124  0.66275017  1
  O  O51  1  0.49247111  0.71521231  0.66772184  1
  O  O52  1  0.27773371  0.07369149  0.51034959  1
  O  O53  1  0.81175779  0.10626928  0.49133189  1
  O  O54  1  0.01397933  0.81340744  0.50424592  1
  O  O55  1  0.72226629  0.92630851  0.48965041  1
  O  O56  1  0.18824221  0.89373072  0.50866811  1
  O  O57  1  0.98602067  0.18659256  0.49575408  1
