# generated using pymatgen
data_NaBeSi3O8
_symmetry_space_group_name_H-M   'P 1'
_cell_length_a   7.36659695
_cell_length_b   7.36659695
_cell_length_c   14.20783716
_cell_angle_alpha   78.08984072
_cell_angle_beta   78.08984072
_cell_angle_gamma   60.55019309
_symmetry_Int_Tables_number   1
_chemical_formula_structural   NaBeSi3O8
_chemical_formula_sum   'Na4 Be4 Si12 O32'
_cell_volume   651.93593881
_cell_formula_units_Z   4
loop_
 _symmetry_equiv_pos_site_id
 _symmetry_equiv_pos_as_xyz
  1  'x, y, z'
loop_
 _atom_site_type_symbol
 _atom_site_label
 _atom_site_symmetry_multiplicity
 _atom_site_fract_x
 _atom_site_fract_y
 _atom_site_fract_z
 _atom_site_occupancy
  Na  Na0  1  0.68694842  0.37005027  0.57003861  1
  Na  Na1  1  0.62994973  0.31305158  0.92996139  1
  Na  Na2  1  0.31305158  0.62994973  0.42996139  1
  Na  Na3  1  0.37005027  0.68694842  0.07003861  1
  Be  Be4  1  0.84643757  0.49156111  0.00295163  1
  Be  Be5  1  0.50843889  0.15356243  0.49704837  1
  Be  Be6  1  0.15356243  0.50843889  0.99704837  1
  Be  Be7  1  0.49156111  0.84643757  0.50295163  1
  Si  Si8  1  0.18418655  0.22497816  0.85826891  1
  Si  Si9  1  0.77502184  0.81581345  0.64173109  1
  Si  Si10  1  0.81581345  0.77502184  0.14173109  1
  Si  Si11  1  0.22497816  0.18418655  0.35826891  1
  Si  Si12  1  0.15053346  0.35371747  0.63374900  1
  Si  Si13  1  0.64628253  0.84946654  0.86625100  1
  Si  Si14  1  0.84946654  0.64628253  0.36625100  1
  Si  Si15  1  0.35371747  0.15053346  0.13374900  1
  Si  Si16  1  0.93433081  0.12488015  0.13857699  1
  Si  Si17  1  0.87511985  0.06566919  0.36142301  1
  Si  Si18  1  0.06566919  0.87511985  0.86142301  1
  Si  Si19  1  0.12488015  0.93433081  0.63857699  1
  O  O20  1  0.03909221  0.10627981  0.87352273  1
  O  O21  1  0.89372019  0.96090779  0.62647727  1
  O  O22  1  0.96090779  0.89372019  0.12647727  1
  O  O23  1  0.10627981  0.03909221  0.37352273  1
  O  O24  1  0.06006713  0.42066416  0.38452592  1
  O  O25  1  0.57933584  0.93993287  0.11547408  1
  O  O26  1  0.93993287  0.57933584  0.61547408  1
  O  O27  1  0.42066416  0.06006713  0.88452592  1
  O  O28  1  0.07571920  0.40479811  0.92978971  1
  O  O29  1  0.59520189  0.92428080  0.57021029  1
  O  O30  1  0.92428080  0.59520189  0.07021029  1
  O  O31  1  0.40479811  0.07571920  0.42978971  1
  O  O32  1  0.79786647  0.67665628  0.25529932  1
  O  O33  1  0.32334372  0.20213353  0.24470068  1
  O  O34  1  0.20213353  0.32334372  0.74470068  1
  O  O35  1  0.67665628  0.79786647  0.75529932  1
  O  O36  1  0.65522289  0.65466246  0.44465483  1
  O  O37  1  0.34533754  0.34477711  0.05534517  1
  O  O38  1  0.34477711  0.34533754  0.55534517  1
  O  O39  1  0.65466246  0.65522289  0.94465483  1
  O  O40  1  0.07326551  0.18249366  0.62529221  1
  O  O41  1  0.81750634  0.92673449  0.87470779  1
  O  O42  1  0.92673449  0.81750634  0.37470779  1
  O  O43  1  0.18249366  0.07326551  0.12529221  1
  O  O44  1  0.82631240  0.17368760  0.25000000  1
  O  O45  1  0.17368760  0.82631240  0.75000000  1
  O  O46  1  0.79732179  0.30949188  0.06174629  1
  O  O47  1  0.69050812  0.20267821  0.43825371  1
  O  O48  1  0.20267821  0.69050812  0.93825371  1
  O  O49  1  0.30949188  0.79732179  0.56174629  1
  O  O50  1  0.56900197  0.43099803  0.75000000  1
  O  O51  1  0.43099803  0.56900197  0.25000000  1
