# generated using pymatgen
data_Na2(CoO2)3
_symmetry_space_group_name_H-M   'P 1'
_cell_length_a   10.17754287
_cell_length_b   10.17754287
_cell_length_c   12.62181082
_cell_angle_alpha   66.22332020
_cell_angle_beta   66.22332020
_cell_angle_gamma   60.00000329
_symmetry_Int_Tables_number   1
_chemical_formula_structural   Na2(CoO2)3
_chemical_formula_sum   'Na16 Co24 O48'
_cell_volume   1002.05975848
_cell_formula_units_Z   8
loop_
 _symmetry_equiv_pos_site_id
 _symmetry_equiv_pos_as_xyz
  1  'x, y, z'
loop_
 _atom_site_type_symbol
 _atom_site_label
 _atom_site_symmetry_multiplicity
 _atom_site_fract_x
 _atom_site_fract_y
 _atom_site_fract_z
 _atom_site_occupancy
  Na  Na0  1  0.58403154  0.58403154  0.24790538  1
  Na  Na1  1  0.08403154  0.08403154  0.74790538  1
  Na  Na2  1  0.41596846  0.41596846  0.75209462  1
  Na  Na3  1  0.91596846  0.91596846  0.25209462  1
  Na  Na4  1  0.11409765  0.38590235  0.75000000  1
  Na  Na5  1  0.38590235  0.75000000  0.75000000  1
  Na  Na6  1  0.75000000  0.11409765  0.75000000  1
  Na  Na7  1  0.61409765  0.25000000  0.25000000  1
  Na  Na8  1  0.25000000  0.88590235  0.25000000  1
  Na  Na9  1  0.88590235  0.61409765  0.25000000  1
  Na  Na10  1  0.55955124  0.94044876  0.75000000  1
  Na  Na11  1  0.94044876  0.75000000  0.75000000  1
  Na  Na12  1  0.75000000  0.55955124  0.75000000  1
  Na  Na13  1  0.05955124  0.25000000  0.25000000  1
  Na  Na14  1  0.25000000  0.44044876  0.25000000  1
  Na  Na15  1  0.44044876  0.05955124  0.25000000  1
  Co  Co16  1  0.50000000  0.50000000  0.50000000  1
  Co  Co17  1  0.00000000  -0.00000000  0.00000000  1
  Co  Co18  1  0.83023099  0.83023099  0.50930704  1
  Co  Co19  1  0.33023099  0.33023099  0.00930704  1
  Co  Co20  1  0.16976901  0.16976901  0.49069296  1
  Co  Co21  1  0.66976901  0.66976901  0.99069296  1
  Co  Co22  1  0.00000000  -0.00000000  0.50000000  1
  Co  Co23  1  0.00000000  0.50000000  0.50000000  1
  Co  Co24  1  0.50000000  -0.00000000  0.50000000  1
  Co  Co25  1  0.50000000  -0.00000000  0.00000000  1
  Co  Co26  1  0.00000000  0.50000000  0.00000000  1
  Co  Co27  1  0.50000000  0.50000000  0.00000000  1
  Co  Co28  1  0.33107929  0.83138508  0.49832293  1
  Co  Co29  1  0.83138508  0.33921270  0.49832293  1
  Co  Co30  1  0.33921270  0.33107929  0.49832293  1
  Co  Co31  1  0.83107929  0.83921270  0.99832293  1
  Co  Co32  1  0.83921270  0.33138508  0.99832293  1
  Co  Co33  1  0.33138508  0.83107929  0.99832293  1
  Co  Co34  1  0.66892071  0.16861492  0.50167707  1
  Co  Co35  1  0.16861492  0.66078730  0.50167707  1
  Co  Co36  1  0.66078730  0.66892071  0.50167707  1
  Co  Co37  1  0.16892071  0.16078730  0.00167707  1
  Co  Co38  1  0.16078730  0.66861492  0.00167707  1
  Co  Co39  1  0.66861492  0.16892071  0.00167707  1
  O  O40  1  0.37094191  0.69240586  0.40685225  1
  O  O41  1  0.69240586  0.52979998  0.40685225  1
  O  O42  1  0.52979998  0.37094191  0.40685225  1
  O  O43  1  0.87094191  0.02979998  0.90685225  1
  O  O44  1  0.02979998  0.19240586  0.90685225  1
  O  O45  1  0.19240586  0.87094191  0.90685225  1
  O  O46  1  0.62905809  0.30759414  0.59314775  1
  O  O47  1  0.30759414  0.47020002  0.59314775  1
  O  O48  1  0.47020002  0.62905809  0.59314775  1
  O  O49  1  0.12905809  0.97020002  0.09314775  1
  O  O50  1  0.97020002  0.80759414  0.09314775  1
  O  O51  1  0.80759414  0.12905809  0.09314775  1
  O  O52  1  0.87107767  0.18636394  0.41227471  1
  O  O53  1  0.18636394  0.53028368  0.41227471  1
  O  O54  1  0.53028368  0.87107767  0.41227471  1
  O  O55  1  0.37107767  0.03028368  0.91227471  1
  O  O56  1  0.03028368  0.68636394  0.91227471  1
  O  O57  1  0.68636394  0.37107767  0.91227471  1
  O  O58  1  0.12892233  0.81363606  0.58772529  1
  O  O59  1  0.81363606  0.46971632  0.58772529  1
  O  O60  1  0.46971632  0.12892233  0.58772529  1
  O  O61  1  0.62892233  0.96971632  0.08772529  1
  O  O62  1  0.96971632  0.31363606  0.08772529  1
  O  O63  1  0.31363606  0.62892233  0.08772529  1
  O  O64  1  0.19103005  0.03242874  0.40061629  1
  O  O65  1  0.03242874  0.37592492  0.40061629  1
  O  O66  1  0.37592492  0.19103005  0.40061629  1
  O  O67  1  0.69103005  0.87592492  0.90061629  1
  O  O68  1  0.87592492  0.53242874  0.90061629  1
  O  O69  1  0.53242874  0.69103005  0.90061629  1
  O  O70  1  0.80896995  0.96757126  0.59938371  1
  O  O71  1  0.96757126  0.62407508  0.59938371  1
  O  O72  1  0.62407508  0.80896995  0.59938371  1
  O  O73  1  0.30896995  0.12407508  0.09938371  1
  O  O74  1  0.12407508  0.46757126  0.09938371  1
  O  O75  1  0.46757126  0.30896995  0.09938371  1
  O  O76  1  0.87052197  0.69062377  0.41294257  1
  O  O77  1  0.69062377  0.02591169  0.41294257  1
  O  O78  1  0.02591169  0.87052197  0.41294257  1
  O  O79  1  0.37052197  0.52591169  0.91294257  1
  O  O80  1  0.52591169  0.19062377  0.91294257  1
  O  O81  1  0.19062377  0.37052197  0.91294257  1
  O  O82  1  0.12947803  0.30937623  0.58705743  1
  O  O83  1  0.30937623  0.97408831  0.58705743  1
  O  O84  1  0.97408831  0.12947803  0.58705743  1
  O  O85  1  0.62947803  0.47408831  0.08705743  1
  O  O86  1  0.47408831  0.80937623  0.08705743  1
  O  O87  1  0.80937623  0.62947803  0.08705743  1
