# generated using pymatgen
data_CsSi3O7
_symmetry_space_group_name_H-M   'P 1'
_cell_length_a   5.02040469
_cell_length_b   10.53242116
_cell_length_c   13.75237731
_cell_angle_alpha   90.00000000
_cell_angle_beta   90.00000000
_cell_angle_gamma   90.00000000
_symmetry_Int_Tables_number   1
_chemical_formula_structural   CsSi3O7
_chemical_formula_sum   'Cs4 Si12 O28'
_cell_volume   727.18468316
_cell_formula_units_Z   4
loop_
 _symmetry_equiv_pos_site_id
 _symmetry_equiv_pos_as_xyz
  1  'x, y, z'
loop_
 _atom_site_type_symbol
 _atom_site_label
 _atom_site_symmetry_multiplicity
 _atom_site_fract_x
 _atom_site_fract_y
 _atom_site_fract_z
 _atom_site_occupancy
  Cs  Cs0  1  0.04452690  0.90772881  0.74799579  1
  Cs  Cs1  1  0.45547310  0.09227119  0.24799579  1
  Cs  Cs2  1  0.54452690  0.59227119  0.25200421  1
  Cs  Cs3  1  0.95547310  0.40772881  0.75200421  1
  Si  Si4  1  0.01762337  0.08244622  0.49008349  1
  Si  Si5  1  0.48237663  0.91755378  0.99008349  1
  Si  Si6  1  0.51762337  0.41755378  0.50991651  1
  Si  Si7  1  0.98237663  0.58244622  0.00991651  1
  Si  Si8  1  0.52213878  0.15115105  0.60961863  1
  Si  Si9  1  0.97786122  0.84884895  0.10961863  1
  Si  Si10  1  0.02213878  0.34884895  0.39038137  1
  Si  Si11  1  0.47786122  0.65115105  0.89038137  1
  Si  Si12  1  0.09954794  0.79432434  0.44003846  1
  Si  Si13  1  0.40045206  0.20567566  0.94003846  1
  Si  Si14  1  0.59954794  0.70567566  0.55996154  1
  Si  Si15  1  0.90045206  0.29432434  0.05996154  1
  O  O16  1  0.60876590  0.11209689  0.71842987  1
  O  O17  1  0.89123410  0.88790311  0.21842987  1
  O  O18  1  0.10876590  0.38790311  0.28157013  1
  O  O19  1  0.39123410  0.61209689  0.78157013  1
  O  O20  1  0.21328374  0.11121178  0.58261186  1
  O  O21  1  0.28671626  0.88878822  0.08261186  1
  O  O22  1  0.71328374  0.38878822  0.41738814  1
  O  O23  1  0.78671626  0.61121178  0.91738814  1
  O  O24  1  0.40320861  0.75179302  0.47089649  1
  O  O25  1  0.09679139  0.24820698  0.97089649  1
  O  O26  1  0.90320861  0.74820698  0.52910351  1
  O  O27  1  0.59679139  0.25179302  0.02910351  1
  O  O28  1  0.09443571  0.95044838  0.43648141  1
  O  O29  1  0.40556429  0.04955162  0.93648141  1
  O  O30  1  0.59443571  0.54955162  0.56351859  1
  O  O31  1  0.90556429  0.45044838  0.06351859  1
  O  O32  1  0.55108177  0.30536341  0.59076497  1
  O  O33  1  0.94891823  0.69463659  0.09076497  1
  O  O34  1  0.05108177  0.19463659  0.40923503  1
  O  O35  1  0.44891823  0.80536341  0.90923503  1
  O  O36  1  0.71041978  0.07713681  0.52863540  1
  O  O37  1  0.78958022  0.92286319  0.02863540  1
  O  O38  1  0.21041978  0.42286319  0.47136460  1
  O  O39  1  0.28958022  0.57713681  0.97136460  1
  O  O40  1  0.02965213  0.73114054  0.33538000  1
  O  O41  1  0.47034787  0.26885946  0.83538000  1
  O  O42  1  0.52965213  0.76885946  0.66462000  1
  O  O43  1  0.97034787  0.23114054  0.16462000  1
