# generated using pymatgen
data_Zn3As2H7O12
_symmetry_space_group_name_H-M   'P 1'
_cell_length_a   5.13984480
_cell_length_b   11.00926497
_cell_length_c   19.52730355
_cell_angle_alpha   90.00000000
_cell_angle_beta   90.00000000
_cell_angle_gamma   90.00000000
_symmetry_Int_Tables_number   1
_chemical_formula_structural   Zn3As2H7O12
_chemical_formula_sum   'Zn12 As8 H28 O48'
_cell_volume   1104.97030582
_cell_formula_units_Z   4
loop_
 _symmetry_equiv_pos_site_id
 _symmetry_equiv_pos_as_xyz
  1  'x, y, z'
loop_
 _atom_site_type_symbol
 _atom_site_label
 _atom_site_symmetry_multiplicity
 _atom_site_fract_x
 _atom_site_fract_y
 _atom_site_fract_z
 _atom_site_occupancy
  Zn  Zn0  1  0.93057420  0.74144922  0.25000000  1
  Zn  Zn1  1  0.56942580  0.24144922  0.25000000  1
  Zn  Zn2  1  0.06942580  0.25855078  0.75000000  1
  Zn  Zn3  1  0.43057420  0.75855078  0.75000000  1
  Zn  Zn4  1  0.28973020  0.64507837  0.99798630  1
  Zn  Zn5  1  0.21026980  0.14507837  0.50201370  1
  Zn  Zn6  1  0.71026980  0.35492163  0.49798630  1
  Zn  Zn7  1  0.78973020  0.85492163  0.00201370  1
  Zn  Zn8  1  0.71026980  0.35492163  0.00201370  1
  Zn  Zn9  1  0.78973020  0.85492163  0.49798630  1
  Zn  Zn10  1  0.28973020  0.64507837  0.50201370  1
  Zn  Zn11  1  0.21026980  0.14507837  0.99798630  1
  As  As12  1  0.77709141  0.60017038  0.09641128  1
  As  As13  1  0.72290859  0.10017038  0.40358872  1
  As  As14  1  0.22290859  0.39982962  0.59641128  1
  As  As15  1  0.27709141  0.89982962  0.90358872  1
  As  As16  1  0.22290859  0.39982962  0.90358872  1
  As  As17  1  0.27709141  0.89982962  0.59641128  1
  As  As18  1  0.77709141  0.60017038  0.40358872  1
  As  As19  1  0.72290859  0.10017038  0.09641128  1
  H  H20  1  0.34819244  0.61571499  0.28913620  1
  H  H21  1  0.15180756  0.11571499  0.21086380  1
  H  H22  1  0.65180756  0.38428501  0.78913620  1
  H  H23  1  0.84819244  0.88428501  0.71086380  1
  H  H24  1  0.65180756  0.38428501  0.71086380  1
  H  H25  1  0.84819244  0.88428501  0.78913620  1
  H  H26  1  0.34819244  0.61571499  0.21086380  1
  H  H27  1  0.15180756  0.11571499  0.28913620  1
  H  H28  1  0.71355317  0.95982537  0.25000000  1
  H  H29  1  0.78644683  0.45982537  0.25000000  1
  H  H30  1  0.28644683  0.04017463  0.75000000  1
  H  H31  1  0.21355317  0.54017463  0.75000000  1
  H  H32  1  0.05406997  0.88920788  0.13923702  1
  H  H33  1  0.44593003  0.38920788  0.36076298  1
  H  H34  1  0.94593003  0.11079212  0.63923702  1
  H  H35  1  0.55406997  0.61079212  0.86076298  1
  H  H36  1  0.94593003  0.11079212  0.86076298  1
  H  H37  1  0.55406997  0.61079212  0.63923702  1
  H  H38  1  0.05406997  0.88920788  0.36076298  1
  H  H39  1  0.44593003  0.38920788  0.13923702  1
  H  H40  1  0.23781965  0.77490198  0.14120389  1
  H  H41  1  0.26218035  0.27490198  0.35879611  1
  H  H42  1  0.76218035  0.22509802  0.64120389  1
  H  H43  1  0.73781965  0.72509802  0.85879611  1
  H  H44  1  0.76218035  0.22509802  0.85879611  1
  H  H45  1  0.73781965  0.72509802  0.64120389  1
  H  H46  1  0.23781965  0.77490198  0.35879611  1
  H  H47  1  0.26218035  0.27490198  0.14120389  1
  O  O48  1  0.69630385  0.63879026  0.17825861  1
  O  O49  1  0.80369615  0.13879026  0.32174139  1
  O  O50  1  0.30369615  0.36120974  0.67825861  1
  O  O51  1  0.19630385  0.86120974  0.82174139  1
  O  O52  1  0.30369615  0.36120974  0.82174139  1
  O  O53  1  0.19630385  0.86120974  0.67825861  1
  O  O54  1  0.69630385  0.63879026  0.32174139  1
  O  O55  1  0.80369615  0.13879026  0.17825861  1
  O  O56  1  0.10592401  0.60646051  0.08240311  1
  O  O57  1  0.39407599  0.10646051  0.41759689  1
  O  O58  1  0.89407599  0.39353949  0.58240311  1
  O  O59  1  0.60592401  0.89353949  0.91759689  1
  O  O60  1  0.89407599  0.39353949  0.91759689  1
  O  O61  1  0.60592401  0.89353949  0.58240311  1
  O  O62  1  0.10592401  0.60646051  0.41759689  1
  O  O63  1  0.39407599  0.10646051  0.08240311  1
  O  O64  1  0.85911391  0.96026104  0.07966959  1
  O  O65  1  0.64088609  0.46026104  0.42033041  1
  O  O66  1  0.14088609  0.03973896  0.57966959  1
  O  O67  1  0.35911391  0.53973896  0.92033041  1
  O  O68  1  0.14088609  0.03973896  0.92033041  1
  O  O69  1  0.35911391  0.53973896  0.57966959  1
  O  O70  1  0.85911391  0.96026104  0.42033041  1
  O  O71  1  0.64088609  0.46026104  0.07966959  1
  O  O72  1  0.63454706  0.69861406  0.03583416  1
  O  O73  1  0.86545294  0.19861406  0.46416584  1
  O  O74  1  0.36545294  0.30138594  0.53583416  1
  O  O75  1  0.13454706  0.80138594  0.96416584  1
  O  O76  1  0.36545294  0.30138594  0.96416584  1
  O  O77  1  0.13454706  0.80138594  0.53583416  1
  O  O78  1  0.63454706  0.69861406  0.46416584  1
  O  O79  1  0.86545294  0.19861406  0.03583416  1
  O  O80  1  0.22586369  0.61121790  0.25000000  1
  O  O81  1  0.27413631  0.11121790  0.25000000  1
  O  O82  1  0.77413631  0.38878210  0.75000000  1
  O  O83  1  0.72586369  0.88878210  0.75000000  1
  O  O84  1  0.65677624  0.87365463  0.25000000  1
  O  O85  1  0.84322376  0.37365463  0.25000000  1
  O  O86  1  0.34322376  0.12634537  0.75000000  1
  O  O87  1  0.15677624  0.62634537  0.75000000  1
  O  O88  1  0.15159413  0.83426827  0.17093336  1
  O  O89  1  0.34840587  0.33426827  0.32906664  1
  O  O90  1  0.84840587  0.16573173  0.67093336  1
  O  O91  1  0.65159413  0.66573173  0.82906664  1
  O  O92  1  0.84840587  0.16573173  0.82906664  1
  O  O93  1  0.65159413  0.66573173  0.67093336  1
  O  O94  1  0.15159413  0.83426827  0.32906664  1
  O  O95  1  0.34840587  0.33426827  0.17093336  1
