# generated using pymatgen
data_CoH9C4(NO2)3
_symmetry_space_group_name_H-M   'P 1'
_cell_length_a   8.54140445
_cell_length_b   8.96512455
_cell_length_c   11.92446353
_cell_angle_alpha   90.00000000
_cell_angle_beta   90.00000000
_cell_angle_gamma   90.00000000
_symmetry_Int_Tables_number   1
_chemical_formula_structural   CoH9C4(NO2)3
_chemical_formula_sum   'Co4 H36 C16 N12 O24'
_cell_volume   913.11287005
_cell_formula_units_Z   4
loop_
 _symmetry_equiv_pos_site_id
 _symmetry_equiv_pos_as_xyz
  1  'x, y, z'
loop_
 _atom_site_type_symbol
 _atom_site_label
 _atom_site_symmetry_multiplicity
 _atom_site_fract_x
 _atom_site_fract_y
 _atom_site_fract_z
 _atom_site_occupancy
  Co  Co0  1  0.24961853  0.25000000  0.75000000  1
  Co  Co1  1  0.25038147  0.25000000  0.25000000  1
  Co  Co2  1  0.75038147  0.75000000  0.25000000  1
  Co  Co3  1  0.74961853  0.75000000  0.75000000  1
  H  H4  1  0.25000000  0.32306932  -0.00000000  1
  H  H5  1  0.25000000  0.17693068  0.50000000  1
  H  H6  1  0.75000000  0.67693068  -0.00000000  1
  H  H7  1  0.75000000  0.82306932  0.50000000  1
  H  H8  1  0.90791738  0.07201259  0.78706006  1
  H  H9  1  0.59208262  0.07201259  0.21293994  1
  H  H10  1  0.90791738  0.42798741  0.71293994  1
  H  H11  1  0.59208262  0.42798741  0.28706006  1
  H  H12  1  0.09208262  0.92798741  0.21293994  1
  H  H13  1  0.40791738  0.92798741  0.78706006  1
  H  H14  1  0.09208262  0.57201259  0.28706006  1
  H  H15  1  0.40791738  0.57201259  0.71293994  1
  H  H16  1  0.16853367  0.93089917  0.92274027  1
  H  H17  1  0.33146633  0.93089917  0.07725973  1
  H  H18  1  0.16853367  0.56910083  0.57725973  1
  H  H19  1  0.33146633  0.56910083  0.42274027  1
  H  H20  1  0.83146633  0.06910083  0.07725973  1
  H  H21  1  0.66853367  0.06910083  0.92274027  1
  H  H22  1  0.83146633  0.43089917  0.42274027  1
  H  H23  1  0.66853367  0.43089917  0.57725973  1
  H  H24  1  0.08570200  0.75852562  0.87602874  1
  H  H25  1  0.41429800  0.75852562  0.12397126  1
  H  H26  1  0.08570200  0.74147438  0.62397126  1
  H  H27  1  0.41429800  0.74147438  0.37602874  1
  H  H28  1  0.91429800  0.24147438  0.12397126  1
  H  H29  1  0.58570200  0.24147438  0.87602874  1
  H  H30  1  0.91429800  0.25852562  0.37602874  1
  H  H31  1  0.58570200  0.25852562  0.62397126  1
  H  H32  1  0.18612989  0.53648694  0.94111774  1
  H  H33  1  0.31387011  0.53648694  0.05888226  1
  H  H34  1  0.18612989  0.96351306  0.55888226  1
  H  H35  1  0.31387011  0.96351306  0.44111774  1
  H  H36  1  0.81387011  0.46351306  0.05888226  1
  H  H37  1  0.68612989  0.46351306  0.94111774  1
  H  H38  1  0.81387011  0.03648694  0.44111774  1
  H  H39  1  0.68612989  0.03648694  0.55888226  1
  C  C40  1  0.25000000  0.20036676  -0.00000000  1
  C  C41  1  0.25000000  0.29963324  0.50000000  1
  C  C42  1  0.75000000  0.79963324  -0.00000000  1
  C  C43  1  0.75000000  0.70036676  0.50000000  1
  C  C44  1  0.98081786  0.01386241  0.72363098  1
  C  C45  1  0.51918214  0.01386241  0.27636902  1
  C  C46  1  0.98081786  0.48613759  0.77636902  1
  C  C47  1  0.51918214  0.48613759  0.22363098  1
  C  C48  1  0.01918214  0.98613759  0.27636902  1
  C  C49  1  0.48081786  0.98613759  0.72363098  1
  C  C50  1  0.01918214  0.51386241  0.22363098  1
  C  C51  1  0.48081786  0.51386241  0.77636902  1
  C  C52  1  0.25000000  0.74242290  -0.00000000  1
  C  C53  1  0.25000000  0.75757710  0.50000000  1
  C  C54  1  0.75000000  0.25757710  -0.00000000  1
  C  C55  1  0.75000000  0.24242290  0.50000000  1
  N  N56  1  0.16003879  0.81710926  0.92707712  1
  N  N57  1  0.33996121  0.81710926  0.07292288  1
  N  N58  1  0.16003879  0.68289074  0.57292288  1
  N  N59  1  0.33996121  0.68289074  0.42707712  1
  N  N60  1  0.83996121  0.18289074  0.07292288  1
  N  N61  1  0.66003879  0.18289074  0.92707712  1
  N  N62  1  0.83996121  0.31710926  0.42707712  1
  N  N63  1  0.66003879  0.31710926  0.57292288  1
  N  N64  1  0.25000000  0.59370379  -0.00000000  1
  N  N65  1  0.25000000  0.90629621  0.50000000  1
  N  N66  1  0.75000000  0.40629621  -0.00000000  1
  N  N67  1  0.75000000  0.09370379  0.50000000  1
  O  O68  1  0.24275020  0.13381381  0.90600008  1
  O  O69  1  0.25724980  0.13381381  0.09399992  1
  O  O70  1  0.24275020  0.36618619  0.59399992  1
  O  O71  1  0.25724980  0.36618619  0.40600008  1
  O  O72  1  0.75724980  0.86618619  0.09399992  1
  O  O73  1  0.74275020  0.86618619  0.90600008  1
  O  O74  1  0.75724980  0.63381381  0.40600008  1
  O  O75  1  0.74275020  0.63381381  0.59399992  1
  O  O76  1  0.10178763  0.07926071  0.68597771  1
  O  O77  1  0.39821237  0.07926071  0.31402229  1
  O  O78  1  0.10178763  0.42073929  0.81402229  1
  O  O79  1  0.39821237  0.42073929  0.18597771  1
  O  O80  1  0.89821237  0.92073929  0.31402229  1
  O  O81  1  0.60178763  0.92073929  0.68597771  1
  O  O82  1  0.89821237  0.57926071  0.18597771  1
  O  O83  1  0.60178763  0.57926071  0.81402229  1
  O  O84  1  0.93903851  0.88416919  0.69277100  1
  O  O85  1  0.56096149  0.88416919  0.30722900  1
  O  O86  1  0.93903851  0.61583081  0.80722900  1
  O  O87  1  0.56096149  0.61583081  0.19277100  1
  O  O88  1  0.06096149  0.11583081  0.30722900  1
  O  O89  1  0.43903851  0.11583081  0.69277100  1
  O  O90  1  0.06096149  0.38416919  0.19277100  1
  O  O91  1  0.43903851  0.38416919  0.80722900  1
