# generated using pymatgen
data_Mn2O3
_symmetry_space_group_name_H-M   'P 1'
_cell_length_a   10.55604278
_cell_length_b   10.49784809
_cell_length_c   10.67191873
_cell_angle_alpha   119.49061546
_cell_angle_beta   90.43210996
_cell_angle_gamma   119.81500969
_symmetry_Int_Tables_number   1
_chemical_formula_structural   Mn2O3
_chemical_formula_sum   'Mn32 O48'
_cell_volume   841.82161478
_cell_formula_units_Z   16
loop_
 _symmetry_equiv_pos_site_id
 _symmetry_equiv_pos_as_xyz
  1  'x, y, z'
loop_
 _atom_site_type_symbol
 _atom_site_label
 _atom_site_symmetry_multiplicity
 _atom_site_fract_x
 _atom_site_fract_y
 _atom_site_fract_z
 _atom_site_occupancy
  Mn  Mn0  1  0.25580960  0.00441302  0.75560987  1
  Mn  Mn1  1  0.74419040  0.99558698  0.24439013  1
  Mn  Mn2  1  0.75291541  0.00412369  0.75450014  1
  Mn  Mn3  1  0.24708459  0.99587631  0.24549986  1
  Mn  Mn4  1  0.75010119  0.50274079  0.75385152  1
  Mn  Mn5  1  0.24989881  0.49725921  0.24614848  1
  Mn  Mn6  1  0.00000000  0.00000000  0.50000000  1
  Mn  Mn7  1  0.50000000  0.50000000  0.50000000  1
  Mn  Mn8  1  0.00000000  0.50000000  0.50000000  1
  Mn  Mn9  1  0.50000000  0.00000000  -0.00000000  1
  Mn  Mn10  1  0.00000000  0.50000000  -0.00000000  1
  Mn  Mn11  1  0.50000000  0.50000000  -0.00000000  1
  Mn  Mn12  1  0.23529841  0.47773077  0.71350371  1
  Mn  Mn13  1  0.76470159  0.52226923  0.28649629  1
  Mn  Mn14  1  0.50000000  0.00000000  0.50000000  1
  Mn  Mn15  1  0.00000000  0.00000000  -0.00000000  1
  Mn  Mn16  1  0.13490540  0.74300042  0.88155557  1
  Mn  Mn17  1  0.86509460  0.25699958  0.11844443  1
  Mn  Mn18  1  0.13758508  0.27052997  0.88323149  1
  Mn  Mn19  1  0.86241492  0.72947003  0.11676851  1
  Mn  Mn20  1  0.60976404  0.74847002  0.88236098  1
  Mn  Mn21  1  0.39023596  0.25152998  0.11763902  1
  Mn  Mn22  1  0.11482554  0.74821830  0.37888868  1
  Mn  Mn23  1  0.88517446  0.25178170  0.62111132  1
  Mn  Mn24  1  0.63326677  0.74576615  0.37987901  1
  Mn  Mn25  1  0.36673323  0.25423385  0.62012099  1
  Mn  Mn26  1  0.63107301  0.26228133  0.38129001  1
  Mn  Mn27  1  0.36892699  0.73771867  0.61870999  1
  Mn  Mn28  1  0.61325497  0.22739263  0.83788230  1
  Mn  Mn29  1  0.38674503  0.77260737  0.16211770  1
  Mn  Mn30  1  0.11567407  0.23361821  0.34751152  1
  Mn  Mn31  1  0.88432593  0.76638179  0.65248848  1
  O  O32  1  0.26948071  0.20753741  0.93095431  1
  O  O33  1  0.73051929  0.79246259  0.06904569  1
  O  O34  1  0.71790693  0.99109442  0.92951397  1
  O  O35  1  0.28209307  0.00890558  0.07048603  1
  O  O36  1  0.94092776  0.65245777  0.92589975  1
  O  O37  1  0.05907224  0.34754223  0.07410025  1
  O  O38  1  0.52174495  0.33970026  0.31842711  1
  O  O39  1  0.47825505  0.66029974  0.68157289  1
  O  O40  1  0.97666475  0.50187560  0.32006950  1
  O  O41  1  0.02333525  0.49812440  0.67993050  1
  O  O42  1  0.81840563  0.80989145  0.31877459  1
  O  O43  1  0.18159437  0.19010855  0.68122541  1
  O  O44  1  0.23417869  0.79844072  0.57877611  1
  O  O45  1  0.76582131  0.20155928  0.42122389  1
  O  O46  1  0.79102940  0.01860590  0.58175563  1
  O  O47  1  0.20897060  0.98139410  0.41824437  1
  O  O48  1  0.56096595  0.35862822  0.58388383  1
  O  O49  1  0.43903405  0.64137178  0.41611617  1
  O  O50  1  0.95149382  0.63622216  0.17677212  1
  O  O51  1  0.04850618  0.36377784  0.82322788  1
  O  O52  1  0.54459578  0.49276501  0.17588178  1
  O  O53  1  0.45540422  0.50723499  0.82411822  1
  O  O54  1  0.68348944  0.22630288  0.17664926  1
  O  O55  1  0.31651056  0.77369712  0.82335074  1
  O  O56  1  0.19879508  0.71719921  0.05706543  1
  O  O57  1  0.80120492  0.28280079  0.94293457  1
  O  O58  1  0.33452580  0.53104509  0.05214708  1
  O  O59  1  0.66547420  0.46895491  0.94785292  1
  O  O60  1  0.51787025  0.85652795  0.05593541  1
  O  O61  1  0.48212975  0.14347205  0.94406459  1
  O  O62  1  0.57553270  0.85118802  0.29678659  1
  O  O63  1  0.42446730  0.14881198  0.70321341  1
  O  O64  1  0.44313300  0.02076654  0.30553932  1
  O  O65  1  0.55686700  0.97923346  0.69446068  1
  O  O66  1  0.28553433  0.72727771  0.30544353  1
  O  O67  1  0.71446567  0.27272229  0.69455647  1
  O  O68  1  0.30322202  0.30326404  0.47318510  1
  O  O69  1  0.69677798  0.69673596  0.52681490  1
  O  O70  1  0.17575742  0.48157123  0.47653244  1
  O  O71  1  0.82424258  0.51842877  0.52346756  1
  O  O72  1  0.02030651  0.19490568  0.49486526  1
  O  O73  1  0.97969349  0.80509432  0.50513474  1
  O  O74  1  0.92496333  0.15339672  0.21616781  1
  O  O75  1  0.07503667  0.84660328  0.78383219  1
  O  O76  1  0.05880189  0.98717270  0.20445267  1
  O  O77  1  0.94119811  0.01282730  0.79554733  1
  O  O78  1  0.21365577  0.27498917  0.20200867  1
  O  O79  1  0.78634423  0.72501083  0.79799133  1
