# generated using pymatgen
data_Zr5(ZnSi)4
_symmetry_space_group_name_H-M   'P 1'
_cell_length_a   3.83703596
_cell_length_b   7.90413683
_cell_length_c   7.90413683
_cell_angle_alpha   86.62248696
_cell_angle_beta   75.95267379
_cell_angle_gamma   75.95267379
_symmetry_Int_Tables_number   1
_chemical_formula_structural   Zr5(ZnSi)4
_chemical_formula_sum   'Zr5 Zn4 Si4'
_cell_volume   225.59725438
_cell_formula_units_Z   1
loop_
 _symmetry_equiv_pos_site_id
 _symmetry_equiv_pos_as_xyz
  1  'x, y, z'
loop_
 _atom_site_type_symbol
 _atom_site_label
 _atom_site_symmetry_multiplicity
 _atom_site_fract_x
 _atom_site_fract_y
 _atom_site_fract_z
 _atom_site_occupancy
  Zr  Zr0  1  0.37059682  0.92821824  0.33058812  1
  Zr  Zr1  1  0.62940318  0.07178176  0.66941188  1
  Zr  Zr2  1  0.70118494  0.66941188  0.92821824  1
  Zr  Zr3  1  0.29881506  0.33058812  0.07178176  1
  Zr  Zr4  1  -0.00000000  0.00000000  0.00000000  1
  Zn  Zn5  1  0.10475249  0.30969587  0.48079916  1
  Zn  Zn6  1  0.89524751  0.69030413  0.51920084  1
  Zn  Zn7  1  0.58555165  0.51920084  0.30969587  1
  Zn  Zn8  1  0.41444835  0.48079916  0.69030413  1
  Si  Si9  1  0.24349662  0.81596997  0.69703680  1
  Si  Si10  1  0.75650338  0.18403003  0.30296320  1
  Si  Si11  1  0.94053341  0.30296320  0.81596997  1
  Si  Si12  1  0.05946659  0.69703680  0.18403003  1
