# generated using pymatgen
data_NbAgO3
_symmetry_space_group_name_H-M   'P 1'
_cell_length_a   5.63359756
_cell_length_b   5.63359756
_cell_length_c   8.01232044
_cell_angle_alpha   90.00000000
_cell_angle_beta   90.00000000
_cell_angle_gamma   90.40294820
_symmetry_Int_Tables_number   1
_chemical_formula_structural   NbAgO3
_chemical_formula_sum   'Nb4 Ag4 O12'
_cell_volume   254.28410232
_cell_formula_units_Z   4
loop_
 _symmetry_equiv_pos_site_id
 _symmetry_equiv_pos_as_xyz
  1  'x, y, z'
loop_
 _atom_site_type_symbol
 _atom_site_label
 _atom_site_symmetry_multiplicity
 _atom_site_fract_x
 _atom_site_fract_y
 _atom_site_fract_z
 _atom_site_occupancy
  Nb  Nb0  1  -0.00000000  0.50000000  0.50000000  1
  Nb  Nb1  1  0.50000000  -0.00000000  0.50000000  1
  Nb  Nb2  1  -0.00000000  0.50000000  -0.00000000  1
  Nb  Nb3  1  0.50000000  -0.00000000  -0.00000000  1
  Ag  Ag4  1  0.00443314  0.99556686  0.75000000  1
  Ag  Ag5  1  0.99556686  0.00443314  0.25000000  1
  Ag  Ag6  1  0.50346272  0.49653728  0.75000000  1
  Ag  Ag7  1  0.49653728  0.50346272  0.25000000  1
  O  O8  1  0.29390321  0.29390321  0.50000000  1
  O  O9  1  0.29390321  0.29390321  0.00000000  1
  O  O10  1  0.70609679  0.70609679  0.50000000  1
  O  O11  1  0.70609679  0.70609679  0.00000000  1
  O  O12  1  0.79187246  0.20812754  0.53069708  1
  O  O13  1  0.20812754  0.79187246  0.46930292  1
  O  O14  1  0.79187246  0.20812754  0.96930292  1
  O  O15  1  0.20812754  0.79187246  0.03069708  1
  O  O16  1  0.02281114  0.53894566  0.75000000  1
  O  O17  1  0.53894566  0.02281114  0.25000000  1
  O  O18  1  0.97718886  0.46105434  0.25000000  1
  O  O19  1  0.46105434  0.97718886  0.75000000  1
