# generated using pymatgen
data_ZrHBr
_symmetry_space_group_name_H-M   'P 1'
_cell_length_a   3.45097545
_cell_length_b   3.45097545
_cell_length_c   10.22842535
_cell_angle_alpha   90.00000000
_cell_angle_beta   90.00000000
_cell_angle_gamma   119.99999990
_symmetry_Int_Tables_number   1
_chemical_formula_structural   ZrHBr
_chemical_formula_sum   'Zr2 H2 Br2'
_cell_volume   105.49288093
_cell_formula_units_Z   2
loop_
 _symmetry_equiv_pos_site_id
 _symmetry_equiv_pos_as_xyz
  1  'x, y, z'
loop_
 _atom_site_type_symbol
 _atom_site_label
 _atom_site_symmetry_multiplicity
 _atom_site_fract_x
 _atom_site_fract_y
 _atom_site_fract_z
 _atom_site_occupancy
  Zr  Zr0  1  0.66666700  0.33333300  0.35600813  1
  Zr  Zr1  1  0.33333300  0.66666700  0.64399187  1
  H  H2  1  0.66666700  0.33333300  0.55836965  1
  H  H3  1  0.33333300  0.66666700  0.44163035  1
  Br  Br4  1  0.66666700  0.33333300  0.83118728  1
  Br  Br5  1  0.33333300  0.66666700  0.16881272  1
