# generated using pymatgen
data_Zn3BO5
_symmetry_space_group_name_H-M   'P 1'
_cell_length_a   3.13426234
_cell_length_b   9.42161957
_cell_length_c   12.40114531
_cell_angle_alpha   90.00000000
_cell_angle_beta   90.00000000
_cell_angle_gamma   90.00000000
_symmetry_Int_Tables_number   1
_chemical_formula_structural   Zn3BO5
_chemical_formula_sum   'Zn12 B4 O20'
_cell_volume   366.20368057
_cell_formula_units_Z   4
loop_
 _symmetry_equiv_pos_site_id
 _symmetry_equiv_pos_as_xyz
  1  'x, y, z'
loop_
 _atom_site_type_symbol
 _atom_site_label
 _atom_site_symmetry_multiplicity
 _atom_site_fract_x
 _atom_site_fract_y
 _atom_site_fract_z
 _atom_site_occupancy
  Zn  Zn0  1  0.50000000  0.00679766  0.22105406  1
  Zn  Zn1  1  0.50000000  0.99320234  0.77894594  1
  Zn  Zn2  1  0.50000000  0.49320234  0.72105406  1
  Zn  Zn3  1  0.50000000  0.50679766  0.27894594  1
  Zn  Zn4  1  -0.00000000  0.24005055  0.38239658  1
  Zn  Zn5  1  -0.00000000  0.75994945  0.61760342  1
  Zn  Zn6  1  0.00000000  0.25994945  0.88239658  1
  Zn  Zn7  1  -0.00000000  0.74005055  0.11760342  1
  Zn  Zn8  1  0.50000000  -0.00000000  0.50000000  1
  Zn  Zn9  1  0.50000000  0.50000000  0.00000000  1
  Zn  Zn10  1  -0.00000000  -0.00000000  0.00000000  1
  Zn  Zn11  1  -0.00000000  0.50000000  0.50000000  1
  B  B12  1  0.00000000  0.27823009  0.13947656  1
  B  B13  1  -0.00000000  0.72176991  0.86052344  1
  B  B14  1  0.00000000  0.22176991  0.63947656  1
  B  B15  1  -0.00000000  0.77823009  0.36052344  1
  O  O16  1  0.50000000  0.39469971  0.41985342  1
  O  O17  1  0.50000000  0.60530029  0.58014658  1
  O  O18  1  0.50000000  0.10530029  0.91985342  1
  O  O19  1  0.50000000  0.89469971  0.08014658  1
  O  O20  1  0.00000000  0.35109996  0.04264522  1
  O  O21  1  -0.00000000  0.64890004  0.95735478  1
  O  O22  1  -0.00000000  0.14890004  0.54264522  1
  O  O23  1  0.00000000  0.85109996  0.45735478  1
  O  O24  1  -0.00000000  0.13108658  0.14174888  1
  O  O25  1  0.00000000  0.86891342  0.85825112  1
  O  O26  1  0.00000000  0.36891342  0.64174888  1
  O  O27  1  -0.00000000  0.63108658  0.35825112  1
  O  O28  1  0.00000000  0.35334562  0.23589459  1
  O  O29  1  -0.00000000  0.64665438  0.76410541  1
  O  O30  1  -0.00000000  0.14665438  0.73589459  1
  O  O31  1  0.00000000  0.85334562  0.26410541  1
  O  O32  1  0.50000000  0.10697737  0.35847648  1
  O  O33  1  0.50000000  0.89302263  0.64152352  1
  O  O34  1  0.50000000  0.39302263  0.85847648  1
  O  O35  1  0.50000000  0.60697737  0.14152352  1
