# generated using pymatgen
data_Nb3Si
_symmetry_space_group_name_H-M   'P 1'
_cell_length_a   5.16617644
_cell_length_b   7.76297489
_cell_length_c   7.76297489
_cell_angle_alpha   83.64323617
_cell_angle_beta   70.56455163
_cell_angle_gamma   70.56455163
_symmetry_Int_Tables_number   1
_chemical_formula_structural   Nb3Si
_chemical_formula_sum   'Nb12 Si4'
_cell_volume   276.86280598
_cell_formula_units_Z   4
loop_
 _symmetry_equiv_pos_site_id
 _symmetry_equiv_pos_as_xyz
  1  'x, y, z'
loop_
 _atom_site_type_symbol
 _atom_site_label
 _atom_site_symmetry_multiplicity
 _atom_site_fract_x
 _atom_site_fract_y
 _atom_site_fract_z
 _atom_site_occupancy
  Nb  Nb0  1  0.66117454  0.18101101  0.01764874  1
  Nb  Nb1  1  0.85983429  0.81898899  0.98235126  1
  Nb  Nb2  1  0.15781445  0.98235126  0.18101101  1
  Nb  Nb3  1  0.32117672  0.01764874  0.81898899  1
  Nb  Nb4  1  0.99657530  0.37583168  0.66087864  1
  Nb  Nb5  1  0.03328563  0.62416832  0.33912136  1
  Nb  Nb6  1  0.62759302  0.33912136  0.37583168  1
  Nb  Nb7  1  0.34254606  0.66087864  0.62416832  1
  Nb  Nb8  1  0.03078218  0.40497905  0.02895458  1
  Nb  Nb9  1  0.46471582  0.59502095  0.97104542  1
  Nb  Nb10  1  0.56423877  0.97104542  0.40497905  1
  Nb  Nb11  1  0.94026324  0.02895458  0.59502095  1
  Si  Si12  1  0.48815745  0.32375652  0.73924141  1
  Si  Si13  1  0.55115538  0.67624348  0.26075859  1
  Si  Si14  1  0.18808602  0.26075859  0.32375652  1
  Si  Si15  1  0.77260114  0.73924141  0.67624348  1
