# generated using pymatgen
data_Na5Mn4(SiO3)6
_symmetry_space_group_name_H-M   'P 1'
_cell_length_a   7.50376375
_cell_length_b   10.45880634
_cell_length_c   10.42415072
_cell_angle_alpha   90.00000000
_cell_angle_beta   90.00000000
_cell_angle_gamma   90.00000000
_symmetry_Int_Tables_number   1
_chemical_formula_structural   Na5Mn4(SiO3)6
_chemical_formula_sum   'Na10 Mn8 Si12 O36'
_cell_volume   818.09164203
_cell_formula_units_Z   2
loop_
 _symmetry_equiv_pos_site_id
 _symmetry_equiv_pos_as_xyz
  1  'x, y, z'
loop_
 _atom_site_type_symbol
 _atom_site_label
 _atom_site_symmetry_multiplicity
 _atom_site_fract_x
 _atom_site_fract_y
 _atom_site_fract_z
 _atom_site_occupancy
  Na  Na0  1  0.75033957  -0.00000000  0.69745755  1
  Na  Na1  1  0.24966043  0.50000000  0.19745755  1
  Na  Na2  1  0.72704975  0.73537927  0.46868261  1
  Na  Na3  1  0.27295025  0.76462073  0.96868261  1
  Na  Na4  1  0.27295025  0.23537927  0.96868261  1
  Na  Na5  1  0.72704975  0.26462073  0.46868261  1
  Na  Na6  1  0.76861726  0.73800351  0.93744202  1
  Na  Na7  1  0.23138274  0.76199649  0.43744202  1
  Na  Na8  1  0.23138274  0.23800351  0.43744202  1
  Na  Na9  1  0.76861726  0.26199649  0.93744202  1
  Mn  Mn10  1  0.50998479  -0.00000000  0.96119355  1
  Mn  Mn11  1  0.49001521  0.50000000  0.46119355  1
  Mn  Mn12  1  0.25480715  -0.00000000  0.20229250  1
  Mn  Mn13  1  0.74519285  0.50000000  0.70229250  1
  Mn  Mn14  1  0.77032331  -0.00000000  0.20522972  1
  Mn  Mn15  1  0.22967669  0.50000000  0.70522972  1
  Mn  Mn16  1  0.99509202  -0.00000000  0.44742475  1
  Mn  Mn17  1  0.00490798  0.50000000  0.94742475  1
  Si  Si18  1  0.00446738  -0.00000000  0.92525906  1
  Si  Si19  1  0.99553262  0.50000000  0.42525906  1
  Si  Si20  1  0.96990270  0.72540415  0.20822381  1
  Si  Si21  1  0.03009730  0.77459585  0.70822381  1
  Si  Si22  1  0.03009730  0.22540415  0.70822381  1
  Si  Si23  1  0.96990270  0.27459585  0.20822381  1
  Si  Si24  1  0.46692015  0.77352540  0.69485369  1
  Si  Si25  1  0.53307985  0.72647460  0.19485369  1
  Si  Si26  1  0.53307985  0.27352540  0.19485369  1
  Si  Si27  1  0.46692015  0.22647460  0.69485369  1
  Si  Si28  1  0.49642830  -0.00000000  0.47878967  1
  Si  Si29  1  0.50357170  0.50000000  0.97878967  1
  O  O30  1  0.53475592  0.83573604  0.82922691  1
  O  O31  1  0.46524408  0.66426396  0.32922691  1
  O  O32  1  0.46524408  0.33573604  0.32922691  1
  O  O33  1  0.53475592  0.16426396  0.82922691  1
  O  O34  1  0.68382391  -0.00000000  0.39672142  1
  O  O35  1  0.31617609  0.50000000  0.89672142  1
  O  O36  1  0.19803800  -0.00000000  0.99379812  1
  O  O37  1  0.80196200  0.50000000  0.49379812  1
  O  O38  1  0.24843925  0.75235699  0.69940464  1
  O  O39  1  0.75156075  0.74764301  0.19940464  1
  O  O40  1  0.75156075  0.25235699  0.19940464  1
  O  O41  1  0.24843925  0.24764301  0.69940464  1
  O  O42  1  0.95836190  0.83951305  0.57701411  1
  O  O43  1  0.04163810  0.66048695  0.07701411  1
  O  O44  1  0.04163810  0.33951305  0.07701411  1
  O  O45  1  0.95836190  0.16048695  0.57701411  1
  O  O46  1  0.81685400  -0.00000000  0.00732388  1
  O  O47  1  0.18314600  0.50000000  0.50732388  1
  O  O48  1  0.95924221  0.63482428  0.75677878  1
  O  O49  1  0.04075779  0.86517572  0.25677878  1
  O  O50  1  0.04075779  0.13482428  0.25677878  1
  O  O51  1  0.95924221  0.36517572  0.75677878  1
  O  O52  1  0.54013575  0.63662561  0.64222200  1
  O  O53  1  0.45986425  0.86337439  0.14222200  1
  O  O54  1  0.45986425  0.13662561  0.14222200  1
  O  O55  1  0.54013575  0.36337439  0.64222200  1
  O  O56  1  0.30264472  -0.00000000  0.41046698  1
  O  O57  1  0.69735528  0.50000000  0.91046698  1
  O  O58  1  0.98868290  0.87284679  0.83032374  1
  O  O59  1  0.01131710  0.62715321  0.33032374  1
  O  O60  1  0.01131710  0.37284679  0.33032374  1
  O  O61  1  0.98868290  0.12715321  0.83032374  1
  O  O62  1  0.51140394  0.87438231  0.57569908  1
  O  O63  1  0.48859606  0.62561769  0.07569908  1
  O  O64  1  0.48859606  0.37438231  0.07569908  1
  O  O65  1  0.51140394  0.12561769  0.57569908  1
