# generated using pymatgen
data_Sr2Pr2Tl2Cu3O10
_symmetry_space_group_name_H-M   'P 1'
_cell_length_a   3.95349263
_cell_length_b   3.95349263
_cell_length_c   18.01152414
_cell_angle_alpha   96.30084528
_cell_angle_beta   96.30084528
_cell_angle_gamma   90.00000000
_symmetry_Int_Tables_number   1
_chemical_formula_structural   Sr2Pr2Tl2Cu3O10
_chemical_formula_sum   'Sr2 Pr2 Tl2 Cu3 O10'
_cell_volume   278.11043728
_cell_formula_units_Z   1
loop_
 _symmetry_equiv_pos_site_id
 _symmetry_equiv_pos_as_xyz
  1  'x, y, z'
loop_
 _atom_site_type_symbol
 _atom_site_label
 _atom_site_symmetry_multiplicity
 _atom_site_fract_x
 _atom_site_fract_y
 _atom_site_fract_z
 _atom_site_occupancy
  Sr  Sr0  1  0.35344223  0.35344223  0.70688446  1
  Sr  Sr1  1  0.64655777  0.64655777  0.29311554  1
  Pr  Pr2  1  0.45077858  0.45077858  0.90155716  1
  Pr  Pr3  1  0.54922142  0.54922142  0.09844284  1
  Tl  Tl4  1  0.21854917  0.21854917  0.43709834  1
  Tl  Tl5  1  0.78145083  0.78145083  0.56290166  1
  Cu  Cu6  1  0.09404657  0.09404657  0.18809314  1
  Cu  Cu7  1  0.90595343  0.90595343  0.81190686  1
  Cu  Cu8  1  -0.00000000  -0.00000000  -0.00000000  1
  O  O9  1  0.08995381  0.58995381  0.17990762  1
  O  O10  1  0.91004619  0.41004619  0.82009238  1
  O  O11  1  0.58995381  0.08995381  0.17990762  1
  O  O12  1  0.41004619  0.91004619  0.82009238  1
  O  O13  1  -0.00000000  0.50000000  -0.00000000  1
  O  O14  1  0.50000000  -0.00000000  -0.00000000  1
  O  O15  1  0.28010823  0.28010823  0.56021646  1
  O  O16  1  0.71989177  0.71989177  0.43978354  1
  O  O17  1  0.15787661  0.15787661  0.31575321  1
  O  O18  1  0.84212339  0.84212339  0.68424679  1
