# generated using pymatgen
data_Na3Mg2(WO4)3
_symmetry_space_group_name_H-M   'P 1'
_cell_length_a   7.26668819
_cell_length_b   9.17690401
_cell_length_c   9.17690401
_cell_angle_alpha   95.68002910
_cell_angle_beta   105.38573661
_cell_angle_gamma   105.38573661
_symmetry_Int_Tables_number   1
_chemical_formula_structural   Na3Mg2(WO4)3
_chemical_formula_sum   'Na6 Mg4 W6 O24'
_cell_volume   559.36884550
_cell_formula_units_Z   2
loop_
 _symmetry_equiv_pos_site_id
 _symmetry_equiv_pos_as_xyz
  1  'x, y, z'
loop_
 _atom_site_type_symbol
 _atom_site_label
 _atom_site_symmetry_multiplicity
 _atom_site_fract_x
 _atom_site_fract_y
 _atom_site_fract_z
 _atom_site_occupancy
  Na  Na0  1  0.75000000  0.23533703  0.76466297  1
  Na  Na1  1  0.25000000  0.76466297  0.23533703  1
  Na  Na2  1  -0.00000000  -0.00000000  -0.00000000  1
  Na  Na3  1  0.50000000  -0.00000000  -0.00000000  1
  Na  Na4  1  0.75000000  0.53019664  0.46980336  1
  Na  Na5  1  0.25000000  0.46980336  0.53019664  1
  Mg  Mg6  1  0.62674560  0.55464014  0.86741649  1
  Mg  Mg7  1  0.37325440  0.44535986  0.13258351  1
  Mg  Mg8  1  0.87325440  0.13258351  0.44535986  1
  Mg  Mg9  1  0.12674560  0.86741649  0.55464014  1
  W  W10  1  0.75000000  0.78004638  0.21995362  1
  W  W11  1  0.25000000  0.21995362  0.78004638  1
  W  W12  1  0.87509084  0.38553805  0.15800668  1
  W  W13  1  0.12490916  0.61446195  0.84199332  1
  W  W14  1  0.62490916  0.84199332  0.61446195  1
  W  W15  1  0.37509084  0.15800668  0.38553805  1
  O  O16  1  0.65899285  0.45914462  0.09517499  1
  O  O17  1  0.34100715  0.54085538  0.90482501  1
  O  O18  1  0.84100715  0.90482501  0.54085538  1
  O  O19  1  0.15899285  0.09517499  0.45914462  1
  O  O20  1  0.88206725  0.50127392  0.85166912  1
  O  O21  1  0.11793275  0.49872608  0.14833088  1
  O  O22  1  0.61793275  0.14833088  0.49872608  1
  O  O23  1  0.38206725  0.85166912  0.50127392  1
  O  O24  1  0.80480747  0.20595473  0.03348806  1
  O  O25  1  0.19519253  0.79404527  0.96651194  1
  O  O26  1  0.69519253  0.96651194  0.79404527  1
  O  O27  1  0.30480747  0.03348806  0.20595473  1
  O  O28  1  0.77514910  0.75798759  0.02060316  1
  O  O29  1  0.22485090  0.24201241  0.97939684  1
  O  O30  1  0.72485090  0.97939684  0.24201241  1
  O  O31  1  0.27514910  0.02060316  0.75798759  1
  O  O32  1  0.53094222  0.65889643  0.27626907  1
  O  O33  1  0.46905778  0.34110357  0.72373093  1
  O  O34  1  0.96905778  0.72373093  0.34110357  1
  O  O35  1  0.03094222  0.27626907  0.65889643  1
  O  O36  1  0.59590611  0.64817344  0.65850893  1
  O  O37  1  0.40409389  0.35182656  0.34149107  1
  O  O38  1  0.90409389  0.34149107  0.35182656  1
  O  O39  1  0.09590611  0.65850893  0.64817344  1
