# generated using pymatgen
data_V3(FeO4)2
_symmetry_space_group_name_H-M   'P 1'
_cell_length_a   5.93564151
_cell_length_b   5.93564151
_cell_length_c   9.47807078
_cell_angle_alpha   90.00000000
_cell_angle_beta   90.00000000
_cell_angle_gamma   120.00000125
_symmetry_Int_Tables_number   1
_chemical_formula_structural   V3(FeO4)2
_chemical_formula_sum   'V6 Fe4 O16'
_cell_volume   289.19175100
_cell_formula_units_Z   2
loop_
 _symmetry_equiv_pos_site_id
 _symmetry_equiv_pos_as_xyz
  1  'x, y, z'
loop_
 _atom_site_type_symbol
 _atom_site_label
 _atom_site_symmetry_multiplicity
 _atom_site_fract_x
 _atom_site_fract_y
 _atom_site_fract_z
 _atom_site_occupancy
  V  V0  1  0.84016390  0.68032780  0.64190100  1
  V  V1  1  0.84016390  0.15983610  0.64190100  1
  V  V2  1  0.15983610  0.31967220  0.14190100  1
  V  V3  1  0.31967220  0.15983610  0.64190100  1
  V  V4  1  0.15983610  0.84016390  0.14190100  1
  V  V5  1  0.68032780  0.84016390  0.14190100  1
  Fe  Fe6  1  0.66666700  0.33333300  0.95610931  1
  Fe  Fe7  1  0.33333300  0.66666700  0.45610931  1
  Fe  Fe8  1  0.66666700  0.33333300  0.35408315  1
  Fe  Fe9  1  0.33333300  0.66666700  0.85408315  1
  O  O10  1  0.51334071  0.02668143  0.51144063  1
  O  O11  1  0.51334071  0.48665929  0.51144063  1
  O  O12  1  0.48665929  0.97331857  0.01144063  1
  O  O13  1  0.97331857  0.48665929  0.51144063  1
  O  O14  1  0.48665929  0.51334071  0.01144063  1
  O  O15  1  0.02668143  0.51334071  0.01144063  1
  O  O16  1  0.16611818  0.33223637  0.75201253  1
  O  O17  1  0.16611818  0.83388182  0.75201253  1
  O  O18  1  0.83388182  0.66776363  0.25201253  1
  O  O19  1  0.66776363  0.83388182  0.75201253  1
  O  O20  1  0.83388182  0.16611818  0.25201253  1
  O  O21  1  0.33223637  0.16611818  0.25201253  1
  O  O22  1  -0.00000000  0.00000000  0.02945437  1
  O  O23  1  -0.00000000  0.00000000  0.52945437  1
  O  O24  1  0.66666700  0.33333300  0.75289069  1
  O  O25  1  0.33333300  0.66666700  0.25289069  1
