# generated using pymatgen
data_Te2As(SeF2)3
_symmetry_space_group_name_H-M   'P 1'
_cell_length_a   11.01415890
_cell_length_b   15.25456720
_cell_length_c   13.78103986
_cell_angle_alpha   90.00000000
_cell_angle_beta   90.00000000
_cell_angle_gamma   90.00000000
_symmetry_Int_Tables_number   1
_chemical_formula_structural   Te2As(SeF2)3
_chemical_formula_sum   'Te16 As8 Se24 F48'
_cell_volume   2315.43832268
_cell_formula_units_Z   8
loop_
 _symmetry_equiv_pos_site_id
 _symmetry_equiv_pos_as_xyz
  1  'x, y, z'
loop_
 _atom_site_type_symbol
 _atom_site_label
 _atom_site_symmetry_multiplicity
 _atom_site_fract_x
 _atom_site_fract_y
 _atom_site_fract_z
 _atom_site_occupancy
  Te  Te0  1  0.90003251  0.83161959  0.77163817  1
  Te  Te1  1  0.09996749  0.16838041  0.22836183  1
  Te  Te2  1  0.59996749  0.66838041  0.27163817  1
  Te  Te3  1  0.90003251  0.16838041  0.72836183  1
  Te  Te4  1  0.40003251  0.33161959  0.72836183  1
  Te  Te5  1  0.09996749  0.83161959  0.27163817  1
  Te  Te6  1  0.59996749  0.33161959  0.22836183  1
  Te  Te7  1  0.40003251  0.66838041  0.77163817  1
  Te  Te8  1  0.77080973  0.93331225  0.63650278  1
  Te  Te9  1  0.22919027  0.06668775  0.36349722  1
  Te  Te10  1  0.72919027  0.56668775  0.13650278  1
  Te  Te11  1  0.77080973  0.06668775  0.86349722  1
  Te  Te12  1  0.27080973  0.43331225  0.86349722  1
  Te  Te13  1  0.22919027  0.93331225  0.13650278  1
  Te  Te14  1  0.72919027  0.43331225  0.36349722  1
  Te  Te15  1  0.27080973  0.56668775  0.63650278  1
  As  As16  1  0.58799887  0.83007315  0.98139337  1
  As  As17  1  0.41200113  0.16992685  0.01860663  1
  As  As18  1  0.91200113  0.66992685  0.48139337  1
  As  As19  1  0.58799887  0.16992685  0.51860663  1
  As  As20  1  0.08799887  0.33007315  0.51860663  1
  As  As21  1  0.41200113  0.83007315  0.48139337  1
  As  As22  1  0.91200113  0.33007315  0.01860663  1
  As  As23  1  0.08799887  0.66992685  0.98139337  1
  Se  Se24  1  0.72660032  0.56941724  0.78980459  1
  Se  Se25  1  0.27339968  0.43058276  0.21019541  1
  Se  Se26  1  0.77339968  0.93058276  0.28980459  1
  Se  Se27  1  0.72660032  0.43058276  0.71019541  1
  Se  Se28  1  0.22660032  0.06941724  0.71019541  1
  Se  Se29  1  0.27339968  0.56941724  0.28980459  1
  Se  Se30  1  0.77339968  0.06941724  0.21019541  1
  Se  Se31  1  0.22660032  0.93058276  0.78980459  1
  Se  Se32  1  0.61429770  0.65793988  0.68699206  1
  Se  Se33  1  0.38570230  0.34206012  0.31300794  1
  Se  Se34  1  0.88570230  0.84206012  0.18699206  1
  Se  Se35  1  0.61429770  0.34206012  0.81300794  1
  Se  Se36  1  0.11429770  0.15793988  0.81300794  1
  Se  Se37  1  0.38570230  0.65793988  0.18699206  1
  Se  Se38  1  0.88570230  0.15793988  0.31300794  1
  Se  Se39  1  0.11429770  0.84206012  0.68699206  1
  Se  Se40  1  0.93647335  0.95995202  0.89757900  1
  Se  Se41  1  0.06352665  0.04004798  0.10242100  1
  Se  Se42  1  0.56352665  0.54004798  0.39757900  1
  Se  Se43  1  0.93647335  0.04004798  0.60242100  1
  Se  Se44  1  0.43647335  0.45995202  0.60242100  1
  Se  Se45  1  0.06352665  0.95995202  0.39757900  1
  Se  Se46  1  0.56352665  0.45995202  0.10242100  1
  Se  Se47  1  0.43647335  0.54004798  0.89757900  1
  F  F48  1  0.73809396  0.78750279  0.97956375  1
  F  F49  1  0.26190604  0.21249721  0.02043625  1
  F  F50  1  0.76190604  0.71249721  0.47956375  1
  F  F51  1  0.73809396  0.21249721  0.52043625  1
  F  F52  1  0.23809396  0.28750279  0.52043625  1
  F  F53  1  0.26190604  0.78750279  0.47956375  1
  F  F54  1  0.76190604  0.28750279  0.02043625  1
  F  F55  1  0.23809396  0.71249721  0.97956375  1
  F  F56  1  0.93770075  0.63044463  0.98420784  1
  F  F57  1  0.06229925  0.36955537  0.01579216  1
  F  F58  1  0.56229925  0.86955537  0.48420784  1
  F  F59  1  0.93770075  0.36955537  0.51579216  1
  F  F60  1  0.43770075  0.13044463  0.51579216  1
  F  F61  1  0.06229925  0.63044463  0.48420784  1
  F  F62  1  0.56229925  0.13044463  0.01579216  1
  F  F63  1  0.43770075  0.86955537  0.98420784  1
  F  F64  1  0.60077038  0.85741848  0.85634778  1
  F  F65  1  0.39922962  0.14258152  0.14365222  1
  F  F66  1  0.89922962  0.64258152  0.35634778  1
  F  F67  1  0.60077038  0.14258152  0.64365222  1
  F  F68  1  0.10077038  0.35741848  0.64365222  1
  F  F69  1  0.39922962  0.85741848  0.35634778  1
  F  F70  1  0.89922962  0.35741848  0.14365222  1
  F  F71  1  0.10077038  0.64258152  0.85634778  1
  F  F72  1  0.92443844  0.69959143  0.60678903  1
  F  F73  1  0.07556156  0.30040857  0.39321097  1
  F  F74  1  0.57556156  0.80040857  0.10678903  1
  F  F75  1  0.92443844  0.30040857  0.89321097  1
  F  F76  1  0.42443844  0.19959143  0.89321097  1
  F  F77  1  0.07556156  0.69959143  0.10678903  1
  F  F78  1  0.57556156  0.19959143  0.39321097  1
  F  F79  1  0.42443844  0.80040857  0.60678903  1
  F  F80  1  0.53314027  0.72339776  0.94861740  1
  F  F81  1  0.46685973  0.27660224  0.05138260  1
  F  F82  1  0.96685973  0.77660224  0.44861740  1
  F  F83  1  0.53314027  0.27660224  0.55138260  1
  F  F84  1  0.03314027  0.22339776  0.55138260  1
  F  F85  1  0.46685973  0.72339776  0.44861740  1
  F  F86  1  0.96685973  0.22339776  0.05138260  1
  F  F87  1  0.03314027  0.77660224  0.94861740  1
  F  F88  1  0.85534246  0.43482958  0.98541723  1
  F  F89  1  0.14465754  0.56517042  0.01458277  1
  F  F90  1  0.64465754  0.06517042  0.48541723  1
  F  F91  1  0.85534246  0.56517042  0.51458277  1
  F  F92  1  0.35534246  0.93482958  0.51458277  1
  F  F93  1  0.14465754  0.43482958  0.48541723  1
  F  F94  1  0.64465754  0.93482958  0.01458277  1
  F  F95  1  0.35534246  0.06517042  0.98541723  1
