# generated using pymatgen
data_Tm2Fe17H3
_symmetry_space_group_name_H-M   'P 1'
_cell_length_a   8.25324910
_cell_length_b   8.48825988
_cell_length_c   8.48825988
_cell_angle_alpha   119.99999692
_cell_angle_beta   90.00000000
_cell_angle_gamma   90.00000000
_symmetry_Int_Tables_number   1
_chemical_formula_structural   Tm2Fe17H3
_chemical_formula_sum   'Tm4 Fe34 H6'
_cell_volume   514.98304893
_cell_formula_units_Z   2
loop_
 _symmetry_equiv_pos_site_id
 _symmetry_equiv_pos_as_xyz
  1  'x, y, z'
loop_
 _atom_site_type_symbol
 _atom_site_label
 _atom_site_symmetry_multiplicity
 _atom_site_fract_x
 _atom_site_fract_y
 _atom_site_fract_z
 _atom_site_occupancy
  Tm  Tm0  1  0.75000000  0.66666700  0.33333300  1
  Tm  Tm1  1  0.25000000  0.33333300  0.66666700  1
  Tm  Tm2  1  0.75000000  0.00000000  -0.00000000  1
  Tm  Tm3  1  0.25000000  0.00000000  -0.00000000  1
  Fe  Fe4  1  0.75000000  0.62434812  0.67144017  1
  Fe  Fe5  1  0.25000000  0.37565188  0.32855983  1
  Fe  Fe6  1  0.75000000  0.04709204  0.37565188  1
  Fe  Fe7  1  0.25000000  0.95290796  0.32855983  1
  Fe  Fe8  1  0.25000000  0.95290796  0.62434812  1
  Fe  Fe9  1  0.75000000  0.04709204  0.67144017  1
  Fe  Fe10  1  0.75000000  0.32855983  0.95290796  1
  Fe  Fe11  1  0.25000000  0.67144017  0.62434812  1
  Fe  Fe12  1  0.25000000  0.67144017  0.04709204  1
  Fe  Fe13  1  0.75000000  0.32855983  0.37565188  1
  Fe  Fe14  1  0.25000000  0.37565188  0.04709204  1
  Fe  Fe15  1  0.75000000  0.62434812  0.95290796  1
  Fe  Fe16  1  0.39558146  0.66666700  0.33333300  1
  Fe  Fe17  1  0.60441854  0.33333300  0.66666700  1
  Fe  Fe18  1  0.89558146  0.33333300  0.66666700  1
  Fe  Fe19  1  0.10441854  0.66666700  0.33333300  1
  Fe  Fe20  1  0.98269865  0.83350656  0.16649344  1
  Fe  Fe21  1  0.01730135  0.16649344  0.83350656  1
  Fe  Fe22  1  0.98269865  0.33298688  0.16649344  1
  Fe  Fe23  1  0.48269865  0.16649344  0.83350656  1
  Fe  Fe24  1  0.01730135  0.66701312  0.83350656  1
  Fe  Fe25  1  0.51730135  0.83350656  0.16649344  1
  Fe  Fe26  1  0.98269865  0.83350656  0.66701312  1
  Fe  Fe27  1  0.48269865  0.66701312  0.83350656  1
  Fe  Fe28  1  0.01730135  0.16649344  0.33298688  1
  Fe  Fe29  1  0.51730135  0.33298688  0.16649344  1
  Fe  Fe30  1  0.48269865  0.16649344  0.33298688  1
  Fe  Fe31  1  0.51730135  0.83350656  0.66701312  1
  Fe  Fe32  1  -0.00000000  0.50000000  0.50000000  1
  Fe  Fe33  1  -0.00000000  0.00000000  0.50000000  1
  Fe  Fe34  1  0.50000000  0.50000000  0.50000000  1
  Fe  Fe35  1  0.00000000  0.50000000  -0.00000000  1
  Fe  Fe36  1  0.50000000  0.00000000  0.50000000  1
  Fe  Fe37  1  0.50000000  0.50000000  -0.00000000  1
  H  H38  1  0.75000000  0.83532878  0.16467122  1
  H  H39  1  0.25000000  0.16467122  0.83532878  1
  H  H40  1  0.75000000  0.32934245  0.16467122  1
  H  H41  1  0.25000000  0.67065755  0.83532878  1
  H  H42  1  0.75000000  0.83532878  0.67065755  1
  H  H43  1  0.25000000  0.16467122  0.32934245  1
