# generated using pymatgen
data_Tb5Si3O13
_symmetry_space_group_name_H-M   'P 1'
_cell_length_a   6.83990601
_cell_length_b   9.51090386
_cell_length_c   9.51090387
_cell_angle_alpha   119.99999606
_cell_angle_beta   90.00000000
_cell_angle_gamma   90.00000000
_symmetry_Int_Tables_number   1
_chemical_formula_structural   Tb5Si3O13
_chemical_formula_sum   'Tb10 Si6 O26'
_cell_volume   535.82671978
_cell_formula_units_Z   2
loop_
 _symmetry_equiv_pos_site_id
 _symmetry_equiv_pos_as_xyz
  1  'x, y, z'
loop_
 _atom_site_type_symbol
 _atom_site_label
 _atom_site_symmetry_multiplicity
 _atom_site_fract_x
 _atom_site_fract_y
 _atom_site_fract_z
 _atom_site_occupancy
  Tb  Tb0  1  0.75000000  0.76607146  0.99863254  1
  Tb  Tb1  1  0.25000000  0.23392854  0.00136746  1
  Tb  Tb2  1  0.75000000  0.23256108  0.23392854  1
  Tb  Tb3  1  0.25000000  0.76743892  0.76607146  1
  Tb  Tb4  1  0.75000000  0.00136746  0.76743892  1
  Tb  Tb5  1  0.25000000  0.99863254  0.23256108  1
  Tb  Tb6  1  0.00356435  0.66666700  0.33333300  1
  Tb  Tb7  1  0.99643565  0.33333300  0.66666700  1
  Tb  Tb8  1  0.50356435  0.33333300  0.66666700  1
  Tb  Tb9  1  0.49643565  0.66666700  0.33333300  1
  Si  Si10  1  0.75000000  0.97287314  0.37152058  1
  Si  Si11  1  0.25000000  0.02712686  0.62847942  1
  Si  Si12  1  0.75000000  0.39864744  0.02712686  1
  Si  Si13  1  0.25000000  0.60135256  0.97287314  1
  Si  Si14  1  0.75000000  0.62847942  0.60135256  1
  Si  Si15  1  0.25000000  0.37152058  0.39864744  1
  O  O16  1  0.75000000  0.51069885  0.68013774  1
  O  O17  1  0.25000000  0.48930115  0.31986226  1
  O  O18  1  0.75000000  0.16943889  0.48930115  1
  O  O19  1  0.25000000  0.83056111  0.51069885  1
  O  O20  1  0.75000000  0.31986226  0.83056111  1
  O  O21  1  0.25000000  0.68013774  0.16943889  1
  O  O22  1  0.93954554  0.91055094  0.24817610  1
  O  O23  1  0.06045446  0.08944906  0.75182390  1
  O  O24  1  0.93954554  0.33762516  0.08944906  1
  O  O25  1  0.43954554  0.08944906  0.75182390  1
  O  O26  1  0.06045446  0.66237484  0.91055094  1
  O  O27  1  0.56045446  0.91055094  0.24817610  1
  O  O28  1  0.93954554  0.75182390  0.66237484  1
  O  O29  1  0.43954554  0.66237484  0.91055094  1
  O  O30  1  0.06045446  0.24817610  0.33762516  1
  O  O31  1  0.56045446  0.33762516  0.08944906  1
  O  O32  1  0.43954554  0.24817610  0.33762516  1
  O  O33  1  0.56045446  0.75182390  0.66237484  1
  O  O34  1  0.75000000  0.87182008  0.47072806  1
  O  O35  1  0.25000000  0.12817992  0.52927194  1
  O  O36  1  0.75000000  0.59890798  0.12817992  1
  O  O37  1  0.25000000  0.40109202  0.87182008  1
  O  O38  1  0.75000000  0.52927194  0.40109202  1
  O  O39  1  0.25000000  0.47072806  0.59890798  1
  O  O40  1  0.75000000  0.00000000  0.00000000  1
  O  O41  1  0.25000000  0.00000000  0.00000000  1
