# generated using pymatgen
data_Sr4Ca2Cu4Bi4IO16
_symmetry_space_group_name_H-M   'P 1'
_cell_length_a   5.52541478
_cell_length_b   5.23150119
_cell_length_c   35.06229312
_cell_angle_alpha   90.00000000
_cell_angle_beta   94.51926227
_cell_angle_gamma   90.00000000
_symmetry_Int_Tables_number   1
_chemical_formula_structural   Sr4Ca2Cu4Bi4IO16
_chemical_formula_sum   'Sr8 Ca4 Cu8 Bi8 I2 O32'
_cell_volume   1010.36701903
_cell_formula_units_Z   2
loop_
 _symmetry_equiv_pos_site_id
 _symmetry_equiv_pos_as_xyz
  1  'x, y, z'
loop_
 _atom_site_type_symbol
 _atom_site_label
 _atom_site_symmetry_multiplicity
 _atom_site_fract_x
 _atom_site_fract_y
 _atom_site_fract_z
 _atom_site_occupancy
  Sr  Sr0  1  0.18702530  0.00000000  0.87198391  1
  Sr  Sr1  1  0.81297470  0.00000000  0.12801609  1
  Sr  Sr2  1  0.68495861  0.50000000  0.87198391  1
  Sr  Sr3  1  0.31504139  0.50000000  0.12801609  1
  Sr  Sr4  1  0.08408433  0.00000000  0.67672883  1
  Sr  Sr5  1  0.91591567  0.00000000  0.32327117  1
  Sr  Sr6  1  0.59264450  0.50000000  0.67672883  1
  Sr  Sr7  1  0.40735550  0.50000000  0.32327117  1
  Ca  Ca8  1  0.13791457  0.00000000  0.77485945  1
  Ca  Ca9  1  0.86208543  0.00000000  0.22514055  1
  Ca  Ca10  1  0.63694488  0.50000000  0.77485945  1
  Ca  Ca11  1  0.36305512  0.50000000  0.22514055  1
  Cu  Cu12  1  0.61535055  0.00000000  0.73064898  1
  Cu  Cu13  1  0.38464945  0.00000000  0.26935102  1
  Cu  Cu14  1  0.11529844  0.50000000  0.73064898  1
  Cu  Cu15  1  0.88470156  0.50000000  0.26935102  1
  Cu  Cu16  1  0.65999984  0.00000000  0.81943242  1
  Cu  Cu17  1  0.34000016  0.00000000  0.18056758  1
  Cu  Cu18  1  0.15943258  0.50000000  0.81943242  1
  Cu  Cu19  1  0.84056742  0.50000000  0.18056758  1
  Bi  Bi20  1  0.75020364  0.00000000  0.95482878  1
  Bi  Bi21  1  0.24979636  0.00000000  0.04517122  1
  Bi  Bi22  1  0.20462513  0.50000000  0.95482878  1
  Bi  Bi23  1  0.79537487  0.50000000  0.04517122  1
  Bi  Bi24  1  0.51578948  0.00000000  0.59577123  1
  Bi  Bi25  1  0.48421052  0.00000000  0.40422877  1
  Bi  Bi26  1  0.07998175  0.50000000  0.59577123  1
  Bi  Bi27  1  0.92001825  0.50000000  0.40422877  1
  I  I28  1  -0.00000000  0.00000000  0.50000000  1
  I  I29  1  0.50000000  0.50000000  0.50000000  1
  O  O30  1  0.91105865  0.25000000  0.82211730  1
  O  O31  1  0.08894135  0.75000000  0.17788270  1
  O  O32  1  0.08894135  0.25000000  0.17788270  1
  O  O33  1  0.91105865  0.75000000  0.82211730  1
  O  O34  1  0.60314366  0.00000000  0.65480027  1
  O  O35  1  0.39685634  0.00000000  0.34519973  1
  O  O36  1  0.05165661  0.50000000  0.65480027  1
  O  O37  1  0.94834339  0.50000000  0.34519973  1
  O  O38  1  0.13656826  0.00000000  0.95351922  1
  O  O39  1  0.86343174  0.00000000  0.04648078  1
  O  O40  1  0.81695096  0.50000000  0.95351922  1
  O  O41  1  0.18304904  0.50000000  0.04648078  1
  O  O42  1  0.58914642  0.25000000  0.17829283  1
  O  O43  1  0.41085358  0.75000000  0.82170717  1
  O  O44  1  0.41085358  0.25000000  0.82170717  1
  O  O45  1  0.58914642  0.75000000  0.17829283  1
  O  O46  1  0.86551958  0.25000000  0.73103917  1
  O  O47  1  0.13448042  0.75000000  0.26896083  1
  O  O48  1  0.13448042  0.25000000  0.26896083  1
  O  O49  1  0.86551958  0.75000000  0.73103917  1
  O  O50  1  0.14003718  0.00000000  0.60333052  1
  O  O51  1  0.85996282  0.00000000  0.39666948  1
  O  O52  1  0.46329334  0.50000000  0.60333052  1
  O  O53  1  0.53670666  0.50000000  0.39666948  1
  O  O54  1  0.63486060  0.25000000  0.26972121  1
  O  O55  1  0.36513940  0.75000000  0.73027879  1
  O  O56  1  0.36513940  0.25000000  0.73027879  1
  O  O57  1  0.63486060  0.75000000  0.26972121  1
  O  O58  1  0.68804582  0.00000000  0.89626253  1
  O  O59  1  0.31195418  0.00000000  0.10373747  1
  O  O60  1  0.20821671  0.50000000  0.89626253  1
  O  O61  1  0.79178329  0.50000000  0.10373747  1
