# generated using pymatgen
data_Li3GeO4
_symmetry_space_group_name_H-M   'P 1'
_cell_length_a   5.13161641
_cell_length_b   6.39245151
_cell_length_c   11.11143729
_cell_angle_alpha   90.00000000
_cell_angle_beta   90.00000000
_cell_angle_gamma   90.00000000
_symmetry_Int_Tables_number   1
_chemical_formula_structural   Li3GeO4
_chemical_formula_sum   'Li12 Ge4 O16'
_cell_volume   364.49524505
_cell_formula_units_Z   4
loop_
 _symmetry_equiv_pos_site_id
 _symmetry_equiv_pos_as_xyz
  1  'x, y, z'
loop_
 _atom_site_type_symbol
 _atom_site_label
 _atom_site_symmetry_multiplicity
 _atom_site_fract_x
 _atom_site_fract_y
 _atom_site_fract_z
 _atom_site_occupancy
  Li  Li0  1  0.68964597  0.49708105  0.66719255  1
  Li  Li1  1  0.31035403  0.50291895  0.33280745  1
  Li  Li2  1  0.18964597  0.50291895  0.83280745  1
  Li  Li3  1  0.31035403  0.99708105  0.33280745  1
  Li  Li4  1  0.81035403  0.49708105  0.16719255  1
  Li  Li5  1  0.68964597  0.00291895  0.66719255  1
  Li  Li6  1  0.81035403  0.00291895  0.16719255  1
  Li  Li7  1  0.18964597  0.99708105  0.83280745  1
  Li  Li8  1  0.31232345  0.75000000  0.57791984  1
  Li  Li9  1  0.68767655  0.25000000  0.42208016  1
  Li  Li10  1  0.81232345  0.25000000  0.92208016  1
  Li  Li11  1  0.18767655  0.75000000  0.07791984  1
  Ge  Ge12  1  0.67997337  0.75000000  0.91447286  1
  Ge  Ge13  1  0.32002663  0.25000000  0.08552714  1
  Ge  Ge14  1  0.17997337  0.25000000  0.58552714  1
  Ge  Ge15  1  0.82002663  0.75000000  0.41447286  1
  O  O16  1  0.78892893  0.97842591  0.83734599  1
  O  O17  1  0.21107107  0.02157409  0.16265401  1
  O  O18  1  0.28892893  0.02157409  0.66265401  1
  O  O19  1  0.21107107  0.47842591  0.16265401  1
  O  O20  1  0.71107107  0.97842591  0.33734599  1
  O  O21  1  0.78892893  0.52157409  0.83734599  1
  O  O22  1  0.71107107  0.52157409  0.33734599  1
  O  O23  1  0.28892893  0.47842591  0.66265401  1
  O  O24  1  0.33607182  0.75000000  0.91385193  1
  O  O25  1  0.66392818  0.25000000  0.08614807  1
  O  O26  1  0.83607182  0.25000000  0.58614807  1
  O  O27  1  0.16392818  0.75000000  0.41385193  1
  O  O28  1  0.70818265  0.75000000  0.56588631  1
  O  O29  1  0.29181735  0.25000000  0.43411369  1
  O  O30  1  0.20818265  0.25000000  0.93411369  1
  O  O31  1  0.79181735  0.75000000  0.06588631  1
