# generated using pymatgen
data_MnZn13
_symmetry_space_group_name_H-M   'P 1'
_cell_length_a   5.45379026
_cell_length_b   6.52901506
_cell_length_c   6.52901506
_cell_angle_alpha   71.24181987
_cell_angle_beta   80.26220703
_cell_angle_gamma   80.26220703
_symmetry_Int_Tables_number   1
_chemical_formula_structural   MnZn13
_chemical_formula_sum   'Mn1 Zn13'
_cell_volume   215.31777644
_cell_formula_units_Z   1
loop_
 _symmetry_equiv_pos_site_id
 _symmetry_equiv_pos_as_xyz
  1  'x, y, z'
loop_
 _atom_site_type_symbol
 _atom_site_label
 _atom_site_symmetry_multiplicity
 _atom_site_fract_x
 _atom_site_fract_y
 _atom_site_fract_z
 _atom_site_occupancy
  Mn  Mn0  1  -0.00000000  -0.00000000  0.00000000  1
  Zn  Zn1  1  0.06562521  0.61289671  0.61289671  1
  Zn  Zn2  1  0.93437479  0.38710329  0.38710329  1
  Zn  Zn3  1  0.37150446  0.76849074  0.76849074  1
  Zn  Zn4  1  0.62849554  0.23150926  0.23150926  1
  Zn  Zn5  1  0.31144965  0.21542969  0.61811055  1
  Zn  Zn6  1  0.68855035  0.78457031  0.38188945  1
  Zn  Zn7  1  0.68855035  0.38188945  0.78457031  1
  Zn  Zn8  1  0.31144965  0.61811055  0.21542969  1
  Zn  Zn9  1  0.19703350  0.99256280  0.35958851  1
  Zn  Zn10  1  0.80296650  0.00743720  0.64041149  1
  Zn  Zn11  1  0.80296650  0.64041149  0.00743720  1
  Zn  Zn12  1  0.19703350  0.35958851  0.99256280  1
  Zn  Zn13  1  0.50000000  -0.00000000  0.00000000  1
