# generated using pymatgen
data_MnH10C2N4O7
_symmetry_space_group_name_H-M   'P 1'
_cell_length_a   7.37326763
_cell_length_b   7.64596720
_cell_length_c   19.84552496
_cell_angle_alpha   85.11530978
_cell_angle_beta   79.82821701
_cell_angle_gamma   61.17296586
_symmetry_Int_Tables_number   1
_chemical_formula_structural   MnH10C2N4O7
_chemical_formula_sum   'Mn4 H40 C8 N16 O28'
_cell_volume   964.75775417
_cell_formula_units_Z   4
loop_
 _symmetry_equiv_pos_site_id
 _symmetry_equiv_pos_as_xyz
  1  'x, y, z'
loop_
 _atom_site_type_symbol
 _atom_site_label
 _atom_site_symmetry_multiplicity
 _atom_site_fract_x
 _atom_site_fract_y
 _atom_site_fract_z
 _atom_site_occupancy
  Mn  Mn0  1  0.46702212  0.63653469  0.89660299  1
  Mn  Mn1  1  0.53297788  0.36346531  0.10339701  1
  Mn  Mn2  1  0.89644319  0.63653469  0.60339701  1
  Mn  Mn3  1  0.10355681  0.36346531  0.39660299  1
  H  H4  1  0.49306869  0.97568383  0.71172059  1
  H  H5  1  0.50693131  0.02431617  0.28827941  1
  H  H6  1  0.53124748  0.97568383  0.78827941  1
  H  H7  1  0.46875252  0.02431617  0.21172059  1
  H  H8  1  0.75785235  0.22703891  0.87541869  1
  H  H9  1  0.24214765  0.77296109  0.12458131  1
  H  H10  1  0.01510874  0.22703891  0.62458131  1
  H  H11  1  0.98489126  0.77296109  0.37541869  1
  H  H12  1  0.43501252  0.55526407  0.76437438  1
  H  H13  1  0.56498748  0.44473593  0.23562562  1
  H  H14  1  0.00972341  0.55526407  0.73562562  1
  H  H15  1  0.99027659  0.44473593  0.26437438  1
  H  H16  1  0.46917144  0.39554755  0.65848529  1
  H  H17  1  0.53082856  0.60445245  0.34151471  1
  H  H18  1  0.13528101  0.39554755  0.84151471  1
  H  H19  1  0.86471899  0.60445245  0.15848529  1
  H  H20  1  0.24310721  0.77102831  0.78471612  1
  H  H21  1  0.75689279  0.22897169  0.21528388  1
  H  H22  1  0.98586448  0.77102831  0.71528388  1
  H  H23  1  0.01413552  0.22897169  0.28471612  1
  H  H24  1  0.19506202  0.96934900  0.44511200  1
  H  H25  1  0.80493798  0.03065100  0.55488800  1
  H  H26  1  0.83558899  0.96934900  0.05488800  1
  H  H27  1  0.16441101  0.03065100  0.94511200  1
  H  H28  1  0.87338060  0.34776570  0.83467965  1
  H  H29  1  0.12661940  0.65223430  0.16532035  1
  H  H30  1  0.77885370  0.34776570  0.66532035  1
  H  H31  1  0.22114630  0.65223430  0.33467965  1
  H  H32  1  0.91373504  0.02651684  0.78498062  1
  H  H33  1  0.08626496  0.97348316  0.21501938  1
  H  H34  1  0.05974811  0.02651684  0.71501938  1
  H  H35  1  0.94025189  0.97348316  0.28498062  1
  H  H36  1  0.03349746  0.92736950  0.92547614  1
  H  H37  1  0.96650254  0.07263050  0.07452386  1
  H  H38  1  0.03913305  0.92736950  0.57452386  1
  H  H39  1  0.96086695  0.07263050  0.42547614  1
  H  H40  1  0.53851733  0.25122000  0.72000177  1
  H  H41  1  0.46148267  0.74878000  0.27999823  1
  H  H42  1  0.21026267  0.25122000  0.77999823  1
  H  H43  1  0.78973733  0.74878000  0.22000177  1
  C  C44  1  0.71869713  0.75590450  0.97331752  1
  C  C45  1  0.28130287  0.24409550  0.02668248  1
  C  C46  1  0.52539837  0.75590450  0.52668248  1
  C  C47  1  0.47460163  0.24409550  0.47331752  1
  C  C48  1  0.42140873  0.86135351  0.59376611  1
  C  C49  1  0.57859127  0.13864649  0.40623389  1
  C  C50  1  0.71723776  0.86135351  0.90623389  1
  C  C51  1  0.28276224  0.13864649  0.09376611  1
  N  N52  1  0.63291118  0.63358723  0.98508811  1
  N  N53  1  0.36708882  0.36641277  0.01491189  1
  N  N54  1  0.73350159  0.63358723  0.51491189  1
  N  N55  1  0.26649841  0.36641277  0.48508811  1
  N  N56  1  0.43786248  0.76425152  0.47165211  1
  N  N57  1  0.56213752  0.23574848  0.52834789  1
  N  N58  1  0.79788600  0.76425152  0.02834789  1
  N  N59  1  0.20211400  0.23574848  0.97165211  1
  N  N60  1  0.40364383  0.35714685  0.57455147  1
  N  N61  1  0.59635617  0.64285315  0.42544853  1
  N  N62  1  0.23920932  0.35714685  0.92544853  1
  N  N63  1  0.76079068  0.64285315  0.07455147  1
  N  N64  1  0.33813353  0.43552878  0.95155475  1
  N  N65  1  0.66186647  0.56447122  0.04844525  1
  N  N66  1  0.22633768  0.43552878  0.54844525  1
  N  N67  1  0.77366232  0.56447122  0.45155475  1
  O  O68  1  0.22385617  0.96606480  0.60509079  1
  O  O69  1  0.77614383  0.03393520  0.39490921  1
  O  O70  1  0.81007904  0.96606480  0.89490921  1
  O  O71  1  0.18992096  0.03393520  0.10509079  1
  O  O72  1  0.17535343  0.90481814  0.93004893  1
  O  O73  1  0.82464657  0.09518186  0.06995107  1
  O  O74  1  0.91982843  0.90481814  0.56995107  1
  O  O75  1  0.08017157  0.09518186  0.43004893  1
  O  O76  1  0.02891749  0.94216503  0.75000000  1
  O  O77  1  0.97108251  0.05783497  0.25000000  1
  O  O78  1  0.54348904  0.37205655  0.69823563  1
  O  O79  1  0.45651096  0.62794345  0.30176437  1
  O  O80  1  0.08445441  0.37205655  0.80176437  1
  O  O81  1  0.91554559  0.62794345  0.19823563  1
  O  O82  1  0.61900425  0.83351145  0.86486688  1
  O  O83  1  0.38099575  0.16648855  0.13513312  1
  O  O84  1  0.54748430  0.83351145  0.63513312  1
  O  O85  1  0.45251570  0.16648855  0.36486688  1
  O  O86  1  0.73416334  0.35336989  0.85209943  1
  O  O87  1  0.26583666  0.64663011  0.14790057  1
  O  O88  1  0.91246678  0.35336989  0.64790057  1
  O  O89  1  0.08753322  0.64663011  0.35209943  1
  O  O90  1  0.36493922  0.65672167  0.80141181  1
  O  O91  1  0.63506078  0.34327833  0.19858819  1
  O  O92  1  0.97833912  0.65672167  0.69858819  1
  O  O93  1  0.02166088  0.34327833  0.30141181  1
  O  O94  1  0.46784912  0.06430177  0.75000000  1
  O  O95  1  0.53215088  0.93569823  0.25000000  1
