# generated using pymatgen
data_Na3Li(MoO4)2
_symmetry_space_group_name_H-M   'P 1'
_cell_length_a   9.18322882
_cell_length_b   8.55253255
_cell_length_c   8.90030467
_cell_angle_alpha   118.26816888
_cell_angle_beta   90.00000000
_cell_angle_gamma   122.47094839
_symmetry_Int_Tables_number   1
_chemical_formula_structural   Na3Li(MoO4)2
_chemical_formula_sum   'Na6 Li2 Mo4 O16'
_cell_volume   488.05650523
_cell_formula_units_Z   2
loop_
 _symmetry_equiv_pos_site_id
 _symmetry_equiv_pos_as_xyz
  1  'x, y, z'
loop_
 _atom_site_type_symbol
 _atom_site_label
 _atom_site_symmetry_multiplicity
 _atom_site_fract_x
 _atom_site_fract_y
 _atom_site_fract_z
 _atom_site_occupancy
  Na  Na0  1  0.62787116  0.29134529  0.86834150  1
  Na  Na1  1  0.66347413  0.29134529  0.36834150  1
  Na  Na2  1  0.33142006  0.48412736  0.88277753  1
  Na  Na3  1  0.15270731  0.48412736  0.38277753  1
  Na  Na4  1  0.15480309  0.97645416  0.88956219  1
  Na  Na5  1  0.82165107  0.97645416  0.38956219  1
  Li  Li6  1  0.54470937  0.59931033  0.62771759  1
  Li  Li7  1  0.05460096  0.59931033  0.12771759  1
  Mo  Mo8  1  0.76897464  0.03113189  0.99397418  1
  Mo  Mo9  1  0.26215726  0.03113189  0.49397418  1
  Mo  Mo10  1  0.98939808  0.47149906  0.70001523  1
  Mo  Mo11  1  0.48210098  0.47149906  0.20001523  1
  O  O12  1  0.49015351  0.24095304  0.12035926  1
  O  O13  1  0.75079953  0.24095304  0.62035926  1
  O  O14  1  0.11959670  0.36852589  0.62237587  1
  O  O15  1  0.24892919  0.36852589  0.12237587  1
  O  O16  1  0.00686849  0.61608184  0.59825054  1
  O  O17  1  0.60921334  0.61608184  0.09825054  1
  O  O18  1  0.52878279  0.79942806  0.86231841  1
  O  O19  1  0.27064527  0.79942806  0.36231841  1
  O  O20  1  0.87918295  0.91357831  0.88649285  1
  O  O21  1  0.03439535  0.91357831  0.38649285  1
  O  O22  1  0.31265936  0.13609382  0.73270017  1
  O  O23  1  0.82343446  0.13609382  0.23270017  1
  O  O24  1  0.58062358  0.66252966  0.44349213  1
  O  O25  1  0.08190609  0.66252966  0.94349213  1
  O  O26  1  0.43109768  0.27354129  0.49082255  1
  O  O27  1  0.84244361  0.27354129  0.99082255  1
