# generated using pymatgen
data_Li3GeO4
_symmetry_space_group_name_H-M   'P 1'
_cell_length_a   4.92212933
_cell_length_b   5.59554663
_cell_length_c   6.43206446
_cell_angle_alpha   90.00000000
_cell_angle_beta   90.00000000
_cell_angle_gamma   90.00000000
_symmetry_Int_Tables_number   1
_chemical_formula_structural   Li3GeO4
_chemical_formula_sum   'Li6 Ge2 O8'
_cell_volume   177.15194627
_cell_formula_units_Z   2
loop_
 _symmetry_equiv_pos_site_id
 _symmetry_equiv_pos_as_xyz
  1  'x, y, z'
loop_
 _atom_site_type_symbol
 _atom_site_label
 _atom_site_symmetry_multiplicity
 _atom_site_fract_x
 _atom_site_fract_y
 _atom_site_fract_z
 _atom_site_occupancy
  Li  Li0  1  0.48879768  0.83207546  0.74440387  1
  Li  Li1  1  0.98879768  0.16792454  0.75559613  1
  Li  Li2  1  0.98879768  0.16792454  0.24440387  1
  Li  Li3  1  0.48879768  0.83207546  0.25559613  1
  Li  Li4  1  0.48947216  0.33169405  -0.00000000  1
  Li  Li5  1  0.98947216  0.66830595  0.50000000  1
  Ge  Ge6  1  0.00083192  0.66888555  -0.00000000  1
  Ge  Ge7  1  0.50083192  0.33111445  0.50000000  1
  O  O8  1  0.89948389  0.82530777  0.77205867  1
  O  O9  1  0.39948389  0.17469223  0.72794133  1
  O  O10  1  0.39948389  0.17469223  0.27205867  1
  O  O11  1  0.89948389  0.82530777  0.22794133  1
  O  O12  1  0.89412875  0.36675758  0.00000000  1
  O  O13  1  0.39412875  0.63324242  0.50000000  1
  O  O14  1  0.36300402  0.67218718  -0.00000000  1
  O  O15  1  0.86300402  0.32781282  0.50000000  1
