# generated using pymatgen
data_KYb(MoO4)2
_symmetry_space_group_name_H-M   'P 1'
_cell_length_a   5.11545204
_cell_length_b   8.08237209
_cell_length_c   18.83837697
_cell_angle_alpha   90.00000000
_cell_angle_beta   90.00000000
_cell_angle_gamma   90.00000000
_symmetry_Int_Tables_number   1
_chemical_formula_structural   KYb(MoO4)2
_chemical_formula_sum   'K4 Yb4 Mo8 O32'
_cell_volume   778.87244708
_cell_formula_units_Z   4
loop_
 _symmetry_equiv_pos_site_id
 _symmetry_equiv_pos_as_xyz
  1  'x, y, z'
loop_
 _atom_site_type_symbol
 _atom_site_label
 _atom_site_symmetry_multiplicity
 _atom_site_fract_x
 _atom_site_fract_y
 _atom_site_fract_z
 _atom_site_occupancy
  K  K0  1  -0.00000000  0.75000000  0.22977899  1
  K  K1  1  -0.00000000  0.25000000  0.77022101  1
  K  K2  1  0.50000000  0.25000000  0.27022101  1
  K  K3  1  0.50000000  0.75000000  0.72977899  1
  Yb  Yb4  1  -0.00000000  0.75000000  0.99333762  1
  Yb  Yb5  1  -0.00000000  0.25000000  0.00666238  1
  Yb  Yb6  1  0.50000000  0.25000000  0.50666238  1
  Yb  Yb7  1  0.50000000  0.75000000  0.49333762  1
  Mo  Mo8  1  0.98637747  0.98558809  0.60169659  1
  Mo  Mo9  1  0.01362253  0.01441191  0.39830341  1
  Mo  Mo10  1  0.51362253  0.48558809  0.89830341  1
  Mo  Mo11  1  0.01362253  0.51441191  0.60169659  1
  Mo  Mo12  1  0.48637747  0.51441191  0.10169659  1
  Mo  Mo13  1  0.98637747  0.48558809  0.39830341  1
  Mo  Mo14  1  0.48637747  0.01441191  0.89830341  1
  Mo  Mo15  1  0.51362253  0.98558809  0.10169659  1
  O  O16  1  0.88746394  0.52239920  0.68820416  1
  O  O17  1  0.11253606  0.47760080  0.31179584  1
  O  O18  1  0.61253606  0.02239920  0.81179584  1
  O  O19  1  0.11253606  0.97760080  0.68820416  1
  O  O20  1  0.38746394  0.97760080  0.18820416  1
  O  O21  1  0.88746394  0.02239920  0.31179584  1
  O  O22  1  0.38746394  0.47760080  0.81179584  1
  O  O23  1  0.61253606  0.52239920  0.18820416  1
  O  O24  1  0.72577502  0.66306725  0.89974776  1
  O  O25  1  0.27422498  0.33693275  0.10025224  1
  O  O26  1  0.77422498  0.16306725  0.60025224  1
  O  O27  1  0.27422498  0.83693275  0.89974776  1
  O  O28  1  0.22577502  0.83693275  0.39974776  1
  O  O29  1  0.72577502  0.16306725  0.10025224  1
  O  O30  1  0.22577502  0.33693275  0.60025224  1
  O  O31  1  0.77422498  0.66306725  0.39974776  1
  O  O32  1  0.74666931  0.99682157  0.96529235  1
  O  O33  1  0.25333069  0.00317843  0.03470765  1
  O  O34  1  0.75333069  0.49682157  0.53470765  1
  O  O35  1  0.25333069  0.50317843  0.96529235  1
  O  O36  1  0.24666931  0.50317843  0.46529235  1
  O  O37  1  0.74666931  0.49682157  0.03470765  1
  O  O38  1  0.24666931  0.00317843  0.53470765  1
  O  O39  1  0.75333069  0.99682157  0.46529235  1
  O  O40  1  0.76440735  0.80717617  0.59280057  1
  O  O41  1  0.23559265  0.19282383  0.40719943  1
  O  O42  1  0.73559265  0.30717617  0.90719943  1
  O  O43  1  0.23559265  0.69282383  0.59280057  1
  O  O44  1  0.26440735  0.69282383  0.09280057  1
  O  O45  1  0.76440735  0.30717617  0.40719943  1
  O  O46  1  0.26440735  0.19282383  0.90719943  1
  O  O47  1  0.73559265  0.80717617  0.09280057  1
