# generated using pymatgen
data_K(SeO3)2
_symmetry_space_group_name_H-M   'P 1'
_cell_length_a   6.30000408
_cell_length_b   6.14781144
_cell_length_c   16.80303866
_cell_angle_alpha   90.00000000
_cell_angle_beta   90.00000000
_cell_angle_gamma   78.66740662
_symmetry_Int_Tables_number   1
_chemical_formula_structural   K(SeO3)2
_chemical_formula_sum   'K4 Se8 O24'
_cell_volume   638.11380142
_cell_formula_units_Z   4
loop_
 _symmetry_equiv_pos_site_id
 _symmetry_equiv_pos_as_xyz
  1  'x, y, z'
loop_
 _atom_site_type_symbol
 _atom_site_label
 _atom_site_symmetry_multiplicity
 _atom_site_fract_x
 _atom_site_fract_y
 _atom_site_fract_z
 _atom_site_occupancy
  K  K0  1  0.22573331  0.24177294  0.00282857  1
  K  K1  1  0.77426669  0.75822706  0.99717143  1
  K  K2  1  0.27426669  0.75822706  0.50282857  1
  K  K3  1  0.72573331  0.24177294  0.49717143  1
  Se  Se4  1  0.19734452  0.28654069  0.35682130  1
  Se  Se5  1  0.80265548  0.71345931  0.64317870  1
  Se  Se6  1  0.30265548  0.71345931  0.85682130  1
  Se  Se7  1  0.69734452  0.28654069  0.14317870  1
  Se  Se8  1  0.20011385  0.23520149  0.67295810  1
  Se  Se9  1  0.79988615  0.76479851  0.32704190  1
  Se  Se10  1  0.29988615  0.76479851  0.17295810  1
  Se  Se11  1  0.70011385  0.23520149  0.82704190  1
  O  O12  1  0.35358439  0.13089941  0.59626488  1
  O  O13  1  0.64641561  0.86910059  0.40373512  1
  O  O14  1  0.14641561  0.86910059  0.09626488  1
  O  O15  1  0.85358439  0.13089941  0.90373512  1
  O  O16  1  0.15524629  0.67229122  0.24396339  1
  O  O17  1  0.84475371  0.32770878  0.75603661  1
  O  O18  1  0.34475371  0.32770878  0.74396339  1
  O  O19  1  0.65524629  0.67229122  0.25603661  1
  O  O20  1  0.10304662  0.09887382  0.41029126  1
  O  O21  1  0.89695338  0.90112618  0.58970874  1
  O  O22  1  0.39695338  0.90112618  0.91029126  1
  O  O23  1  0.60304662  0.09887382  0.08970874  1
  O  O24  1  0.38613912  0.39228243  0.40197623  1
  O  O25  1  0.61386088  0.60771757  0.59802377  1
  O  O26  1  0.11386088  0.60771757  0.90197623  1
  O  O27  1  0.88613912  0.39228243  0.09802377  1
  O  O28  1  0.04845307  0.48752404  0.62230363  1
  O  O29  1  0.95154693  0.51247596  0.37769637  1
  O  O30  1  0.45154693  0.51247596  0.12230363  1
  O  O31  1  0.54845307  0.48752404  0.87769637  1
  O  O32  1  0.24097524  0.21471501  0.26361374  1
  O  O33  1  0.75902476  0.78528499  0.73638626  1
  O  O34  1  0.25902476  0.78528499  0.76361374  1
  O  O35  1  0.74097524  0.21471501  0.23638626  1
