# generated using pymatgen
data_H12PdC4(NO5)2
_symmetry_space_group_name_H-M   'P 1'
_cell_length_a   6.55778964
_cell_length_b   7.57455353
_cell_length_c   14.09911482
_cell_angle_alpha   90.00000000
_cell_angle_beta   90.00000000
_cell_angle_gamma   116.19825492
_symmetry_Int_Tables_number   1
_chemical_formula_structural   H12PdC4(NO5)2
_chemical_formula_sum   'H24 Pd2 C8 N4 O20'
_cell_volume   628.39163425
_cell_formula_units_Z   2
loop_
 _symmetry_equiv_pos_site_id
 _symmetry_equiv_pos_as_xyz
  1  'x, y, z'
loop_
 _atom_site_type_symbol
 _atom_site_label
 _atom_site_symmetry_multiplicity
 _atom_site_fract_x
 _atom_site_fract_y
 _atom_site_fract_z
 _atom_site_occupancy
  H  H0  1  0.04618492  0.87310729  0.32849383  1
  H  H1  1  0.95381508  0.12689271  0.67150617  1
  H  H2  1  0.45381508  0.12689271  0.82849383  1
  H  H3  1  0.54618492  0.87310729  0.17150617  1
  H  H4  1  0.12558550  0.59797247  0.10653465  1
  H  H5  1  0.87441450  0.40202753  0.89346535  1
  H  H6  1  0.37441450  0.40202753  0.60653465  1
  H  H7  1  0.62558550  0.59797247  0.39346535  1
  H  H8  1  0.48440279  0.02201221  0.73682615  1
  H  H9  1  0.51559721  0.97798779  0.26317385  1
  H  H10  1  0.01559721  0.97798779  0.23682615  1
  H  H11  1  0.98440279  0.02201221  0.76317385  1
  H  H12  1  0.00752067  0.32774398  0.80874979  1
  H  H13  1  0.99247933  0.67225602  0.19125021  1
  H  H14  1  0.49247933  0.67225602  0.30874979  1
  H  H15  1  0.50752067  0.32774398  0.69125021  1
  H  H16  1  0.33861693  0.48382150  0.38419812  1
  H  H17  1  0.66138307  0.51617850  0.61580188  1
  H  H18  1  0.16138307  0.51617850  0.88419812  1
  H  H19  1  0.83861693  0.48382150  0.11580188  1
  H  H20  1  0.49645589  0.45439127  0.29730382  1
  H  H21  1  0.50354411  0.54560873  0.70269618  1
  H  H22  1  0.00354411  0.54560873  0.79730382  1
  H  H23  1  0.99645589  0.45439127  0.20269618  1
  Pd  Pd24  1  0.00000000  0.00000000  0.00000000  1
  Pd  Pd25  1  0.50000000  0.00000000  0.50000000  1
  C  C26  1  0.46800518  0.25291444  0.01139337  1
  C  C27  1  0.53199482  0.74708556  0.98860663  1
  C  C28  1  0.03199482  0.74708556  0.51139337  1
  C  C29  1  0.96800518  0.25291444  0.48860663  1
  C  C30  1  0.36715565  0.25897281  0.10999990  1
  C  C31  1  0.63284435  0.74102719  0.89000010  1
  C  C32  1  0.13284435  0.74102719  0.60999990  1
  C  C33  1  0.86715565  0.25897281  0.39000010  1
  N  N34  1  0.48970335  0.55264850  0.34683841  1
  N  N35  1  0.51029665  0.44735150  0.65316159  1
  N  N36  1  0.01029665  0.44735150  0.84683841  1
  N  N37  1  0.98970335  0.55264850  0.15316159  1
  O  O38  1  0.04493498  0.14823495  0.72960397  1
  O  O39  1  0.95506502  0.85176505  0.27039603  1
  O  O40  1  0.45506502  0.85176505  0.22960397  1
  O  O41  1  0.54493498  0.14823495  0.77039603  1
  O  O42  1  0.17442728  0.86154513  0.44862307  1
  O  O43  1  0.82557272  0.13845487  0.55137693  1
  O  O44  1  0.32557272  0.13845487  0.94862307  1
  O  O45  1  0.67442728  0.86154513  0.05137693  1
  O  O46  1  0.17515798  0.35437991  0.50257569  1
  O  O47  1  0.82484202  0.64562009  0.49742431  1
  O  O48  1  0.32484202  0.64562009  0.00257569  1
  O  O49  1  0.67515798  0.35437991  0.99742431  1
  O  O50  1  0.49477609  0.35969237  0.17423880  1
  O  O51  1  0.50522391  0.64030763  0.82576120  1
  O  O52  1  0.00522391  0.64030763  0.67423880  1
  O  O53  1  0.99477609  0.35969237  0.32576120  1
  O  O54  1  0.14865056  0.15338306  0.11875948  1
  O  O55  1  0.85134944  0.84661694  0.88124052  1
  O  O56  1  0.35134944  0.84661694  0.61875948  1
  O  O57  1  0.64865056  0.15338306  0.38124052  1
