# generated using pymatgen
data_EuU2S5
_symmetry_space_group_name_H-M   'P 1'
_cell_length_a   7.42308465
_cell_length_b   7.99609748
_cell_length_c   12.03232758
_cell_angle_alpha   90.00000000
_cell_angle_beta   90.00000000
_cell_angle_gamma   90.00000000
_symmetry_Int_Tables_number   1
_chemical_formula_structural   EuU2S5
_chemical_formula_sum   'Eu4 U8 S20'
_cell_volume   714.18732798
_cell_formula_units_Z   4
loop_
 _symmetry_equiv_pos_site_id
 _symmetry_equiv_pos_as_xyz
  1  'x, y, z'
loop_
 _atom_site_type_symbol
 _atom_site_label
 _atom_site_symmetry_multiplicity
 _atom_site_fract_x
 _atom_site_fract_y
 _atom_site_fract_z
 _atom_site_occupancy
  Eu  Eu0  1  0.92408172  0.75000000  0.99279953  1
  Eu  Eu1  1  0.07591828  0.25000000  0.00720047  1
  Eu  Eu2  1  0.42408172  0.25000000  0.50720047  1
  Eu  Eu3  1  0.57591828  0.75000000  0.49279953  1
  U  U4  1  0.98707785  0.00176085  0.68194597  1
  U  U5  1  0.01292215  0.99823915  0.31805403  1
  U  U6  1  0.48707785  0.99823915  0.81805403  1
  U  U7  1  0.01292215  0.50176085  0.31805403  1
  U  U8  1  0.51292215  0.00176085  0.18194597  1
  U  U9  1  0.98707785  0.49823915  0.68194597  1
  U  U10  1  0.51292215  0.49823915  0.18194597  1
  U  U11  1  0.48707785  0.50176085  0.81805403  1
  S  S12  1  0.70463085  0.75000000  0.71728354  1
  S  S13  1  0.29536915  0.25000000  0.28271646  1
  S  S14  1  0.20463085  0.25000000  0.78271646  1
  S  S15  1  0.79536915  0.75000000  0.21728354  1
  S  S16  1  0.17604820  0.75000000  0.81113829  1
  S  S17  1  0.82395180  0.25000000  0.18886171  1
  S  S18  1  0.67604820  0.25000000  0.68886171  1
  S  S19  1  0.32395180  0.75000000  0.31113829  1
  S  S20  1  0.52775679  0.75000000  0.99890383  1
  S  S21  1  0.47224321  0.25000000  0.00109617  1
  S  S22  1  0.02775679  0.25000000  0.50109617  1
  S  S23  1  0.97224321  0.75000000  0.49890383  1
  S  S24  1  0.83018623  0.45579153  0.88771720  1
  S  S25  1  0.16981377  0.54420847  0.11228280  1
  S  S26  1  0.33018623  0.54420847  0.61228280  1
  S  S27  1  0.16981377  0.95579153  0.11228280  1
  S  S28  1  0.66981377  0.45579153  0.38771720  1
  S  S29  1  0.83018623  0.04420847  0.88771720  1
  S  S30  1  0.66981377  0.04420847  0.38771720  1
  S  S31  1  0.33018623  0.95579153  0.61228280  1
