# generated using pymatgen
data_AsSeS2(NF3)2
_symmetry_space_group_name_H-M   'P 1'
_cell_length_a   10.22507573
_cell_length_b   10.37493795
_cell_length_c   16.43551020
_cell_angle_alpha   90.00000000
_cell_angle_beta   90.00000000
_cell_angle_gamma   97.58609434
_symmetry_Int_Tables_number   1
_chemical_formula_structural   AsSeS2(NF3)2
_chemical_formula_sum   'As8 Se8 S16 N16 F48'
_cell_volume   1728.29305400
_cell_formula_units_Z   8
loop_
 _symmetry_equiv_pos_site_id
 _symmetry_equiv_pos_as_xyz
  1  'x, y, z'
loop_
 _atom_site_type_symbol
 _atom_site_label
 _atom_site_symmetry_multiplicity
 _atom_site_fract_x
 _atom_site_fract_y
 _atom_site_fract_z
 _atom_site_occupancy
  As  As0  1  0.25596521  0.86250957  0.15482029  1
  As  As1  1  0.74403479  0.13749043  0.84517971  1
  As  As2  1  0.24403479  0.63749043  0.65482029  1
  As  As3  1  0.75596521  0.36250957  0.34517971  1
  As  As4  1  0.76448482  0.69369788  0.05810725  1
  As  As5  1  0.23551518  0.30630212  0.94189275  1
  As  As6  1  0.73551518  0.80630212  0.55810725  1
  As  As7  1  0.26448482  0.19369788  0.44189275  1
  Se  Se8  1  0.62541569  0.40662419  0.61637870  1
  Se  Se9  1  0.37458431  0.59337581  0.38362130  1
  Se  Se10  1  0.87458431  0.09337581  0.11637870  1
  Se  Se11  1  0.12541569  0.90662419  0.88362130  1
  Se  Se12  1  0.64087507  0.96906499  0.29229216  1
  Se  Se13  1  0.35912493  0.03093501  0.70770784  1
  Se  Se14  1  0.85912493  0.53093501  0.79229216  1
  Se  Se15  1  0.14087507  0.46906499  0.20770784  1
  S  S16  1  0.14655804  0.53632909  0.38554055  1
  S  S17  1  0.85344196  0.46367091  0.61445945  1
  S  S18  1  0.35344196  0.96367091  0.88554055  1
  S  S19  1  0.64655804  0.03632909  0.11445945  1
  S  S20  1  0.80061177  0.75861810  0.30972355  1
  S  S21  1  0.19938823  0.24138190  0.69027645  1
  S  S22  1  0.69938823  0.74138190  0.80972355  1
  S  S23  1  0.30061177  0.25861810  0.19027645  1
  S  S24  1  0.12968975  0.97336073  0.70209696  1
  S  S25  1  0.87031025  0.02663927  0.29790304  1
  S  S26  1  0.37031025  0.52663927  0.20209696  1
  S  S27  1  0.62968975  0.47336073  0.79790304  1
  S  S28  1  0.21543393  0.80430272  0.39863351  1
  S  S29  1  0.78456607  0.19569728  0.60136649  1
  S  S30  1  0.28456607  0.69569728  0.89863351  1
  S  S31  1  0.71543393  0.30430272  0.10136649  1
  N  N32  1  0.35651728  0.76168987  0.39244412  1
  N  N33  1  0.64348272  0.23831013  0.60755588  1
  N  N34  1  0.14348272  0.73831013  0.89244412  1
  N  N35  1  0.85651728  0.26168987  0.10755588  1
  N  N36  1  0.84034165  0.69887208  0.80212001  1
  N  N37  1  0.15965835  0.30112792  0.19787999  1
  N  N38  1  0.65965835  0.80112792  0.30212001  1
  N  N39  1  0.34034165  0.19887208  0.69787999  1
  N  N40  1  0.90756442  0.88296579  0.30999906  1
  N  N41  1  0.09243558  0.11703421  0.69000094  1
  N  N42  1  0.59243558  0.61703421  0.80999906  1
  N  N43  1  0.40756442  0.38296579  0.19000094  1
  N  N44  1  0.10830755  0.68024994  0.39665138  1
  N  N45  1  0.89169245  0.31975006  0.60334862  1
  N  N46  1  0.39169245  0.81975006  0.89665138  1
  N  N47  1  0.60830755  0.18024994  0.10334862  1
  F  F48  1  0.71461646  0.66889957  0.62898454  1
  F  F49  1  0.28538354  0.33110043  0.37101546  1
  F  F50  1  0.78538354  0.83110043  0.12898454  1
  F  F51  1  0.21461646  0.16889957  0.87101546  1
  F  F52  1  0.37800305  0.28470928  0.50804603  1
  F  F53  1  0.62199695  0.71529072  0.49195397  1
  F  F54  1  0.12199695  0.21529072  0.00804603  1
  F  F55  1  0.87800305  0.78470928  0.99195397  1
  F  F56  1  0.75642124  0.93827117  0.48861416  1
  F  F57  1  0.24357876  0.06172883  0.51138584  1
  F  F58  1  0.74357876  0.56172883  0.98861416  1
  F  F59  1  0.25642124  0.43827117  0.01138584  1
  F  F60  1  0.27849872  0.96391761  0.24176386  1
  F  F61  1  0.72150128  0.03608239  0.75823614  1
  F  F62  1  0.22150128  0.53608239  0.74176386  1
  F  F63  1  0.77849872  0.46391761  0.25823614  1
  F  F64  1  0.09997545  0.91322124  0.13882489  1
  F  F65  1  0.90002455  0.08677876  0.86117511  1
  F  F66  1  0.40002455  0.58677876  0.63882489  1
  F  F67  1  0.59997545  0.41322124  0.36117511  1
  F  F68  1  0.23241903  0.75592295  0.07076163  1
  F  F69  1  0.76758097  0.24407705  0.92923837  1
  F  F70  1  0.26758097  0.74407705  0.57076163  1
  F  F71  1  0.73241903  0.25592295  0.42923837  1
  F  F72  1  0.18135066  0.73106984  0.21959728  1
  F  F73  1  0.81864934  0.26893016  0.78040272  1
  F  F74  1  0.31864934  0.76893016  0.71959728  1
  F  F75  1  0.68135066  0.23106984  0.28040272  1
  F  F76  1  0.86623329  0.73755469  0.51202745  1
  F  F77  1  0.13376671  0.26244531  0.48797255  1
  F  F78  1  0.63376671  0.76244531  0.01202745  1
  F  F79  1  0.36623329  0.23755469  0.98797255  1
  F  F80  1  0.65116767  0.60864676  0.12703413  1
  F  F81  1  0.34883233  0.39135324  0.87296587  1
  F  F82  1  0.84883233  0.89135324  0.62703413  1
  F  F83  1  0.15116767  0.10864676  0.37296587  1
  F  F84  1  0.33420907  0.98824803  0.09241406  1
  F  F85  1  0.66579093  0.01175197  0.90758594  1
  F  F86  1  0.16579093  0.51175197  0.59241406  1
  F  F87  1  0.83420907  0.48824803  0.40758594  1
  F  F88  1  0.89474171  0.62919209  0.10720465  1
  F  F89  1  0.10525829  0.37080791  0.89279535  1
  F  F90  1  0.60525829  0.87080791  0.60720465  1
  F  F91  1  0.39474171  0.12919209  0.39279535  1
  F  F92  1  0.41116575  0.80944551  0.17515454  1
  F  F93  1  0.58883425  0.19055449  0.82484546  1
  F  F94  1  0.08883425  0.69055449  0.67515454  1
  F  F95  1  0.91116575  0.30944551  0.32484546  1
