# generated using pymatgen
data_Cs2TbO3
_symmetry_space_group_name_H-M   'P 1'
_cell_length_a   6.48109886
_cell_length_b   7.01957816
_cell_length_c   7.01963113
_cell_angle_alpha   112.65711146
_cell_angle_beta   89.97630339
_cell_angle_gamma   89.98419088
_symmetry_Int_Tables_number   1
_chemical_formula_structural   Cs2TbO3
_chemical_formula_sum   'Cs4 Tb2 O6'
_cell_volume   294.70941969
_cell_formula_units_Z   2
loop_
 _symmetry_equiv_pos_site_id
 _symmetry_equiv_pos_as_xyz
  1  'x, y, z'
loop_
 _atom_site_type_symbol
 _atom_site_label
 _atom_site_symmetry_multiplicity
 _atom_site_fract_x
 _atom_site_fract_y
 _atom_site_fract_z
 _atom_site_occupancy
  Cs  Cs0  1  0.99495326  0.47943126  0.80671799  1
  Cs  Cs1  1  0.49413592  0.52146495  0.19408753  1
  Cs  Cs2  1  0.49416488  0.19414699  0.52145784  1
  Cs  Cs3  1  0.99492274  0.80678629  0.47944267  1
  Tb  Tb4  1  0.02418202  0.09171706  0.09180498  1
  Tb  Tb5  1  0.52305872  0.90772719  0.90784376  1
  O  O6  1  0.09387038  0.35976978  0.35977893  1
  O  O7  1  0.59260990  0.63998102  0.63999009  1
  O  O8  1  0.25946568  0.10001799  0.85935097  1
  O  O9  1  0.75959823  0.89998662  0.13960769  1
  O  O10  1  0.75963023  0.13962384  0.89995414  1
  O  O11  1  0.25940805  0.85934701  0.09996341  1
