# generated using pymatgen
data_YbTaTiO6
_symmetry_space_group_name_H-M   'P 1'
_cell_length_a   5.20572243
_cell_length_b   5.63173981
_cell_length_c   14.96439402
_cell_angle_alpha   90.00000000
_cell_angle_beta   90.00000000
_cell_angle_gamma   90.18651228
_symmetry_Int_Tables_number   1
_chemical_formula_structural   YbTaTiO6
_chemical_formula_sum   'Yb4 Ta4 Ti4 O24'
_cell_volume   438.71291938
_cell_formula_units_Z   4
loop_
 _symmetry_equiv_pos_site_id
 _symmetry_equiv_pos_as_xyz
  1  'x, y, z'
loop_
 _atom_site_type_symbol
 _atom_site_label
 _atom_site_symmetry_multiplicity
 _atom_site_fract_x
 _atom_site_fract_y
 _atom_site_fract_z
 _atom_site_occupancy
  Yb  Yb0  1  0.25097232  0.23403715  0.99927027  1
  Yb  Yb1  1  0.74902768  0.26596285  0.49927027  1
  Yb  Yb2  1  0.74902768  0.76596285  0.00072973  1
  Yb  Yb3  1  0.25097232  0.73403715  0.50072973  1
  Ta  Ta4  1  0.18497611  0.17513743  0.66692161  1
  Ta  Ta5  1  0.81502389  0.32486257  0.16692161  1
  Ta  Ta6  1  0.81502389  0.82486257  0.33307839  1
  Ta  Ta7  1  0.18497611  0.67513743  0.83307839  1
  Ti  Ti8  1  0.68105365  0.31992004  0.83638105  1
  Ti  Ti9  1  0.31894635  0.18007996  0.33638105  1
  Ti  Ti10  1  0.31894635  0.68007996  0.16361895  1
  Ti  Ti11  1  0.68105365  0.81992004  0.66361895  1
  O  O12  1  0.03410965  0.56508253  0.09651038  1
  O  O13  1  0.52864843  0.93960913  0.40515195  1
  O  O14  1  0.96589035  0.93491747  0.59651038  1
  O  O15  1  0.47135157  0.56039087  0.90515195  1
  O  O16  1  0.96589035  0.43491747  0.90348962  1
  O  O17  1  0.47135157  0.06039087  0.59484805  1
  O  O18  1  0.03410965  0.06508253  0.40348962  1
  O  O19  1  0.52864843  0.43960913  0.09484805  1
  O  O20  1  0.58868450  0.08703763  0.91064407  1
  O  O21  1  0.09050239  0.41308851  0.58752341  1
  O  O22  1  0.41131550  0.41296237  0.41064407  1
  O  O23  1  0.90949761  0.08691149  0.08752341  1
  O  O24  1  0.41131550  0.91296237  0.08935593  1
  O  O25  1  0.90949761  0.58691149  0.41247659  1
  O  O26  1  0.58868450  0.58703763  0.58935593  1
  O  O27  1  0.09050239  0.91308851  0.91247659  1
  O  O28  1  0.85602148  0.14479929  0.74182478  1
  O  O29  1  0.35134019  0.36225988  0.76082294  1
  O  O30  1  0.14397852  0.35520071  0.24182478  1
  O  O31  1  0.64865981  0.13774012  0.26082294  1
  O  O32  1  0.14397852  0.85520071  0.25817522  1
  O  O33  1  0.64865981  0.63774012  0.23917706  1
  O  O34  1  0.85602148  0.64479929  0.75817522  1
  O  O35  1  0.35134019  0.86225988  0.73917706  1
