# generated using pymatgen
data_H12IrC3S3(N2Cl)3
_symmetry_space_group_name_H-M   'P 1'
_cell_length_a   8.11313652
_cell_length_b   8.11313652
_cell_length_c   26.03122505
_cell_angle_alpha   89.23274163
_cell_angle_beta   89.23274163
_cell_angle_gamma   64.13142126
_symmetry_Int_Tables_number   1
_chemical_formula_structural   H12IrC3S3(N2Cl)3
_chemical_formula_sum   'H48 Ir4 C12 S12 N24 Cl12'
_cell_volume   1541.56762494
_cell_formula_units_Z   4
loop_
 _symmetry_equiv_pos_site_id
 _symmetry_equiv_pos_as_xyz
  1  'x, y, z'
loop_
 _atom_site_type_symbol
 _atom_site_label
 _atom_site_symmetry_multiplicity
 _atom_site_fract_x
 _atom_site_fract_y
 _atom_site_fract_z
 _atom_site_occupancy
  H  H0  1  0.41187698  0.39700127  0.06723365  1
  H  H1  1  0.39700127  0.41187698  0.56723365  1
  H  H2  1  0.90495952  0.82153165  0.73799217  1
  H  H3  1  0.82153165  0.90495952  0.23799217  1
  H  H4  1  0.32460504  0.23861248  0.57592198  1
  H  H5  1  0.23861248  0.32460504  0.07592198  1
  H  H6  1  0.31361074  0.12999924  0.66083323  1
  H  H7  1  0.12999924  0.31361074  0.16083323  1
  H  H8  1  0.54521848  0.73378138  0.58166762  1
  H  H9  1  0.73378138  0.54521848  0.08166762  1
  H  H10  1  0.73526496  0.83817218  0.83731367  1
  H  H11  1  0.83817218  0.73526496  0.33731367  1
  H  H12  1  0.67630933  0.77252562  0.92350190  1
  H  H13  1  0.77252562  0.67630933  0.42350190  1
  H  H14  1  0.73138501  0.68954970  0.78880703  1
  H  H15  1  0.68954970  0.73138501  0.28880703  1
  H  H16  1  0.90078071  0.10069109  0.63140132  1
  H  H17  1  0.10069109  0.90078071  0.13140132  1
  H  H18  1  0.18313861  0.13461377  0.26577811  1
  H  H19  1  0.13461377  0.18313861  0.76577811  1
  H  H20  1  0.73665292  0.30211410  0.65940561  1
  H  H21  1  0.30211410  0.73665292  0.15940561  1
  H  H22  1  0.10248714  0.90920893  0.86919049  1
  H  H23  1  0.90920893  0.10248714  0.36919049  1
  H  H24  1  0.68523608  0.97723012  0.49022016  1
  H  H25  1  0.97723012  0.68523608  0.99022016  1
  H  H26  1  0.34347010  0.25095967  0.38399571  1
  H  H27  1  0.25095967  0.34347010  0.88399571  1
  H  H28  1  0.32998500  0.26078862  0.71215506  1
  H  H29  1  0.26078862  0.32998500  0.21215506  1
  H  H30  1  0.18515531  0.02831389  0.32415854  1
  H  H31  1  0.02831389  0.18515531  0.82415854  1
  H  H32  1  0.51017789  0.91295228  0.50674851  1
  H  H33  1  0.91295228  0.51017789  0.00674851  1
  H  H34  1  0.45367761  0.27079161  0.91853810  1
  H  H35  1  0.27079161  0.45367761  0.41853810  1
  H  H36  1  0.99653550  0.82161606  0.67751990  1
  H  H37  1  0.82161606  0.99653550  0.17751990  1
  H  H38  1  0.74595282  0.66065988  0.61727044  1
  H  H39  1  0.66065988  0.74595282  0.11727044  1
  H  H40  1  0.70191212  0.25090659  0.34018098  1
  H  H41  1  0.25090659  0.70191212  0.84018098  1
  H  H42  1  0.02832564  0.31946133  0.51170217  1
  H  H43  1  0.31946133  0.02832564  0.01170217  1
  H  H44  1  0.49289168  0.09325304  0.99372712  1
  H  H45  1  0.09325304  0.49289168  0.49372712  1
  H  H46  1  0.57042181  0.62660612  0.93295465  1
  H  H47  1  0.62660612  0.57042181  0.43295465  1
  Ir  Ir48  1  0.50361308  0.49837080  0.75101629  1
  Ir  Ir49  1  0.49837080  0.50361308  0.25101629  1
  Ir  Ir50  1  0.07148256  0.93194668  0.50153100  1
  Ir  Ir51  1  0.93194668  0.07148256  0.00153100  1
  C  C52  1  0.73913834  0.81149886  0.55274582  1
  C  C53  1  0.81149886  0.73913834  0.05274582  1
  C  C54  1  0.80251678  0.07296412  0.70288608  1
  C  C55  1  0.07296412  0.80251678  0.20288608  1
  C  C56  1  0.20927655  0.92947442  0.79832841  1
  C  C57  1  0.92947442  0.20927655  0.29832841  1
  C  C58  1  0.36718903  0.34948471  0.64190803  1
  C  C59  1  0.34948471  0.36718903  0.14190803  1
  C  C60  1  0.64568810  0.64583350  0.85890139  1
  C  C61  1  0.64583350  0.64568810  0.35890139  1
  C  C62  1  0.26061541  0.19508182  0.94922724  1
  C  C63  1  0.19508182  0.26061541  0.44922724  1
  S  S64  1  0.95964074  0.78551118  0.56295696  1
  S  S65  1  0.78551118  0.95964074  0.06295696  1
  S  S66  1  0.35075772  0.82471312  0.74703780  1
  S  S67  1  0.82471312  0.35075772  0.24703780  1
  S  S68  1  0.66427094  0.17266320  0.75529932  1
  S  S69  1  0.17266320  0.66427094  0.25529932  1
  S  S70  1  0.21973802  0.04017801  0.43978037  1
  S  S71  1  0.04017801  0.21973802  0.93978037  1
  S  S72  1  0.59331449  0.47154391  0.83926978  1
  S  S73  1  0.47154391  0.59331449  0.33926978  1
  S  S74  1  0.53068636  0.40479849  0.16377392  1
  S  S75  1  0.40479849  0.53068636  0.66377392  1
  N  N76  1  0.18426945  0.84118204  0.83894655  1
  N  N77  1  0.84118204  0.18426945  0.33894655  1
  N  N78  1  0.71404714  0.72921101  0.82655426  1
  N  N79  1  0.72921101  0.71404714  0.32655426  1
  N  N80  1  0.32595571  0.27759190  0.91515282  1
  N  N81  1  0.27759190  0.32595571  0.41515282  1
  N  N82  1  0.62087623  0.69241796  0.90842227  1
  N  N83  1  0.69241796  0.62087623  0.40842227  1
  N  N84  1  0.81168733  0.16367913  0.66085571  1
  N  N85  1  0.16367913  0.81168733  0.16085571  1
  N  N86  1  0.90415042  0.89106566  0.70540075  1
  N  N87  1  0.89106566  0.90415042  0.20540075  1
  N  N88  1  0.67122690  0.72997219  0.58642304  1
  N  N89  1  0.72997219  0.67122690  0.08642304  1
  N  N90  1  0.36404096  0.10394144  0.98881418  1
  N  N91  1  0.10394144  0.36404096  0.48881418  1
  N  N92  1  0.37288901  0.32422117  0.59129434  1
  N  N93  1  0.32422117  0.37288901  0.09129434  1
  N  N94  1  0.63792284  0.90343968  0.51294346  1
  N  N95  1  0.90343968  0.63792284  0.01294346  1
  N  N96  1  0.32952377  0.23982868  0.67361646  1
  N  N97  1  0.23982868  0.32952377  0.17361646  1
  N  N98  1  0.11288162  0.12046154  0.29660601  1
  N  N99  1  0.12046154  0.11288162  0.79660601  1
  Cl  Cl100  1  0.17585507  0.03719952  0.57413298  1
  Cl  Cl101  1  0.03719952  0.17585507  0.07413298  1
  Cl  Cl102  1  0.35130479  0.65263192  0.50268046  1
  Cl  Cl103  1  0.65263192  0.35130479  0.00268046  1
  Cl  Cl104  1  0.82234735  0.97156000  0.92894911  1
  Cl  Cl105  1  0.97156000  0.82234735  0.42894911  1
  Cl  Cl106  1  0.76747846  0.53173537  0.72004338  1
  Cl  Cl107  1  0.53173537  0.76747846  0.22004338  1
  Cl  Cl108  1  0.20883487  0.79633223  0.00054605  1
  Cl  Cl109  1  0.79633223  0.20883487  0.50054605  1
  Cl  Cl110  1  0.46453690  0.23851716  0.28080760  1
  Cl  Cl111  1  0.23851716  0.46453690  0.78080760  1
