# generated using pymatgen
data_Zr5V5Si6
_symmetry_space_group_name_H-M   'P 1'
_cell_length_a   5.13044192
_cell_length_b   7.72536769
_cell_length_c   7.56236548
_cell_angle_alpha   120.71560796
_cell_angle_beta   89.92818795
_cell_angle_gamma   90.14059370
_symmetry_Int_Tables_number   1
_chemical_formula_structural   Zr5V5Si6
_chemical_formula_sum   'Zr5 V5 Si6'
_cell_volume   257.68187124
_cell_formula_units_Z   1
loop_
 _symmetry_equiv_pos_site_id
 _symmetry_equiv_pos_as_xyz
  1  'x, y, z'
loop_
 _atom_site_type_symbol
 _atom_site_label
 _atom_site_symmetry_multiplicity
 _atom_site_fract_x
 _atom_site_fract_y
 _atom_site_fract_z
 _atom_site_occupancy
  Zr  Zr0  1  0.75062481  0.75371706  0.75506500  1
  Zr  Zr1  1  0.75062481  0.99865206  0.24493500  1
  Zr  Zr2  1  0.25021322  0.74153075  0.00000000  1
  Zr  Zr3  1  0.24959984  0.24135897  0.23950491  1
  Zr  Zr4  1  0.24959984  0.00185406  0.76049509  1
  V  V5  1  0.50044042  0.33291043  0.66502149  1
  V  V6  1  0.50044042  0.66788894  0.33497851  1
  V  V7  1  0.99930450  0.66763419  0.33505359  1
  V  V8  1  0.99930450  0.33258059  0.66494641  1
  V  V9  1  0.75025703  0.26705540  1.00000000  1
  Si  Si10  1  0.75014506  0.58805531  0.00000000  1
  Si  Si11  1  0.75040850  0.39893646  0.38986328  1
  Si  Si12  1  0.75040850  0.00907318  0.61013672  1
  Si  Si13  1  0.24975294  0.40083816  1.00000000  1
  Si  Si14  1  0.24943781  0.59662082  0.59532719  1
  Si  Si15  1  0.24943781  0.00129362  0.40467281  1
