# generated using pymatgen
data_B3H5N3
_symmetry_space_group_name_H-M   'P 1'
_cell_length_a   6.20133066
_cell_length_b   9.66895424
_cell_length_c   11.64398181
_cell_angle_alpha   111.43549077
_cell_angle_beta   100.87923100
_cell_angle_gamma   100.76495918
_symmetry_Int_Tables_number   1
_chemical_formula_structural   B3H5N3
_chemical_formula_sum   'B12 H20 N12'
_cell_volume   612.71505656
_cell_formula_units_Z   4
loop_
 _symmetry_equiv_pos_site_id
 _symmetry_equiv_pos_as_xyz
  1  'x, y, z'
loop_
 _atom_site_type_symbol
 _atom_site_label
 _atom_site_symmetry_multiplicity
 _atom_site_fract_x
 _atom_site_fract_y
 _atom_site_fract_z
 _atom_site_occupancy
  B  B0  1  0.83396938  0.97190737  0.79336587  1
  B  B1  1  0.16603062  0.02809263  0.20663413  1
  B  B2  1  0.45939649  0.82145850  0.79336587  1
  B  B3  1  0.54060351  0.17854150  0.20663413  1
  B  B4  1  0.62197824  0.75612042  0.36814167  1
  B  B5  1  0.37802176  0.24387958  0.63185833  1
  B  B6  1  0.24616344  0.61202125  0.36814167  1
  B  B7  1  0.75383656  0.38797875  0.63185833  1
  B  B8  1  0.54104884  0.79104884  0.58209768  1
  B  B9  1  0.45895116  0.20895116  0.41790232  1
  B  B10  1  0.32889135  0.57889135  0.15778270  1
  B  B11  1  0.67110865  0.42110865  0.84221730  1
  H  H12  1  0.87251822  0.92499621  0.60830076  1
  H  H13  1  0.12748178  0.07500379  0.39169924  1
  H  H14  1  0.23578254  0.68330455  0.60830076  1
  H  H15  1  0.76421746  0.31669545  0.39169924  1
  H  H16  1  0.72898302  0.97898302  0.95796604  1
  H  H17  1  0.27101698  0.02101698  0.04203396  1
  H  H18  1  0.66292145  0.70913876  0.18351466  1
  H  H19  1  0.33707855  0.29086124  0.81648534  1
  H  H20  1  0.02059322  0.47437590  0.18351466  1
  H  H21  1  0.97940678  0.52562410  0.81648534  1
  H  H22  1  0.27102929  0.52102929  0.04205857  1
  H  H23  1  0.72897071  0.47897071  0.95794143  1
  H  H24  1  0.01695176  0.06668611  0.85008662  1
  H  H25  1  0.98304824  0.93331389  0.14991338  1
  H  H26  1  0.33313486  0.78340051  0.85008662  1
  H  H27  1  0.66686514  0.21659949  0.14991338  1
  H  H28  1  0.80816744  0.84805966  0.42061471  1
  H  H29  1  0.19183256  0.15194034  0.57938529  1
  H  H30  1  0.11244728  0.57255506  0.42061471  1
  H  H31  1  0.88755272  0.42744494  0.57938529  1
  N  N32  1  0.47000270  0.72000270  0.44000540  1
  N  N33  1  0.52999730  0.27999730  0.55999460  1
  N  N34  1  0.55147681  0.68229905  0.23097726  1
  N  N35  1  0.44852319  0.31770095  0.76902274  1
  N  N36  1  0.17950046  0.54867821  0.23097726  1
  N  N37  1  0.82049954  0.45132179  0.76902274  1
  N  N38  1  0.76274040  0.89783688  0.65627071  1
  N  N39  1  0.23725960  0.10216312  0.34372929  1
  N  N40  1  0.39353031  0.75843383  0.65627071  1
  N  N41  1  0.60646969  0.24156617  0.34372929  1
  N  N42  1  0.68030251  0.93030251  0.86060501  1
  N  N43  1  0.31969749  0.06969749  0.13939499  1
