# generated using pymatgen
data_CaCrO2
_symmetry_space_group_name_H-M   'P 1'
_cell_length_a   6.21051526
_cell_length_b   6.21051526
_cell_length_c   7.00390361
_cell_angle_alpha   116.31852289
_cell_angle_beta   116.31852289
_cell_angle_gamma   90.00000000
_symmetry_Int_Tables_number   1
_chemical_formula_structural   CaCrO2
_chemical_formula_sum   'Ca4 Cr4 O8'
_cell_volume   210.44587781
_cell_formula_units_Z   4
loop_
 _symmetry_equiv_pos_site_id
 _symmetry_equiv_pos_as_xyz
  1  'x, y, z'
loop_
 _atom_site_type_symbol
 _atom_site_label
 _atom_site_symmetry_multiplicity
 _atom_site_fract_x
 _atom_site_fract_y
 _atom_site_fract_z
 _atom_site_occupancy
  Ca  Ca0  1  0.62500000  0.87500000  0.25000000  1
  Ca  Ca1  1  0.62500000  0.37500000  0.25000000  1
  Ca  Ca2  1  0.62500000  0.37500000  0.75000000  1
  Ca  Ca3  1  0.12500000  0.37500000  0.75000000  1
  Cr  Cr4  1  0.12500000  0.37500000  0.25000000  1
  Cr  Cr5  1  0.12500000  0.87500000  0.25000000  1
  Cr  Cr6  1  0.12500000  0.87500000  0.75000000  1
  Cr  Cr7  1  0.62500000  0.87500000  0.75000000  1
  O  O8  1  0.37512855  0.15278459  0.30556516  1
  O  O9  1  0.93043661  0.15278058  0.30556516  1
  O  O10  1  0.40278058  0.12512855  0.80556516  1
  O  O11  1  0.87487145  0.59721541  0.19443484  1
  O  O12  1  0.40278459  0.68043661  0.80556516  1
  O  O13  1  0.31956339  0.59721942  0.19443484  1
  O  O14  1  0.84721942  0.62487145  0.69443484  1
  O  O15  1  0.84721541  0.06956339  0.69443484  1
