# generated using pymatgen
data_YSiBRh3
_symmetry_space_group_name_H-M   'P 1'
_cell_length_a   3.42976831
_cell_length_b   5.49928439
_cell_length_c   5.49928882
_cell_angle_alpha   60.00211122
_cell_angle_beta   90.00000000
_cell_angle_gamma   90.00000000
_symmetry_Int_Tables_number   1
_chemical_formula_structural   YSiBRh3
_chemical_formula_sum   'Y1 Si1 B1 Rh3'
_cell_volume   89.82916497
_cell_formula_units_Z   1
loop_
 _symmetry_equiv_pos_site_id
 _symmetry_equiv_pos_as_xyz
  1  'x, y, z'
loop_
 _atom_site_type_symbol
 _atom_site_label
 _atom_site_symmetry_multiplicity
 _atom_site_fract_x
 _atom_site_fract_y
 _atom_site_fract_z
 _atom_site_occupancy
  Y  Y0  1  -0.00000000  0.99999158  0.00000632  1
  Si  Si1  1  -0.00000000  0.66663332  0.66669091  1
  B  B2  1  -0.00000000  0.33330142  0.33339939  1
  Rh  Rh3  1  0.50000000  0.49351785  0.49351582  1
  Rh  Rh4  1  0.50000000  0.49351849  0.01295420  1
  Rh  Rh5  1  0.50000000  0.01293735  0.49353335  1
