# generated using pymatgen
data_U(Fe5Si)2
_symmetry_space_group_name_H-M   'P 1'
_cell_length_a   4.75987333
_cell_length_b   6.27456629
_cell_length_c   6.28407372
_cell_angle_alpha   98.25911166
_cell_angle_beta   112.25473209
_cell_angle_gamma   67.70973746
_symmetry_Int_Tables_number   1
_chemical_formula_structural   U(Fe5Si)2
_chemical_formula_sum   'U1 Fe10 Si2'
_cell_volume   160.72061352
_cell_formula_units_Z   1
loop_
 _symmetry_equiv_pos_site_id
 _symmetry_equiv_pos_as_xyz
  1  'x, y, z'
loop_
 _atom_site_type_symbol
 _atom_site_label
 _atom_site_symmetry_multiplicity
 _atom_site_fract_x
 _atom_site_fract_y
 _atom_site_fract_z
 _atom_site_occupancy
  U  U0  1  -0.00000000  -0.00000000  -0.00000000  1
  Fe  Fe1  1  0.64436828  0.35302181  0.64175837  1
  Fe  Fe2  1  0.35563172  0.64697819  0.35824163  1
  Fe  Fe3  1  0.00260991  0.35302181  0.35824163  1
  Fe  Fe4  1  0.99739009  0.64697819  0.64175837  1
  Fe  Fe5  1  0.50000000  0.50000000  -0.00000000  1
  Fe  Fe6  1  -0.00000000  0.50000000  -0.00000000  1
  Fe  Fe7  1  0.71959377  0.78304114  0.22222869  1
  Fe  Fe8  1  0.28040623  0.21695886  0.77777131  1
  Fe  Fe9  1  0.49736508  0.78304114  0.77777131  1
  Fe  Fe10  1  0.50263492  0.21695886  0.22222869  1
  Si  Si11  1  0.50000000  -0.00000000  0.50000000  1
  Si  Si12  1  -0.00000000  -0.00000000  0.50000000  1
