# generated using pymatgen
data_TiMnSi4
_symmetry_space_group_name_H-M   'P 1'
_cell_length_a   4.53611413
_cell_length_b   4.57098130
_cell_length_c   12.80388918
_cell_angle_alpha   90.00000000
_cell_angle_beta   90.00000000
_cell_angle_gamma   60.55069335
_symmetry_Int_Tables_number   1
_chemical_formula_structural   TiMnSi4
_chemical_formula_sum   'Ti3 Mn3 Si12'
_cell_volume   231.17947536
_cell_formula_units_Z   3
loop_
 _symmetry_equiv_pos_site_id
 _symmetry_equiv_pos_as_xyz
  1  'x, y, z'
loop_
 _atom_site_type_symbol
 _atom_site_label
 _atom_site_symmetry_multiplicity
 _atom_site_fract_x
 _atom_site_fract_y
 _atom_site_fract_z
 _atom_site_occupancy
  Ti  Ti0  1  0.00000000  0.50000000  0.75090219  1
  Ti  Ti1  1  0.50000000  0.50000000  0.41436572  1
  Ti  Ti2  1  0.50000000  0.50000000  0.91871688  1
  Mn  Mn3  1  0.50000000  -0.00000000  0.08826622  1
  Mn  Mn4  1  0.50000000  -0.00000000  0.58199822  1
  Mn  Mn5  1  0.00000000  0.50000000  0.24502040  1
  Si  Si6  1  0.15826934  0.66780949  0.08591926  1
  Si  Si7  1  0.16700788  0.67329426  0.58270958  1
  Si  Si8  1  0.66957182  0.16072625  0.24775759  1
  Si  Si9  1  0.67751729  0.15838256  0.74745457  1
  Si  Si10  1  0.16284927  0.16791230  0.41577634  1
  Si  Si11  1  0.16620166  0.15522794  0.92074783  1
  Si  Si12  1  0.84173066  0.33219051  0.08591926  1
  Si  Si13  1  0.83299212  0.32670574  0.58270958  1
  Si  Si14  1  0.33042818  0.83927375  0.24775759  1
  Si  Si15  1  0.32248271  0.84161744  0.74745457  1
  Si  Si16  1  0.83715073  0.83208770  0.41577634  1
  Si  Si17  1  0.83379834  0.84477206  0.92074783  1
