# generated using pymatgen
data_V4(CrS2)5
_symmetry_space_group_name_H-M   'P 1'
_cell_length_a   5.87253605
_cell_length_b   6.67529131
_cell_length_c   8.19451832
_cell_angle_alpha   73.77540892
_cell_angle_beta   69.05623212
_cell_angle_gamma   89.93393820
_symmetry_Int_Tables_number   1
_chemical_formula_structural   V4(CrS2)5
_chemical_formula_sum   'V4 Cr5 S10'
_cell_volume   286.31002930
_cell_formula_units_Z   1
loop_
 _symmetry_equiv_pos_site_id
 _symmetry_equiv_pos_as_xyz
  1  'x, y, z'
loop_
 _atom_site_type_symbol
 _atom_site_label
 _atom_site_symmetry_multiplicity
 _atom_site_fract_x
 _atom_site_fract_y
 _atom_site_fract_z
 _atom_site_occupancy
  V  V0  1  0.78589677  0.59622467  0.40473171  1
  V  V1  1  0.60399330  0.22174408  0.78187380  1
  V  V2  1  0.39600670  0.77825592  0.21812620  1
  V  V3  1  0.21410323  0.40377533  0.59526829  1
  Cr  Cr4  1  0.90145170  0.28556216  0.18920459  1
  Cr  Cr5  1  0.71483338  0.90160116  0.60078114  1
  Cr  Cr6  1  0.50000000  0.50000000  0.00000000  1
  Cr  Cr7  1  0.28516662  0.09839884  0.39921886  1
  Cr  Cr8  1  0.09854830  0.71443784  0.81079541  1
  S  S9  1  0.39062350  0.85549769  0.90235539  1
  S  S10  1  0.58835311  0.24518060  0.48635271  1
  S  S11  1  0.98803733  0.05665144  0.70164255  1
  S  S12  1  0.17110196  0.44087070  0.30138699  1
  S  S13  1  0.78370338  0.63821232  0.10345515  1
  S  S14  1  0.21629662  0.36178768  0.89654485  1
  S  S15  1  0.41164689  0.75481940  0.51364729  1
  S  S16  1  0.82889804  0.55912930  0.69861301  1
  S  S17  1  0.01196267  0.94334856  0.29835745  1
  S  S18  1  0.60937650  0.14450231  0.09764461  1
