# generated using pymatgen
data_Ti3Nb
_symmetry_space_group_name_H-M   'P 1'
_cell_length_a   2.89984191
_cell_length_b   2.89984191
_cell_length_c   9.06913038
_cell_angle_alpha   90.00000000
_cell_angle_beta   90.00000000
_cell_angle_gamma   112.04048080
_symmetry_Int_Tables_number   1
_chemical_formula_structural   Ti3Nb
_chemical_formula_sum   'Ti3 Nb1'
_cell_volume   70.68968631
_cell_formula_units_Z   1
loop_
 _symmetry_equiv_pos_site_id
 _symmetry_equiv_pos_as_xyz
  1  'x, y, z'
loop_
 _atom_site_type_symbol
 _atom_site_label
 _atom_site_symmetry_multiplicity
 _atom_site_fract_x
 _atom_site_fract_y
 _atom_site_fract_z
 _atom_site_occupancy
  Ti  Ti0  1  0.80844429  0.19155571  0.87500000  1
  Ti  Ti1  1  0.20004448  0.79995552  0.12302166  1
  Ti  Ti2  1  0.20004448  0.79995552  0.62697834  1
  Nb  Nb3  1  0.79146675  0.20853325  0.37500000  1
