# generated using pymatgen
data_Ti4FeBi3O14
_symmetry_space_group_name_H-M   'P 1'
_cell_length_a   7.28821213
_cell_length_b   7.22790149
_cell_length_c   7.28821213
_cell_angle_alpha   90.00000000
_cell_angle_beta   60.00000000
_cell_angle_gamma   120.27640803
_symmetry_Int_Tables_number   1
_chemical_formula_structural   Ti4FeBi3O14
_chemical_formula_sum   'Ti4 Fe1 Bi3 O14'
_cell_volume   270.34111691
_cell_formula_units_Z   1
loop_
 _symmetry_equiv_pos_site_id
 _symmetry_equiv_pos_as_xyz
  1  'x, y, z'
loop_
 _atom_site_type_symbol
 _atom_site_label
 _atom_site_symmetry_multiplicity
 _atom_site_fract_x
 _atom_site_fract_y
 _atom_site_fract_z
 _atom_site_occupancy
  Ti  Ti0  1  0.50000000  0.00000000  0.50000000  1
  Ti  Ti1  1  0.50000000  0.50000000  0.50000000  1
  Ti  Ti2  1  0.00000000  0.50000000  -0.00000000  1
  Ti  Ti3  1  0.00000000  0.50000000  0.50000000  1
  Fe  Fe4  1  0.50000000  0.50000000  -0.00000000  1
  Bi  Bi5  1  0.50000000  0.00000000  -0.00000000  1
  Bi  Bi6  1  0.00000000  0.00000000  0.50000000  1
  Bi  Bi7  1  0.00000000  0.00000000  -0.00000000  1
  O  O8  1  0.28394520  0.17591781  0.10802740  1
  O  O9  1  0.71605480  0.82408219  0.89197260  1
  O  O10  1  0.25133814  0.82959159  0.42174655  1
  O  O11  1  0.25172941  0.42681856  0.82491085  1
  O  O12  1  0.85017829  0.42681856  0.82491085  1
  O  O13  1  0.65650690  0.82959159  0.42174655  1
  O  O14  1  0.25172941  0.42681856  0.42335974  1
  O  O15  1  0.25133814  0.82959159  0.82691531  1
  O  O16  1  0.74866186  0.17040841  0.57825345  1
  O  O17  1  0.74827059  0.57318144  0.17508915  1
  O  O18  1  0.14982171  0.57318144  0.17508915  1
  O  O19  1  0.34349310  0.17040841  0.57825345  1
  O  O20  1  0.74827059  0.57318144  0.57664026  1
  O  O21  1  0.74866186  0.17040841  0.17308469  1
