# generated using pymatgen
data_TbMnFe
_symmetry_space_group_name_H-M   'P 1'
_cell_length_a   5.14352687
_cell_length_b   5.14352687
_cell_length_c   5.14352687
_cell_angle_alpha   89.87208418
_cell_angle_beta   59.28218322
_cell_angle_gamma   119.14078098
_symmetry_Int_Tables_number   1
_chemical_formula_structural   TbMnFe
_chemical_formula_sum   'Tb2 Mn2 Fe2'
_cell_volume   96.30041847
_cell_formula_units_Z   2
loop_
 _symmetry_equiv_pos_site_id
 _symmetry_equiv_pos_as_xyz
  1  'x, y, z'
loop_
 _atom_site_type_symbol
 _atom_site_label
 _atom_site_symmetry_multiplicity
 _atom_site_fract_x
 _atom_site_fract_y
 _atom_site_fract_z
 _atom_site_occupancy
  Tb  Tb0  1  0.50000000  0.74847785  0.75152215  1
  Tb  Tb1  1  -0.00000000  0.00152215  0.99847785  1
  Mn  Mn2  1  0.25000000  0.87500000  0.37500000  1
  Mn  Mn3  1  0.75000000  0.37500000  0.37500000  1
  Fe  Fe4  1  0.75000000  0.37500000  0.87500000  1
  Fe  Fe5  1  0.25000000  0.37500000  0.37500000  1
