# generated using pymatgen
data_YGePd
_symmetry_space_group_name_H-M   'P 1'
_cell_length_a   4.38046472
_cell_length_b   5.68664000
_cell_length_c   5.69159232
_cell_angle_alpha   93.65707639
_cell_angle_beta   112.63249308
_cell_angle_gamma   67.34670200
_symmetry_Int_Tables_number   1
_chemical_formula_structural   YGePd
_chemical_formula_sum   'Y2 Ge2 Pd2'
_cell_volume   120.16995748
_cell_formula_units_Z   2
loop_
 _symmetry_equiv_pos_site_id
 _symmetry_equiv_pos_as_xyz
  1  'x, y, z'
loop_
 _atom_site_type_symbol
 _atom_site_label
 _atom_site_symmetry_multiplicity
 _atom_site_fract_x
 _atom_site_fract_y
 _atom_site_fract_z
 _atom_site_occupancy
  Y  Y0  1  0.75945435  0.69553196  0.21444066  1
  Y  Y1  1  0.24054565  0.30446804  0.78555934  1
  Ge  Ge2  1  0.05538095  0.10401604  0.21477793  1
  Ge  Ge3  1  0.94461905  0.89598396  0.78522207  1
  Pd  Pd4  1  0.54996077  0.27260135  0.37252288  1
  Pd  Pd5  1  0.45003923  0.72739865  0.62747712  1
