# generated using pymatgen
data_Te15Mo2(Br6O)2
_symmetry_space_group_name_H-M   'P 1'
_cell_length_a   8.18250000
_cell_length_b   15.36593063
_cell_length_c   8.67467141
_cell_angle_alpha   85.17385719
_cell_angle_beta   103.72322842
_cell_angle_gamma   82.31041359
_symmetry_Int_Tables_number   1
_chemical_formula_structural   Te15Mo2(Br6O)2
_chemical_formula_sum   'Te15 Mo2 Br12 O2'
_cell_volume   1042.38414278
_cell_formula_units_Z   1
loop_
 _symmetry_equiv_pos_site_id
 _symmetry_equiv_pos_as_xyz
  1  'x, y, z'
loop_
 _atom_site_type_symbol
 _atom_site_label
 _atom_site_symmetry_multiplicity
 _atom_site_fract_x
 _atom_site_fract_y
 _atom_site_fract_z
 _atom_site_occupancy
  Te  Te0  1  0.69459396  0.84399819  0.62756709  1
  Te  Te1  1  0.19673386  0.84413818  0.62827698  1
  Te  Te2  1  0.30807647  0.14854021  0.38633916  1
  Te  Te3  1  0.80948893  0.14966156  0.38375279  1
  Te  Te4  1  0.94401306  0.95599075  0.73207581  1
  Te  Te5  1  0.44134590  0.96104889  0.72402718  1
  Te  Te6  1  0.05664714  0.03973145  0.26973894  1
  Te  Te7  1  0.55813329  0.03981706  0.27063104  1
  Te  Te8  1  0.79393959  0.70000342  0.87673268  1
  Te  Te9  1  0.29431001  0.70003945  0.87723860  1
  Te  Te10  1  0.20372672  0.30714880  0.12151140  1
  Te  Te11  1  0.70311837  0.30794657  0.11985243  1
  Te  Te12  1  0.07476278  0.75483617  0.05326899  1
  Te  Te13  1  0.42533595  0.23843853  0.94082830  1
  Te  Te14  1  0.92549854  0.23651342  0.94041962  1
  Mo  Mo15  1  0.54395808  0.50042000  0.50037961  1
  Mo  Mo16  1  0.04510634  0.50051014  0.49959627  1
  Br  Br17  1  0.94853279  0.66614070  0.46676188  1
  Br  Br18  1  0.45112917  0.66806816  0.47522652  1
  Br  Br19  1  0.04654700  0.33209885  0.52077288  1
  Br  Br20  1  0.54708389  0.33246794  0.52226804  1
  Br  Br21  1  0.07598049  0.49150577  0.79840385  1
  Br  Br22  1  0.57577573  0.49420857  0.80044765  1
  Br  Br23  1  0.92068927  0.50452600  0.19696640  1
  Br  Br24  1  0.42222297  0.50595962  0.19813571  1
  Br  Br25  1  0.17248981  0.10012635  0.80223767  1
  Br  Br26  1  0.67928082  0.10033454  0.80210393  1
  Br  Br27  1  0.81998372  0.91118840  0.19883765  1
  Br  Br28  1  0.32447408  0.91092072  0.20034111  1
  O  O29  1  0.25894117  0.49993601  0.49952183  1
  O  O30  1  0.75748011  0.49973559  0.49973800  1
