# generated using pymatgen
data_Ta4MoS8
_symmetry_space_group_name_H-M   'P 1'
_cell_length_a   3.32257804
_cell_length_b   3.32242270
_cell_length_c   25.41042928
_cell_angle_alpha   90.00000000
_cell_angle_beta   89.99980507
_cell_angle_gamma   60.00155749
_symmetry_Int_Tables_number   1
_chemical_formula_structural   Ta4MoS8
_chemical_formula_sum   'Ta4 Mo1 S8'
_cell_volume   242.92909128
_cell_formula_units_Z   1
loop_
 _symmetry_equiv_pos_site_id
 _symmetry_equiv_pos_as_xyz
  1  'x, y, z'
loop_
 _atom_site_type_symbol
 _atom_site_label
 _atom_site_symmetry_multiplicity
 _atom_site_fract_x
 _atom_site_fract_y
 _atom_site_fract_z
 _atom_site_occupancy
  Ta  Ta0  1  0.00002800  0.99998600  0.37674313  1
  Ta  Ta1  1  0.00004057  0.99997971  0.87485017  1
  Ta  Ta2  1  0.99997200  0.00001400  0.12325687  1
  Ta  Ta3  1  0.99995943  0.00002029  0.62514983  1
  Mo  Mo4  1  -0.00000000  0.00000000  0.25000000  1
  S  S5  1  0.33338663  0.33330668  0.31398080  1
  S  S6  1  0.33339028  0.33330486  0.81337107  1
  S  S7  1  0.66661337  0.66669332  0.18601920  1
  S  S8  1  0.66660972  0.66669514  0.68662893  1
  S  S9  1  0.66663827  0.66668086  0.06155078  1
  S  S10  1  0.66661937  0.66669032  0.56345006  1
  S  S11  1  0.33336173  0.33331914  0.43844922  1
  S  S12  1  0.33338063  0.33330968  0.93654994  1
