# generated using pymatgen
data_Ta3AlCo8
_symmetry_space_group_name_H-M   'P 1'
_cell_length_a   4.75154383
_cell_length_b   4.75154383
_cell_length_c   8.20278425
_cell_angle_alpha   73.16419189
_cell_angle_beta   90.00000000
_cell_angle_gamma   120.00000000
_symmetry_Int_Tables_number   1
_chemical_formula_structural   Ta3AlCo8
_chemical_formula_sum   'Ta3 Al1 Co8'
_cell_volume   151.14897015
_cell_formula_units_Z   1
loop_
 _symmetry_equiv_pos_site_id
 _symmetry_equiv_pos_as_xyz
  1  'x, y, z'
loop_
 _atom_site_type_symbol
 _atom_site_label
 _atom_site_symmetry_multiplicity
 _atom_site_fract_x
 _atom_site_fract_y
 _atom_site_fract_z
 _atom_site_occupancy
  Ta  Ta0  1  0.37674217  0.75348434  0.86977350  1
  Ta  Ta1  1  0.99713176  0.99426352  0.00860471  1
  Ta  Ta2  1  0.50168875  0.00337750  0.49493375  1
  Al  Al3  1  0.87420706  0.74841411  0.37737883  1
  Co  Co4  1  0.43654132  0.37634080  0.18711788  1
  Co  Co5  1  0.93592053  0.37540183  0.68867764  1
  Co  Co6  1  0.43654132  0.87308265  0.18711788  1
  Co  Co7  1  0.93592053  0.87184106  0.68867764  1
  Co  Co8  1  0.18841654  0.37683307  0.43475039  1
  Co  Co9  1  0.68760925  0.37521850  0.93717226  1
  Co  Co10  1  0.93979947  0.37634080  0.18711788  1
  Co  Co11  1  0.43948130  0.37540183  0.68867764  1
