# generated using pymatgen
data_Sr2La2CrNiO8
_symmetry_space_group_name_H-M   'P 1'
_cell_length_a   5.47752575
_cell_length_b   5.49907360
_cell_length_c   6.89304130
_cell_angle_alpha   90.00000000
_cell_angle_beta   66.58907622
_cell_angle_gamma   90.00000000
_symmetry_Int_Tables_number   1
_chemical_formula_structural   Sr2La2CrNiO8
_chemical_formula_sum   'Sr2 La2 Cr1 Ni1 O8'
_cell_volume   190.53535865
_cell_formula_units_Z   1
loop_
 _symmetry_equiv_pos_site_id
 _symmetry_equiv_pos_as_xyz
  1  'x, y, z'
loop_
 _atom_site_type_symbol
 _atom_site_label
 _atom_site_symmetry_multiplicity
 _atom_site_fract_x
 _atom_site_fract_y
 _atom_site_fract_z
 _atom_site_occupancy
  Sr  Sr0  1  0.85543750  0.50000000  0.28912499  1
  Sr  Sr1  1  0.64382610  0.00000000  0.71234780  1
  La  La2  1  0.36037234  0.00000000  0.27925531  1
  La  La3  1  0.13902262  0.50000000  0.72195476  1
  Cr  Cr4  1  0.50042645  0.50000000  0.99914711  1
  Ni  Ni5  1  0.99736912  -0.00000000  0.00526177  1
  O  O6  1  0.75431666  0.75244088  0.99921286  1
  O  O7  1  0.24647048  0.24755912  0.99921286  1
  O  O8  1  0.75431666  0.24755912  0.99921286  1
  O  O9  1  0.24647048  0.75244088  0.99921286  1
  O  O10  1  0.17740606  0.00000000  0.64518788  1
  O  O11  1  0.66073893  0.50000000  0.67852214  1
  O  O12  1  0.32867073  0.50000000  0.34265855  1
  O  O13  1  0.83515587  -0.00000000  0.32968826  1
