# generated using pymatgen
data_Tb2Fe17CN
_symmetry_space_group_name_H-M   'P 1'
_cell_length_a   6.50734954
_cell_length_b   6.44374612
_cell_length_c   6.47318494
_cell_angle_alpha   83.00791026
_cell_angle_beta   83.69435774
_cell_angle_gamma   83.44790679
_symmetry_Int_Tables_number   1
_chemical_formula_structural   Tb2Fe17CN
_chemical_formula_sum   'Tb2 Fe17 C1 N1'
_cell_volume   266.38350397
_cell_formula_units_Z   1
loop_
 _symmetry_equiv_pos_site_id
 _symmetry_equiv_pos_as_xyz
  1  'x, y, z'
loop_
 _atom_site_type_symbol
 _atom_site_label
 _atom_site_symmetry_multiplicity
 _atom_site_fract_x
 _atom_site_fract_y
 _atom_site_fract_z
 _atom_site_occupancy
  Tb  Tb0  1  0.66024377  0.66125314  0.65293087  1
  Tb  Tb1  1  0.33975623  0.33874686  0.34706913  1
  Fe  Fe2  1  0.28488917  0.71344758  0.00186605  1
  Fe  Fe3  1  0.71703027  0.00044217  0.28293952  1
  Fe  Fe4  1  0.99839666  0.29166142  0.71011129  1
  Fe  Fe5  1  0.28296973  0.99955783  0.71706048  1
  Fe  Fe6  1  0.00160334  0.70833858  0.28988871  1
  Fe  Fe7  1  0.71511083  0.28655242  0.99813395  1
  Fe  Fe8  1  0.90467926  0.90413653  0.90472891  1
  Fe  Fe9  1  0.09532074  0.09586347  0.09527109  1
  Fe  Fe10  1  0.34057310  0.34504444  0.85262734  1
  Fe  Fe11  1  0.34079462  0.85071969  0.34342120  1
  Fe  Fe12  1  0.85240717  0.34420458  0.34266892  1
  Fe  Fe13  1  0.65942690  0.65495556  0.14737266  1
  Fe  Fe14  1  0.65920538  0.14928031  0.65657880  1
  Fe  Fe15  1  0.14759283  0.65579542  0.65733108  1
  Fe  Fe16  1  -0.00000000  -0.00000000  0.50000000  1
  Fe  Fe17  1  -0.00000000  0.50000000  0.00000000  1
  Fe  Fe18  1  0.50000000  -0.00000000  0.00000000  1
  C  C19  1  0.50000000  0.50000000  0.00000000  1
  N  N20  1  0.50000000  -0.00000000  0.50000000  1
