# generated using pymatgen
data_Mg16Al12N
_symmetry_space_group_name_H-M   'P 1'
_cell_length_a   9.18432151
_cell_length_b   9.17845308
_cell_length_c   9.04769404
_cell_angle_alpha   110.47055086
_cell_angle_beta   110.49655277
_cell_angle_gamma   108.07817489
_symmetry_Int_Tables_number   1
_chemical_formula_structural   Mg16Al12N
_chemical_formula_sum   'Mg16 Al12 N1'
_cell_volume   582.25178089
_cell_formula_units_Z   1
loop_
 _symmetry_equiv_pos_site_id
 _symmetry_equiv_pos_as_xyz
  1  'x, y, z'
loop_
 _atom_site_type_symbol
 _atom_site_label
 _atom_site_symmetry_multiplicity
 _atom_site_fract_x
 _atom_site_fract_y
 _atom_site_fract_z
 _atom_site_occupancy
  Mg  Mg0  1  0.29972228  0.59798282  1.00000000  1
  Mg  Mg1  1  0.00414960  0.99411761  1.00000000  1
  Mg  Mg2  1  0.98492878  0.32063944  0.99999900  1
  Mg  Mg3  1  0.37535173  0.03631425  0.00000000  1
  Mg  Mg4  1  0.66179993  0.66928621  0.27452136  1
  Mg  Mg5  1  0.96821071  0.57338753  0.28537268  1
  Mg  Mg6  1  0.58896127  0.99728143  0.32078997  1
  Mg  Mg7  1  0.98913739  0.98898744  0.34670764  1
  Mg  Mg8  1  0.70730482  0.39403599  0.39797303  1
  Mg  Mg9  1  0.38494980  0.70844099  0.39846555  1
  Mg  Mg10  1  0.98648425  0.30997643  0.60153445  1
  Mg  Mg11  1  0.30933179  0.99606296  0.60202697  1
  Mg  Mg12  1  0.64242775  0.64227780  0.65329036  1
  Mg  Mg13  1  0.26817030  0.67649146  0.67920903  1
  Mg  Mg14  1  0.68283704  0.28801385  0.71462632  1
  Mg  Mg15  1  0.38727857  0.39476585  0.72547964  1
  Al  Al16  1  0.61849765  0.79035184  1.00000000  1
  Al  Al17  1  0.83058461  0.64911709  1.00000000  1
  Al  Al18  1  0.80281852  0.16132718  0.18594758  1
  Al  Al19  1  0.35544358  0.36577687  0.18696549  1
  Al  Al20  1  0.19669247  0.84240931  0.19283530  1
  Al  Al21  1  0.16471124  0.35438077  0.36693094  1
  Al  Al22  1  0.37568849  0.19640200  0.38602659  1
  Al  Al23  1  0.98966090  0.81037542  0.61397341  1
  Al  Al24  1  0.79778131  0.98744883  0.63306906  1
  Al  Al25  1  0.00385717  0.64957502  0.80716470  1
  Al  Al26  1  0.16847709  0.17880938  0.81303351  1
  Al  Al27  1  0.61687194  0.97537960  0.81405142  1
  N  N28  1  0.83786902  0.45058165  1.00000000  1
