# generated using pymatgen
data_Sm6Si3Ni2
_symmetry_space_group_name_H-M   'P 1'
_cell_length_a   4.44114872
_cell_length_b   11.81410187
_cell_length_c   11.53229377
_cell_angle_alpha   120.51127727
_cell_angle_beta   90.00000000
_cell_angle_gamma   90.00000000
_symmetry_Int_Tables_number   1
_chemical_formula_structural   Sm6Si3Ni2
_chemical_formula_sum   'Sm12 Si6 Ni4'
_cell_volume   521.29282874
_cell_formula_units_Z   2
loop_
 _symmetry_equiv_pos_site_id
 _symmetry_equiv_pos_as_xyz
  1  'x, y, z'
loop_
 _atom_site_type_symbol
 _atom_site_label
 _atom_site_symmetry_multiplicity
 _atom_site_fract_x
 _atom_site_fract_y
 _atom_site_fract_z
 _atom_site_occupancy
  Sm  Sm0  1  0.75000000  0.78265142  0.02283601  1
  Sm  Sm1  1  0.75000000  0.98168663  0.76426783  1
  Sm  Sm2  1  0.75000000  0.24152924  0.22162494  1
  Sm  Sm3  1  0.25000000  0.22613820  0.97627668  1
  Sm  Sm4  1  0.25000000  0.02392319  0.25241871  1
  Sm  Sm5  1  0.25000000  0.75871512  0.77880342  1
  Sm  Sm6  1  0.75000000  0.62345310  0.48489506  1
  Sm  Sm7  1  0.75000000  0.51338786  0.13092243  1
  Sm  Sm8  1  0.75000000  0.86362544  0.38038129  1
  Sm  Sm9  1  0.25000000  0.38260738  0.51571333  1
  Sm  Sm10  1  0.25000000  0.48799899  0.86233590  1
  Sm  Sm11  1  0.25000000  0.13878146  0.61896738  1
  Si  Si12  1  0.75000000  0.32744189  0.66425673  1
  Si  Si13  1  0.25000000  0.66597501  0.33196231  1
  Si  Si14  1  0.75000000  0.56191727  0.71870900  1
  Si  Si15  1  0.25000000  0.71567924  0.15362055  1
  Si  Si16  1  0.25000000  0.84173759  0.56373355  1
  Si  Si17  1  0.25000000  0.44141819  0.28394754  1
  Ni  Ni18  1  0.49755580  0.00356475  0.00411958  1
  Ni  Ni19  1  0.00244420  0.00356475  0.00411958  1
  Ni  Ni20  1  0.75000000  0.26325739  0.83062071  1
  Ni  Ni21  1  0.75000000  0.15094587  0.43546746  1
