# generated using pymatgen
data_Sm2Ga2Fe15C
_symmetry_space_group_name_H-M   'P 1'
_cell_length_a   6.50746345
_cell_length_b   6.49588632
_cell_length_c   6.50746345
_cell_angle_alpha   83.04431955
_cell_angle_beta   83.09932495
_cell_angle_gamma   83.04431955
_symmetry_Int_Tables_number   1
_chemical_formula_structural   Sm2Ga2Fe15C
_chemical_formula_sum   'Sm2 Ga2 Fe15 C1'
_cell_volume   269.48996232
_cell_formula_units_Z   1
loop_
 _symmetry_equiv_pos_site_id
 _symmetry_equiv_pos_as_xyz
  1  'x, y, z'
loop_
 _atom_site_type_symbol
 _atom_site_label
 _atom_site_symmetry_multiplicity
 _atom_site_fract_x
 _atom_site_fract_y
 _atom_site_fract_z
 _atom_site_occupancy
  Sm  Sm0  1  0.65687412  0.64630438  0.65687412  1
  Sm  Sm1  1  0.34312588  0.35369562  0.34312588  1
  Ga  Ga2  1  0.89672196  0.89731161  0.89672196  1
  Ga  Ga3  1  0.10327804  0.10268839  0.10327804  1
  Fe  Fe4  1  0.34388602  0.84982354  0.34388602  1
  Fe  Fe5  1  0.84731430  0.34336909  0.34123589  1
  Fe  Fe6  1  0.34123589  0.34336909  0.84731430  1
  Fe  Fe7  1  0.65611398  0.15017646  0.65611398  1
  Fe  Fe8  1  0.15268570  0.65663091  0.65876411  1
  Fe  Fe9  1  0.65876411  0.65663091  0.15268570  1
  Fe  Fe10  1  0.71294279  0.00000000  0.28705721  1
  Fe  Fe11  1  0.00022571  0.29046434  0.70875978  1
  Fe  Fe12  1  0.29124022  0.70953566  0.99977429  1
  Fe  Fe13  1  0.99977429  0.70953566  0.29124022  1
  Fe  Fe14  1  0.70875978  0.29046434  0.00022571  1
  Fe  Fe15  1  0.28705721  -0.00000000  0.71294279  1
  Fe  Fe16  1  -0.00000000  0.50000000  -0.00000000  1
  Fe  Fe17  1  0.50000000  -0.00000000  -0.00000000  1
  Fe  Fe18  1  -0.00000000  -0.00000000  0.50000000  1
  C  C19  1  0.50000000  -0.00000000  0.50000000  1
