# generated using pymatgen
data_Sm2TiCuO6
_symmetry_space_group_name_H-M   'P 1'
_cell_length_a   5.44905466
_cell_length_b   5.83971197
_cell_length_c   7.56413330
_cell_angle_alpha   90.00000000
_cell_angle_beta   89.67671927
_cell_angle_gamma   90.00000000
_symmetry_Int_Tables_number   1
_chemical_formula_structural   Sm2TiCuO6
_chemical_formula_sum   'Sm4 Ti2 Cu2 O12'
_cell_volume   240.69377166
_cell_formula_units_Z   2
loop_
 _symmetry_equiv_pos_site_id
 _symmetry_equiv_pos_as_xyz
  1  'x, y, z'
loop_
 _atom_site_type_symbol
 _atom_site_label
 _atom_site_symmetry_multiplicity
 _atom_site_fract_x
 _atom_site_fract_y
 _atom_site_fract_z
 _atom_site_occupancy
  Sm  Sm0  1  0.48278721  0.07149867  0.24948792  1
  Sm  Sm1  1  0.01721279  0.57149867  0.25051208  1
  Sm  Sm2  1  0.51721279  0.92850133  0.75051208  1
  Sm  Sm3  1  0.98278721  0.42850133  0.74948792  1
  Ti  Ti4  1  0.50000000  0.50000000  0.50000000  1
  Ti  Ti5  1  -0.00000000  0.00000000  0.00000000  1
  Cu  Cu6  1  0.50000000  0.50000000  0.00000000  1
  Cu  Cu7  1  -0.00000000  0.00000000  0.50000000  1
  O  O8  1  0.60512073  0.46443736  0.24843544  1
  O  O9  1  0.89487927  0.96443736  0.25156456  1
  O  O10  1  0.39487927  0.53556264  0.75156456  1
  O  O11  1  0.10512073  0.03556264  0.74843544  1
  O  O12  1  0.29226241  0.82163351  0.05218117  1
  O  O13  1  0.20773759  0.32163351  0.44781883  1
  O  O14  1  0.68195220  0.20911176  0.55496614  1
  O  O15  1  0.81804780  0.70911176  0.94503386  1
  O  O16  1  0.70773759  0.17836649  0.94781883  1
  O  O17  1  0.79226241  0.67836649  0.55218117  1
  O  O18  1  0.31804780  0.79088824  0.44503386  1
  O  O19  1  0.18195220  0.29088824  0.05496614  1
