# generated using pymatgen
data_SmAlNi
_symmetry_space_group_name_H-M   'P 1'
_cell_length_a   5.50453869
_cell_length_b   5.36097571
_cell_length_c   8.73934520
_cell_angle_alpha   90.00000000
_cell_angle_beta   90.00000000
_cell_angle_gamma   120.89935107
_symmetry_Int_Tables_number   1
_chemical_formula_structural   SmAlNi
_chemical_formula_sum   'Sm4 Al4 Ni4'
_cell_volume   221.29252581
_cell_formula_units_Z   4
loop_
 _symmetry_equiv_pos_site_id
 _symmetry_equiv_pos_as_xyz
  1  'x, y, z'
loop_
 _atom_site_type_symbol
 _atom_site_label
 _atom_site_symmetry_multiplicity
 _atom_site_fract_x
 _atom_site_fract_y
 _atom_site_fract_z
 _atom_site_occupancy
  Sm  Sm0  1  0.65692567  0.31397721  0.53801413  1
  Sm  Sm1  1  0.33007241  0.65993131  0.43371613  1
  Sm  Sm2  1  0.33007241  0.65993131  0.06628387  1
  Sm  Sm3  1  0.65692567  0.31397721  0.96198587  1
  Al  Al4  1  0.15941571  0.31883524  0.75000000  1
  Al  Al5  1  0.15856863  0.82598080  0.75000000  1
  Al  Al6  1  0.66726399  0.82587306  0.75000000  1
  Al  Al7  1  0.86695073  0.73379366  0.25000000  1
  Ni  Ni8  1  0.85349362  0.18826860  0.25000000  1
  Ni  Ni9  1  0.33500716  0.18825410  0.25000000  1
  Ni  Ni10  1  0.99265200  0.98558875  0.51265676  1
  Ni  Ni11  1  0.99265200  0.98558875  0.98734324  1
