# generated using pymatgen
data_Mg16MnAl12
_symmetry_space_group_name_H-M   'P 1'
_cell_length_a   9.06097512
_cell_length_b   9.06097521
_cell_length_c   9.06097512
_cell_angle_alpha   109.47121186
_cell_angle_beta   109.47122110
_cell_angle_gamma   109.47121186
_symmetry_Int_Tables_number   1
_chemical_formula_structural   Mg16MnAl12
_chemical_formula_sum   'Mg16 Mn1 Al12'
_cell_volume   572.66813610
_cell_formula_units_Z   1
loop_
 _symmetry_equiv_pos_site_id
 _symmetry_equiv_pos_as_xyz
  1  'x, y, z'
loop_
 _atom_site_type_symbol
 _atom_site_label
 _atom_site_symmetry_multiplicity
 _atom_site_fract_x
 _atom_site_fract_y
 _atom_site_fract_z
 _atom_site_occupancy
  Mg  Mg0  1  0.31407212  0.60017073  0.99999900  1
  Mg  Mg1  1  0.00000000  0.33101482  0.00000000  1
  Mg  Mg2  1  0.60016973  0.31407112  0.00000000  1
  Mg  Mg3  1  0.33101482  0.99999900  0.00000000  1
  Mg  Mg4  1  0.68592788  0.68592788  0.28609860  1
  Mg  Mg5  1  0.60017073  0.00000000  0.31407112  1
  Mg  Mg6  1  0.99999900  0.60017073  0.31407212  1
  Mg  Mg7  1  0.00000000  0.99999900  0.33101482  1
  Mg  Mg8  1  0.71390240  0.39983027  0.39983027  1
  Mg  Mg9  1  0.39983027  0.71390240  0.39983027  1
  Mg  Mg10  1  0.00000000  0.31407112  0.60016973  1
  Mg  Mg11  1  0.31407112  0.00000000  0.60017073  1
  Mg  Mg12  1  0.66898318  0.66898318  0.66898318  1
  Mg  Mg13  1  0.68592788  0.28609860  0.68592788  1
  Mg  Mg14  1  0.28609860  0.68592788  0.68592788  1
  Mg  Mg15  1  0.39983027  0.39983027  0.71390240  1
  Mn  Mn16  1  0.00000000  0.00000000  0.00000000  1
  Al  Al17  1  0.63805519  0.81634103  0.99999900  1
  Al  Al18  1  0.81634103  0.63805519  1.00000000  1
  Al  Al19  1  0.36194681  0.36194581  0.17828584  1
  Al  Al20  1  0.82171216  0.18365897  0.18365797  1
  Al  Al21  1  0.18365897  0.82171216  0.18365897  1
  Al  Al22  1  0.36194581  0.17828684  0.36194581  1
  Al  Al23  1  0.17828584  0.36194581  0.36194681  1
  Al  Al24  1  0.99999900  0.81634103  0.63805519  1
  Al  Al25  1  0.81634103  1.00000000  0.63805519  1
  Al  Al26  1  0.63805519  1.00000000  0.81634103  1
  Al  Al27  1  1.00000000  0.63805519  0.81634103  1
  Al  Al28  1  0.18365797  0.18365897  0.82171216  1
