# generated using pymatgen
data_Sm2Ga5Au3
_symmetry_space_group_name_H-M   'P 1'
_cell_length_a   4.34555718
_cell_length_b   4.34555718
_cell_length_c   11.04225442
_cell_angle_alpha   90.00000000
_cell_angle_beta   90.00000000
_cell_angle_gamma   90.00000000
_symmetry_Int_Tables_number   1
_chemical_formula_structural   Sm2Ga5Au3
_chemical_formula_sum   'Sm2 Ga5 Au3'
_cell_volume   208.52046611
_cell_formula_units_Z   1
loop_
 _symmetry_equiv_pos_site_id
 _symmetry_equiv_pos_as_xyz
  1  'x, y, z'
loop_
 _atom_site_type_symbol
 _atom_site_label
 _atom_site_symmetry_multiplicity
 _atom_site_fract_x
 _atom_site_fract_y
 _atom_site_fract_z
 _atom_site_occupancy
  Sm  Sm0  1  0.75000000  0.75000000  0.25519161  1
  Sm  Sm1  1  0.25000000  0.25000000  0.74480839  1
  Ga  Ga2  1  0.75000000  0.25000000  -0.00000000  1
  Ga  Ga3  1  0.25000000  0.75000000  -0.00000000  1
  Ga  Ga4  1  0.75000000  0.75000000  0.87099018  1
  Ga  Ga5  1  0.25000000  0.25000000  0.12900982  1
  Ga  Ga6  1  0.75000000  0.25000000  0.50000000  1
  Au  Au7  1  0.75000000  0.75000000  0.64886824  1
  Au  Au8  1  0.25000000  0.25000000  0.35113176  1
  Au  Au9  1  0.25000000  0.75000000  0.50000000  1
