# generated using pymatgen
data_Sm2Fe17N
_symmetry_space_group_name_H-M   'P 1'
_cell_length_a   6.47361207
_cell_length_b   6.43078142
_cell_length_c   6.47361207
_cell_angle_alpha   83.56696659
_cell_angle_beta   83.76705047
_cell_angle_gamma   83.56696659
_symmetry_Int_Tables_number   1
_chemical_formula_structural   Sm2Fe17N
_chemical_formula_sum   'Sm2 Fe17 N1'
_cell_volume   264.85474529
_cell_formula_units_Z   1
loop_
 _symmetry_equiv_pos_site_id
 _symmetry_equiv_pos_as_xyz
  1  'x, y, z'
loop_
 _atom_site_type_symbol
 _atom_site_label
 _atom_site_symmetry_multiplicity
 _atom_site_fract_x
 _atom_site_fract_y
 _atom_site_fract_z
 _atom_site_occupancy
  Sm  Sm0  1  0.65711615  0.65572890  0.65711615  1
  Sm  Sm1  1  0.34288385  0.34427110  0.34288385  1
  Fe  Fe2  1  0.71677697  -0.00000000  0.28322303  1
  Fe  Fe3  1  0.99956382  0.28742155  0.71445755  1
  Fe  Fe4  1  0.28554245  0.71257845  0.00043618  1
  Fe  Fe5  1  0.00043618  0.71257845  0.28554245  1
  Fe  Fe6  1  0.71445755  0.28742155  0.99956382  1
  Fe  Fe7  1  0.28322303  -0.00000000  0.71677697  1
  Fe  Fe8  1  -0.00000000  0.50000000  -0.00000000  1
  Fe  Fe9  1  0.50000000  -0.00000000  -0.00000000  1
  Fe  Fe10  1  -0.00000000  -0.00000000  0.50000000  1
  Fe  Fe11  1  0.34153515  0.84983208  0.34153515  1
  Fe  Fe12  1  0.85317859  0.34589988  0.34331788  1
  Fe  Fe13  1  0.34331788  0.34589988  0.85317859  1
  Fe  Fe14  1  0.65846485  0.15016792  0.65846485  1
  Fe  Fe15  1  0.14682141  0.65410012  0.65668212  1
  Fe  Fe16  1  0.65668212  0.65410012  0.14682141  1
  Fe  Fe17  1  0.90368329  0.90212181  0.90368329  1
  Fe  Fe18  1  0.09631671  0.09787819  0.09631671  1
  N  N19  1  0.50000000  -0.00000000  0.50000000  1
