# generated using pymatgen
data_Sb3O7
_symmetry_space_group_name_H-M   'P 1'
_cell_length_a   7.39253435
_cell_length_b   7.39253435
_cell_length_c   7.39253435
_cell_angle_alpha   91.50719039
_cell_angle_beta   59.27699424
_cell_angle_gamma   121.02514946
_symmetry_Int_Tables_number   1
_chemical_formula_structural   Sb3O7
_chemical_formula_sum   'Sb6 O14'
_cell_volume   281.78776629
_cell_formula_units_Z   2
loop_
 _symmetry_equiv_pos_site_id
 _symmetry_equiv_pos_as_xyz
  1  'x, y, z'
loop_
 _atom_site_type_symbol
 _atom_site_label
 _atom_site_symmetry_multiplicity
 _atom_site_fract_x
 _atom_site_fract_y
 _atom_site_fract_z
 _atom_site_occupancy
  Sb  Sb0  1  0.75000000  0.37500000  0.87500000  1
  Sb  Sb1  1  0.25000000  0.37500000  0.37500000  1
  Sb  Sb2  1  0.25000000  0.87500000  0.37500000  1
  Sb  Sb3  1  0.75000000  0.37500000  0.37500000  1
  Sb  Sb4  1  0.75000000  0.87500000  0.37500000  1
  Sb  Sb5  1  0.25000000  0.87500000  0.87500000  1
  O  O6  1  0.02283376  0.97527707  0.43745946  1
  O  O7  1  0.58726347  0.53970678  0.43745946  1
  O  O8  1  0.50000000  0.80698874  0.69301126  1
  O  O9  1  0.97716624  0.53970678  0.04755669  1
  O  O10  1  0.41273653  0.97527707  0.04755669  1
  O  O11  1  0.50000000  0.45001790  0.04998210  1
  O  O12  1  0.47716624  0.77472293  0.31254054  1
  O  O13  1  0.91273653  0.21029322  0.31254054  1
  O  O14  1  -0.00000000  0.94301126  0.05698874  1
  O  O15  1  0.52283376  0.21029322  0.70244331  1
  O  O16  1  0.08726347  0.77472293  0.70244331  1
  O  O17  1  -0.00000000  0.29998210  0.70001790  1
  O  O18  1  0.50000000  0.19057365  0.30942635  1
  O  O19  1  -0.00000000  0.55942635  0.44057365  1
