# generated using pymatgen
data_Sr10Nb5N5O14
_symmetry_space_group_name_H-M   'P 1'
_cell_length_a   9.04586608
_cell_length_b   9.04586608
_cell_length_c   9.08729743
_cell_angle_alpha   60.57193132
_cell_angle_beta   119.74855727
_cell_angle_gamma   89.54438723
_symmetry_Int_Tables_number   1
_chemical_formula_structural   Sr10Nb5N5O14
_chemical_formula_sum   'Sr10 Nb5 N5 O14'
_cell_volume   530.22100416
_cell_formula_units_Z   1
loop_
 _symmetry_equiv_pos_site_id
 _symmetry_equiv_pos_as_xyz
  1  'x, y, z'
loop_
 _atom_site_type_symbol
 _atom_site_label
 _atom_site_symmetry_multiplicity
 _atom_site_fract_x
 _atom_site_fract_y
 _atom_site_fract_z
 _atom_site_occupancy
  Sr  Sr0  1  0.44347093  0.75652907  0.40000000  1
  Sr  Sr1  1  0.04670181  0.54996630  0.20472072  1
  Sr  Sr2  1  0.64313201  0.35421759  0.00042836  1
  Sr  Sr3  1  0.24535405  0.15729634  0.79957164  1
  Sr  Sr4  1  0.84531299  0.95801890  0.59527928  1
  Sr  Sr5  1  0.95686799  0.44578241  0.79957164  1
  Sr  Sr6  1  0.55329819  0.25003370  0.59527928  1
  Sr  Sr7  1  0.15652907  0.04347093  0.40000000  1
  Sr  Sr8  1  0.75468701  0.84198110  0.20472072  1
  Sr  Sr9  1  0.35464595  0.64270366  0.00042836  1
  Nb  Nb10  1  0.59569363  0.79878521  0.79690842  1
  Nb  Nb11  1  0.19752066  0.59777163  0.59974903  1
  Nb  Nb12  1  0.80000000  0.40000000  0.40000000  1
  Nb  Nb13  1  0.40247934  0.20222837  0.20025097  1
  Nb  Nb14  1  0.00430637  0.00121479  0.00309158  1
  N  N15  1  0.51263499  0.00319029  0.50944470  1
  N  N16  1  0.30000000  0.40000000  0.90000000  1
  N  N17  1  0.08736501  0.79680971  0.29055530  1
  N  N18  1  0.89110907  0.19335984  0.69774924  1
  N  N19  1  0.70889093  0.60664016  0.10225076  1
  O  O20  1  0.63639405  0.56360595  0.40000000  1
  O  O21  1  0.23710792  0.35958635  0.20017077  1
  O  O22  1  0.82741912  0.15646941  0.99311033  1
  O  O23  1  0.45042027  0.96569121  0.80688967  1
  O  O24  1  0.04024288  0.76306285  0.59982923  1
  O  O25  1  0.77258088  0.64353059  0.80688967  1
  O  O26  1  0.36289208  0.44041365  0.59982923  1
  O  O27  1  0.96360595  0.23639405  0.40000000  1
  O  O28  1  0.55975712  0.03693715  0.20017077  1
  O  O29  1  0.14957973  0.83430879  0.99311033  1
  O  O30  1  0.59764822  0.30854563  0.28910260  1
  O  O31  1  0.39906286  0.70523369  0.69382917  1
  O  O32  1  0.20093714  0.09476631  0.10617083  1
  O  O33  1  0.00235178  0.49145437  0.51089740  1
