# generated using pymatgen
data_MnReB2
_symmetry_space_group_name_H-M   'P 1'
_cell_length_a   3.02678732
_cell_length_b   4.32040866
_cell_length_c   5.71109019
_cell_angle_alpha   90.00000000
_cell_angle_beta   90.00000000
_cell_angle_gamma   90.00000000
_symmetry_Int_Tables_number   1
_chemical_formula_structural   MnReB2
_chemical_formula_sum   'Mn2 Re2 B4'
_cell_volume   74.68368740
_cell_formula_units_Z   2
loop_
 _symmetry_equiv_pos_site_id
 _symmetry_equiv_pos_as_xyz
  1  'x, y, z'
loop_
 _atom_site_type_symbol
 _atom_site_label
 _atom_site_symmetry_multiplicity
 _atom_site_fract_x
 _atom_site_fract_y
 _atom_site_fract_z
 _atom_site_occupancy
  Mn  Mn0  1  0.25000000  0.38164275  0.68357913  1
  Mn  Mn1  1  0.25000000  0.11835725  0.18357913  1
  Re  Re2  1  0.75000000  0.61655943  0.32250854  1
  Re  Re3  1  0.75000000  0.88344057  0.82250854  1
  B  B4  1  0.25000000  0.91019130  0.53043247  1
  B  B5  1  0.25000000  0.58980870  0.03043247  1
  B  B6  1  0.75000000  0.12656093  0.46347986  1
  B  B7  1  0.75000000  0.37343907  0.96347986  1
