# generated using pymatgen
data_Na2VCu3S4
_symmetry_space_group_name_H-M   'P 1'
_cell_length_a   3.87170676
_cell_length_b   7.82718149
_cell_length_c   6.69408065
_cell_angle_alpha   64.82138601
_cell_angle_beta   90.00655339
_cell_angle_gamma   75.67594080
_symmetry_Int_Tables_number   1
_chemical_formula_structural   Na2VCu3S4
_chemical_formula_sum   'Na2 V1 Cu3 S4'
_cell_volume   176.59007181
_cell_formula_units_Z   1
loop_
 _symmetry_equiv_pos_site_id
 _symmetry_equiv_pos_as_xyz
  1  'x, y, z'
loop_
 _atom_site_type_symbol
 _atom_site_label
 _atom_site_symmetry_multiplicity
 _atom_site_fract_x
 _atom_site_fract_y
 _atom_site_fract_z
 _atom_site_occupancy
  Na  Na0  1  0.50670917  0.98649035  0.50414616  1
  Na  Na1  1  0.00462355  0.99070708  0.00670834  1
  V  V2  1  0.81062309  0.37890335  0.47144871  1
  Cu  Cu3  1  0.30475595  0.38983275  0.97809084  1
  Cu  Cu4  1  0.18538876  0.62904916  0.53142924  1
  Cu  Cu5  1  0.68709681  0.62590518  0.00954600  1
  S  S6  1  0.86694266  0.26611641  0.20124817  1
  S  S7  1  0.36256300  0.27506883  0.69429738  1
  S  S8  1  0.12854351  0.74330653  0.79742506  1
  S  S9  1  0.64275350  0.71462034  0.30566011  1
