# generated using pymatgen
data_Na3Nb12O31
_symmetry_space_group_name_H-M   'P 1'
_cell_length_a   3.95775978
_cell_length_b   17.98338275
_cell_length_c   17.89580863
_cell_angle_alpha   89.96952457
_cell_angle_beta   90.00000000
_cell_angle_gamma   90.00000000
_symmetry_Int_Tables_number   1
_chemical_formula_structural   Na3Nb12O31
_chemical_formula_sum   'Na6 Nb24 O62'
_cell_volume   1273.71447387
_cell_formula_units_Z   2
loop_
 _symmetry_equiv_pos_site_id
 _symmetry_equiv_pos_as_xyz
  1  'x, y, z'
loop_
 _atom_site_type_symbol
 _atom_site_label
 _atom_site_symmetry_multiplicity
 _atom_site_fract_x
 _atom_site_fract_y
 _atom_site_fract_z
 _atom_site_occupancy
  Na  Na0  1  0.53821865  0.57663559  0.26042182  1
  Na  Na1  1  0.53821865  0.42336441  0.73957818  1
  Na  Na2  1  0.53649867  0.73618802  0.56589456  1
  Na  Na3  1  0.53649867  0.26381198  0.43410544  1
  Na  Na4  1  0.57828872  0.00000000  0.50000000  1
  Na  Na5  1  0.57562253  0.50000000  0.00000000  1
  Nb  Nb6  1  0.06175702  0.63060101  0.07017423  1
  Nb  Nb7  1  0.06175702  0.36939899  0.92982577  1
  Nb  Nb8  1  0.09379122  0.93231272  0.63149208  1
  Nb  Nb9  1  0.09379122  0.06768728  0.36850792  1
  Nb  Nb10  1  0.12015009  0.73696815  0.24841362  1
  Nb  Nb11  1  0.12015009  0.26303185  0.75158638  1
  Nb  Nb12  1  0.09934076  0.75148875  0.73800416  1
  Nb  Nb13  1  0.09934076  0.24851125  0.26199584  1
  Nb  Nb14  1  0.03300662  0.92369771  0.24984747  1
  Nb  Nb15  1  0.03300662  0.07630229  0.75015253  1
  Nb  Nb16  1  0.03746617  0.74891863  0.92494856  1
  Nb  Nb17  1  0.03746617  0.25108137  0.07505144  1
  Nb  Nb18  1  0.03126282  0.85960761  0.06996000  1
  Nb  Nb19  1  0.03126282  0.14039239  0.93004000  1
  Nb  Nb20  1  0.03092974  0.93023350  0.86035760  1
  Nb  Nb21  1  0.03092974  0.06976650  0.13964240  1
  Nb  Nb22  1  0.10170251  0.85251281  0.43142129  1
  Nb  Nb23  1  0.10170251  0.14748719  0.56857871  1
  Nb  Nb24  1  0.10095975  0.56808526  0.85372905  1
  Nb  Nb25  1  0.10095975  0.43191474  0.14627095  1
  Nb  Nb26  1  0.04596789  0.63986823  0.43921836  1
  Nb  Nb27  1  0.04596789  0.36013177  0.56078164  1
  Nb  Nb28  1  0.05657489  0.55980389  0.63978266  1
  Nb  Nb29  1  0.05657489  0.44019611  0.36021734  1
  O  O30  1  0.06585825  0.95830216  0.36326302  1
  O  O31  1  0.06585825  0.04169784  0.63673698  1
  O  O32  1  0.07594452  0.63928110  0.95648704  1
  O  O33  1  0.07594452  0.36071890  0.04351296  1
  O  O34  1  0.08259380  0.75650611  0.47340040  1
  O  O35  1  0.08259380  0.24349389  0.52659960  1
  O  O36  1  0.09051856  0.52743756  0.75657727  1
  O  O37  1  0.09051856  0.47256244  0.24342273  1
  O  O38  1  0.57383206  0.92556226  0.24786562  1
  O  O39  1  0.57383206  0.07443774  0.75213438  1
  O  O40  1  0.57717623  0.75382889  0.92076257  1
  O  O41  1  0.57717623  0.24617111  0.07923743  1
  O  O42  1  0.06770418  0.75075451  0.04370807  1
  O  O43  1  0.06770418  0.24924549  0.95629193  1
  O  O44  1  0.06778273  0.95766127  0.75168930  1
  O  O45  1  0.06778273  0.04233873  0.24831070  1
  O  O46  1  0.06938672  0.82870127  0.32121089  1
  O  O47  1  0.06938672  0.17129873  0.67878911  1
  O  O48  1  0.07120408  0.68045420  0.82610991  1
  O  O49  1  0.07120408  0.31954580  0.17389009  1
  O  O50  1  0.07762999  0.52198768  0.08024765  1
  O  O51  1  0.07762999  0.47801232  0.91975235  1
  O  O52  1  0.06920204  0.92001008  0.52416449  1
  O  O53  1  0.06920204  0.07998992  0.47583551  1
  O  O54  1  0.58161329  0.65181882  0.44601281  1
  O  O55  1  0.58161329  0.34818118  0.55398719  1
  O  O56  1  0.59158022  0.55961044  0.65224046  1
  O  O57  1  0.59158022  0.44038956  0.34775954  1
  O  O58  1  0.57728384  0.62600564  0.06480506  1
  O  O59  1  0.57728384  0.37399436  0.93519494  1
  O  O60  1  0.56748772  0.92709514  0.63126629  1
  O  O61  1  0.56748772  0.07290486  0.36873371  1
  O  O62  1  0.09363073  0.54133809  0.39566488  1
  O  O63  1  0.09363073  0.45866191  0.60433512  1
  O  O64  1  0.09256419  0.60724734  0.54333550  1
  O  O65  1  0.09256419  0.39275266  0.45666450  1
  O  O66  1  0.07143970  0.95989200  0.12945961  1
  O  O67  1  0.07143970  0.04010800  0.87054039  1
  O  O68  1  0.07422169  0.86785383  0.95877555  1
  O  O69  1  0.07422169  0.13214617  0.04122445  1
  O  O70  1  0.57398217  0.86402403  0.43611484  1
  O  O71  1  0.57398217  0.13597597  0.56388516  1
  O  O72  1  0.57804288  0.56790425  0.86346826  1
  O  O73  1  0.57804288  0.43209575  0.13653174  1
  O  O74  1  0.08258017  0.67282267  0.33276834  1
  O  O75  1  0.08258017  0.32717733  0.66723166  1
  O  O76  1  0.11781258  0.66994921  0.67469616  1
  O  O77  1  0.11781258  0.33005079  0.32530384  1
  O  O78  1  0.57221234  0.87202279  0.06724111  1
  O  O79  1  0.57221234  0.12797721  0.93275889  1
  O  O80  1  0.57105170  0.93070217  0.87132676  1
  O  O81  1  0.57105170  0.06929783  0.12867324  1
  O  O82  1  0.07157178  0.82965852  0.18045184  1
  O  O83  1  0.07157178  0.17034148  0.81954816  1
  O  O84  1  0.07311771  0.81977346  0.82572489  1
  O  O85  1  0.07311771  0.18022654  0.17427511  1
  O  O86  1  0.07521731  0.65480917  0.17560714  1
  O  O87  1  0.07521731  0.34519083  0.82439286  1
  O  O88  1  0.06149553  0.82336072  0.66166362  1
  O  O89  1  0.06149553  0.17663928  0.33833638  1
  O  O90  1  0.58327884  0.73597342  0.24236295  1
  O  O91  1  0.58327884  0.26402658  0.75763705  1
