# generated using pymatgen
data_MgGe
_symmetry_space_group_name_H-M   'P 1'
_cell_length_a   3.17960337
_cell_length_b   5.57661058
_cell_length_c   4.83903433
_cell_angle_alpha   72.81303560
_cell_angle_beta   90.12735429
_cell_angle_gamma   73.41612148
_symmetry_Int_Tables_number   1
_chemical_formula_structural   MgGe
_chemical_formula_sum   'Mg2 Ge2'
_cell_volume   78.20978120
_cell_formula_units_Z   2
loop_
 _symmetry_equiv_pos_site_id
 _symmetry_equiv_pos_as_xyz
  1  'x, y, z'
loop_
 _atom_site_type_symbol
 _atom_site_label
 _atom_site_symmetry_multiplicity
 _atom_site_fract_x
 _atom_site_fract_y
 _atom_site_fract_z
 _atom_site_occupancy
  Mg  Mg0  1  0.00573246  0.98837741  0.00163013  1
  Mg  Mg1  1  0.24426587  0.51162835  0.58170167  1
  Ge  Ge2  1  0.75114867  0.49841119  0.07625557  1
  Ge  Ge3  1  0.49885200  0.00158406  0.50707963  1
