# generated using pymatgen
data_Nb7S8
_symmetry_space_group_name_H-M   'P 1'
_cell_length_a   6.46268869
_cell_length_b   6.73770633
_cell_length_c   6.73780198
_cell_angle_alpha   119.98296100
_cell_angle_beta   90.00638757
_cell_angle_gamma   89.99341851
_symmetry_Int_Tables_number   1
_chemical_formula_structural   Nb7S8
_chemical_formula_sum   'Nb7 S8'
_cell_volume   254.12578112
_cell_formula_units_Z   1
loop_
 _symmetry_equiv_pos_site_id
 _symmetry_equiv_pos_as_xyz
  1  'x, y, z'
loop_
 _atom_site_type_symbol
 _atom_site_label
 _atom_site_symmetry_multiplicity
 _atom_site_fract_x
 _atom_site_fract_y
 _atom_site_fract_z
 _atom_site_occupancy
  Nb  Nb0  1  0.50018289  0.47967339  0.95923778  1
  Nb  Nb1  1  0.50007412  0.47958458  0.52041628  1
  Nb  Nb2  1  0.50018075  0.04075848  0.52032296  1
  Nb  Nb3  1  0.00268509  0.52052266  0.04110371  1
  Nb  Nb4  1  0.00280030  0.52059348  0.47941139  1
  Nb  Nb5  1  0.00268809  0.95889739  0.47947833  1
  Nb  Nb6  1  0.50473708  0.99996071  0.00003771  1
  S  S7  1  0.21883057  0.33329846  0.66669945  1
  S  S8  1  0.71993062  0.66670971  0.33329093  1
  S  S9  1  0.25264309  0.83887302  0.16112897  1
  S  S10  1  0.25274419  0.32220040  0.16110725  1
  S  S11  1  0.25274416  0.83889458  0.67780068  1
  S  S12  1  0.76322712  0.16361653  0.83638142  1
  S  S13  1  0.76326670  0.67273930  0.83632165  1
  S  S14  1  0.76326523  0.16367731  0.32726151  1
