# generated using pymatgen
data_MgZnH12(CO3)4
_symmetry_space_group_name_H-M   'P 1'
_cell_length_a   7.28818024
_cell_length_b   8.78190488
_cell_length_c   9.43894174
_cell_angle_alpha   97.57433216
_cell_angle_beta   90.00000000
_cell_angle_gamma   90.00000000
_symmetry_Int_Tables_number   1
_chemical_formula_structural   MgZnH12(CO3)4
_chemical_formula_sum   'Mg2 Zn2 H24 C8 O24'
_cell_volume   598.85979364
_cell_formula_units_Z   2
loop_
 _symmetry_equiv_pos_site_id
 _symmetry_equiv_pos_as_xyz
  1  'x, y, z'
loop_
 _atom_site_type_symbol
 _atom_site_label
 _atom_site_symmetry_multiplicity
 _atom_site_fract_x
 _atom_site_fract_y
 _atom_site_fract_z
 _atom_site_occupancy
  Mg  Mg0  1  0.50000000  0.50000000  0.00000000  1
  Mg  Mg1  1  -0.00000000  0.50000000  0.50000000  1
  Zn  Zn2  1  -0.00000000  0.00000000  0.00000000  1
  Zn  Zn3  1  0.50000000  0.00000000  0.50000000  1
  H  H4  1  0.09813952  0.80358402  0.76452344  1
  H  H5  1  0.59813952  0.19641598  0.73547656  1
  H  H6  1  0.90186048  0.19641598  0.23547656  1
  H  H7  1  0.40186048  0.80358402  0.26452344  1
  H  H8  1  0.48133264  0.82596942  0.89610525  1
  H  H9  1  0.98133264  0.17403058  0.60389475  1
  H  H10  1  0.51866736  0.17403058  0.10389475  1
  H  H11  1  0.01866736  0.82596942  0.39610525  1
  H  H12  1  0.90375618  0.73647470  0.04829885  1
  H  H13  1  0.40375618  0.26352530  0.45170115  1
  H  H14  1  0.09624382  0.26352530  0.95170115  1
  H  H15  1  0.59624382  0.73647470  0.54829885  1
  H  H16  1  0.79142514  0.56984849  0.77578690  1
  H  H17  1  0.29142514  0.43015151  0.72421310  1
  H  H18  1  0.20857486  0.43015151  0.22421310  1
  H  H19  1  0.70857486  0.56984849  0.27578690  1
  H  H20  1  0.11702612  0.71686212  0.00974062  1
  H  H21  1  0.61702612  0.28313788  0.49025938  1
  H  H22  1  0.88297388  0.28313788  0.99025938  1
  H  H23  1  0.38297388  0.71686212  0.50974062  1
  H  H24  1  0.14598835  0.97143345  0.72380975  1
  H  H25  1  0.64598835  0.02856655  0.77619025  1
  H  H26  1  0.85401165  0.02856655  0.27619025  1
  H  H27  1  0.35401165  0.97143345  0.22380975  1
  C  C28  1  0.72684911  0.46201867  0.72649089  1
  C  C29  1  0.22684911  0.53798133  0.77350911  1
  C  C30  1  0.27315089  0.53798133  0.27350911  1
  C  C31  1  0.77315089  0.46201867  0.22649089  1
  C  C32  1  0.62186005  0.82158192  0.93962966  1
  C  C33  1  0.12186005  0.17841808  0.56037034  1
  C  C34  1  0.37813995  0.17841808  0.06037034  1
  C  C35  1  0.87813995  0.82158192  0.43962966  1
  O  O36  1  0.66552690  0.70464207  0.99955396  1
  O  O37  1  0.16552690  0.29535793  0.50044604  1
  O  O38  1  0.33447310  0.29535793  0.00044604  1
  O  O39  1  0.83447310  0.70464207  0.49955396  1
  O  O40  1  0.77755436  0.40802491  0.60085075  1
  O  O41  1  0.27755436  0.59197509  0.89914925  1
  O  O42  1  0.22244564  0.59197509  0.39914925  1
  O  O43  1  0.72244564  0.40802491  0.10085075  1
  O  O44  1  0.60767848  0.40068141  0.79880792  1
  O  O45  1  0.10767848  0.59931859  0.70119208  1
  O  O46  1  0.39232152  0.59931859  0.20119208  1
  O  O47  1  0.89232152  0.40068141  0.29880792  1
  O  O48  1  0.02767659  0.78116610  0.07029277  1
  O  O49  1  0.52767659  0.21883390  0.42970723  1
  O  O50  1  0.97232341  0.21883390  0.92970723  1
  O  O51  1  0.47232341  0.78116610  0.57029277  1
  O  O52  1  0.72554627  0.93359192  0.92319490  1
  O  O53  1  0.22554627  0.06640808  0.57680510  1
  O  O54  1  0.27445373  0.06640808  0.07680510  1
  O  O55  1  0.77445373  0.93359192  0.42319490  1
  O  O56  1  0.10543740  0.91409677  0.80171429  1
  O  O57  1  0.60543740  0.08590323  0.69828571  1
  O  O58  1  0.89456260  0.08590323  0.19828571  1
  O  O59  1  0.39456260  0.91409677  0.30171429  1
