# generated using pymatgen
data_Mg3ZnH24(CO3)8
_symmetry_space_group_name_H-M   'P 1'
_cell_length_a   7.30318433
_cell_length_b   8.84186730
_cell_length_c   9.49290602
_cell_angle_alpha   97.47244763
_cell_angle_beta   89.91078591
_cell_angle_gamma   89.93489902
_symmetry_Int_Tables_number   1
_chemical_formula_structural   Mg3ZnH24(CO3)8
_chemical_formula_sum   'Mg3 Zn1 H24 C8 O24'
_cell_volume   607.78576457
_cell_formula_units_Z   1
loop_
 _symmetry_equiv_pos_site_id
 _symmetry_equiv_pos_as_xyz
  1  'x, y, z'
loop_
 _atom_site_type_symbol
 _atom_site_label
 _atom_site_symmetry_multiplicity
 _atom_site_fract_x
 _atom_site_fract_y
 _atom_site_fract_z
 _atom_site_occupancy
  Mg  Mg0  1  0.50000000  -0.00000000  0.50000000  1
  Mg  Mg1  1  0.50000000  0.50000000  -0.00000000  1
  Mg  Mg2  1  0.00000000  0.50000000  0.50000000  1
  Zn  Zn3  1  0.00000000  -0.00000000  -0.00000000  1
  H  H4  1  0.79700703  0.56743354  0.77675103  1
  H  H5  1  0.29699476  0.43257038  0.72332877  1
  H  H6  1  0.20299297  0.43256646  0.22324897  1
  H  H7  1  0.70300524  0.56742962  0.27667123  1
  H  H8  1  0.90239342  0.73908574  0.04962289  1
  H  H9  1  0.40294031  0.26182007  0.44961183  1
  H  H10  1  0.09760658  0.26091426  0.95037711  1
  H  H11  1  0.59705969  0.73817993  0.55038817  1
  H  H12  1  0.11498015  0.71691341  0.01077020  1
  H  H13  1  0.61518751  0.28457532  0.48780578  1
  H  H14  1  0.88501985  0.28308659  0.98922980  1
  H  H15  1  0.38481249  0.71542468  0.51219422  1
  H  H16  1  0.14707011  0.97217662  0.72579507  1
  H  H17  1  0.64718164  0.02832579  0.77333735  1
  H  H18  1  0.85292989  0.02782338  0.27420493  1
  H  H19  1  0.35281836  0.97167421  0.22666265  1
  H  H20  1  0.48210211  0.82715567  0.89800156  1
  H  H21  1  0.98335526  0.17136955  0.60244261  1
  H  H22  1  0.51789789  0.17284433  0.10199844  1
  H  H23  1  0.01664474  0.82863045  0.39755739  1
  H  H24  1  0.10060691  0.80601106  0.76723345  1
  H  H25  1  0.60109541  0.19284297  0.73154802  1
  H  H26  1  0.89939309  0.19398894  0.23276655  1
  H  H27  1  0.39890459  0.80715703  0.26845198  1
  C  C28  1  0.72951946  0.46225673  0.72734396  1
  C  C29  1  0.22944633  0.53793672  0.77278403  1
  C  C30  1  0.27048054  0.53774327  0.27265604  1
  C  C31  1  0.77055367  0.46206328  0.22721597  1
  C  C32  1  0.62226248  0.82205441  0.94048505  1
  C  C33  1  0.12297994  0.17776989  0.55921587  1
  C  C34  1  0.37773752  0.17794559  0.05951495  1
  C  C35  1  0.87702006  0.82223011  0.44078413  1
  O  O36  1  0.77762733  0.41007137  0.60144213  1
  O  O37  1  0.27753647  0.59027874  0.89859232  1
  O  O38  1  0.22237267  0.58992863  0.39855787  1
  O  O39  1  0.72246353  0.40972126  0.10140768  1
  O  O40  1  0.60997912  0.40148887  0.79978288  1
  O  O41  1  0.11007823  0.59892059  0.70056644  1
  O  O42  1  0.39002088  0.59851113  0.20021712  1
  O  O43  1  0.88992177  0.40107941  0.29943356  1
  O  O44  1  0.02685236  0.78224067  0.07065743  1
  O  O45  1  0.52664348  0.21582900  0.43269611  1
  O  O46  1  0.97314764  0.21775933  0.92934257  1
  O  O47  1  0.47335652  0.78417100  0.56730389  1
  O  O48  1  0.72704337  0.93273839  0.92431454  1
  O  O49  1  0.23080104  0.06847548  0.57318822  1
  O  O50  1  0.27295663  0.06726161  0.07568546  1
  O  O51  1  0.76919896  0.93152452  0.42681178  1
  O  O52  1  0.10611041  0.91559025  0.80343038  1
  O  O53  1  0.60319458  0.08319992  0.69550733  1
  O  O54  1  0.89388959  0.08440975  0.19656962  1
  O  O55  1  0.39680542  0.91680008  0.30449267  1
  O  O56  1  0.66417307  0.70504704  -0.00010276  1
  O  O57  1  0.16243807  0.29586431  0.50019669  1
  O  O58  1  0.33582693  0.29495296  0.00010276  1
  O  O59  1  0.83756193  0.70413569  0.49980331  1
