# generated using pymatgen
data_Mn23As16
_symmetry_space_group_name_H-M   'P 1'
_cell_length_a   6.71900106
_cell_length_b   7.01454328
_cell_length_c   12.85376935
_cell_angle_alpha   82.15619974
_cell_angle_beta   82.28007373
_cell_angle_gamma   104.92936229
_symmetry_Int_Tables_number   1
_chemical_formula_structural   Mn23As16
_chemical_formula_sum   'Mn23 As16'
_cell_volume   570.71828826
_cell_formula_units_Z   1
loop_
 _symmetry_equiv_pos_site_id
 _symmetry_equiv_pos_as_xyz
  1  'x, y, z'
loop_
 _atom_site_type_symbol
 _atom_site_label
 _atom_site_symmetry_multiplicity
 _atom_site_fract_x
 _atom_site_fract_y
 _atom_site_fract_z
 _atom_site_occupancy
  Mn  Mn0  1  0.86445368  0.06706264  0.59690157  1
  Mn  Mn1  1  0.86991207  0.56776250  0.59263165  1
  Mn  Mn2  1  0.12948002  0.93187829  0.40781724  1
  Mn  Mn3  1  0.12975708  0.43171106  0.40876790  1
  Mn  Mn4  1  0.85861903  0.77275015  0.76706088  1
  Mn  Mn5  1  0.86125997  0.27349011  0.76708020  1
  Mn  Mn6  1  0.14512294  0.23035543  0.23221732  1
  Mn  Mn7  1  0.14603129  0.72704281  0.23075856  1
  Mn  Mn8  1  0.21139567  0.12220037  0.71998405  1
  Mn  Mn9  1  0.20903647  0.62062643  0.72004519  1
  Mn  Mn10  1  0.77608412  0.87420688  0.28268971  1
  Mn  Mn11  1  0.77726577  0.37385104  0.28324380  1
  Mn  Mn12  1  0.50453813  0.99854973  0.51029552  1
  Mn  Mn13  1  0.50313642  0.50161017  0.50357935  1
  Mn  Mn14  1  0.42923069  0.61896778  0.90247824  1
  Mn  Mn15  1  0.43017801  0.14419541  0.90418480  1
  Mn  Mn16  1  0.57798921  0.37331814  0.08253524  1
  Mn  Mn17  1  0.57526045  0.87078926  0.08752936  1
  Mn  Mn18  1  0.99563906  0.49817756  0.99953912  1
  Mn  Mn19  1  0.99738699  0.00010478  0.99885818  1
  Mn  Mn20  1  0.52416540  0.94284554  0.75240781  1
  Mn  Mn21  1  0.47681432  0.55641047  0.24577962  1
  Mn  Mn22  1  0.47617148  0.05999640  0.24496709  1
  As  As23  1  0.86997764  0.11717163  0.40565865  1
  As  As24  1  0.87293227  0.61803796  0.40307665  1
  As  As25  1  0.12925625  0.88312091  0.59642318  1
  As  As26  1  0.13146941  0.38139842  0.59698832  1
  As  As27  1  0.40313400  0.25644749  0.37555551  1
  As  As28  1  0.40304706  0.75885283  0.37469166  1
  As  As29  1  0.59159131  0.72658329  0.63677626  1
  As  As30  1  0.59270783  0.25114613  0.63756606  1
  As  As31  1  0.17462289  0.82729329  0.86446845  1
  As  As32  1  0.17334687  0.32802832  0.86359600  1
  As  As33  1  0.82547910  0.17386238  0.13370926  1
  As  As34  1  0.82499983  0.67092357  0.13395563  1
  As  As35  1  0.70281511  0.95191546  0.89840180  1
  As  As36  1  0.70973442  0.45372743  0.89133972  1
  As  As37  1  0.29584155  0.05090034  0.09675689  1
  As  As38  1  0.29869620  0.54829763  0.09582357  1
