# generated using pymatgen
data_MgSb2
_symmetry_space_group_name_H-M   'P 1'
_cell_length_a   3.22191805
_cell_length_b   6.49506037
_cell_length_c   8.23015107
_cell_angle_alpha   79.49279497
_cell_angle_beta   90.00000002
_cell_angle_gamma   104.36086012
_symmetry_Int_Tables_number   1
_chemical_formula_structural   MgSb2
_chemical_formula_sum   'Mg2 Sb4'
_cell_volume   163.86427365
_cell_formula_units_Z   2
loop_
 _symmetry_equiv_pos_site_id
 _symmetry_equiv_pos_as_xyz
  1  'x, y, z'
loop_
 _atom_site_type_symbol
 _atom_site_label
 _atom_site_symmetry_multiplicity
 _atom_site_fract_x
 _atom_site_fract_y
 _atom_site_fract_z
 _atom_site_occupancy
  Mg  Mg0  1  0.39555012  0.79110124  0.68755576  1
  Mg  Mg1  1  0.66000488  0.32000976  0.70133324  1
  Sb  Sb2  1  0.78937056  0.57874013  0.98395289  1
  Sb  Sb3  1  0.02647617  0.05295133  0.98520697  1
  Sb  Sb4  1  0.02908083  0.05816167  0.40368203  1
  Sb  Sb5  1  0.26618544  0.53237187  0.40493511  1
