# generated using pymatgen
data_LiTa6O15
_symmetry_space_group_name_H-M   'P 1'
_cell_length_a   3.88527458
_cell_length_b   9.06232010
_cell_length_c   17.03378822
_cell_angle_alpha   90.00000000
_cell_angle_beta   90.00000000
_cell_angle_gamma   90.00000000
_symmetry_Int_Tables_number   1
_chemical_formula_structural   LiTa6O15
_chemical_formula_sum   'Li2 Ta12 O30'
_cell_volume   599.75290242
_cell_formula_units_Z   2
loop_
 _symmetry_equiv_pos_site_id
 _symmetry_equiv_pos_as_xyz
  1  'x, y, z'
loop_
 _atom_site_type_symbol
 _atom_site_label
 _atom_site_symmetry_multiplicity
 _atom_site_fract_x
 _atom_site_fract_y
 _atom_site_fract_z
 _atom_site_occupancy
  Li  Li0  1  0.50000000  0.04707664  0.38269264  1
  Li  Li1  1  0.50000000  0.95292336  0.88269264  1
  Ta  Ta2  1  0.00000000  0.80206405  0.43959749  1
  Ta  Ta3  1  0.00000000  0.17917998  0.55616532  1
  Ta  Ta4  1  -0.00000000  0.82082002  0.05616532  1
  Ta  Ta5  1  0.00000000  0.19793595  0.93959749  1
  Ta  Ta6  1  -0.00000000  0.68861074  0.25155920  1
  Ta  Ta7  1  -0.00000000  0.31138926  0.75155920  1
  Ta  Ta8  1  0.00000000  0.05269273  0.24490513  1
  Ta  Ta9  1  0.00000000  0.94730727  0.74490513  1
  Ta  Ta10  1  -0.00000000  0.38860791  0.36959833  1
  Ta  Ta11  1  -0.00000000  0.59493796  0.63283373  1
  Ta  Ta12  1  0.00000000  0.40506204  0.13283373  1
  Ta  Ta13  1  -0.00000000  0.61139209  0.86959833  1
  O  O14  1  0.00000000  0.32959084  0.47755531  1
  O  O15  1  -0.00000000  0.65874120  0.52619474  1
  O  O16  1  -0.00000000  0.34125880  0.02619474  1
  O  O17  1  -0.00000000  0.67040916  0.97755531  1
  O  O18  1  0.50000000  0.82961319  0.43788851  1
  O  O19  1  0.50000000  0.17360530  0.56368478  1
  O  O20  1  0.50000000  0.82639470  0.06368478  1
  O  O21  1  0.50000000  0.17038681  0.93788851  1
  O  O22  1  0.50000000  0.68844858  0.24790341  1
  O  O23  1  0.50000000  0.31155142  0.74790341  1
  O  O24  1  0.00000000  0.18270035  0.33792983  1
  O  O25  1  -0.00000000  0.79821038  0.66590816  1
  O  O26  1  0.00000000  0.20178962  0.16590816  1
  O  O27  1  -0.00000000  0.81729965  0.83792983  1
  O  O28  1  -0.00000000  0.45563689  0.24743871  1
  O  O29  1  0.00000000  0.54436311  0.74743871  1
  O  O30  1  0.00000000  0.61924471  0.36877513  1
  O  O31  1  -0.00000000  0.38281794  0.62987627  1
  O  O32  1  -0.00000000  0.61718206  0.12987627  1
  O  O33  1  0.00000000  0.38075529  0.86877513  1
  O  O34  1  -0.00000000  0.87560880  0.32576970  1
  O  O35  1  0.00000000  0.12433228  0.67539448  1
  O  O36  1  -0.00000000  0.87566772  0.17539448  1
  O  O37  1  -0.00000000  0.12439120  0.82576970  1
  O  O38  1  0.50000000  0.05078742  0.25785997  1
  O  O39  1  0.50000000  0.94921258  0.75785997  1
  O  O40  1  -0.00000000  0.00374103  0.49029618  1
  O  O41  1  0.00000000  0.99625897  0.99029618  1
  O  O42  1  0.50000000  0.40248362  0.36617297  1
  O  O43  1  0.50000000  0.59751638  0.86617297  1
