# generated using pymatgen
data_Ni12Mo18P7
_symmetry_space_group_name_H-M   'P 1'
_cell_length_a   7.74028242
_cell_length_b   7.74028242
_cell_length_c   18.83604730
_cell_angle_alpha   90.00000000
_cell_angle_beta   90.00000000
_cell_angle_gamma   120.00000000
_symmetry_Int_Tables_number   1
_chemical_formula_structural   Ni12Mo18P7
_chemical_formula_sum   'Ni24 Mo36 P14'
_cell_volume   977.31377179
_cell_formula_units_Z   2
loop_
 _symmetry_equiv_pos_site_id
 _symmetry_equiv_pos_as_xyz
  1  'x, y, z'
loop_
 _atom_site_type_symbol
 _atom_site_label
 _atom_site_symmetry_multiplicity
 _atom_site_fract_x
 _atom_site_fract_y
 _atom_site_fract_z
 _atom_site_occupancy
  Ni  Ni0  1  0.55732659  0.11465317  0.85690643  1
  Ni  Ni1  1  0.22494512  0.44988924  0.19373460  1
  Ni  Ni2  1  0.89321067  0.78642234  0.52993469  1
  Ni  Ni3  1  0.88534683  0.44267341  0.85690643  1
  Ni  Ni4  1  0.55011076  0.77505488  0.19373460  1
  Ni  Ni5  1  0.21357766  0.10678933  0.52993469  1
  Ni  Ni6  1  0.66666700  0.33333300  0.75361115  1
  Ni  Ni7  1  0.33333300  0.66666700  0.08489251  1
  Ni  Ni8  1  0.00000000  -0.00000000  0.42020679  1
  Ni  Ni9  1  0.55732659  0.44267341  0.85690643  1
  Ni  Ni10  1  0.22494512  0.77505488  0.19373460  1
  Ni  Ni11  1  0.89321067  0.10678933  0.52993469  1
  Ni  Ni12  1  0.10715444  0.21430787  0.72352972  1
  Ni  Ni13  1  0.77506713  0.55013525  0.05576722  1
  Ni  Ni14  1  0.44204378  0.88408755  0.39025624  1
  Ni  Ni15  1  0.78569213  0.89284556  0.72352972  1
  Ni  Ni16  1  0.44986475  0.22493287  0.05576722  1
  Ni  Ni17  1  0.11591245  0.55795622  0.39025624  1
  Ni  Ni18  1  0.00000000  -0.00000000  0.83071996  1
  Ni  Ni19  1  0.66666700  0.33333300  0.16472988  1
  Ni  Ni20  1  0.33333300  0.66666700  0.49595524  1
  Ni  Ni21  1  0.10715444  0.89284556  0.72352972  1
  Ni  Ni22  1  0.77506713  0.22493287  0.05576722  1
  Ni  Ni23  1  0.44204378  0.55795622  0.39025624  1
  Mo  Mo24  1  0.85899584  0.71799068  0.92817414  1
  Mo  Mo25  1  0.52620294  0.05240688  0.26359739  1
  Mo  Mo26  1  0.21162633  0.42325266  0.60610795  1
  Mo  Mo27  1  0.45508716  0.54491284  0.72482328  1
  Mo  Mo28  1  0.13958971  0.86041029  0.06945076  1
  Mo  Mo29  1  0.80840838  0.19159162  0.40375707  1
  Mo  Mo30  1  0.28200932  0.14100416  0.92817414  1
  Mo  Mo31  1  0.94759312  0.47379706  0.26359739  1
  Mo  Mo32  1  0.57674734  0.78837367  0.60610795  1
  Mo  Mo33  1  0.45508716  0.91017333  0.72482328  1
  Mo  Mo34  1  0.13958971  0.27918043  0.06945076  1
  Mo  Mo35  1  0.80840838  0.61681675  0.40375707  1
  Mo  Mo36  1  0.85899584  0.14100416  0.92817414  1
  Mo  Mo37  1  0.52620294  0.47379706  0.26359739  1
  Mo  Mo38  1  0.21162633  0.78837367  0.60610795  1
  Mo  Mo39  1  0.08982667  0.54491284  0.72482328  1
  Mo  Mo40  1  0.72081957  0.86041029  0.06945076  1
  Mo  Mo41  1  0.38318325  0.19159162  0.40375707  1
  Mo  Mo42  1  0.23736048  0.11868074  0.19099163  1
  Mo  Mo43  1  0.90992919  0.45496459  0.52762324  1
  Mo  Mo44  1  0.57090116  0.78545008  0.85533322  1
  Mo  Mo45  1  0.88131926  0.76263952  0.19099163  1
  Mo  Mo46  1  0.54503541  0.09007081  0.52762324  1
  Mo  Mo47  1  0.21454992  0.42909884  0.85533322  1
  Mo  Mo48  1  0.11950138  0.88049862  0.31030579  1
  Mo  Mo49  1  0.78666015  0.21333985  0.64466790  1
  Mo  Mo50  1  0.45343669  0.54656331  0.97468702  1
  Mo  Mo51  1  0.11950138  0.23900176  0.31030579  1
  Mo  Mo52  1  0.78666015  0.57332129  0.64466790  1
  Mo  Mo53  1  0.45343669  0.90687339  0.97468702  1
  Mo  Mo54  1  0.88131926  0.11868074  0.19099163  1
  Mo  Mo55  1  0.54503541  0.45496459  0.52762324  1
  Mo  Mo56  1  0.21454992  0.78545008  0.85533322  1
  Mo  Mo57  1  0.76099824  0.88049862  0.31030579  1
  Mo  Mo58  1  0.42667871  0.21333985  0.64466790  1
  Mo  Mo59  1  0.09312661  0.54656331  0.97468702  1
  P  P60  1  0.83297574  0.16702426  0.78821035  1
  P  P61  1  0.50167958  0.49832042  0.12418037  1
  P  P62  1  0.16798869  0.83201131  0.46213710  1
  P  P63  1  0.83297574  0.66595248  0.78821035  1
  P  P64  1  0.50167958  0.00335917  0.12418037  1
  P  P65  1  0.16798869  0.33597637  0.46213710  1
  P  P66  1  0.66666700  0.33333300  0.95727235  1
  P  P67  1  0.33333300  0.66666700  0.29393408  1
  P  P68  1  -0.00000000  -0.00000000  0.62672956  1
  P  P69  1  0.33404752  0.16702426  0.78821035  1
  P  P70  1  0.99664083  0.49832042  0.12418037  1
  P  P71  1  0.66402363  0.83201131  0.46213710  1
  P  P72  1  0.00000000  -0.00000000  0.99817798  1
  P  P73  1  0.66666700  0.33333300  0.33457520  1
