# generated using pymatgen
data_Mn2N
_symmetry_space_group_name_H-M   'P 1'
_cell_length_a   2.82432643
_cell_length_b   2.82432643
_cell_length_c   4.40166481
_cell_angle_alpha   89.99114437
_cell_angle_beta   90.00885563
_cell_angle_gamma   120.00258961
_symmetry_Int_Tables_number   1
_chemical_formula_structural   Mn2N
_chemical_formula_sum   'Mn2 N1'
_cell_volume   30.40647246
_cell_formula_units_Z   1
loop_
 _symmetry_equiv_pos_site_id
 _symmetry_equiv_pos_as_xyz
  1  'x, y, z'
loop_
 _atom_site_type_symbol
 _atom_site_label
 _atom_site_symmetry_multiplicity
 _atom_site_fract_x
 _atom_site_fract_y
 _atom_site_fract_z
 _atom_site_occupancy
  Mn  Mn0  1  0.66669060  0.33330940  0.75483895  1
  Mn  Mn1  1  0.33330940  0.66669060  0.24516105  1
  N  N2  1  -0.00000000  0.00000000  0.50000000  1
