# generated using pymatgen
data_LiZr4(NCl)4
_symmetry_space_group_name_H-M   'P 1'
_cell_length_a   3.68177396
_cell_length_b   3.68177396
_cell_length_c   19.43606991
_cell_angle_alpha   95.43491465
_cell_angle_beta   95.43491465
_cell_angle_gamma   59.99999680
_symmetry_Int_Tables_number   1
_chemical_formula_structural   LiZr4(NCl)4
_chemical_formula_sum   'Li1 Zr4 N4 Cl4'
_cell_volume   226.79856677
_cell_formula_units_Z   1
loop_
 _symmetry_equiv_pos_site_id
 _symmetry_equiv_pos_as_xyz
  1  'x, y, z'
loop_
 _atom_site_type_symbol
 _atom_site_label
 _atom_site_symmetry_multiplicity
 _atom_site_fract_x
 _atom_site_fract_y
 _atom_site_fract_z
 _atom_site_occupancy
  Li  Li0  1  -0.00000000  -0.00000000  -0.00000000  1
  Zr  Zr1  1  0.39705080  0.39705080  0.19115241  1
  Zr  Zr2  1  0.89343230  0.89343230  0.68029689  1
  Zr  Zr3  1  0.10656770  0.10656770  0.31970311  1
  Zr  Zr4  1  0.60294920  0.60294920  0.80884759  1
  N  N5  1  0.43301849  0.43301849  0.29905546  1
  N  N6  1  0.93229113  0.93229113  0.79687338  1
  N  N7  1  0.06770887  0.06770887  0.20312662  1
  N  N8  1  0.56698151  0.56698151  0.70094454  1
  Cl  Cl9  1  0.80449407  0.80449407  0.41348220  1
  Cl  Cl10  1  0.30873309  0.30873309  0.92619927  1
  Cl  Cl11  1  0.69126691  0.69126691  0.07380073  1
  Cl  Cl12  1  0.19550593  0.19550593  0.58651780  1
