# generated using pymatgen
data_La(Ho2C5)2
_symmetry_space_group_name_H-M   'P 1'
_cell_length_a   4.09321143
_cell_length_b   10.37236988
_cell_length_c   5.26636185
_cell_angle_alpha   104.70633349
_cell_angle_beta   90.00000003
_cell_angle_gamma   91.56998610
_symmetry_Int_Tables_number   1
_chemical_formula_structural   La(Ho2C5)2
_chemical_formula_sum   'La1 Ho4 C10'
_cell_volume   216.17859076
_cell_formula_units_Z   1
loop_
 _symmetry_equiv_pos_site_id
 _symmetry_equiv_pos_as_xyz
  1  'x, y, z'
loop_
 _atom_site_type_symbol
 _atom_site_label
 _atom_site_symmetry_multiplicity
 _atom_site_fract_x
 _atom_site_fract_y
 _atom_site_fract_z
 _atom_site_occupancy
  La  La0  1  -0.00000000  -0.00000000  -0.00000000  1
  Ho  Ho1  1  0.59692561  0.20000354  0.60000177  1
  Ho  Ho2  1  0.20590774  0.40288874  0.20144437  1
  Ho  Ho3  1  0.79409226  0.59711126  0.79855563  1
  Ho  Ho4  1  0.40307439  0.79999646  0.39999823  1
  C  C5  1  0.48035069  0.17343006  0.08671503  1
  C  C6  1  0.07201523  0.35804835  0.67902418  1
  C  C7  1  0.67509544  0.55994839  0.27997419  1
  C  C8  1  0.26876795  0.74365505  0.87182752  1
  C  C9  1  0.87378066  0.95824043  0.47912022  1
  C  C10  1  0.12621934  0.04175957  0.52087978  1
  C  C11  1  0.73123205  0.25634495  0.12817248  1
  C  C12  1  0.32490456  0.44005161  0.72002581  1
  C  C13  1  0.92798477  0.64195165  0.32097582  1
  C  C14  1  0.51964931  0.82656994  0.91328497  1
