# generated using pymatgen
data_LaU3Al8
_symmetry_space_group_name_H-M   'P 1'
_cell_length_a   5.55546881
_cell_length_b   5.55546881
_cell_length_c   9.40798956
_cell_angle_alpha   72.82730847
_cell_angle_beta   90.00000000
_cell_angle_gamma   120.00000000
_symmetry_Int_Tables_number   1
_chemical_formula_structural   LaU3Al8
_chemical_formula_sum   'La1 U3 Al8'
_cell_volume   236.39482738
_cell_formula_units_Z   1
loop_
 _symmetry_equiv_pos_site_id
 _symmetry_equiv_pos_as_xyz
  1  'x, y, z'
loop_
 _atom_site_type_symbol
 _atom_site_label
 _atom_site_symmetry_multiplicity
 _atom_site_fract_x
 _atom_site_fract_y
 _atom_site_fract_z
 _atom_site_occupancy
  La  La0  1  0.87714698  0.75429396  0.36855906  1
  U  U1  1  0.38787865  0.77575730  0.83636406  1
  U  U2  1  0.00069043  0.00138086  0.99792871  1
  U  U3  1  0.48230770  0.96461540  0.55307689  1
  Al  Al4  1  0.43891919  0.38073228  0.18034853  1
  Al  Al5  1  0.93693058  0.37084748  0.69222194  1
  Al  Al6  1  0.43891919  0.87783837  0.18034853  1
  Al  Al7  1  0.93693058  0.87386117  0.69222194  1
  Al  Al8  1  0.18664568  0.37329136  0.44006297  1
  Al  Al9  1  0.68790103  0.37580207  0.93629690  1
  Al  Al10  1  0.94181310  0.38073228  0.18034853  1
  Al  Al11  1  0.43391690  0.37084748  0.69222194  1
