# generated using pymatgen
data_K8Sb2Te
_symmetry_space_group_name_H-M   'P 1'
_cell_length_a   8.42287698
_cell_length_b   10.35621384
_cell_length_c   8.42287698
_cell_angle_alpha   113.99507552
_cell_angle_beta   90.00000000
_cell_angle_gamma   66.00492448
_symmetry_Int_Tables_number   1
_chemical_formula_structural   K8Sb2Te
_chemical_formula_sum   'K8 Sb2 Te1'
_cell_volume   601.06137530
_cell_formula_units_Z   1
loop_
 _symmetry_equiv_pos_site_id
 _symmetry_equiv_pos_as_xyz
  1  'x, y, z'
loop_
 _atom_site_type_symbol
 _atom_site_label
 _atom_site_symmetry_multiplicity
 _atom_site_fract_x
 _atom_site_fract_y
 _atom_site_fract_z
 _atom_site_occupancy
  K  K0  1  0.34812171  0.76746866  0.15486130  1
  K  K1  1  0.15486130  0.23253134  0.88440963  1
  K  K2  1  0.88440963  0.76746866  0.61260736  1
  K  K3  1  0.61260736  0.23253134  0.34812171  1
  K  K4  1  0.61260736  0.23253134  0.88440963  1
  K  K5  1  0.34812171  0.76746866  0.61260736  1
  K  K6  1  0.15486130  0.23253134  0.34812171  1
  K  K7  1  0.88440963  0.76746866  0.15486130  1
  Sb  Sb8  1  0.50000000  0.00000000  0.50000000  1
  Sb  Sb9  1  0.25000000  0.50000000  0.25000000  1
  Te  Te10  1  -0.00000000  -0.00000000  -0.00000000  1
