# generated using pymatgen
data_La4S7
_symmetry_space_group_name_H-M   'P 1'
_cell_length_a   5.76862321
_cell_length_b   5.76862321
_cell_length_c   9.02767602
_cell_angle_alpha   71.36751715
_cell_angle_beta   71.36751715
_cell_angle_gamma   90.00000000
_symmetry_Int_Tables_number   1
_chemical_formula_structural   La4S7
_chemical_formula_sum   'La4 S7'
_cell_volume   267.99966402
_cell_formula_units_Z   1
loop_
 _symmetry_equiv_pos_site_id
 _symmetry_equiv_pos_as_xyz
  1  'x, y, z'
loop_
 _atom_site_type_symbol
 _atom_site_label
 _atom_site_symmetry_multiplicity
 _atom_site_fract_x
 _atom_site_fract_y
 _atom_site_fract_z
 _atom_site_occupancy
  La  La0  1  0.38003379  0.38003379  0.72903099  1
  La  La1  1  0.89093522  0.89093522  0.72903099  1
  La  La2  1  0.10906478  0.61996621  0.27096901  1
  La  La3  1  0.61996621  0.10906478  0.27096901  1
  S  S4  1  0.07693666  0.07693666  0.36110310  1
  S  S5  1  0.56196023  0.56196023  0.36110310  1
  S  S6  1  0.43803977  0.92306334  0.63889690  1
  S  S7  1  0.92306334  0.43803977  0.63889690  1
  S  S8  1  0.50000000  -0.00000000  0.00000000  1
  S  S9  1  -0.00000000  0.50000000  0.00000000  1
  S  S10  1  -0.00000000  -0.00000000  0.00000000  1
