# generated using pymatgen
data_LaNdCuO4
_symmetry_space_group_name_H-M   'P 1'
_cell_length_a   5.34291756
_cell_length_b   5.42239457
_cell_length_c   7.02376336
_cell_angle_alpha   89.75430834
_cell_angle_beta   67.64489706
_cell_angle_gamma   90.00000000
_symmetry_Int_Tables_number   1
_chemical_formula_structural   LaNdCuO4
_chemical_formula_sum   'La2 Nd2 Cu2 O8'
_cell_volume   188.19299075
_cell_formula_units_Z   2
loop_
 _symmetry_equiv_pos_site_id
 _symmetry_equiv_pos_as_xyz
  1  'x, y, z'
loop_
 _atom_site_type_symbol
 _atom_site_label
 _atom_site_symmetry_multiplicity
 _atom_site_fract_x
 _atom_site_fract_y
 _atom_site_fract_z
 _atom_site_occupancy
  La  La0  1  0.13971156  0.49039520  0.72057688  1
  La  La1  1  0.86028844  0.50960480  0.27942312  1
  Nd  Nd2  1  0.36289915  0.98643603  0.27420169  1
  Nd  Nd3  1  0.63710085  0.01356397  0.72579831  1
  Cu  Cu4  1  0.00000000  0.00000000  0.00000000  1
  Cu  Cu5  1  0.50000000  0.50000000  0.00000000  1
  O  O6  1  0.24413402  0.24606759  0.01719751  1
  O  O7  1  0.26133153  0.75393241  0.98280249  1
  O  O8  1  0.75586598  0.75393241  0.98280249  1
  O  O9  1  0.73866847  0.24606759  0.01719751  1
  O  O10  1  0.18643181  0.03846371  0.62713638  1
  O  O11  1  0.81356819  0.96153629  0.37286362  1
  O  O12  1  0.31539694  0.54291791  0.36920611  1
  O  O13  1  0.68460306  0.45708209  0.63079389  1
