# generated using pymatgen
data_InGaN2
_symmetry_space_group_name_H-M   'P 1'
_cell_length_a   3.39928785
_cell_length_b   3.39928785
_cell_length_c   5.55161312
_cell_angle_alpha   89.99940606
_cell_angle_beta   90.00059394
_cell_angle_gamma   120.00075223
_symmetry_Int_Tables_number   1
_chemical_formula_structural   InGaN2
_chemical_formula_sum   'In1 Ga1 N2'
_cell_volume   55.55490600
_cell_formula_units_Z   1
loop_
 _symmetry_equiv_pos_site_id
 _symmetry_equiv_pos_as_xyz
  1  'x, y, z'
loop_
 _atom_site_type_symbol
 _atom_site_label
 _atom_site_symmetry_multiplicity
 _atom_site_fract_x
 _atom_site_fract_y
 _atom_site_fract_z
 _atom_site_occupancy
  In  In0  1  0.66668607  0.33331393  0.99840220  1
  Ga  Ga1  1  0.33332384  0.66667616  0.49535586  1
  N  N2  1  0.33332636  0.66667364  0.14561746  1
  N  N3  1  0.66666372  0.33333628  0.60222448  1
