# generated using pymatgen
data_V4WC5
_symmetry_space_group_name_H-M   'P 1'
_cell_length_a   2.97192937
_cell_length_b   2.97192937
_cell_length_c   12.30170602
_cell_angle_alpha   96.93789315
_cell_angle_beta   83.06210685
_cell_angle_gamma   120.00000000
_symmetry_Int_Tables_number   1
_chemical_formula_structural   V4WC5
_chemical_formula_sum   'V4 W1 C5'
_cell_volume   93.17658084
_cell_formula_units_Z   1
loop_
 _symmetry_equiv_pos_site_id
 _symmetry_equiv_pos_as_xyz
  1  'x, y, z'
loop_
 _atom_site_type_symbol
 _atom_site_label
 _atom_site_symmetry_multiplicity
 _atom_site_fract_x
 _atom_site_fract_y
 _atom_site_fract_z
 _atom_site_occupancy
  V  V0  1  0.89768331  0.10231669  0.30695006  1
  V  V1  1  0.49971200  0.50028800  0.50086401  1
  V  V2  1  0.10028800  0.89971200  0.69913599  1
  V  V3  1  0.70231669  0.29768331  0.89304994  1
  W  W4  1  0.30000000  0.70000000  0.10000000  1
  C  C5  1  0.40118164  0.59881836  0.79645509  1
  C  C6  1  0.19881836  0.80118164  0.40354491  1
  C  C7  1  0.80000000  0.20000000  0.60000000  1
  C  C8  1  0.00258969  0.99741031  0.99223092  1
  C  C9  1  0.59741031  0.40258969  0.20776908  1
