# generated using pymatgen
data_Fe2CoSe4
_symmetry_space_group_name_H-M   'P 1'
_cell_length_a   3.54615494
_cell_length_b   6.18427131
_cell_length_c   6.31369862
_cell_angle_alpha   117.91750447
_cell_angle_beta   73.69023342
_cell_angle_gamma   90.00000000
_symmetry_Int_Tables_number   1
_chemical_formula_structural   Fe2CoSe4
_chemical_formula_sum   'Fe2 Co1 Se4'
_cell_volume   116.00452107
_cell_formula_units_Z   1
loop_
 _symmetry_equiv_pos_site_id
 _symmetry_equiv_pos_as_xyz
  1  'x, y, z'
loop_
 _atom_site_type_symbol
 _atom_site_label
 _atom_site_symmetry_multiplicity
 _atom_site_fract_x
 _atom_site_fract_y
 _atom_site_fract_z
 _atom_site_occupancy
  Fe  Fe0  1  0.50044247  0.49673507  0.99911505  1
  Fe  Fe1  1  0.24114136  0.78170258  0.51771729  1
  Co  Co2  1  0.76038525  0.21698735  0.47922949  1
  Se  Se3  1  0.37903997  0.95518095  0.24192005  1
  Se  Se4  1  0.62159399  0.04600537  0.75681202  1
  Se  Se5  1  0.86254711  0.47506970  0.27490578  1
  Se  Se6  1  0.13484984  0.52831898  0.73030031  1
