# generated using pymatgen
data_Hf2SiMo3
_symmetry_space_group_name_H-M   'P 1'
_cell_length_a   5.29989101
_cell_length_b   5.29989101
_cell_length_c   8.59815226
_cell_angle_alpha   90.00000000
_cell_angle_beta   90.00000000
_cell_angle_gamma   120.00340296
_symmetry_Int_Tables_number   1
_chemical_formula_structural   Hf2SiMo3
_chemical_formula_sum   'Hf4 Si2 Mo6'
_cell_volume   209.14849633
_cell_formula_units_Z   2
loop_
 _symmetry_equiv_pos_site_id
 _symmetry_equiv_pos_as_xyz
  1  'x, y, z'
loop_
 _atom_site_type_symbol
 _atom_site_label
 _atom_site_symmetry_multiplicity
 _atom_site_fract_x
 _atom_site_fract_y
 _atom_site_fract_z
 _atom_site_occupancy
  Hf  Hf0  1  0.66669647  0.33330353  0.56325785  1
  Hf  Hf1  1  0.33330353  0.66669647  0.43674215  1
  Hf  Hf2  1  0.33330353  0.66669647  0.06325785  1
  Hf  Hf3  1  0.66669647  0.33330353  0.93674215  1
  Si  Si4  1  -0.00000000  -0.00000000  0.50000000  1
  Si  Si5  1  -0.00000000  -0.00000000  -0.00000000  1
  Mo  Mo6  1  0.17024602  0.34042710  0.75000000  1
  Mo  Mo7  1  0.17019148  0.82980852  0.75000000  1
  Mo  Mo8  1  0.65957290  0.82975398  0.75000000  1
  Mo  Mo9  1  0.82975398  0.65957290  0.25000000  1
  Mo  Mo10  1  0.82980852  0.17019148  0.25000000  1
  Mo  Mo11  1  0.34042710  0.17024602  0.25000000  1
