# generated using pymatgen
data_Fe(ReO3)2
_symmetry_space_group_name_H-M   'P 1'
_cell_length_a   4.80411717
_cell_length_b   4.80411717
_cell_length_c   8.50294387
_cell_angle_alpha   90.00000000
_cell_angle_beta   90.00000000
_cell_angle_gamma   90.00000000
_symmetry_Int_Tables_number   1
_chemical_formula_structural   Fe(ReO3)2
_chemical_formula_sum   'Fe2 Re4 O12'
_cell_volume   196.24404833
_cell_formula_units_Z   2
loop_
 _symmetry_equiv_pos_site_id
 _symmetry_equiv_pos_as_xyz
  1  'x, y, z'
loop_
 _atom_site_type_symbol
 _atom_site_label
 _atom_site_symmetry_multiplicity
 _atom_site_fract_x
 _atom_site_fract_y
 _atom_site_fract_z
 _atom_site_occupancy
  Fe  Fe0  1  0.50000000  0.50000000  0.16666700  1
  Fe  Fe1  1  0.00000000  0.00000000  0.66666700  1
  Re  Re2  1  0.50000000  0.50000000  0.51571235  1
  Re  Re3  1  0.50000000  0.50000000  0.81762065  1
  Re  Re4  1  0.00000000  0.00000000  0.01571235  1
  Re  Re5  1  0.00000000  0.00000000  0.31762065  1
  O  O6  1  0.22024391  0.77975609  0.16666700  1
  O  O7  1  0.20651585  0.79348415  0.49335259  1
  O  O8  1  0.20651585  0.79348415  0.83998041  1
  O  O9  1  0.77975609  0.22024391  0.16666700  1
  O  O10  1  0.79348415  0.20651585  0.49335259  1
  O  O11  1  0.79348415  0.20651585  0.83998041  1
  O  O12  1  0.29348415  0.29348415  0.33998041  1
  O  O13  1  0.27975609  0.27975609  0.66666700  1
  O  O14  1  0.29348415  0.29348415  0.99335259  1
  O  O15  1  0.70651585  0.70651585  0.33998041  1
  O  O16  1  0.72024391  0.72024391  0.66666700  1
  O  O17  1  0.70651585  0.70651585  0.99335259  1
