# generated using pymatgen
data_GaPH11C3Cl
_symmetry_space_group_name_H-M   'P 1'
_cell_length_a   6.66237506
_cell_length_b   7.67543414
_cell_length_c   10.26147476
_cell_angle_alpha   89.95875222
_cell_angle_beta   90.02078373
_cell_angle_gamma   114.98617482
_symmetry_Int_Tables_number   1
_chemical_formula_structural   GaPH11C3Cl
_chemical_formula_sum   'Ga2 P2 H22 C6 Cl2'
_cell_volume   475.62673401
_cell_formula_units_Z   2
loop_
 _symmetry_equiv_pos_site_id
 _symmetry_equiv_pos_as_xyz
  1  'x, y, z'
loop_
 _atom_site_type_symbol
 _atom_site_label
 _atom_site_symmetry_multiplicity
 _atom_site_fract_x
 _atom_site_fract_y
 _atom_site_fract_z
 _atom_site_occupancy
  Ga  Ga0  1  0.29729172  0.36261831  0.25018323  1
  Ga  Ga1  1  0.70270828  0.63738169  0.74981677  1
  P  P2  1  0.36284243  0.69981106  0.25017988  1
  P  P3  1  0.63715757  0.30018894  0.74982012  1
  H  H4  1  0.31669185  0.74374253  0.48115264  1
  H  H5  1  0.68314443  0.25645843  0.98120141  1
  H  H6  1  0.68330815  0.25625747  0.51884736  1
  H  H7  1  0.31685557  0.74354157  0.01879859  1
  H  H8  1  0.19361900  0.27043817  0.38395876  1
  H  H9  1  0.80644428  0.72904655  0.88368564  1
  H  H10  1  0.80638100  0.72956183  0.61604124  1
  H  H11  1  0.19355572  0.27095345  0.11631436  1
  H  H12  1  0.28567383  0.92473718  0.38330985  1
  H  H13  1  0.71437505  0.07585915  0.88330019  1
  H  H14  1  0.71432617  0.07526282  0.61669015  1
  H  H15  1  0.28562495  0.92414085  0.11669981  1
  H  H16  1  0.06693588  0.68740269  0.39166476  1
  H  H17  1  0.93303241  0.31326852  0.89192858  1
  H  H18  1  0.93306412  0.31259731  0.60833524  1
  H  H19  1  0.06696759  0.68673148  0.10807142  1
  H  H20  1  0.72879460  0.85024866  0.34465544  1
  H  H21  1  0.27120540  0.14975134  0.65534456  1
  H  H22  1  0.68235477  0.00794039  0.23202693  1
  H  H23  1  0.31764523  0.99205961  0.76797307  1
  H  H24  1  0.74038268  0.81334233  0.17384170  1
  H  H25  1  0.25961732  0.18665767  0.82615830  1
  C  C26  1  0.24756768  0.77128033  0.39011080  1
  C  C27  1  0.75239742  0.22931594  0.89021994  1
  C  C28  1  0.75243232  0.22871967  0.60988920  1
  C  C29  1  0.24760258  0.77068406  0.10978006  1
  C  C30  1  0.65690630  0.85910164  0.24977035  1
  C  C31  1  0.34309370  0.14089836  0.75022965  1
  Cl  Cl32  1  0.65149726  0.38487822  0.24979074  1
  Cl  Cl33  1  0.34850274  0.61512178  0.75020926  1
