# generated using pymatgen
data_Fe2NiSe4
_symmetry_space_group_name_H-M   'P 1'
_cell_length_a   3.56959864
_cell_length_b   6.19681809
_cell_length_c   6.28916432
_cell_angle_alpha   118.52663140
_cell_angle_beta   73.51349027
_cell_angle_gamma   90.00000000
_symmetry_Int_Tables_number   1
_chemical_formula_structural   Fe2NiSe4
_chemical_formula_sum   'Fe2 Ni1 Se4'
_cell_volume   115.67608525
_cell_formula_units_Z   1
loop_
 _symmetry_equiv_pos_site_id
 _symmetry_equiv_pos_as_xyz
  1  'x, y, z'
loop_
 _atom_site_type_symbol
 _atom_site_label
 _atom_site_symmetry_multiplicity
 _atom_site_fract_x
 _atom_site_fract_y
 _atom_site_fract_z
 _atom_site_occupancy
  Fe  Fe0  1  0.00172009  0.00122351  0.99655983  1
  Fe  Fe1  1  0.73971848  0.28106006  0.52056305  1
  Ni  Ni2  1  0.26123926  0.71462560  0.47752148  1
  Se  Se3  1  0.12066179  0.54120577  0.75867641  1
  Se  Se4  1  0.88004745  0.44954903  0.23990510  1
  Se  Se5  1  0.36312126  0.97976441  0.27375747  1
  Se  Se6  1  0.63349167  0.03257162  0.73301666  1
