# generated using pymatgen
data_Hf4Ga5Ni3
_symmetry_space_group_name_H-M   'P 1'
_cell_length_a   6.37235939
_cell_length_b   7.65274356
_cell_length_c   13.66771777
_cell_angle_alpha   104.84874468
_cell_angle_beta   76.80224204
_cell_angle_gamma   114.81536229
_symmetry_Int_Tables_number   1
_chemical_formula_structural   Hf4Ga5Ni3
_chemical_formula_sum   'Hf12 Ga15 Ni9'
_cell_volume   579.20880037
_cell_formula_units_Z   3
loop_
 _symmetry_equiv_pos_site_id
 _symmetry_equiv_pos_as_xyz
  1  'x, y, z'
loop_
 _atom_site_type_symbol
 _atom_site_label
 _atom_site_symmetry_multiplicity
 _atom_site_fract_x
 _atom_site_fract_y
 _atom_site_fract_z
 _atom_site_occupancy
  Hf  Hf0  1  0.45705427  0.95789457  0.48801857  1
  Hf  Hf1  1  0.97015441  0.46973093  0.98327845  1
  Hf  Hf2  1  0.49707136  0.54538391  0.00955382  1
  Hf  Hf3  1  0.98703688  0.04236417  0.51306634  1
  Hf  Hf4  1  0.22922349  0.31056238  0.26751519  1
  Hf  Hf5  1  0.72499994  0.81043209  0.77486432  1
  Hf  Hf6  1  0.67865441  0.18250692  0.22810437  1
  Hf  Hf7  1  0.19164676  0.69427587  0.73523162  1
  Hf  Hf8  1  0.69123203  0.62376699  0.37394471  1
  Hf  Hf9  1  0.19464352  0.12683429  0.87705997  1
  Hf  Hf10  1  0.94292739  0.87906479  0.12482624  1
  Hf  Hf11  1  0.44105479  0.37458075  0.62805949  1
  Ga  Ga12  1  0.15439945  0.65131157  0.36978791  1
  Ga  Ga13  1  0.64633636  0.14076670  0.87280913  1
  Ga  Ga14  1  0.36588119  0.84070165  0.12128748  1
  Ga  Ga15  1  0.87769235  0.34998611  0.63174342  1
  Ga  Ga16  1  0.67341298  0.50580121  0.16804528  1
  Ga  Ga17  1  0.16978205  0.00816224  0.67269811  1
  Ga  Ga18  1  0.83423868  0.98977564  0.32915401  1
  Ga  Ga19  1  0.34034761  0.49986243  0.83235501  1
  Ga  Ga20  1  0.40965517  0.25127126  0.41618805  1
  Ga  Ga21  1  0.92362666  0.75766219  0.91703818  1
  Ga  Ga22  1  0.07153906  0.25376781  0.08376545  1
  Ga  Ga23  1  0.57346271  0.74722549  0.58532528  1
  Ga  Ga24  1  0.44087852  0.16351384  0.05801152  1
  Ga  Ga25  1  0.95214878  0.67766551  0.56449877  1
  Ga  Ga26  1  0.84046768  0.32237544  0.43603359  1
  Ni  Ni27  1  0.32997942  0.82353657  0.93572015  1
  Ni  Ni28  1  0.20299349  0.94107939  0.30273568  1
  Ni  Ni29  1  0.70365114  0.43841974  0.80835600  1
  Ni  Ni30  1  0.06317069  0.55932927  0.19473086  1
  Ni  Ni31  1  0.56599189  0.06182287  0.69211304  1
  Ni  Ni32  1  0.50002133  0.74969944  0.24830536  1
  Ni  Ni33  1  0.00146407  0.25150537  0.75403183  1
  Ni  Ni34  1  0.73993029  0.99767924  0.00141772  1
  Ni  Ni35  1  0.23722919  0.49968136  0.50032508  1
