# generated using pymatgen
data_Hf8Mo5S
_symmetry_space_group_name_H-M   'P 1'
_cell_length_a   8.46535151
_cell_length_b   8.41986702
_cell_length_c   9.11205201
_cell_angle_alpha   57.26464575
_cell_angle_beta   90.00000000
_cell_angle_gamma   90.00000000
_symmetry_Int_Tables_number   1
_chemical_formula_structural   Hf8Mo5S
_chemical_formula_sum   'Hf16 Mo10 S2'
_cell_volume   546.32861260
_cell_formula_units_Z   2
loop_
 _symmetry_equiv_pos_site_id
 _symmetry_equiv_pos_as_xyz
  1  'x, y, z'
loop_
 _atom_site_type_symbol
 _atom_site_label
 _atom_site_symmetry_multiplicity
 _atom_site_fract_x
 _atom_site_fract_y
 _atom_site_fract_z
 _atom_site_occupancy
  Hf  Hf0  1  0.55951767  0.79122527  0.81706717  1
  Hf  Hf1  1  0.55940793  0.79119215  0.39172216  1
  Hf  Hf2  1  0.56046062  0.40790020  0.79612137  1
  Hf  Hf3  1  0.45344976  0.20836152  0.18509432  1
  Hf  Hf4  1  0.45387013  0.20820161  0.60663597  1
  Hf  Hf5  1  0.44930507  0.58438870  0.20751467  1
  Hf  Hf6  1  0.04655024  0.20836152  0.18509432  1
  Hf  Hf7  1  0.04612987  0.20820161  0.60663597  1
  Hf  Hf8  1  0.05069493  0.58438870  0.20751467  1
  Hf  Hf9  1  0.94048233  0.79122527  0.81706717  1
  Hf  Hf10  1  0.94059207  0.79119215  0.39172216  1
  Hf  Hf11  1  0.93953938  0.40790020  0.79612137  1
  Hf  Hf12  1  0.75000000  0.12488725  0.43762799  1
  Hf  Hf13  1  0.25000000  0.54742762  0.54516230  1
  Hf  Hf14  1  0.25000000  0.54787521  0.90622489  1
  Hf  Hf15  1  0.25000000  0.91622097  0.54174101  1
  Mo  Mo16  1  0.50204022  0.99713966  0.00144187  1
  Mo  Mo17  1  0.99795978  0.99713966  0.00144187  1
  Mo  Mo18  1  0.75000000  0.11477568  0.10410326  1
  Mo  Mo19  1  0.75000000  0.11450798  0.78161295  1
  Mo  Mo20  1  0.75000000  0.75906582  0.12056205  1
  Mo  Mo21  1  0.25000000  0.88453996  0.89383626  1
  Mo  Mo22  1  0.25000000  0.88454724  0.22141839  1
  Mo  Mo23  1  0.25000000  0.22221782  0.88884459  1
  Mo  Mo24  1  0.75000000  0.44771754  0.44954435  1
  Mo  Mo25  1  0.75000000  0.44719104  0.10368284  1
  S  S26  1  0.75000000  0.71954201  0.64021735  1
  S  S27  1  0.25000000  0.29266564  0.35422670  1
