# generated using pymatgen
data_Eu(GaGe2)2
_symmetry_space_group_name_H-M   'P 1'
_cell_length_a   4.38883123
_cell_length_b   5.97070748
_cell_length_c   13.02686492
_cell_angle_alpha   90.00000000
_cell_angle_beta   90.00000000
_cell_angle_gamma   68.43661821
_symmetry_Int_Tables_number   1
_chemical_formula_structural   Eu(GaGe2)2
_chemical_formula_sum   'Eu2 Ga4 Ge8'
_cell_volume   317.47017772
_cell_formula_units_Z   2
loop_
 _symmetry_equiv_pos_site_id
 _symmetry_equiv_pos_as_xyz
  1  'x, y, z'
loop_
 _atom_site_type_symbol
 _atom_site_label
 _atom_site_symmetry_multiplicity
 _atom_site_fract_x
 _atom_site_fract_y
 _atom_site_fract_z
 _atom_site_occupancy
  Eu  Eu0  1  0.79226400  0.41547201  0.25000000  1
  Eu  Eu1  1  0.20773600  0.58452799  0.75000000  1
  Ga  Ga2  1  0.06305847  0.87388306  0.15442137  1
  Ga  Ga3  1  0.93694153  0.12611694  0.84557863  1
  Ga  Ga4  1  0.06305847  0.87388306  0.34557863  1
  Ga  Ga5  1  0.93694153  0.12611694  0.65442137  1
  Ge  Ge6  1  0.25195553  0.49608895  0.04984323  1
  Ge  Ge7  1  0.74804447  0.50391105  0.95015677  1
  Ge  Ge8  1  0.25195553  0.49608895  0.45015677  1
  Ge  Ge9  1  0.74804447  0.50391105  0.54984323  1
  Ge  Ge10  1  0.47406959  0.05186082  0.09459530  1
  Ge  Ge11  1  0.52593041  0.94813918  0.90540470  1
  Ge  Ge12  1  0.47406959  0.05186082  0.40540470  1
  Ge  Ge13  1  0.52593041  0.94813918  0.59459530  1
