# generated using pymatgen
data_CrCoSi2
_symmetry_space_group_name_H-M   'P 1'
_cell_length_a   4.57178786
_cell_length_b   4.56373046
_cell_length_c   4.45986383
_cell_angle_alpha   90.00000000
_cell_angle_beta   90.00000000
_cell_angle_gamma   89.90544040
_symmetry_Int_Tables_number   1
_chemical_formula_structural   CrCoSi2
_chemical_formula_sum   'Cr2 Co2 Si4'
_cell_volume   93.05228969
_cell_formula_units_Z   2
loop_
 _symmetry_equiv_pos_site_id
 _symmetry_equiv_pos_as_xyz
  1  'x, y, z'
loop_
 _atom_site_type_symbol
 _atom_site_label
 _atom_site_symmetry_multiplicity
 _atom_site_fract_x
 _atom_site_fract_y
 _atom_site_fract_z
 _atom_site_occupancy
  Cr  Cr0  1  0.35114564  0.87481926  0.63848699  1
  Cr  Cr1  1  0.14885436  0.12518074  0.13848699  1
  Co  Co2  1  0.86014818  0.63899738  0.36208378  1
  Co  Co3  1  0.63985182  0.36100262  0.86208378  1
  Si  Si4  1  0.15615881  0.35796390  0.65660451  1
  Si  Si5  1  0.34384119  0.64203610  0.15660451  1
  Si  Si6  1  0.66323809  0.16209973  0.34282473  1
  Si  Si7  1  0.83676191  0.83790027  0.84282473  1
