# generated using pymatgen
data_CeZr4O10
_symmetry_space_group_name_H-M   'P 1'
_cell_length_a   3.68158045
_cell_length_b   13.32896747
_cell_length_c   3.68158045
_cell_angle_alpha   82.06182407
_cell_angle_beta   90.00000000
_cell_angle_gamma   82.06182407
_symmetry_Int_Tables_number   1
_chemical_formula_structural   CeZr4O10
_chemical_formula_sum   'Ce1 Zr4 O10'
_cell_volume   177.18205860
_cell_formula_units_Z   1
loop_
 _symmetry_equiv_pos_site_id
 _symmetry_equiv_pos_as_xyz
  1  'x, y, z'
loop_
 _atom_site_type_symbol
 _atom_site_label
 _atom_site_symmetry_multiplicity
 _atom_site_fract_x
 _atom_site_fract_y
 _atom_site_fract_z
 _atom_site_occupancy
  Ce  Ce0  1  0.00000000  -0.00000000  0.00000000  1
  Zr  Zr1  1  0.39721271  0.20557458  0.39721271  1
  Zr  Zr2  1  0.79902554  0.40194892  0.79902554  1
  Zr  Zr3  1  0.20097446  0.59805108  0.20097446  1
  Zr  Zr4  1  0.60278729  0.79442542  0.60278729  1
  O  O5  1  0.65191509  0.69616983  0.15191509  1
  O  O6  1  0.05400586  0.89198827  0.55400586  1
  O  O7  1  0.44599414  0.10801173  0.94599414  1
  O  O8  1  0.84808491  0.30383017  0.34808491  1
  O  O9  1  0.25000000  0.50000000  0.75000000  1
  O  O10  1  0.55400586  0.89198827  0.05400586  1
  O  O11  1  0.94599414  0.10801173  0.44599414  1
  O  O12  1  0.34808491  0.30383017  0.84808491  1
  O  O13  1  0.75000000  0.50000000  0.25000000  1
  O  O14  1  0.15191509  0.69616983  0.65191509  1
