# generated using pymatgen
data_Cu7Te2(SO10)2
_symmetry_space_group_name_H-M   'P 1'
_cell_length_a   7.08130410
_cell_length_b   7.61726545
_cell_length_c   7.94534169
_cell_angle_alpha   78.22944811
_cell_angle_beta   77.93943537
_cell_angle_gamma   86.01274964
_symmetry_Int_Tables_number   1
_chemical_formula_structural   Cu7Te2(SO10)2
_chemical_formula_sum   'Cu7 Te2 S2 O20'
_cell_volume   410.13823821
_cell_formula_units_Z   1
loop_
 _symmetry_equiv_pos_site_id
 _symmetry_equiv_pos_as_xyz
  1  'x, y, z'
loop_
 _atom_site_type_symbol
 _atom_site_label
 _atom_site_symmetry_multiplicity
 _atom_site_fract_x
 _atom_site_fract_y
 _atom_site_fract_z
 _atom_site_occupancy
  Cu  Cu0  1  0.38068056  0.82764528  0.80179876  1
  Cu  Cu1  1  0.61931944  0.17235472  0.19820124  1
  Cu  Cu2  1  0.75347800  0.52705795  0.26219867  1
  Cu  Cu3  1  0.24652200  0.47294205  0.73780133  1
  Cu  Cu4  1  -0.00000000  -0.00000000  0.00000000  1
  Cu  Cu5  1  -0.00000000  0.50000000  0.50000000  1
  Cu  Cu6  1  0.50000000  0.50000000  0.00000000  1
  Te  Te7  1  0.87540508  0.81265395  0.75795443  1
  Te  Te8  1  0.12459492  0.18734605  0.24204557  1
  S  S9  1  0.60700030  0.21739062  0.66489027  1
  S  S10  1  0.39299970  0.78260938  0.33510973  1
  O  O11  1  0.99701498  0.57631785  0.72080820  1
  O  O12  1  0.00298502  0.42368215  0.27919180  1
  O  O13  1  0.13524732  0.93970328  0.78844018  1
  O  O14  1  0.86475268  0.06029672  0.21155982  1
  O  O15  1  0.49224314  0.36395829  0.75099911  1
  O  O16  1  0.50775686  0.63604171  0.24900089  1
  O  O17  1  0.79825552  0.63263587  0.43426318  1
  O  O18  1  0.20174448  0.36736413  0.56573682  1
  O  O19  1  0.84922509  0.80894898  0.00314800  1
  O  O20  1  0.15077491  0.19105102  0.99685200  1
  O  O21  1  0.61844181  0.68930663  0.82576782  1
  O  O22  1  0.38155819  0.31069337  0.17423218  1
  O  O23  1  0.28163871  0.59710448  0.90777464  1
  O  O24  1  0.71836129  0.40289552  0.09222536  1
  O  O25  1  0.53488859  0.03836155  0.76992253  1
  O  O26  1  0.46511141  0.96163845  0.23007747  1
  O  O27  1  0.80554314  0.22881342  0.69099889  1
  O  O28  1  0.19445686  0.77118658  0.30900111  1
  O  O29  1  0.59220916  0.24223758  0.48124006  1
  O  O30  1  0.40779084  0.75776242  0.51875994  1
