# generated using pymatgen
data_CeSiBRh3
_symmetry_space_group_name_H-M   'P 1'
_cell_length_a   3.44893172
_cell_length_b   5.53367424
_cell_length_c   5.53538819
_cell_angle_alpha   59.98203267
_cell_angle_beta   90.00000000
_cell_angle_gamma   90.00000000
_symmetry_Int_Tables_number   1
_chemical_formula_structural   CeSiBRh3
_chemical_formula_sum   'Ce1 Si1 B1 Rh3'
_cell_volume   91.47412047
_cell_formula_units_Z   1
loop_
 _symmetry_equiv_pos_site_id
 _symmetry_equiv_pos_as_xyz
  1  'x, y, z'
loop_
 _atom_site_type_symbol
 _atom_site_label
 _atom_site_symmetry_multiplicity
 _atom_site_fract_x
 _atom_site_fract_y
 _atom_site_fract_z
 _atom_site_occupancy
  Ce  Ce0  1  -0.00000000  0.00000913  0.99997423  1
  Si  Si1  1  -0.00000000  0.66688737  0.66665522  1
  B  B2  1  -0.00000000  0.33303413  0.33341684  1
  Rh  Rh3  1  0.50000000  0.49381622  0.49386291  1
  Rh  Rh4  1  0.50000000  0.49380819  0.01234580  1
  Rh  Rh5  1  0.50000000  0.01234495  0.49384500  1
