# generated using pymatgen
data_Cr3Fe3GeAs2
_symmetry_space_group_name_H-M   'P 1'
_cell_length_a   3.76856387
_cell_length_b   6.00848727
_cell_length_c   6.01300072
_cell_angle_alpha   119.97517178
_cell_angle_beta   90.00000000
_cell_angle_gamma   90.00000000
_symmetry_Int_Tables_number   1
_chemical_formula_structural   Cr3Fe3GeAs2
_chemical_formula_sum   'Cr3 Fe3 Ge1 As2'
_cell_volume   117.94282141
_cell_formula_units_Z   1
loop_
 _symmetry_equiv_pos_site_id
 _symmetry_equiv_pos_as_xyz
  1  'x, y, z'
loop_
 _atom_site_type_symbol
 _atom_site_label
 _atom_site_symmetry_multiplicity
 _atom_site_fract_x
 _atom_site_fract_y
 _atom_site_fract_z
 _atom_site_occupancy
  Cr  Cr0  1  0.50000000  0.57921210  1.00000000  1
  Cr  Cr1  1  0.50000000  0.42074387  0.42072711  1
  Cr  Cr2  1  0.50000000  0.00001676  0.57927289  1
  Fe  Fe3  1  -0.00000000  0.24510732  1.00000000  1
  Fe  Fe4  1  0.00000000  0.75498566  0.75515793  1
  Fe  Fe5  1  0.00000000  -0.00017227  0.24484207  1
  Ge  Ge6  1  0.50000000  -0.00006601  1.00000000  1
  As  As7  1  -0.00000000  0.33347996  0.66688734  1
  As  As8  1  -0.00000000  0.66659262  0.33311266  1
