# generated using pymatgen
data_Ce4SnO10
_symmetry_space_group_name_H-M   'P 1'
_cell_length_a   3.82951639
_cell_length_b   3.82951639
_cell_length_c   15.78057687
_cell_angle_alpha   96.96923837
_cell_angle_beta   83.03076163
_cell_angle_gamma   120.00000012
_symmetry_Int_Tables_number   1
_chemical_formula_structural   Ce4SnO10
_chemical_formula_sum   'Ce4 Sn1 O10'
_cell_volume   198.44326685
_cell_formula_units_Z   1
loop_
 _symmetry_equiv_pos_site_id
 _symmetry_equiv_pos_as_xyz
  1  'x, y, z'
loop_
 _atom_site_type_symbol
 _atom_site_label
 _atom_site_symmetry_multiplicity
 _atom_site_fract_x
 _atom_site_fract_y
 _atom_site_fract_z
 _atom_site_occupancy
  Ce  Ce0  1  0.60254422  0.39745578  0.19236735  1
  Ce  Ce1  1  0.20072667  0.79927333  0.39781998  1
  Ce  Ce2  1  0.79927333  0.20072667  0.60218002  1
  Ce  Ce3  1  0.39745578  0.60254422  0.80763265  1
  Sn  Sn4  1  -0.00000000  0.00000000  -0.00000000  1
  O  O5  1  0.04615302  0.95384698  0.86154093  1
  O  O6  1  0.85021263  0.14978737  0.44936210  1
  O  O7  1  0.44887079  0.55112921  0.65338763  1
  O  O8  1  0.65283442  0.34716558  0.04149673  1
  O  O9  1  0.25226216  0.74773784  0.24321353  1
  O  O10  1  0.34716558  0.65283442  0.95850327  1
  O  O11  1  0.14978737  0.85021263  0.55063790  1
  O  O12  1  0.74773784  0.25226216  0.75678647  1
  O  O13  1  0.95384698  0.04615302  0.13845907  1
  O  O14  1  0.55112921  0.44887079  0.34661237  1
