# generated using pymatgen
data_Ce4Ge7
_symmetry_space_group_name_H-M   'P 1'
_cell_length_a   4.09094866
_cell_length_b   4.20367452
_cell_length_c   15.03583437
_cell_angle_alpha   90.00000000
_cell_angle_beta   90.00000000
_cell_angle_gamma   90.00000000
_symmetry_Int_Tables_number   1
_chemical_formula_structural   Ce4Ge7
_chemical_formula_sum   'Ce4 Ge7'
_cell_volume   258.57149393
_cell_formula_units_Z   1
loop_
 _symmetry_equiv_pos_site_id
 _symmetry_equiv_pos_as_xyz
  1  'x, y, z'
loop_
 _atom_site_type_symbol
 _atom_site_label
 _atom_site_symmetry_multiplicity
 _atom_site_fract_x
 _atom_site_fract_y
 _atom_site_fract_z
 _atom_site_occupancy
  Ce  Ce0  1  0.25000000  -0.00000000  0.37672489  1
  Ce  Ce1  1  0.75000000  0.50000000  0.87745155  1
  Ce  Ce2  1  0.25000000  0.50000000  0.12566498  1
  Ce  Ce3  1  0.75000000  -0.00000000  0.62292156  1
  Ge  Ge4  1  0.75000000  0.50000000  0.43305550  1
  Ge  Ge5  1  0.25000000  0.00000000  0.96158532  1
  Ge  Ge6  1  0.75000000  0.00000000  0.05756746  1
  Ge  Ge7  1  0.25000000  0.50000000  0.53664204  1
  Ge  Ge8  1  0.25000000  -0.00000000  0.79329880  1
  Ge  Ge9  1  0.75000000  0.00000000  0.22370528  1
  Ge  Ge10  1  0.25000000  0.50000000  0.70538263  1
