# generated using pymatgen
data_Ce2Si3
_symmetry_space_group_name_H-M   'P 1'
_cell_length_a   3.89777348
_cell_length_b   4.16114489
_cell_length_c   7.53479704
_cell_angle_alpha   73.97071750
_cell_angle_beta   75.00994029
_cell_angle_gamma   90.00000000
_symmetry_Int_Tables_number   1
_chemical_formula_structural   Ce2Si3
_chemical_formula_sum   'Ce2 Si3'
_cell_volume   113.12380553
_cell_formula_units_Z   1
loop_
 _symmetry_equiv_pos_site_id
 _symmetry_equiv_pos_as_xyz
  1  'x, y, z'
loop_
 _atom_site_type_symbol
 _atom_site_label
 _atom_site_symmetry_multiplicity
 _atom_site_fract_x
 _atom_site_fract_y
 _atom_site_fract_z
 _atom_site_occupancy
  Ce  Ce0  1  0.87202179  0.62202179  0.75595641  1
  Ce  Ce1  1  0.12482423  0.37482423  0.25035154  1
  Si  Si2  1  0.53705275  0.78705275  0.42589450  1
  Si  Si3  1  0.29803157  0.04803157  0.90393686  1
  Si  Si4  1  0.70406966  0.95406966  0.09186068  1
