# generated using pymatgen
data_Ca2AlPbOF8
_symmetry_space_group_name_H-M   'P 1'
_cell_length_a   5.54924453
_cell_length_b   5.55664317
_cell_length_c   12.07521228
_cell_angle_alpha   90.10814695
_cell_angle_beta   102.28771974
_cell_angle_gamma   94.40510986
_symmetry_Int_Tables_number   1
_chemical_formula_structural   Ca2AlPbOF8
_chemical_formula_sum   'Ca4 Al2 Pb2 O2 F16'
_cell_volume   362.67308263
_cell_formula_units_Z   2
loop_
 _symmetry_equiv_pos_site_id
 _symmetry_equiv_pos_as_xyz
  1  'x, y, z'
loop_
 _atom_site_type_symbol
 _atom_site_label
 _atom_site_symmetry_multiplicity
 _atom_site_fract_x
 _atom_site_fract_y
 _atom_site_fract_z
 _atom_site_occupancy
  Ca  Ca0  1  0.44302422  0.24433416  0.38585664  1
  Ca  Ca1  1  0.55044908  0.77211793  0.61964901  1
  Ca  Ca2  1  0.95303291  0.74729459  0.38930703  1
  Ca  Ca3  1  0.03942830  0.25874659  0.61783330  1
  Al  Al4  1  0.21138558  0.69446962  0.81337892  1
  Al  Al5  1  0.78842224  0.29767644  0.17358764  1
  Pb  Pb6  1  0.80217899  0.15023142  0.90575151  1
  Pb  Pb7  1  0.26108199  0.79646436  0.10877684  1
  O  O8  1  0.73952433  0.13049513  0.73802427  1
  O  O9  1  0.92515693  0.10576951  0.07330343  1
  F  F10  1  0.74852211  0.99320835  0.50172248  1
  F  F11  1  0.24952586  0.02091727  0.50695693  1
  F  F12  1  0.36539995  0.50220500  0.73393002  1
  F  F13  1  0.64196055  0.49541553  0.26578318  1
  F  F14  1  0.91743012  0.61205568  0.71719479  1
  F  F15  1  0.08590157  0.38709636  0.27112639  1
  F  F16  1  0.24933938  0.51586450  0.50025094  1
  F  F17  1  0.74597587  0.49192550  0.50042429  1
  F  F18  1  0.50940392  0.80191825  0.90514895  1
  F  F19  1  0.47986452  0.21155341  0.09026374  1
  F  F20  1  0.14910459  0.44119076  0.90377955  1
  F  F21  1  0.84081545  0.56150332  0.09012472  1
  F  F22  1  0.24813879  0.94257645  0.71993493  1
  F  F23  1  0.74071571  0.04968530  0.27090020  1
  F  F24  1  0.24263415  0.89913963  0.29241676  1
  F  F25  1  0.07158287  0.87614492  0.90457354  1
