# generated using pymatgen
data_Pm3Zr
_symmetry_space_group_name_H-M   'P 1'
_cell_length_a   7.10348911
_cell_length_b   7.10348922
_cell_length_c   5.74510311
_cell_angle_alpha   90.00000000
_cell_angle_beta   90.00000000
_cell_angle_gamma   119.99999506
_symmetry_Int_Tables_number   1
_chemical_formula_structural   Pm3Zr
_chemical_formula_sum   'Pm6 Zr2'
_cell_volume   251.05676334
_cell_formula_units_Z   2
loop_
 _symmetry_equiv_pos_site_id
 _symmetry_equiv_pos_as_xyz
  1  'x, y, z'
loop_
 _atom_site_type_symbol
 _atom_site_label
 _atom_site_symmetry_multiplicity
 _atom_site_fract_x
 _atom_site_fract_y
 _atom_site_fract_z
 _atom_site_occupancy
  Pm  Pm0  1  0.17189872  0.34379645  0.25000100  1
  Pm  Pm1  1  0.65620255  0.82810128  0.25000100  1
  Pm  Pm2  1  0.17189872  0.82810128  0.25000100  1
  Pm  Pm3  1  0.82810128  0.65620255  0.75000000  1
  Pm  Pm4  1  0.34379745  0.17189972  0.75000000  1
  Pm  Pm5  1  0.82810228  0.17189972  0.75000000  1
  Zr  Zr6  1  0.33333400  0.66666800  0.75000000  1
  Zr  Zr7  1  0.66666600  0.33333300  0.25000100  1
