# generated using pymatgen
data_BaSr6Fe3Bi3O16
_symmetry_space_group_name_H-M   'P 1'
_cell_length_a   3.81482209
_cell_length_b   3.81482209
_cell_length_c   31.42137924
_cell_angle_alpha   86.51976340
_cell_angle_beta   86.51976340
_cell_angle_gamma   90.00000000
_symmetry_Int_Tables_number   1
_chemical_formula_structural   BaSr6Fe3Bi3O16
_chemical_formula_sum   'Ba1 Sr6 Fe3 Bi3 O16'
_cell_volume   455.58300845
_cell_formula_units_Z   1
loop_
 _symmetry_equiv_pos_site_id
 _symmetry_equiv_pos_as_xyz
  1  'x, y, z'
loop_
 _atom_site_type_symbol
 _atom_site_label
 _atom_site_symmetry_multiplicity
 _atom_site_fract_x
 _atom_site_fract_y
 _atom_site_fract_z
 _atom_site_occupancy
  Ba  Ba0  1  0.57687847  0.57687847  0.84624307  1
  Sr  Sr1  1  0.03091481  0.03091481  0.93817038  1
  Sr  Sr2  1  0.97071304  0.97071304  0.05857393  1
  Sr  Sr3  1  0.66773886  0.66773886  0.66452228  1
  Sr  Sr4  1  0.33225984  0.33225984  0.33548033  1
  Sr  Sr5  1  0.72769197  0.72769197  0.54461606  1
  Sr  Sr6  1  0.27213528  0.27213528  0.45572945  1
  Fe  Fe7  1  0.20050476  0.20050476  0.59899048  1
  Fe  Fe8  1  0.79937050  0.79937050  0.40125901  1
  Fe  Fe9  1  0.50327545  0.50327545  0.99344910  1
  Bi  Bi10  1  0.42598750  0.42598750  0.14802501  1
  Bi  Bi11  1  0.12285037  0.12285037  0.75429926  1
  Bi  Bi12  1  0.87740998  0.87740998  0.24518004  1
  O  O13  1  0.15596680  0.15596680  0.68806641  1
  O  O14  1  0.84439181  0.84439181  0.31121639  1
  O  O15  1  0.69550482  0.19550482  0.60899037  1
  O  O16  1  0.19550482  0.69550482  0.60899037  1
  O  O17  1  0.30456764  0.80456764  0.39086473  1
  O  O18  1  0.80456764  0.30456764  0.39086473  1
  O  O19  1  0.07487423  0.07487423  0.85025155  1
  O  O20  1  0.92616619  0.92616619  0.14766762  1
  O  O21  1  0.49848156  0.99848156  0.00303689  1
  O  O22  1  0.99848156  0.49848156  0.00303689  1
  O  O23  1  0.53458917  0.53458917  0.93082166  1
  O  O24  1  0.45913884  0.45913884  0.08172232  1
  O  O25  1  0.62259383  0.62259383  0.75481234  1
  O  O26  1  0.37747604  0.37747604  0.24504792  1
  O  O27  1  0.23198766  0.23198766  0.53602468  1
  O  O28  1  0.76797661  0.76797661  0.46404678  1
