# generated using pymatgen
data_CdPbS2
_symmetry_space_group_name_H-M   'P 1'
_cell_length_a   4.07857452
_cell_length_b   4.07857452
_cell_length_c   7.02877051
_cell_angle_alpha   73.13399730
_cell_angle_beta   90.00000000
_cell_angle_gamma   120.00000000
_symmetry_Int_Tables_number   1
_chemical_formula_structural   CdPbS2
_chemical_formula_sum   'Cd1 Pb1 S2'
_cell_volume   95.40590311
_cell_formula_units_Z   1
loop_
 _symmetry_equiv_pos_site_id
 _symmetry_equiv_pos_as_xyz
  1  'x, y, z'
loop_
 _atom_site_type_symbol
 _atom_site_label
 _atom_site_symmetry_multiplicity
 _atom_site_fract_x
 _atom_site_fract_y
 _atom_site_fract_z
 _atom_site_occupancy
  Cd  Cd0  1  0.00000000  0.00000000  0.00000000  1
  Pb  Pb1  1  0.50000000  0.00000000  0.50000000  1
  S  S2  1  0.25872184  0.51744367  0.22383449  1
  S  S3  1  0.74127816  0.48255633  0.77616551  1
