# generated using pymatgen
data_B4MoRu2
_symmetry_space_group_name_H-M   'P 1'
_cell_length_a   3.00883076
_cell_length_b   3.31476336
_cell_length_c   6.98558894
_cell_angle_alpha   76.27528213
_cell_angle_beta   77.56336030
_cell_angle_gamma   90.00000000
_symmetry_Int_Tables_number   1
_chemical_formula_structural   B4MoRu2
_chemical_formula_sum   'B4 Mo1 Ru2'
_cell_volume   65.99776063
_cell_formula_units_Z   1
loop_
 _symmetry_equiv_pos_site_id
 _symmetry_equiv_pos_as_xyz
  1  'x, y, z'
loop_
 _atom_site_type_symbol
 _atom_site_label
 _atom_site_symmetry_multiplicity
 _atom_site_fract_x
 _atom_site_fract_y
 _atom_site_fract_z
 _atom_site_occupancy
  B  B0  1  0.64692349  0.64692349  0.70615302  1
  B  B1  1  0.35307651  0.35307651  0.29384698  1
  B  B2  1  0.06992179  0.56992179  0.86015642  1
  B  B3  1  0.93007821  0.43007821  0.13984358  1
  Mo  Mo4  1  0.50000000  0.00000000  0.00000000  1
  Ru  Ru5  1  0.81998484  0.81998484  0.36003031  1
  Ru  Ru6  1  0.18001516  0.18001516  0.63996969  1
