# generated using pymatgen
data_Al8SiO14
_symmetry_space_group_name_H-M   'P 1'
_cell_length_a   2.96633389
_cell_length_b   7.79570947
_cell_length_c   23.30765160
_cell_angle_alpha   90.00000000
_cell_angle_beta   90.00000000
_cell_angle_gamma   90.00000000
_symmetry_Int_Tables_number   1
_chemical_formula_structural   Al8SiO14
_chemical_formula_sum   'Al16 Si2 O28'
_cell_volume   538.98191948
_cell_formula_units_Z   2
loop_
 _symmetry_equiv_pos_site_id
 _symmetry_equiv_pos_as_xyz
  1  'x, y, z'
loop_
 _atom_site_type_symbol
 _atom_site_label
 _atom_site_symmetry_multiplicity
 _atom_site_fract_x
 _atom_site_fract_y
 _atom_site_fract_z
 _atom_site_occupancy
  Al  Al0  1  0.00000000  0.50526234  0.32603166  1
  Al  Al1  1  0.00000000  0.50379978  0.66875441  1
  Al  Al2  1  0.00000000  0.99473766  0.82603166  1
  Al  Al3  1  0.00000000  0.99620022  0.16875441  1
  Al  Al4  1  0.50000000  0.73270908  0.91105382  1
  Al  Al5  1  0.50000000  0.28259150  0.09025642  1
  Al  Al6  1  0.50000000  0.76729092  0.41105382  1
  Al  Al7  1  0.50000000  0.21740850  0.59025642  1
  Al  Al8  1  0.00000000  0.50226115  0.00286129  1
  Al  Al9  1  0.00000000  0.99773885  0.50286129  1
  Al  Al10  1  0.50000000  0.83529405  0.28221492  1
  Al  Al11  1  0.50000000  0.17604125  0.71526217  1
  Al  Al12  1  0.50000000  0.66470595  0.78221492  1
  Al  Al13  1  0.50000000  0.32395875  0.21526217  1
  Al  Al14  1  0.50000000  0.84008363  0.61557895  1
  Al  Al15  1  0.50000000  0.65991637  0.11557895  1
  Si  Si16  1  0.50000000  0.14118102  0.38623388  1
  Si  Si17  1  0.50000000  0.35881898  0.88623388  1
  O  O18  1  0.50000000  0.95210394  0.35284336  1
  O  O19  1  0.50000000  0.05289454  0.64868853  1
  O  O20  1  0.50000000  0.54789606  0.85284336  1
  O  O21  1  0.50000000  0.44710546  0.14868853  1
  O  O22  1  0.00000000  0.72081989  0.29275872  1
  O  O23  1  0.00000000  0.29417734  0.71446884  1
  O  O24  1  0.00000000  0.77918011  0.79275872  1
  O  O25  1  -0.00000000  0.20582266  0.21446884  1
  O  O26  1  0.00000000  0.68724472  0.94741655  1
  O  O27  1  0.00000000  0.30803518  0.04998725  1
  O  O28  1  0.00000000  0.81275528  0.44741655  1
  O  O29  1  -0.00000000  0.19196482  0.54998725  1
  O  O30  1  0.50000000  0.57857027  0.71528392  1
  O  O31  1  0.50000000  0.42647334  0.28329792  1
  O  O32  1  0.50000000  0.92142973  0.21528392  1
  O  O33  1  0.50000000  0.07352666  0.78329792  1
  O  O34  1  -0.00000000  0.72636010  0.63019213  1
  O  O35  1  0.00000000  0.23861763  0.36911927  1
  O  O36  1  0.00000000  0.77363990  0.13019213  1
  O  O37  1  -0.00000000  0.26138237  0.86911927  1
  O  O38  1  0.50000000  0.59105535  0.04214446  1
  O  O39  1  0.50000000  0.39828059  0.95418512  1
  O  O40  1  0.50000000  0.90894465  0.54214446  1
  O  O41  1  0.50000000  0.10171941  0.45418512  1
  O  O42  1  0.50000000  0.56934347  0.37598853  1
  O  O43  1  0.50000000  0.41493986  0.62537786  1
  O  O44  1  0.50000000  0.93065653  0.87598853  1
  O  O45  1  0.50000000  0.08506014  0.12537786  1
