# generated using pymatgen
data_Ba2Y2Co3CuO10
_symmetry_space_group_name_H-M   'P 1'
_cell_length_a   5.53324761
_cell_length_b   5.53324761
_cell_length_c   8.64367763
_cell_angle_alpha   71.33254854
_cell_angle_beta   71.33254854
_cell_angle_gamma   90.00000000
_symmetry_Int_Tables_number   1
_chemical_formula_structural   Ba2Y2Co3CuO10
_chemical_formula_sum   'Ba2 Y2 Co3 Cu1 O10'
_cell_volume   235.97760612
_cell_formula_units_Z   1
loop_
 _symmetry_equiv_pos_site_id
 _symmetry_equiv_pos_as_xyz
  1  'x, y, z'
loop_
 _atom_site_type_symbol
 _atom_site_label
 _atom_site_symmetry_multiplicity
 _atom_site_fract_x
 _atom_site_fract_y
 _atom_site_fract_z
 _atom_site_occupancy
  Ba  Ba0  1  0.50123175  0.50123175  0.99753650  1
  Ba  Ba1  1  0.00123175  0.00123175  0.99753650  1
  Y  Y2  1  0.25170986  0.25170986  0.49658028  1
  Y  Y3  1  0.75170986  0.75170986  0.49658028  1
  Co  Co4  1  0.13112412  0.63112412  0.73775176  1
  Co  Co5  1  0.86487349  0.36487349  0.27025303  1
  Co  Co6  1  0.37459407  0.87459407  0.25081187  1
  Cu  Cu7  1  0.64376905  0.14376905  0.71246189  1
  O  O8  1  0.40271569  0.90271569  0.68711161  1
  O  O9  1  0.91017270  0.41017270  0.68711161  1
  O  O10  1  0.91017270  0.90271569  0.68711161  1
  O  O11  1  0.40271569  0.41017270  0.68711161  1
  O  O12  1  0.58741204  0.08741204  0.31831536  1
  O  O13  1  0.09427260  0.59427260  0.31831536  1
  O  O14  1  0.09427260  0.08741204  0.31831536  1
  O  O15  1  0.58741204  0.59427260  0.31831536  1
  O  O16  1  0.49145084  0.99145084  0.01709831  1
  O  O17  1  0.99915916  0.49915916  0.00168169  1
