# generated using pymatgen
data_Ba2Sr(IrO3)3
_symmetry_space_group_name_H-M   'P 1'
_cell_length_a   5.77719169
_cell_length_b   5.77692932
_cell_length_c   29.69039634
_cell_angle_alpha   90.00000000
_cell_angle_beta   90.00000000
_cell_angle_gamma   60.00150921
_symmetry_Int_Tables_number   1
_chemical_formula_structural   Ba2Sr(IrO3)3
_chemical_formula_sum   'Ba8 Sr4 Ir12 O36'
_cell_volume   858.15761967
_cell_formula_units_Z   4
loop_
 _symmetry_equiv_pos_site_id
 _symmetry_equiv_pos_as_xyz
  1  'x, y, z'
loop_
 _atom_site_type_symbol
 _atom_site_label
 _atom_site_symmetry_multiplicity
 _atom_site_fract_x
 _atom_site_fract_y
 _atom_site_fract_z
 _atom_site_occupancy
  Ba  Ba0  1  0.66669898  0.66665051  0.41652379  1
  Ba  Ba1  1  0.66669898  0.66665051  0.75014321  1
  Ba  Ba2  1  0.00000435  0.99999782  0.16676495  1
  Ba  Ba3  1  0.99999604  0.00000198  0.50162486  1
  Ba  Ba4  1  0.00000715  0.99999642  0.83465132  1
  Ba  Ba5  1  0.00000435  0.99999782  0.99990205  1
  Ba  Ba6  1  0.00000715  0.99999642  0.33201468  1
  Ba  Ba7  1  0.99999604  0.00000198  0.66504214  1
  Sr  Sr8  1  0.33333386  0.33333307  0.25072666  1
  Sr  Sr9  1  0.33336491  0.33331755  0.58333300  1
  Sr  Sr10  1  0.33333386  0.33333307  0.91594034  1
  Sr  Sr11  1  0.66663656  0.66668172  0.08333300  1
  Ir  Ir12  1  0.33335291  0.33332354  0.12842149  1
  Ir  Ir13  1  0.33333158  0.33333421  0.46194863  1
  Ir  Ir14  1  0.33335757  0.33332122  0.79522207  1
  Ir  Ir15  1  0.66666039  0.66666980  0.20455042  1
  Ir  Ir16  1  0.66665780  0.66667110  0.53816781  1
  Ir  Ir17  1  0.66668380  0.66665810  0.87192517  1
  Ir  Ir18  1  0.66668380  0.66665810  0.29474083  1
  Ir  Ir19  1  0.66665780  0.66667110  0.62849919  1
  Ir  Ir20  1  0.66666039  0.66666980  0.96211658  1
  Ir  Ir21  1  0.33335291  0.33332354  0.03824551  1
  Ir  Ir22  1  0.33335757  0.33332122  0.37144393  1
  Ir  Ir23  1  0.33333158  0.33333421  0.70471837  1
  O  O24  1  0.82002293  0.35985493  0.24957377  1
  O  O25  1  0.81977655  0.36022796  0.58333300  1
  O  O26  1  0.82002293  0.35985493  0.91709323  1
  O  O27  1  0.35989866  0.82005067  0.24957483  1
  O  O28  1  0.36030855  0.81984573  0.58333300  1
  O  O29  1  0.35989866  0.82005067  0.91709217  1
  O  O30  1  0.82002293  0.82012214  0.24957377  1
  O  O31  1  0.81977655  0.81999549  0.58333300  1
  O  O32  1  0.82002293  0.82012214  0.91709323  1
  O  O33  1  0.17982288  0.64048538  0.08333300  1
  O  O34  1  0.18061305  0.63893542  0.41672700  1
  O  O35  1  0.18061305  0.63893542  0.74994000  1
  O  O36  1  0.64050312  0.17974844  0.08333300  1
  O  O37  1  0.63883200  0.18058400  0.41673056  1
  O  O38  1  0.63883200  0.18058400  0.74993644  1
  O  O39  1  0.17982288  0.17969174  0.08333300  1
  O  O40  1  0.18061305  0.18045153  0.41672700  1
  O  O41  1  0.18061305  0.18045153  0.74994000  1
  O  O42  1  0.50000109  -0.00006109  0.16648610  1
  O  O43  1  0.49651108  0.00701674  0.50191218  1
  O  O44  1  0.49656245  0.00681157  0.83543130  1
  O  O45  1  -0.00008100  0.50004050  0.16647830  1
  O  O46  1  0.00701082  0.49649459  0.50191465  1
  O  O47  1  0.00682786  0.49658607  0.83543022  1
  O  O48  1  0.50000109  0.50006000  0.16648610  1
  O  O49  1  0.49651108  0.49647218  0.50191218  1
  O  O50  1  0.49656245  0.49662598  0.83543130  1
  O  O51  1  0.50000109  -0.00006109  0.00018090  1
  O  O52  1  0.49656245  0.00681157  0.33123470  1
  O  O53  1  0.49651108  0.00701674  0.66475482  1
  O  O54  1  -0.00008100  0.50004050  0.00018870  1
  O  O55  1  0.00682786  0.49658607  0.33123578  1
  O  O56  1  0.00701082  0.49649459  0.66475235  1
  O  O57  1  0.49656245  0.49662598  0.33123470  1
  O  O58  1  0.49651108  0.49647218  0.66475482  1
  O  O59  1  0.50000109  0.50006000  0.00018090  1
