# generated using pymatgen
data_AsP
_symmetry_space_group_name_H-M   'P 1'
_cell_length_a   3.68526495
_cell_length_b   3.68526491
_cell_length_c   3.94856471
_cell_angle_alpha   62.18237066
_cell_angle_beta   117.81762947
_cell_angle_gamma   119.99999956
_symmetry_Int_Tables_number   1
_chemical_formula_structural   AsP
_chemical_formula_sum   'As1 P1'
_cell_volume   39.12246305
_cell_formula_units_Z   1
loop_
 _symmetry_equiv_pos_site_id
 _symmetry_equiv_pos_as_xyz
  1  'x, y, z'
loop_
 _atom_site_type_symbol
 _atom_site_label
 _atom_site_symmetry_multiplicity
 _atom_site_fract_x
 _atom_site_fract_y
 _atom_site_fract_z
 _atom_site_occupancy
  As  As0  1  0.77252280  0.22747720  0.31756839  1
  P  P1  1  0.22747720  0.77252280  0.68243161  1
