# generated using pymatgen
data_Bi14Pb4Cl8O21
_symmetry_space_group_name_H-M   'P 1'
_cell_length_a   3.99836395
_cell_length_b   15.22440259
_cell_length_c   16.50008633
_cell_angle_alpha   77.75924022
_cell_angle_beta   83.04083726
_cell_angle_gamma   97.54554634
_symmetry_Int_Tables_number   1
_chemical_formula_structural   Bi14Pb4Cl8O21
_chemical_formula_sum   'Bi14 Pb4 Cl8 O21'
_cell_volume   961.49260504
_cell_formula_units_Z   1
loop_
 _symmetry_equiv_pos_site_id
 _symmetry_equiv_pos_as_xyz
  1  'x, y, z'
loop_
 _atom_site_type_symbol
 _atom_site_label
 _atom_site_symmetry_multiplicity
 _atom_site_fract_x
 _atom_site_fract_y
 _atom_site_fract_z
 _atom_site_occupancy
  Bi  Bi0  1  0.74958223  0.26040135  0.76123689  1
  Bi  Bi1  1  0.24626888  0.74642170  0.25388394  1
  Bi  Bi2  1  0.93506684  0.52638680  0.65625312  1
  Bi  Bi3  1  0.06229696  0.47343981  0.34884589  1
  Bi  Bi4  1  0.55891571  0.99406217  0.87623076  1
  Bi  Bi5  1  0.44422520  0.00707093  0.11862054  1
  Bi  Bi6  1  0.82538983  0.55424773  0.90346807  1
  Bi  Bi7  1  0.17663542  0.44964830  0.09637747  1
  Bi  Bi8  1  0.63759100  0.28433847  0.00915647  1
  Bi  Bi9  1  0.36490495  0.72027521  0.99046530  1
  Bi  Bi10  1  0.21547165  0.10102547  0.67008217  1
  Bi  Bi11  1  0.76174681  0.88026593  0.35677231  1
  Bi  Bi12  1  0.01444744  0.82522018  0.79632530  1
  Bi  Bi13  1  0.98858687  0.17737161  0.20019788  1
  Pb  Pb14  1  0.40774081  0.36842465  0.55294302  1
  Pb  Pb15  1  0.59404622  0.63710708  0.44901464  1
  Pb  Pb16  1  0.11288611  0.78937723  0.56360502  1
  Pb  Pb17  1  0.87616885  0.20215518  0.44981749  1
  Cl  Cl18  1  0.44451220  0.65719303  0.76816864  1
  Cl  Cl19  1  0.56084322  0.35043358  0.22874713  1
  Cl  Cl20  1  0.09961429  0.14068597  0.94145740  1
  Cl  Cl21  1  0.91413764  0.86273025  0.03445497  1
  Cl  Cl22  1  0.26904253  0.39933955  0.86125448  1
  Cl  Cl23  1  0.73562683  0.60071521  0.12946154  1
  Cl  Cl24  1  0.62235678  0.91799275  0.67327919  1
  Cl  Cl25  1  0.37986048  0.09636766  0.33664670  1
  O  O26  1  0.04437784  0.64199677  0.55324108  1
  O  O27  1  0.94600069  0.34541506  0.45341368  1
  O  O28  1  0.07257500  0.96518272  0.82003273  1
  O  O29  1  0.94203508  0.04869735  0.16462719  1
  O  O30  1  0.88816414  0.70010285  0.92377457  1
  O  O31  1  0.11657385  0.30485458  0.07170687  1
  O  O32  1  0.48139846  0.83297749  0.87018057  1
  O  O33  1  0.52469193  0.17736235  0.12797850  1
  O  O34  1  0.85856846  0.37273177  0.65559484  1
  O  O35  1  0.13046301  0.61514081  0.35421480  1
  O  O36  1  0.66889422  0.10072256  0.76293412  1
  O  O37  1  0.34090007  0.90584212  0.22404199  1
  O  O38  1  0.45226212  0.50557713  0.60105289  1
  O  O39  1  0.53496332  0.48091985  0.41099321  1
  O  O40  1  0.25857697  0.22813848  0.71098455  1
  O  O41  1  0.73268369  0.76340252  0.29803514  1
  O  O42  1  0.70523954  0.43513183  0.02465275  1
  O  O43  1  0.29773931  0.56777010  0.97229148  1
  O  O44  1  0.21426770  0.80485785  0.37632245  1
  O  O45  1  0.78390362  0.15769512  0.58988788  1
  O  O46  1  0.66575525  0.82478290  0.49327240  1
