# generated using pymatgen
data_Al8Cr5
_symmetry_space_group_name_H-M   'P 1'
_cell_length_a   7.87891329
_cell_length_b   7.87891329
_cell_length_c   7.87891329
_cell_angle_alpha   109.69518965
_cell_angle_beta   109.69518965
_cell_angle_gamma   109.69518959
_symmetry_Int_Tables_number   1
_chemical_formula_structural   Al8Cr5
_chemical_formula_sum   'Al16 Cr10'
_cell_volume   373.35574189
_cell_formula_units_Z   2
loop_
 _symmetry_equiv_pos_site_id
 _symmetry_equiv_pos_as_xyz
  1  'x, y, z'
loop_
 _atom_site_type_symbol
 _atom_site_label
 _atom_site_symmetry_multiplicity
 _atom_site_fract_x
 _atom_site_fract_y
 _atom_site_fract_z
 _atom_site_occupancy
  Al  Al0  1  0.69645533  0.69645533  0.69645533  1
  Al  Al1  1  0.64656345  0.00204444  0.64656345  1
  Al  Al2  1  0.64656345  0.64656345  0.00204444  1
  Al  Al3  1  0.00204444  0.64656345  0.64656345  1
  Al  Al4  1  0.33652348  0.55856945  0.33652348  1
  Al  Al5  1  0.33652348  0.33652348  0.55856945  1
  Al  Al6  1  0.55856945  0.33652348  0.33652348  1
  Al  Al7  1  0.73477108  0.38362245  0.73477108  1
  Al  Al8  1  0.73477108  0.73477108  0.38362245  1
  Al  Al9  1  0.38362245  0.73477108  0.73477108  1
  Al  Al10  1  0.28079721  0.66674510  0.03805302  1
  Al  Al11  1  0.03805302  0.28079721  0.66674510  1
  Al  Al12  1  0.66674510  0.03805302  0.28079721  1
  Al  Al13  1  0.66674510  0.28079721  0.03805302  1
  Al  Al14  1  0.03805302  0.66674510  0.28079721  1
  Al  Al15  1  0.28079721  0.03805302  0.66674510  1
  Cr  Cr16  1  0.15112437  0.15112437  0.15112437  1
  Cr  Cr17  1  0.01534332  0.79726633  0.01534332  1
  Cr  Cr18  1  0.01534332  0.01534332  0.79726633  1
  Cr  Cr19  1  0.79726633  0.01534332  0.01534332  1
  Cr  Cr20  1  0.98782814  0.33368988  0.98782814  1
  Cr  Cr21  1  0.98782814  0.98782814  0.33368988  1
  Cr  Cr22  1  0.33368988  0.98782814  0.98782814  1
  Cr  Cr23  1  0.36502299  0.01593216  0.36502299  1
  Cr  Cr24  1  0.36502299  0.36502299  0.01593216  1
  Cr  Cr25  1  0.01593216  0.36502299  0.36502299  1
