# generated using pymatgen
data_PrRuO3
_symmetry_space_group_name_H-M   'P 1'
_cell_length_a   5.38091487
_cell_length_b   5.98659921
_cell_length_c   7.85229276
_cell_angle_alpha   90.00000000
_cell_angle_beta   90.00000000
_cell_angle_gamma   90.00000000
_symmetry_Int_Tables_number   1
_chemical_formula_structural   PrRuO3
_chemical_formula_sum   'Pr4 Ru4 O12'
_cell_volume   252.94889612
_cell_formula_units_Z   4
loop_
 _symmetry_equiv_pos_site_id
 _symmetry_equiv_pos_as_xyz
  1  'x, y, z'
loop_
 _atom_site_type_symbol
 _atom_site_label
 _atom_site_symmetry_multiplicity
 _atom_site_fract_x
 _atom_site_fract_y
 _atom_site_fract_z
 _atom_site_occupancy
  O  O0  1  0.89444228  0.53653371  0.75000000  1
  O  O1  1  0.39444228  0.96346629  0.25000000  1
  O  O2  1  0.60555772  0.03653371  0.75000000  1
  O  O3  1  0.10555772  0.46346629  0.25000000  1
  O  O4  1  0.68431926  0.30258364  0.44900609  1
  O  O5  1  0.18431926  0.19741636  0.55099391  1
  O  O6  1  0.81568074  0.80258364  0.05099391  1
  O  O7  1  0.31568074  0.69741636  0.94900609  1
  O  O8  1  0.68431926  0.30258364  0.05099391  1
  O  O9  1  0.18431926  0.19741636  0.94900609  1
  O  O10  1  0.81568074  0.80258364  0.44900609  1
  O  O11  1  0.31568074  0.69741636  0.55099391  1
  Ru  Ru12  1  0.50000000  0.00000000  0.50000000  1
  Ru  Ru13  1  0.00000000  0.50000000  0.50000000  1
  Ru  Ru14  1  0.00000000  0.50000000  0.00000000  1
  Ru  Ru15  1  0.50000000  0.00000000  0.00000000  1
  Pr  Pr16  1  0.02685131  0.92463716  0.75000000  1
  Pr  Pr17  1  0.52685131  0.57536284  0.25000000  1
  Pr  Pr18  1  0.47314869  0.42463716  0.75000000  1
  Pr  Pr19  1  0.97314869  0.07536284  0.25000000  1
