# generated using pymatgen
data_KHgC3(NO)3
_symmetry_space_group_name_H-M   'P 1'
_cell_length_a   4.10312158
_cell_length_b   10.57210742
_cell_length_c   17.93094014
_cell_angle_alpha   90.00000000
_cell_angle_beta   90.00000000
_cell_angle_gamma   90.00000000
_symmetry_Int_Tables_number   1
_chemical_formula_structural   KHgC3(NO)3
_chemical_formula_sum   'K4 Hg4 C12 N12 O12'
_cell_volume   777.81983487
_cell_formula_units_Z   4
loop_
 _symmetry_equiv_pos_site_id
 _symmetry_equiv_pos_as_xyz
  1  'x, y, z'
loop_
 _atom_site_type_symbol
 _atom_site_label
 _atom_site_symmetry_multiplicity
 _atom_site_fract_x
 _atom_site_fract_y
 _atom_site_fract_z
 _atom_site_occupancy
  C  C0  1  0.25000000  0.62256058  0.03310591  1
  C  C1  1  0.75000000  0.87743942  0.53310591  1
  C  C2  1  0.25000000  0.12256058  0.46689409  1
  C  C3  1  0.75000000  0.37743942  0.96689409  1
  C  C4  1  0.25000000  0.12417188  0.87251335  1
  C  C5  1  0.75000000  0.87582812  0.12748665  1
  C  C6  1  0.25000000  0.62417188  0.62748665  1
  C  C7  1  0.75000000  0.37582812  0.37251335  1
  C  C8  1  0.25000000  0.62639619  0.29914105  1
  C  C9  1  0.75000000  0.37360381  0.70085895  1
  C  C10  1  0.25000000  0.12639619  0.20085895  1
  C  C11  1  0.75000000  0.87360381  0.79914105  1
  N  N12  1  0.25000000  0.70630502  0.34770947  1
  N  N13  1  0.75000000  0.29369498  0.65229053  1
  N  N14  1  0.25000000  0.20630502  0.15229053  1
  N  N15  1  0.75000000  0.79369498  0.84770947  1
  N  N16  1  0.75000000  0.29416806  0.01289755  1
  N  N17  1  0.25000000  0.70583194  0.98710245  1
  N  N18  1  0.75000000  0.43348215  0.43108462  1
  N  N19  1  0.25000000  0.56651785  0.56891538  1
  N  N20  1  0.75000000  0.79416806  0.48710245  1
  N  N21  1  0.25000000  0.20583194  0.51289755  1
  N  N22  1  0.75000000  0.93348215  0.06891538  1
  N  N23  1  0.25000000  0.06651785  0.93108462  1
  O  O24  1  0.25000000  0.55250337  0.24840950  1
  O  O25  1  0.75000000  0.44749663  0.75159050  1
  O  O26  1  0.75000000  0.94749663  0.74840950  1
  O  O27  1  0.75000000  0.32596335  0.31244830  1
  O  O28  1  0.75000000  0.96221019  0.57862210  1
  O  O29  1  0.25000000  0.03778981  0.42137790  1
  O  O30  1  0.75000000  0.46221019  0.92137790  1
  O  O31  1  0.25000000  0.53778981  0.07862210  1
  O  O32  1  0.25000000  0.67403665  0.68755170  1
  O  O33  1  0.75000000  0.82596335  0.18755170  1
  O  O34  1  0.25000000  0.17403665  0.81244830  1
  O  O35  1  0.25000000  0.05250337  0.25159050  1
  K  K36  1  0.75000000  0.41627627  0.16221009  1
  K  K37  1  0.25000000  0.58372373  0.83778991  1
  K  K38  1  0.75000000  0.91627627  0.33778991  1
  K  K39  1  0.25000000  0.08372373  0.66221009  1
  Hg  Hg40  1  0.75000000  0.84330989  0.96317956  1
  Hg  Hg41  1  0.25000000  0.15669011  0.03682044  1
  Hg  Hg42  1  0.75000000  0.34330989  0.53682044  1
  Hg  Hg43  1  0.25000000  0.65669011  0.46317956  1
