# generated using pymatgen
data_Al17(SiPd2)4
_symmetry_space_group_name_H-M   'P 1'
_cell_length_a   10.64489967
_cell_length_b   10.64489967
_cell_length_c   10.64489967
_cell_angle_alpha   104.67888003
_cell_angle_beta   104.67888003
_cell_angle_gamma   119.55094441
_symmetry_Int_Tables_number   1
_chemical_formula_structural   Al17(SiPd2)4
_chemical_formula_sum   'Al34 Si8 Pd16'
_cell_volume   906.66402537
_cell_formula_units_Z   2
loop_
 _symmetry_equiv_pos_site_id
 _symmetry_equiv_pos_as_xyz
  1  'x, y, z'
loop_
 _atom_site_type_symbol
 _atom_site_label
 _atom_site_symmetry_multiplicity
 _atom_site_fract_x
 _atom_site_fract_y
 _atom_site_fract_z
 _atom_site_occupancy
  Al  Al0  1  0.25000000  0.75000000  0.50000000  1
  Al  Al1  1  0.50000000  0.50000000  0.00000000  1
  Al  Al2  1  0.71452215  0.55049026  0.66571436  1
  Al  Al3  1  0.88477591  0.04880780  0.33428564  1
  Al  Al4  1  0.86522409  0.20119220  0.16571436  1
  Al  Al5  1  0.03547785  0.69950974  0.83428564  1
  Al  Al6  1  0.95119220  0.28547785  0.83596811  1
  Al  Al7  1  0.44950974  0.11522409  0.16403189  1
  Al  Al8  1  0.30049026  0.13477591  0.33596811  1
  Al  Al9  1  0.79880780  0.96452215  0.66403189  1
  Al  Al10  1  0.43659478  0.50653768  0.49104630  1
  Al  Al11  1  0.01549138  0.94554848  0.50895370  1
  Al  Al12  1  0.73450862  0.30445152  0.99104630  1
  Al  Al13  1  0.31340522  0.74346232  0.00895370  1
  Al  Al14  1  0.05445152  0.56340522  0.06994290  1
  Al  Al15  1  0.49346232  0.98450862  0.93005710  1
  Al  Al16  1  0.25653768  0.26549138  0.56994290  1
  Al  Al17  1  0.69554848  0.68659478  0.43005710  1
  Al  Al18  1  0.22181286  0.51457131  0.27321469  1
  Al  Al19  1  0.24135662  0.94859816  0.72678531  1
  Al  Al20  1  0.50864338  0.30140184  0.77321469  1
  Al  Al21  1  0.52818714  0.73542869  0.22678531  1
  Al  Al22  1  0.05140184  0.77818714  0.29275845  1
  Al  Al23  1  0.48542869  0.75864338  0.70724155  1
  Al  Al24  1  0.26457131  0.49135662  0.79275845  1
  Al  Al25  1  0.69859816  0.47181286  0.20724155  1
  Al  Al26  1  0.09733458  0.42534674  0.47607920  1
  Al  Al27  1  0.94926753  0.62125538  0.52392080  1
  Al  Al28  1  0.80073247  0.62874462  0.97607920  1
  Al  Al29  1  0.65266542  0.82465326  0.02392080  1
  Al  Al30  1  0.37874462  0.90266542  0.32801216  1
  Al  Al31  1  0.57465326  0.05073247  0.67198784  1
  Al  Al32  1  0.17534674  0.19926753  0.82801216  1
  Al  Al33  1  0.37125538  0.34733458  0.17198784  1
  Si  Si34  1  0.77472148  0.31007611  0.36469052  1
  Si  Si35  1  0.94538559  0.41003095  0.63530948  1
  Si  Si36  1  0.80461441  0.83996905  0.86469052  1
  Si  Si37  1  0.97527852  0.93992389  0.13530948  1
  Si  Si38  1  0.58996905  0.22527852  0.53535464  1
  Si  Si39  1  0.68992389  0.05461441  0.46464536  1
  Si  Si40  1  0.06007611  0.19538559  0.03535464  1
  Si  Si41  1  0.16003095  0.02472148  0.96464536  1
  Pd  Pd42  1  0.52381718  0.56008717  0.77381810  1
  Pd  Pd43  1  0.78626907  0.74999908  0.22618190  1
  Pd  Pd44  1  0.96373093  0.50000092  0.27381810  1
  Pd  Pd45  1  0.22618282  0.68991283  0.72618190  1
  Pd  Pd46  1  0.25000092  0.47618282  0.03626999  1
  Pd  Pd47  1  0.43991283  0.21373093  0.96373001  1
  Pd  Pd48  1  0.31008717  0.03626907  0.53626999  1
  Pd  Pd49  1  0.49999908  0.77381718  0.46373001  1
  Pd  Pd50  1  0.16336408  0.85770024  0.11115951  1
  Pd  Pd51  1  0.74654073  0.05220457  0.88884049  1
  Pd  Pd52  1  0.00345927  0.19779543  0.61115951  1
  Pd  Pd53  1  0.58663592  0.39229976  0.38884049  1
  Pd  Pd54  1  0.94779543  0.83663592  0.69433616  1
  Pd  Pd55  1  0.14229976  0.25345927  0.30566384  1
  Pd  Pd56  1  0.60770024  0.99654073  0.19433616  1
  Pd  Pd57  1  0.80220457  0.41336408  0.80566384  1
