# generated using pymatgen
data_SrPr3
_symmetry_space_group_name_H-M   'P 1'
_cell_length_a   7.72985310
_cell_length_b   7.72985389
_cell_length_c   6.12481138
_cell_angle_alpha   90.00000000
_cell_angle_beta   90.00000000
_cell_angle_gamma   120.00000171
_symmetry_Int_Tables_number   1
_chemical_formula_structural   SrPr3
_chemical_formula_sum   'Sr2 Pr6'
_cell_volume   316.93183732
_cell_formula_units_Z   2
loop_
 _symmetry_equiv_pos_site_id
 _symmetry_equiv_pos_as_xyz
  1  'x, y, z'
loop_
 _atom_site_type_symbol
 _atom_site_label
 _atom_site_symmetry_multiplicity
 _atom_site_fract_x
 _atom_site_fract_y
 _atom_site_fract_z
 _atom_site_occupancy
  Sr  Sr0  1  0.33333400  0.66666700  0.75000000  1
  Sr  Sr1  1  0.66666700  0.33333300  0.25000100  1
  Pr  Pr2  1  0.16040014  0.32080128  0.25000100  1
  Pr  Pr3  1  0.67919872  0.83959986  0.25000100  1
  Pr  Pr4  1  0.16040214  0.83959986  0.25000100  1
  Pr  Pr5  1  0.83960086  0.67919872  0.75000000  1
  Pr  Pr6  1  0.32079928  0.16040014  0.75000000  1
  Pr  Pr7  1  0.83959886  0.16040014  0.75000000  1
