# generated using pymatgen
data_RbO3
_symmetry_space_group_name_H-M   'P 1'
_cell_length_a   6.17611380
_cell_length_b   6.65622520
_cell_length_c   7.66190326
_cell_angle_alpha   102.27656311
_cell_angle_beta   90.00000000
_cell_angle_gamma   90.00000000
_symmetry_Int_Tables_number   1
_chemical_formula_structural   RbO3
_chemical_formula_sum   'Rb4 O12'
_cell_volume   307.77509803
_cell_formula_units_Z   4
loop_
 _symmetry_equiv_pos_site_id
 _symmetry_equiv_pos_as_xyz
  1  'x, y, z'
loop_
 _atom_site_type_symbol
 _atom_site_label
 _atom_site_symmetry_multiplicity
 _atom_site_fract_x
 _atom_site_fract_y
 _atom_site_fract_z
 _atom_site_occupancy
  O  O0  1  0.56258878  0.68995001  0.79728548  1
  O  O1  1  0.06258878  0.81004999  0.70271452  1
  O  O2  1  0.43741122  0.31004999  0.20271452  1
  O  O3  1  0.93741122  0.18995001  0.29728548  1
  O  O4  1  0.79419099  0.10964018  0.40011982  1
  O  O5  1  0.29419099  0.39035982  0.09988018  1
  O  O6  1  0.20580901  0.89035982  0.59988018  1
  O  O7  1  0.70580901  0.60964018  0.90011982  1
  O  O8  1  0.74286378  0.24262030  0.55741241  1
  O  O9  1  0.24286378  0.25737970  0.94258759  1
  O  O10  1  0.25713622  0.75737970  0.44258759  1
  O  O11  1  0.75713622  0.74262030  0.05741241  1
  Rb  Rb12  1  0.25668029  0.36194948  0.58541925  1
  Rb  Rb13  1  0.75668029  0.13805052  0.91458075  1
  Rb  Rb14  1  0.74331971  0.63805052  0.41458075  1
  Rb  Rb15  1  0.24331971  0.86194948  0.08541925  1
