# generated using pymatgen
data_Sr2CdWO6
_symmetry_space_group_name_H-M   'P 1'
_cell_length_a   5.82887693
_cell_length_b   6.06382422
_cell_length_c   8.33515874
_cell_angle_alpha   90.00000000
_cell_angle_beta   90.00000000
_cell_angle_gamma   90.00000000
_symmetry_Int_Tables_number   1
_chemical_formula_structural   Sr2CdWO6
_chemical_formula_sum   'Sr4 Cd2 W2 O12'
_cell_volume   294.60856205
_cell_formula_units_Z   2
loop_
 _symmetry_equiv_pos_site_id
 _symmetry_equiv_pos_as_xyz
  1  'x, y, z'
loop_
 _atom_site_type_symbol
 _atom_site_label
 _atom_site_symmetry_multiplicity
 _atom_site_fract_x
 _atom_site_fract_y
 _atom_site_fract_z
 _atom_site_occupancy
  O  O0  1  0.50000000  0.51191783  0.73303760  1
  O  O1  1  0.50000000  0.51191783  0.26696240  1
  O  O2  1  0.00000000  0.95000247  0.76695932  1
  O  O3  1  0.00000000  0.95000247  0.23304068  1
  O  O4  1  0.73374737  0.72925600  0.50000000  1
  O  O5  1  0.26625263  0.72925600  0.50000000  1
  O  O6  1  0.74276672  0.27998645  0.50000000  1
  O  O7  1  0.25723328  0.27998645  0.50000000  1
  O  O8  1  0.24270904  0.18208173  0.00000000  1
  O  O9  1  0.75729096  0.18208173  0.00000000  1
  O  O10  1  0.76619469  0.73279785  0.00000000  1
  O  O11  1  0.23380531  0.73279785  0.00000000  1
  Sr  Sr12  1  0.50000000  0.94079928  0.76396425  1
  Sr  Sr13  1  0.50000000  0.94079928  0.23603575  1
  Sr  Sr14  1  0.00000000  0.52117524  0.73602069  1
  Sr  Sr15  1  0.00000000  0.52117524  0.26397931  1
  Cd  Cd16  1  0.00000000  0.00494779  0.50000000  1
  Cd  Cd17  1  0.50000000  0.45705914  0.00000000  1
  W  W18  1  0.50000000  0.49372021  0.50000000  1
  W  W19  1  0.00000000  0.96823915  0.00000000  1
