# generated using pymatgen
data_BaVO3
_symmetry_space_group_name_H-M   'P 1'
_cell_length_a   5.77792957
_cell_length_b   5.77792957
_cell_length_c   11.74099691
_cell_angle_alpha   90.00000000
_cell_angle_beta   90.00000000
_cell_angle_gamma   120.00000004
_symmetry_Int_Tables_number   1
_chemical_formula_structural   BaVO3
_chemical_formula_sum   'Ba5 V5 O15'
_cell_volume   339.45334529
_cell_formula_units_Z   5
loop_
 _symmetry_equiv_pos_site_id
 _symmetry_equiv_pos_as_xyz
  1  'x, y, z'
loop_
 _atom_site_type_symbol
 _atom_site_label
 _atom_site_symmetry_multiplicity
 _atom_site_fract_x
 _atom_site_fract_y
 _atom_site_fract_z
 _atom_site_occupancy
  O  O0  1  0.85001230  0.14998889  0.39947145  1
  O  O1  1  0.85001121  0.70002281  0.39947145  1
  O  O2  1  0.29997619  0.14998889  0.39947145  1
  O  O3  1  0.70002391  0.85001170  0.60052846  1
  O  O4  1  0.14998889  0.29997778  0.60052846  1
  O  O5  1  0.14998779  0.85001170  0.60052846  1
  O  O6  1  0.83358626  0.16641268  0.80022300  1
  O  O7  1  0.83358641  0.66717322  0.80022300  1
  O  O8  1  0.33282602  0.16641268  0.80022300  1
  O  O9  1  0.66717307  0.83358590  0.19977691  1
  O  O10  1  0.49999980  0.00000000  0.00000000  1
  O  O11  1  0.99999937  0.50000030  0.00000000  1
  O  O12  1  0.16641369  0.33282737  0.19977691  1
  O  O13  1  0.16641283  0.83358590  0.19977691  1
  O  O14  1  0.50000092  0.50000030  0.00000000  1
  V  V15  1  0.00000000  0.00000000  0.49999995  1
  V  V16  1  0.66666657  0.33333353  0.90833484  1
  V  V17  1  0.33333353  0.66666706  0.09166506  1
  V  V18  1  0.00000000  0.00000000  0.27655346  1
  V  V19  1  0.00000000  0.00000000  0.72344645  1
  Ba  Ba20  1  0.66666657  0.33333353  0.59440658  1
  Ba  Ba21  1  0.33333353  0.66666706  0.40559333  1
  Ba  Ba22  1  0.66666657  0.33333353  0.21001489  1
  Ba  Ba23  1  0.33333353  0.66666706  0.78998502  1
  Ba  Ba24  1  0.00000000  0.00000000  0.00000000  1
