# generated using pymatgen
data_CoH20Se2(NO7)2
_symmetry_space_group_name_H-M   'P 1'
_cell_length_a   6.49363901
_cell_length_b   9.41407982
_cell_length_c   12.75889287
_cell_angle_alpha   90.00000000
_cell_angle_beta   90.00000000
_cell_angle_gamma   106.76051159
_symmetry_Int_Tables_number   1
_chemical_formula_structural   CoH20Se2(NO7)2
_chemical_formula_sum   'Co2 H40 Se4 N4 O28'
_cell_volume   746.83759156
_cell_formula_units_Z   2
loop_
 _symmetry_equiv_pos_site_id
 _symmetry_equiv_pos_as_xyz
  1  'x, y, z'
loop_
 _atom_site_type_symbol
 _atom_site_label
 _atom_site_symmetry_multiplicity
 _atom_site_fract_x
 _atom_site_fract_y
 _atom_site_fract_z
 _atom_site_occupancy
  H  H0  1  0.45683955  0.57311295  0.18027733  1
  H  H1  1  0.05309870  0.76225840  0.59617977  1
  H  H2  1  0.94690130  0.73774198  0.09617964  1
  H  H3  1  0.94690120  0.23774156  0.40382048  1
  H  H4  1  0.19994655  0.06980003  0.32913213  1
  H  H5  1  0.80005327  0.43019951  0.82913226  1
  H  H6  1  0.80005336  0.93019993  0.67086735  1
  H  H7  1  0.19994664  0.56980045  0.17086800  1
  H  H8  1  0.37687424  0.16821052  0.41918063  1
  H  H9  1  0.62312604  0.33179013  0.91918076  1
  H  H10  1  0.62312720  0.83178944  0.58081963  1
  H  H11  1  0.37687387  0.66820983  0.08081950  1
  H  H12  1  0.39039071  0.23074757  0.29393326  1
  H  H13  1  0.60960957  0.26925308  0.79393339  1
  H  H14  1  0.60960920  0.76925239  0.70606621  1
  H  H15  1  0.39039034  0.73074688  0.20606686  1
  H  H16  1  0.45683945  0.07311252  0.31972280  1
  H  H17  1  0.54316082  0.42688812  0.81972293  1
  H  H18  1  0.54316045  0.92688743  0.68027667  1
  H  H19  1  0.05309861  0.26225797  0.90381983  1
  H  H20  1  0.99418135  0.63800753  0.68470982  1
  H  H21  1  0.00581866  0.86199286  0.18470969  1
  H  H22  1  0.00581856  0.36199243  0.31529044  1
  H  H23  1  0.99418125  0.13800710  0.81529057  1
  H  H24  1  0.67897737  0.28706738  0.58569831  1
  H  H25  1  0.32102291  0.21293327  0.08569818  1
  H  H26  1  0.32102408  0.71293258  0.41430117  1
  H  H27  1  0.67897700  0.78706669  0.91430129  1
  H  H28  1  0.89554599  0.25020837  0.62002684  1
  H  H29  1  0.10445382  0.24979116  0.12002671  1
  H  H30  1  0.32232431  0.02093187  0.85740166  1
  H  H31  1  0.67767597  0.47906878  0.35740153  1
  H  H32  1  0.67767560  0.97906809  0.14259859  1
  H  H33  1  0.32232394  0.52093118  0.64259872  1
  H  H34  1  0.33291858  0.90241906  0.94385746  1
  H  H35  1  0.66708096  0.59758021  0.44385733  1
  H  H36  1  0.66708133  0.09758090  0.05614280  1
  H  H37  1  0.33291895  0.40241975  0.55614293  1
  H  H38  1  0.10445392  0.74979158  0.37997342  1
  H  H39  1  0.89554609  0.75020880  0.87997354  1
  N  N40  1  0.35602762  0.13676307  0.34038725  1
  N  N41  1  0.35602725  0.63676238  0.15961209  1
  N  N42  1  0.64397266  0.36323758  0.84038738  1
  N  N43  1  0.64397229  0.86323689  0.65961222  1
  O  O44  1  0.83129679  0.33169253  0.60654356  1
  O  O45  1  0.70842315  0.00525173  0.06764942  1
  O  O46  1  0.70842325  0.50525215  0.43235071  1
  O  O47  1  0.29157676  0.99474823  0.93235005  1
  O  O48  1  0.96827537  0.38583187  0.17938810  1
  O  O49  1  0.03172444  0.11416766  0.67938823  1
  O  O50  1  0.96297105  0.15878062  0.88893157  1
  O  O51  1  0.03702923  0.34122003  0.38893144  1
  O  O52  1  0.03702886  0.84121934  0.11106791  1
  O  O53  1  0.96297068  0.65877993  0.61106803  1
  O  O54  1  0.03172453  0.61416809  0.82061215  1
  O  O55  1  0.96827547  0.88583229  0.32061203  1
  O  O56  1  0.60697583  0.27026276  0.05577809  1
  O  O57  1  0.39302445  0.22973789  0.55577822  1
  O  O58  1  0.16870302  0.16830700  0.10654343  1
  O  O59  1  0.29157666  0.49474780  0.56764955  1
  O  O60  1  0.83129688  0.83169296  0.89345683  1
  O  O61  1  0.39302408  0.72973720  0.94422138  1
  O  O62  1  0.79338507  0.06816229  0.43834349  1
  O  O63  1  0.20661474  0.43183725  0.93834361  1
  O  O64  1  0.20661637  0.93183767  0.56165677  1
  O  O65  1  0.79338517  0.56816271  0.06165664  1
  O  O66  1  0.57623318  0.92382644  0.26759717  1
  O  O67  1  0.42376683  0.57617394  0.76759729  1
  O  O68  1  0.42376673  0.07617351  0.73240309  1
  O  O69  1  0.57623308  0.42382602  0.23240296  1
  O  O70  1  0.60697546  0.77026207  0.44422204  1
  O  O71  1  0.16870312  0.66830743  0.39345670  1
  Co  Co72  1  0.00000000  0.00000000  0.00000000  1
  Co  Co73  1  0.00000009  0.50000042  0.50000013  1
  Se  Se74  1  0.25919104  0.58639878  0.86801193  1
  Se  Se75  1  0.74080897  0.91360160  0.36801180  1
  Se  Se76  1  0.25919094  0.08639836  0.63198845  1
  Se  Se77  1  0.74080887  0.41360118  0.13198832  1
