# generated using pymatgen
data_Sn2P3O10
_symmetry_space_group_name_H-M   'P 1'
_cell_length_a   5.16487567
_cell_length_b   9.46127924
_cell_length_c   9.41183900
_cell_angle_alpha   90.00000000
_cell_angle_beta   102.27315131
_cell_angle_gamma   90.00000000
_symmetry_Int_Tables_number   1
_chemical_formula_structural   Sn2P3O10
_chemical_formula_sum   'Sn4 P6 O20'
_cell_volume   449.41065593
_cell_formula_units_Z   2
loop_
 _symmetry_equiv_pos_site_id
 _symmetry_equiv_pos_as_xyz
  1  'x, y, z'
loop_
 _atom_site_type_symbol
 _atom_site_label
 _atom_site_symmetry_multiplicity
 _atom_site_fract_x
 _atom_site_fract_y
 _atom_site_fract_z
 _atom_site_occupancy
  O  O0  1  0.10556473  0.11384652  0.83115770  1
  O  O1  1  0.10556473  0.38615348  0.83115770  1
  O  O2  1  0.25363521  0.75000000  0.74647219  1
  O  O3  1  0.34332509  0.61442462  0.43028122  1
  O  O4  1  0.34332509  0.88557538  0.43028122  1
  O  O5  1  0.23280052  0.25000000  0.48965355  1
  O  O6  1  0.30611075  0.11375133  0.20700472  1
  O  O7  1  0.30611075  0.38624867  0.20700472  1
  O  O8  1  0.45741247  0.25000000  1.00861885  1
  O  O9  1  0.48518570  0.25000000  0.75875432  1
  O  O10  1  0.51481430  0.75000000  0.24124568  1
  O  O11  1  0.54258753  0.75000000  -0.00861885  1
  O  O12  1  0.69388925  0.61375133  0.79299528  1
  O  O13  1  0.69388925  0.88624867  0.79299528  1
  O  O14  1  0.76719948  0.75000000  0.51034645  1
  O  O15  1  0.65667491  0.11442462  0.56971878  1
  O  O16  1  0.65667491  0.38557538  0.56971878  1
  O  O17  1  0.74636479  0.25000000  0.25352781  1
  O  O18  1  0.89443527  0.61384652  0.16884230  1
  O  O19  1  0.89443527  0.88615348  0.16884230  1
  P  P20  1  0.26332261  0.25000000  0.85267760  1
  P  P21  1  0.48721350  0.75000000  0.40940930  1
  P  P22  1  0.55147484  0.75000000  0.82082398  1
  P  P23  1  0.44852516  0.25000000  0.17917602  1
  P  P24  1  0.51278650  0.25000000  0.59059070  1
  P  P25  1  0.73667739  0.75000000  0.14732240  1
  Sn  Sn26  1  0.04820376  0.04312656  0.34068212  1
  Sn  Sn27  1  0.04820376  0.45687344  0.34068212  1
  Sn  Sn28  1  0.95179624  0.54312656  0.65931788  1
  Sn  Sn29  1  0.95179624  0.95687344  0.65931788  1
