# generated using pymatgen
data_H11O8
_symmetry_space_group_name_H-M   'P 1'
_cell_length_a   4.38720993
_cell_length_b   4.88986253
_cell_length_c   11.41098722
_cell_angle_alpha   89.32986786
_cell_angle_beta   86.48107931
_cell_angle_gamma   122.42929824
_symmetry_Int_Tables_number   1
_chemical_formula_structural   H11O8
_chemical_formula_sum   'H11 O8'
_cell_volume   205.94398036
_cell_formula_units_Z   1
loop_
 _symmetry_equiv_pos_site_id
 _symmetry_equiv_pos_as_xyz
  1  'x, y, z'
loop_
 _atom_site_type_symbol
 _atom_site_label
 _atom_site_symmetry_multiplicity
 _atom_site_fract_x
 _atom_site_fract_y
 _atom_site_fract_z
 _atom_site_occupancy
  H  H0  1  -0.03682467  0.48412467  0.29382662  1
  H  H1  1  0.10748538  0.53079702  0.48760245  1
  H  H2  1  0.12302132  0.55418446  0.00366679  1
  H  H3  1  0.49060739  0.58001182  0.81847339  1
  H  H4  1  0.59364710  0.43028573  0.49840264  1
  H  H5  1  0.57754752  0.44732099  0.01390713  1
  H  H6  1  0.67130107  0.34612961  0.69855643  1
  H  H7  1  0.66573583  0.33149751  0.20417160  1
  H  H8  1  0.59590201  0.11010944  0.50180851  1
  H  H9  1  0.57978443  0.12034946  0.01182494  1
  H  H10  1  0.93197545  0.50845238  0.80278466  1
  O  O11  1  0.42812594  0.70774961  0.34349185  1
  O  O12  1  0.36222074  0.69664506  0.84629650  1
  O  O13  1  0.38480945  0.67580874  0.46396685  1
  O  O14  1  0.39025855  0.69382746  0.97433298  1
  O  O15  1  0.67942333  0.41075050  0.77992369  1
  O  O16  1  0.69781084  0.35196906  0.28919660  1
  O  O17  1  0.69476707  0.33824575  0.04488740  1
  O  O18  1  0.70440123  0.32474072  0.53597899  1
