# generated using pymatgen
data_SnAsF7
_symmetry_space_group_name_H-M   'P 1'
_cell_length_a   7.86622525
_cell_length_b   7.86622525
_cell_length_c   7.86622524
_cell_angle_alpha   72.92053890
_cell_angle_beta   72.92053892
_cell_angle_gamma   72.92053891
_symmetry_Int_Tables_number   1
_chemical_formula_structural   SnAsF7
_chemical_formula_sum   'Sn3 As3 F21'
_cell_volume   433.14401691
_cell_formula_units_Z   3
loop_
 _symmetry_equiv_pos_site_id
 _symmetry_equiv_pos_as_xyz
  1  'x, y, z'
loop_
 _atom_site_type_symbol
 _atom_site_label
 _atom_site_symmetry_multiplicity
 _atom_site_fract_x
 _atom_site_fract_y
 _atom_site_fract_z
 _atom_site_occupancy
  F  F0  1  0.50000000  0.32074773  0.67925227  1
  F  F1  1  0.32074773  0.67925227  0.50000000  1
  F  F2  1  0.67925227  0.50000000  0.32074773  1
  F  F3  1  0.63602067  0.79842722  0.48646371  1
  F  F4  1  0.79842722  0.48646371  0.63602067  1
  F  F5  1  0.48646371  0.63602067  0.79842722  1
  F  F6  1  0.14895498  0.15001289  0.88103849  1
  F  F7  1  0.88103849  0.14895498  0.15001289  1
  F  F8  1  0.15001289  0.88103849  0.14895498  1
  F  F9  1  0.84998711  0.85104502  0.11896151  1
  F  F10  1  0.11896151  0.84998711  0.85104502  1
  F  F11  1  0.85104502  0.11896151  0.84998711  1
  F  F12  1  0.39721111  0.23911315  0.08635931  1
  F  F13  1  0.08635931  0.39721111  0.23911315  1
  F  F14  1  0.23911315  0.08635931  0.39721111  1
  F  F15  1  0.76088685  0.60278889  0.91364069  1
  F  F16  1  0.91364069  0.76088685  0.60278889  1
  F  F17  1  0.60278889  0.91364069  0.76088685  1
  F  F18  1  0.36397933  0.51353629  0.20157278  1
  F  F19  1  0.20157278  0.36397933  0.51353629  1
  F  F20  1  0.51353629  0.20157278  0.36397933  1
  As  As21  1  0.70093335  0.70093335  0.70093335  1
  As  As22  1  0.29906665  0.29906665  0.29906665  1
  As  As23  1  0.00000000  0.00000000  0.00000000  1
  Sn  Sn24  1  0.24150699  0.50000000  0.75849301  1
  Sn  Sn25  1  0.50000000  0.75849301  0.24150699  1
  Sn  Sn26  1  0.75849301  0.24150699  0.50000000  1
