# generated using pymatgen
data_Mn2CuO4
_symmetry_space_group_name_H-M   'P 1'
_cell_length_a   6.02715723
_cell_length_b   6.07791671
_cell_length_c   6.02715808
_cell_angle_alpha   59.72101802
_cell_angle_beta   61.11228287
_cell_angle_gamma   59.72101345
_symmetry_Int_Tables_number   1
_chemical_formula_structural   Mn2CuO4
_chemical_formula_sum   'Mn4 Cu2 O8'
_cell_volume   156.71367147
_cell_formula_units_Z   2
loop_
 _symmetry_equiv_pos_site_id
 _symmetry_equiv_pos_as_xyz
  1  'x, y, z'
loop_
 _atom_site_type_symbol
 _atom_site_label
 _atom_site_symmetry_multiplicity
 _atom_site_fract_x
 _atom_site_fract_y
 _atom_site_fract_z
 _atom_site_occupancy
  Cu  Cu0  1  0.62500000  0.12500000  0.62500000  1
  Cu  Cu1  1  0.62500000  0.62500000  0.62500000  1
  Mn  Mn2  1  0.00524519  0.99475481  0.00524519  1
  Mn  Mn3  1  0.24475481  0.25524519  0.24475481  1
  Mn  Mn4  1  0.12500000  0.62500000  0.62500000  1
  Mn  Mn5  1  0.62500000  0.62500000  0.12500000  1
  O  O6  1  0.38051437  0.39474703  0.38051437  1
  O  O7  1  0.37681841  0.39308215  0.83701729  1
  O  O8  1  0.38051437  0.84422423  0.38051437  1
  O  O9  1  0.41298271  0.85691785  0.87318159  1
  O  O10  1  0.83701729  0.39308215  0.37681841  1
  O  O11  1  0.87318159  0.85691785  0.41298271  1
  O  O12  1  0.86948563  0.40577577  0.86948563  1
  O  O13  1  0.86948563  0.85525297  0.86948563  1
