# generated using pymatgen
data_BH2N
_symmetry_space_group_name_H-M   'P 1'
_cell_length_a   5.60885031
_cell_length_b   5.60885031
_cell_length_c   16.84195883
_cell_angle_alpha   90.00000000
_cell_angle_beta   90.00000000
_cell_angle_gamma   90.00000000
_symmetry_Int_Tables_number   1
_chemical_formula_structural   BH2N
_chemical_formula_sum   'B12 H24 N12'
_cell_volume   529.83458154
_cell_formula_units_Z   12
loop_
 _symmetry_equiv_pos_site_id
 _symmetry_equiv_pos_as_xyz
  1  'x, y, z'
loop_
 _atom_site_type_symbol
 _atom_site_label
 _atom_site_symmetry_multiplicity
 _atom_site_fract_x
 _atom_site_fract_y
 _atom_site_fract_z
 _atom_site_occupancy
  H  H0  1  0.97604089  0.97604089  0.50000000  1
  H  H1  1  0.52395911  0.47604089  0.25000000  1
  H  H2  1  0.47604089  0.52395911  0.75000000  1
  H  H3  1  0.02395911  0.02395911  0.00000000  1
  H  H4  1  0.62372569  0.96560816  0.40471988  1
  H  H5  1  0.37627431  0.03439184  0.90471988  1
  H  H6  1  0.96560816  0.62372569  0.59528012  1
  H  H7  1  0.46560816  0.87627431  0.65471988  1
  H  H8  1  0.53439184  0.12372569  0.15471988  1
  H  H9  1  0.87627431  0.46560816  0.34528012  1
  H  H10  1  0.12372569  0.53439184  0.84528012  1
  H  H11  1  0.03439184  0.37627431  0.09528012  1
  H  H12  1  0.28503235  0.66288589  0.39641023  1
  H  H13  1  0.71496765  0.33711411  0.89641023  1
  H  H14  1  0.66288589  0.28503235  0.60358977  1
  H  H15  1  0.16288589  0.21496765  0.64641023  1
  H  H16  1  0.83711411  0.78503235  0.14641023  1
  H  H17  1  0.66471586  0.66471586  0.00000000  1
  H  H18  1  0.78503235  0.83711411  0.85358977  1
  H  H19  1  0.33711411  0.71496765  0.10358977  1
  H  H20  1  0.33528414  0.33528414  0.50000000  1
  H  H21  1  0.16471586  0.83528414  0.25000000  1
  H  H22  1  0.83528414  0.16471586  0.75000000  1
  H  H23  1  0.21496765  0.16288589  0.35358977  1
  B  B24  1  0.34751370  0.55355668  0.05689242  1
  B  B25  1  0.67534123  0.32465877  0.25000000  1
  B  B26  1  0.32465877  0.67534123  0.75000000  1
  B  B27  1  0.17534123  0.17534123  0.00000000  1
  B  B28  1  0.44644332  0.65248630  0.44310758  1
  B  B29  1  0.55355668  0.34751370  0.94310758  1
  B  B30  1  0.65248630  0.44644332  0.55689242  1
  B  B31  1  0.15248630  0.05355668  0.69310758  1
  B  B32  1  0.84751370  0.94644332  0.19310758  1
  B  B33  1  0.05355668  0.15248630  0.30689242  1
  B  B34  1  0.94644332  0.84751370  0.80689242  1
  B  B35  1  0.82465877  0.82465877  0.50000000  1
  N  N36  1  0.63172560  0.82871501  0.44413960  1
  N  N37  1  0.36827440  0.17128499  0.94413960  1
  N  N38  1  0.82871501  0.63172560  0.55586040  1
  N  N39  1  0.32871501  0.86827440  0.69413960  1
  N  N40  1  0.67128499  0.13172560  0.19413960  1
  N  N41  1  0.86827440  0.32871501  0.30586040  1
  N  N42  1  0.13172560  0.67128499  0.80586040  1
  N  N43  1  0.17128499  0.36827440  0.05586040  1
  N  N44  1  0.46333834  0.46333834  0.50000000  1
  N  N45  1  0.03666166  0.96333834  0.25000000  1
  N  N46  1  0.96333834  0.03666166  0.75000000  1
  N  N47  1  0.53666166  0.53666166  0.00000000  1
