# generated using pymatgen
data_Na2MnO4
_symmetry_space_group_name_H-M   'P 1'
_cell_length_a   5.85535435
_cell_length_b   5.85535434
_cell_length_c   6.77251899
_cell_angle_alpha   90.00000000
_cell_angle_beta   90.00000000
_cell_angle_gamma   119.99999998
_symmetry_Int_Tables_number   1
_chemical_formula_structural   Na2MnO4
_chemical_formula_sum   'Na4 Mn2 O8'
_cell_volume   201.08849685
_cell_formula_units_Z   2
loop_
 _symmetry_equiv_pos_site_id
 _symmetry_equiv_pos_as_xyz
  1  'x, y, z'
loop_
 _atom_site_type_symbol
 _atom_site_label
 _atom_site_symmetry_multiplicity
 _atom_site_fract_x
 _atom_site_fract_y
 _atom_site_fract_z
 _atom_site_occupancy
  O  O0  1  0.82197746  0.64395461  0.25463157  1
  O  O1  1  0.17802214  0.82197713  0.75463119  1
  O  O2  1  0.64395500  0.82197713  0.75463119  1
  O  O3  1  0.35604498  0.17802252  0.25463157  1
  O  O4  1  0.82197785  0.17802252  0.25463157  1
  O  O5  1  0.17802252  0.35604504  0.75463119  1
  O  O6  1  0.33333289  0.66666578  0.42888933  1
  O  O7  1  0.66666709  0.33333387  0.92888894  1
  Na  Na8  1  0.66666709  0.33333387  0.60766273  1
  Na  Na9  1  0.33333289  0.66666578  0.10766162  1
  Na  Na10  1  0.00000000  0.00000000  0.48914055  1
  Na  Na11  1  0.00000000  0.00000000  0.98914166  1
  Mn  Mn12  1  0.66666709  0.33333387  0.17041563  1
  Mn  Mn13  1  0.33333289  0.66666578  0.67041525  1
