# generated using pymatgen
data_Fe7SiO10
_symmetry_space_group_name_H-M   'P 1'
_cell_length_a   3.04971939
_cell_length_b   6.05642319
_cell_length_c   21.93851553
_cell_angle_alpha   98.07395518
_cell_angle_beta   90.00000000
_cell_angle_gamma   90.00000000
_symmetry_Int_Tables_number   1
_chemical_formula_structural   Fe7SiO10
_chemical_formula_sum   'Fe14 Si2 O20'
_cell_volume   401.19633372
_cell_formula_units_Z   2
loop_
 _symmetry_equiv_pos_site_id
 _symmetry_equiv_pos_as_xyz
  1  'x, y, z'
loop_
 _atom_site_type_symbol
 _atom_site_label
 _atom_site_symmetry_multiplicity
 _atom_site_fract_x
 _atom_site_fract_y
 _atom_site_fract_z
 _atom_site_occupancy
  O  O0  1  0.74999900  0.33677623  0.95384684  1
  O  O1  1  0.24999900  0.66322377  0.04615316  1
  O  O2  1  0.74999900  0.86635060  0.95583496  1
  O  O3  1  0.24999900  0.13364940  0.04416504  1
  O  O4  1  0.24999900  0.06602610  0.85381546  1
  O  O5  1  0.74999900  0.93397390  0.14618454  1
  O  O6  1  0.24999900  0.53346657  0.85049370  1
  O  O7  1  0.74999900  0.46653343  0.14950630  1
  O  O8  1  0.74999900  0.75848513  0.75309561  1
  O  O9  1  0.24999900  0.24151587  0.24690439  1
  O  O10  1  0.74999900  0.23954326  0.73095126  1
  O  O11  1  0.24999900  0.76045674  0.26904874  1
  O  O12  1  0.24999900  0.97407737  0.65061841  1
  O  O13  1  0.74999900  0.02592263  0.34938159  1
  O  O14  1  0.24999900  0.43778125  0.65385668  1
  O  O15  1  0.74999900  0.56221875  0.34614332  1
  O  O16  1  0.74999900  0.65516956  0.56129264  1
  O  O17  1  0.24999900  0.34483044  0.43870736  1
  O  O18  1  0.24999900  0.84154701  0.45929256  1
  O  O19  1  0.74999900  0.15845099  0.54070744  1
  Si  Si20  1  0.74999900  0.77711798  0.30947733  1
  Si  Si21  1  0.24999900  0.22288202  0.69052267  1
  Fe  Fe22  1  0.24999900  0.39840341  0.55227133  1
  Fe  Fe23  1  0.74999900  0.39904306  0.05475434  1
  Fe  Fe24  1  0.74999900  0.29391888  0.83932289  1
  Fe  Fe25  1  0.24999900  0.70608112  0.16067711  1
  Fe  Fe26  1  0.24999900  0.91379523  0.55365010  1
  Fe  Fe27  1  0.74999900  0.08620577  0.44634990  1
  Fe  Fe28  1  0.24999900  0.60095494  0.94524566  1
  Fe  Fe29  1  0.74999900  0.60159659  0.44772867  1
  Fe  Fe30  1  0.24999900  0.77770063  0.80385125  1
  Fe  Fe31  1  0.74999900  0.22229937  0.19614875  1
  Fe  Fe32  1  0.74999900  0.70290076  0.65873311  1
  Fe  Fe33  1  0.24999900  0.29709924  0.34126689  1
  Fe  Fe34  1  0.74999900  0.90515163  0.05260874  1
  Fe  Fe35  1  0.24999900  0.09484837  0.94739126  1
