# generated using pymatgen
data_KPH5C2S2(NO)3
_symmetry_space_group_name_H-M   'P 1'
_cell_length_a   6.76072823
_cell_length_b   7.02829634
_cell_length_c   10.51338682
_cell_angle_alpha   89.98817240
_cell_angle_beta   101.67527297
_cell_angle_gamma   96.18186344
_symmetry_Int_Tables_number   1
_chemical_formula_structural   KPH5C2S2(NO)3
_chemical_formula_sum   'K2 P2 H10 C4 S4 N6 O6'
_cell_volume   486.25824033
_cell_formula_units_Z   2
loop_
 _symmetry_equiv_pos_site_id
 _symmetry_equiv_pos_as_xyz
  1  'x, y, z'
loop_
 _atom_site_type_symbol
 _atom_site_label
 _atom_site_symmetry_multiplicity
 _atom_site_fract_x
 _atom_site_fract_y
 _atom_site_fract_z
 _atom_site_occupancy
  K  K0  1  0.66647265  0.64077314  0.28871083  1
  K  K1  1  0.33352735  0.35922686  0.71128917  1
  P  P2  1  0.09199043  0.19713240  0.26227050  1
  P  P3  1  0.90800957  0.80286760  0.73772950  1
  N  N4  1  0.16885942  0.99036470  0.21138336  1
  N  N5  1  0.83114058  0.00963530  0.78861664  1
  N  N6  1  0.06697897  0.30603514  0.11474117  1
  N  N7  1  0.93302103  0.69396486  0.88525883  1
  N  N8  1  0.31764488  0.14490900  0.05077504  1
  N  N9  1  0.68235512  0.85509100  0.94922496  1
  C  C10  1  0.30001103  0.98708670  0.12877974  1
  C  C11  1  0.69998897  0.01291330  0.87122026  1
  C  C12  1  0.19302120  0.29085429  0.03043874  1
  C  C13  1  0.80697880  0.70914571  0.96956126  1
  S  S14  1  0.32085446  0.33404690  0.39077506  1
  S  S15  1  0.67914554  0.66595310  0.60922494  1
  S  S16  1  0.82365816  0.15087583  0.30877246  1
  S  S17  1  0.17634184  0.84912417  0.69122754  1
  O  O18  1  0.39931876  0.84931181  0.11957441  1
  O  O19  1  0.60068124  0.15068819  0.88042559  1
  O  O20  1  0.08252506  0.70504107  0.38571413  1
  O  O21  1  0.91747494  0.29495893  0.61428587  1
  O  O22  1  0.80138459  0.60002988  0.06320161  1
  O  O23  1  0.19861541  0.39997012  0.93679839  1
  H  H24  1  0.15465822  0.87263223  0.27090763  1
  H  H25  1  0.84534178  0.12736777  0.72909237  1
  H  H26  1  0.96842966  0.41118686  0.09492835  1
  H  H27  1  0.03157034  0.58881314  0.90507165  1
  H  H28  1  0.42097874  0.14256328  0.99007959  1
  H  H29  1  0.57902126  0.85743672  0.00992041  1
  H  H30  1  0.15498856  0.58854133  0.39213576  1
  H  H31  1  0.84501144  0.41145867  0.60786424  1
  H  H32  1  0.10568719  0.75632265  0.47600901  1
  H  H33  1  0.89431281  0.24367735  0.52399099  1
