# generated using pymatgen
data_Ba3YIr2O9
_symmetry_space_group_name_H-M   'P 1'
_cell_length_a   5.94110501
_cell_length_b   5.94110546
_cell_length_c   14.87243978
_cell_angle_alpha   90.00000000
_cell_angle_beta   90.00000000
_cell_angle_gamma   119.99999756
_symmetry_Int_Tables_number   1
_chemical_formula_structural   Ba3YIr2O9
_chemical_formula_sum   'Ba6 Y2 Ir4 O18'
_cell_volume   454.61875845
_cell_formula_units_Z   2
loop_
 _symmetry_equiv_pos_site_id
 _symmetry_equiv_pos_as_xyz
  1  'x, y, z'
loop_
 _atom_site_type_symbol
 _atom_site_label
 _atom_site_symmetry_multiplicity
 _atom_site_fract_x
 _atom_site_fract_y
 _atom_site_fract_z
 _atom_site_occupancy
  Ba  Ba0  1  0.00000000  0.00000000  0.25564676  1
  Ba  Ba1  1  0.00000000  0.00000000  0.75564676  1
  Ba  Ba2  1  0.33333300  0.66666700  0.07353442  1
  Ba  Ba3  1  0.66666700  0.33333300  0.57353442  1
  Ba  Ba4  1  0.33333300  0.66666700  0.39969539  1
  Ba  Ba5  1  0.66666700  0.33333300  0.89969539  1
  Ir  Ir6  1  0.00000000  0.00000000  0.49619975  1
  Ir  Ir7  1  0.00000000  0.00000000  0.99619975  1
  Ir  Ir8  1  0.33333300  0.66666700  0.84521382  1
  Ir  Ir9  1  0.66666700  0.33333300  0.34521382  1
  Y  Y10  1  0.33333300  0.66666700  0.65147613  1
  Y  Y11  1  0.66666700  0.33333300  0.15147613  1
  O  O12  1  0.15394378  0.84605622  0.57511402  1
  O  O13  1  0.30788755  0.15394378  0.07511402  1
  O  O14  1  0.84605622  0.69211245  0.07511402  1
  O  O15  1  0.15394378  0.30788755  0.57511402  1
  O  O16  1  0.69211245  0.84605622  0.57511402  1
  O  O17  1  0.84605622  0.15394378  0.07511402  1
  O  O18  1  0.83411841  0.16588159  0.42072339  1
  O  O19  1  0.66823682  0.83411841  0.92072339  1
  O  O20  1  0.16588159  0.33176318  0.92072339  1
  O  O21  1  0.83411841  0.66823682  0.42072339  1
  O  O22  1  0.33176318  0.16588159  0.42072339  1
  O  O23  1  0.16588159  0.83411841  0.92072339  1
  O  O24  1  0.48796490  0.51203510  0.76357383  1
  O  O25  1  0.97592981  0.48796490  0.26357383  1
  O  O26  1  0.51203510  0.02407019  0.26357383  1
  O  O27  1  0.48796490  0.97592981  0.76357383  1
  O  O28  1  0.02407019  0.51203510  0.76357383  1
  O  O29  1  0.51203510  0.48796490  0.26357383  1
