# generated using pymatgen
data_Nb2CuO6
_symmetry_space_group_name_H-M   'P 1'
_cell_length_a   5.24710052
_cell_length_b   5.67929106
_cell_length_c   14.35922951
_cell_angle_alpha   90.00000000
_cell_angle_beta   90.00000000
_cell_angle_gamma   90.00049584
_symmetry_Int_Tables_number   1
_chemical_formula_structural   Nb2CuO6
_chemical_formula_sum   'Nb8 Cu4 O24'
_cell_volume   427.90232658
_cell_formula_units_Z   4
loop_
 _symmetry_equiv_pos_site_id
 _symmetry_equiv_pos_as_xyz
  1  'x, y, z'
loop_
 _atom_site_type_symbol
 _atom_site_label
 _atom_site_symmetry_multiplicity
 _atom_site_fract_x
 _atom_site_fract_y
 _atom_site_fract_z
 _atom_site_occupancy
  O  O0  1  0.52876141  0.36624101  0.74001982  1
  O  O1  1  0.47123859  0.13375899  0.24001982  1
  O  O2  1  0.47123859  0.63375899  0.25998018  1
  O  O3  1  0.52876141  0.86624101  0.75998018  1
  O  O4  1  0.67317487  0.41407928  0.08544503  1
  O  O5  1  0.32682513  0.08592072  0.58544503  1
  O  O6  1  0.32682513  0.58592072  0.91455497  1
  O  O7  1  0.67317487  0.91407928  0.41455497  1
  O  O8  1  0.61528884  0.39960646  0.40787646  1
  O  O9  1  0.38471116  0.10039354  0.90787646  1
  O  O10  1  0.38471116  0.60039354  0.59212354  1
  O  O11  1  0.61528884  0.89960646  0.09212354  1
  O  O12  1  0.88471172  0.89959012  0.90787526  1
  O  O13  1  0.11528828  0.60040988  0.40787526  1
  O  O14  1  0.11528828  0.10040988  0.09212474  1
  O  O15  1  0.88471172  0.39959012  0.59212474  1
  O  O16  1  0.82683265  0.91405770  0.58542957  1
  O  O17  1  0.17316735  0.58594230  0.08542957  1
  O  O18  1  0.17316735  0.08594230  0.41457043  1
  O  O19  1  0.82683265  0.41405770  0.91457043  1
  O  O20  1  0.97124375  0.86623233  0.24001282  1
  O  O21  1  0.02875625  0.63376767  0.74001282  1
  O  O22  1  0.02875625  0.13376767  0.75998718  1
  O  O23  1  0.97124375  0.36623233  0.25998718  1
  Cu  Cu24  1  0.75003381  0.67094632  0.00000417  1
  Cu  Cu25  1  0.24996619  0.82905368  0.50000417  1
  Cu  Cu26  1  0.24996619  0.32905368  0.99999583  1
  Cu  Cu27  1  0.75003381  0.17094632  0.49999583  1
  Nb  Nb28  1  0.20196456  0.31633665  0.66012131  1
  Nb  Nb29  1  0.79803544  0.18366335  0.16012131  1
  Nb  Nb30  1  0.79803544  0.68366335  0.33987869  1
  Nb  Nb31  1  0.20196456  0.81633665  0.83987869  1
  Nb  Nb32  1  0.29803697  0.81633309  0.16011810  1
  Nb  Nb33  1  0.70196303  0.68366691  0.66011810  1
  Nb  Nb34  1  0.70196303  0.18366691  0.83988190  1
  Nb  Nb35  1  0.29803697  0.31633309  0.33988190  1
