# generated using pymatgen
data_Ba16Bi16O45
_symmetry_space_group_name_H-M   'P 1'
_cell_length_a   4.38581860
_cell_length_b   8.95474726
_cell_length_c   35.84885609
_cell_angle_alpha   89.99999779
_cell_angle_beta   90.00000000
_cell_angle_gamma   90.00000000
_symmetry_Int_Tables_number   1
_chemical_formula_structural   Ba16Bi16O45
_chemical_formula_sum   'Ba16 Bi16 O45'
_cell_volume   1407.92428492
_cell_formula_units_Z   1
loop_
 _symmetry_equiv_pos_site_id
 _symmetry_equiv_pos_as_xyz
  1  'x, y, z'
loop_
 _atom_site_type_symbol
 _atom_site_label
 _atom_site_symmetry_multiplicity
 _atom_site_fract_x
 _atom_site_fract_y
 _atom_site_fract_z
 _atom_site_occupancy
  Ba  Ba0  1  0.00000000  0.01029860  0.99595468  1
  Ba  Ba1  1  0.00000000  0.01734985  0.12648244  1
  Ba  Ba2  1  0.00000000  0.48970132  0.99595469  1
  Ba  Ba3  1  0.00000000  0.98235377  0.24862535  1
  Ba  Ba4  1  0.00000000  0.48265027  0.12648248  1
  Ba  Ba5  1  0.00000000  0.98721458  0.37903057  1
  Ba  Ba6  1  0.00000000  0.51764599  0.24862529  1
  Ba  Ba7  1  0.00000000  0.51278548  0.37903056  1
  Ba  Ba8  1  0.00000000  0.01140855  0.50053711  1
  Ba  Ba9  1  0.00000000  0.48859115  0.50053732  1
  Ba  Ba10  1  0.00000000  0.98762939  0.75273349  1
  Ba  Ba11  1  0.00000000  0.51237104  0.75273338  1
  Ba  Ba12  1  0.00000000  0.49925254  0.87436237  1
  Ba  Ba13  1  0.00000000  1.00074768  0.87436229  1
  Ba  Ba14  1  0.00000000  0.51405061  0.62213472  1
  Ba  Ba15  1  0.00000000  0.98594915  0.62213478  1
  Bi  Bi16  1  0.50000000  0.24999992  0.06209803  1
  Bi  Bi17  1  0.50000000  0.25000001  0.18844287  1
  Bi  Bi18  1  0.50000000  0.74999991  0.06217365  1
  Bi  Bi19  1  0.50000000  0.24999997  0.43730215  1
  Bi  Bi20  1  0.50000000  0.25000003  0.31277402  1
  Bi  Bi21  1  0.50000000  0.75000002  0.18650753  1
  Bi  Bi22  1  0.50000000  0.25000002  0.68753412  1
  Bi  Bi23  1  0.50000000  0.24999994  0.56307420  1
  Bi  Bi24  1  0.50000000  0.74999995  0.43859895  1
  Bi  Bi25  1  0.50000000  0.25000008  0.81210890  1
  Bi  Bi26  1  0.50000000  0.75000000  0.31290133  1
  Bi  Bi27  1  0.50000000  0.75000002  0.68749812  1
  Bi  Bi28  1  0.50000000  0.75000002  0.56182639  1
  Bi  Bi29  1  0.50000000  0.25000000  0.93666702  1
  Bi  Bi30  1  0.50000000  0.75000003  0.81304250  1
  Bi  Bi31  1  0.50000000  0.75000002  0.93747916  1
  O  O32  1  0.00000000  0.24999985  0.06342619  1
  O  O33  1  0.00000000  0.25000016  0.18393549  1
  O  O34  1  0.00000000  0.74999993  0.19082626  1
  O  O35  1  0.00000000  0.75000009  0.31138663  1
  O  O36  1  0.00000000  0.24999972  0.43800650  1
  O  O37  1  0.00000000  0.75000036  0.43247268  1
  O  O38  1  0.00000000  0.25000037  0.56136359  1
  O  O39  1  0.00000000  0.74999995  0.56754931  1
  O  O40  1  0.00000000  0.74999992  0.68755835  1
  O  O41  1  0.00000000  0.24999973  0.81287911  1
  O  O42  1  0.00000000  0.25000009  0.94072962  1
  O  O43  1  0.00000000  0.75000015  0.80907066  1
  O  O44  1  0.00000000  0.74999986  0.93844105  1
  O  O45  1  0.50000000  0.00137606  0.06310129  1
  O  O46  1  0.50000000  0.24999999  0.99973947  1
  O  O47  1  0.50000000  0.25000027  0.24936087  1
  O  O48  1  0.50000000  0.00000031  0.18740110  1
  O  O49  1  0.50000000  1.00021938  0.43777877  1
  O  O50  1  0.50000000  0.24999995  0.12478240  1
  O  O51  1  0.50000000  0.24999992  0.37512635  1
  O  O52  1  0.50000000  0.25000001  0.50005271  1
  O  O53  1  0.50000000  0.49862379  0.06310125  1
  O  O54  1  0.50000000  0.74999997  0.99981610  1
  O  O55  1  0.50000000  0.74999996  0.25000970  1
  O  O56  1  0.50000000  0.99852786  0.31168383  1
  O  O57  1  0.50000000  0.99823441  0.68770933  1
  O  O58  1  0.50000000  0.25000031  0.62474724  1
  O  O59  1  0.50000000  0.24999997  0.87547030  1
  O  O60  1  0.50000000  0.49999973  0.18740109  1
  O  O61  1  0.50000000  0.74999989  0.12553728  1
  O  O62  1  0.50000000  0.75000014  0.50020366  1
  O  O63  1  0.50000000  1.00028382  0.56211742  1
  O  O64  1  0.50000000  0.99900097  0.81305381  1
  O  O65  1  0.50000000  0.24999973  0.75048963  1
  O  O66  1  0.50000000  0.50147220  0.31168396  1
  O  O67  1  0.50000000  0.49978054  0.43777873  1
  O  O68  1  0.50000000  0.50176559  0.68770956  1
  O  O69  1  0.50000000  0.75000009  0.37504432  1
  O  O70  1  0.50000000  0.74999965  0.62521936  1
  O  O71  1  0.50000000  0.49971625  0.56211732  1
  O  O72  1  0.50000000  0.50099907  0.81305379  1
  O  O73  1  0.50000000  0.75000009  0.74997243  1
  O  O74  1  0.50000000  0.74999999  0.87440782  1
  O  O75  1  0.50000000  0.00151530  0.93721661  1
  O  O76  1  0.50000000  0.49848470  0.93721656  1
