# generated using pymatgen
data_Cu7As6Se13
_symmetry_space_group_name_H-M   'P 1'
_cell_length_a   8.76688500
_cell_length_b   8.76688552
_cell_length_c   8.76688498
_cell_angle_alpha   102.36283881
_cell_angle_beta   102.36284056
_cell_angle_gamma   102.36283643
_symmetry_Int_Tables_number   1
_chemical_formula_structural   Cu7As6Se13
_chemical_formula_sum   'Cu7 As6 Se13'
_cell_volume   618.60262156
_cell_formula_units_Z   1
loop_
 _symmetry_equiv_pos_site_id
 _symmetry_equiv_pos_as_xyz
  1  'x, y, z'
loop_
 _atom_site_type_symbol
 _atom_site_label
 _atom_site_symmetry_multiplicity
 _atom_site_fract_x
 _atom_site_fract_y
 _atom_site_fract_z
 _atom_site_occupancy
  Se  Se0  1  0.09743693  0.28122472  0.74089197  1
  Se  Se1  1  0.74089197  0.09743693  0.28122472  1
  Se  Se2  1  0.28122472  0.74089197  0.09743693  1
  Se  Se3  1  0.32770407  0.95225875  0.78686171  1
  Se  Se4  1  0.78686171  0.32770407  0.95225875  1
  Se  Se5  1  0.95225875  0.78686171  0.32770407  1
  Se  Se6  1  0.34980317  0.14303566  0.44111040  1
  Se  Se7  1  0.44111040  0.34980317  0.14303566  1
  Se  Se8  1  0.14303566  0.44111040  0.34980317  1
  Se  Se9  1  0.50969966  0.57442453  0.79602956  1
  Se  Se10  1  0.79602956  0.50969966  0.57442453  1
  Se  Se11  1  0.57442453  0.79602956  0.50969966  1
  Se  Se12  1  0.96996494  0.96996494  0.96996494  1
  Cu  Cu13  1  0.14392490  0.93591417  0.20619736  1
  Cu  Cu14  1  0.20619736  0.14392490  0.93591417  1
  Cu  Cu15  1  0.93591417  0.20619736  0.14392490  1
  Cu  Cu16  1  0.27768546  0.37191088  0.58722623  1
  Cu  Cu17  1  0.58722623  0.27768546  0.37191088  1
  Cu  Cu18  1  0.37191088  0.58722623  0.27768546  1
  Cu  Cu19  1  0.75389694  0.75389694  0.75389694  1
  As  As20  1  0.84405693  0.98640224  0.49728071  1
  As  As21  1  0.49728071  0.84405693  0.98640224  1
  As  As22  1  0.98640224  0.49728071  0.84405693  1
  As  As23  1  0.05862149  0.64313461  0.52687202  1
  As  As24  1  0.52687202  0.05862149  0.64313461  1
  As  As25  1  0.64313461  0.52687202  0.05862149  1
