# generated using pymatgen
data_Pb5(IF4)2
_symmetry_space_group_name_H-M   'P 1'
_cell_length_a   19.62513161
_cell_length_b   19.62513155
_cell_length_c   19.62513157
_cell_angle_alpha   12.69449211
_cell_angle_beta   12.69449294
_cell_angle_gamma   12.69449186
_symmetry_Int_Tables_number   1
_chemical_formula_structural   Pb5(IF4)2
_chemical_formula_sum   'Pb5 I2 F8'
_cell_volume   317.40124042
_cell_formula_units_Z   1
loop_
 _symmetry_equiv_pos_site_id
 _symmetry_equiv_pos_as_xyz
  1  'x, y, z'
loop_
 _atom_site_type_symbol
 _atom_site_label
 _atom_site_symmetry_multiplicity
 _atom_site_fract_x
 _atom_site_fract_y
 _atom_site_fract_z
 _atom_site_occupancy
  Pb  Pb0  1  0.00601423  0.00601423  0.00601423  1
  Pb  Pb1  1  0.38874945  0.38874945  0.38874945  1
  Pb  Pb2  1  0.47726209  0.47726209  0.47726209  1
  Pb  Pb3  1  0.19334185  0.19334185  0.19334185  1
  Pb  Pb4  1  0.91981188  0.91981188  0.91981188  1
  I  I5  1  0.76012306  0.76012306  0.76012306  1
  I  I6  1  0.62416885  0.62416885  0.62416885  1
  F  F7  1  0.14663646  0.14663646  0.14663646  1
  F  F8  1  0.24165693  0.24165693  0.24165693  1
  F  F9  1  0.34004938  0.34004938  0.34004938  1
  F  F10  1  0.51897883  0.51897883  0.51897883  1
  F  F11  1  0.87974093  0.87974093  0.87974093  1
  F  F12  1  0.04749080  0.04749080  0.04749080  1
  F  F13  1  0.69296230  0.69296230  0.69296230  1
  F  F14  1  0.82921297  0.82921297  0.82921297  1
