# generated using pymatgen
data_Cr6Si7Ni16
_symmetry_space_group_name_H-M   'P 1'
_cell_length_a   7.81529778
_cell_length_b   7.81529781
_cell_length_c   7.81529736
_cell_angle_alpha   59.99999775
_cell_angle_beta   59.99999762
_cell_angle_gamma   59.99999857
_symmetry_Int_Tables_number   1
_chemical_formula_structural   Cr6Si7Ni16
_chemical_formula_sum   'Cr6 Si7 Ni16'
_cell_volume   337.53712817
_cell_formula_units_Z   1
loop_
 _symmetry_equiv_pos_site_id
 _symmetry_equiv_pos_as_xyz
  1  'x, y, z'
loop_
 _atom_site_type_symbol
 _atom_site_label
 _atom_site_symmetry_multiplicity
 _atom_site_fract_x
 _atom_site_fract_y
 _atom_site_fract_z
 _atom_site_occupancy
  Cr  Cr0  1  0.81197225  0.18802775  0.18802775  1
  Cr  Cr1  1  0.81197225  0.81197225  0.18802775  1
  Cr  Cr2  1  0.18802775  0.18802775  0.81197225  1
  Cr  Cr3  1  0.81197225  0.18802775  0.81197225  1
  Cr  Cr4  1  0.18802775  0.81197225  0.18802775  1
  Cr  Cr5  1  0.18802775  0.81197225  0.81197225  1
  Ni  Ni6  1  0.16560803  0.16560803  0.16560803  1
  Ni  Ni7  1  0.83439197  0.83439197  0.49682408  1
  Ni  Ni8  1  0.49682408  0.83439197  0.83439197  1
  Ni  Ni9  1  0.83439197  0.49682408  0.83439197  1
  Ni  Ni10  1  0.50317592  0.16560803  0.16560803  1
  Ni  Ni11  1  0.16560803  0.50317592  0.16560803  1
  Ni  Ni12  1  0.16560803  0.16560803  0.50317592  1
  Ni  Ni13  1  0.83439197  0.83439197  0.83439197  1
  Ni  Ni14  1  0.38245043  0.38245043  0.38245043  1
  Ni  Ni15  1  0.61754957  0.61754957  0.14735130  1
  Ni  Ni16  1  0.14735130  0.61754957  0.61754957  1
  Ni  Ni17  1  0.61754957  0.14735130  0.61754957  1
  Ni  Ni18  1  0.85264870  0.38245043  0.38245043  1
  Ni  Ni19  1  0.38245043  0.85264870  0.38245043  1
  Ni  Ni20  1  0.38245043  0.38245043  0.85264870  1
  Ni  Ni21  1  0.61754957  0.61754957  0.61754957  1
  Si  Si22  1  0.50000000  0.50000000  0.50000000  1
  Si  Si23  1  0.50000000  0.00000000  0.00000000  1
  Si  Si24  1  0.00000000  0.00000000  0.50000000  1
  Si  Si25  1  0.50000000  0.50000000  0.00000000  1
  Si  Si26  1  0.00000000  0.50000000  0.50000000  1
  Si  Si27  1  0.00000000  0.50000000  0.00000000  1
  Si  Si28  1  0.50000000  0.00000000  0.50000000  1
