# generated using pymatgen
data_P3S3N6F5
_symmetry_space_group_name_H-M   'P 1'
_cell_length_a   10.00561522
_cell_length_b   15.13817317
_cell_length_c   16.39256957
_cell_angle_alpha   90.00000000
_cell_angle_beta   90.00000000
_cell_angle_gamma   90.00000000
_symmetry_Int_Tables_number   1
_chemical_formula_structural   P3S3N6F5
_chemical_formula_sum   'P24 S24 N48 F40'
_cell_volume   2482.92900533
_cell_formula_units_Z   8
loop_
 _symmetry_equiv_pos_site_id
 _symmetry_equiv_pos_as_xyz
  1  'x, y, z'
loop_
 _atom_site_type_symbol
 _atom_site_label
 _atom_site_symmetry_multiplicity
 _atom_site_fract_x
 _atom_site_fract_y
 _atom_site_fract_z
 _atom_site_occupancy
  P  P0  1  0.79332506  0.91649062  0.25704502  1
  P  P1  1  0.54609199  0.28620637  0.68206302  1
  P  P2  1  0.45390801  0.21379363  0.18206302  1
  P  P3  1  0.20667494  0.08350938  0.74295498  1
  P  P4  1  0.20199425  0.11525620  0.57633245  1
  P  P5  1  0.29332506  0.08350938  0.24295498  1
  P  P6  1  0.79800575  0.88474380  0.42366755  1
  P  P7  1  0.29332506  0.58350938  0.25704502  1
  P  P8  1  0.70667494  0.41649062  0.74295498  1
  P  P9  1  0.29800575  0.11525620  0.07633245  1
  P  P10  1  0.29800575  0.61525620  0.42366755  1
  P  P11  1  0.54609199  0.78620637  0.81793698  1
  P  P12  1  0.95390801  0.28620637  0.18206302  1
  P  P13  1  0.04609199  0.21379363  0.68206302  1
  P  P14  1  0.79800575  0.38474380  0.07633245  1
  P  P15  1  0.70667494  0.91649062  0.75704502  1
  P  P16  1  0.04609199  0.71379363  0.81793698  1
  P  P17  1  0.70199425  0.38474380  0.57633245  1
  P  P18  1  0.70199425  0.88474380  0.92366755  1
  P  P19  1  0.95390801  0.78620637  0.31793698  1
  P  P20  1  0.20667494  0.58350938  0.75704502  1
  P  P21  1  0.45390801  0.71379363  0.31793698  1
  P  P22  1  0.20199425  0.61525620  0.92366755  1
  P  P23  1  0.79332506  0.41649062  0.24295498  1
  S  S24  1  0.18280394  0.95620481  0.47710957  1
  S  S25  1  0.12763254  0.85805743  0.58148678  1
  S  S26  1  0.62763254  0.14194257  0.91851322  1
  S  S27  1  0.62763254  0.64194257  0.58148678  1
  S  S28  1  0.10193689  0.88484615  0.06752830  1
  S  S29  1  0.12763254  0.35805743  0.91851322  1
  S  S30  1  0.87236746  0.14194257  0.41851322  1
  S  S31  1  0.68280394  0.04379519  0.02289043  1
  S  S32  1  0.81719606  0.54379519  0.97710957  1
  S  S33  1  0.39806311  0.88484615  0.56752830  1
  S  S34  1  0.31719606  0.45620481  0.52289043  1
  S  S35  1  0.87236746  0.64194257  0.08148678  1
  S  S36  1  0.89806311  0.61515385  0.56752830  1
  S  S37  1  0.37236746  0.35805743  0.41851322  1
  S  S38  1  0.18280394  0.45620481  0.02289043  1
  S  S39  1  0.10193689  0.38484615  0.43247170  1
  S  S40  1  0.89806311  0.11515385  0.93247170  1
  S  S41  1  0.60193689  0.11515385  0.43247170  1
  S  S42  1  0.39806311  0.38484615  0.93247170  1
  S  S43  1  0.81719606  0.04379519  0.52289043  1
  S  S44  1  0.60193689  0.61515385  0.06752830  1
  S  S45  1  0.68280394  0.54379519  0.47710957  1
  S  S46  1  0.37236746  0.85805743  0.08148678  1
  S  S47  1  0.31719606  0.95620481  0.97710957  1
  N  N48  1  0.27693703  0.84517228  0.61634166  1
  N  N49  1  0.40039136  0.65897954  0.24220991  1
  N  N50  1  0.22306297  0.84517228  0.11634166  1
  N  N51  1  0.22306297  0.34517228  0.38365834  1
  N  N52  1  0.59960864  0.34102046  0.75779009  1
  N  N53  1  0.40437441  0.69211034  0.40667986  1
  N  N54  1  0.90039136  0.34102046  0.25779009  1
  N  N55  1  0.35262863  0.55331369  0.49762452  1
  N  N56  1  0.90437441  0.80788966  0.40667986  1
  N  N57  1  0.64737137  0.44668631  0.50237548  1
  N  N58  1  0.09960864  0.65897954  0.74220991  1
  N  N59  1  0.72306297  0.65482772  0.11634166  1
  N  N60  1  0.35262863  0.05331369  1.00237548  1
  N  N61  1  0.77693703  0.65482772  0.61634166  1
  N  N62  1  0.65794270  0.06776380  0.51232805  1
  N  N63  1  0.59960864  0.84102046  0.74220991  1
  N  N64  1  0.34205730  0.93223620  0.48767195  1
  N  N65  1  0.59562559  0.80788966  0.90667986  1
  N  N66  1  0.59562559  0.30788966  0.59332014  1
  N  N67  1  0.65794270  0.56776380  0.98767195  1
  N  N68  1  0.24441852  0.06141201  0.15407566  1
  N  N69  1  0.74441852  0.93858799  0.34592434  1
  N  N70  1  0.09562559  0.69211034  0.90667986  1
  N  N71  1  0.14737137  0.55331369  -0.00237548  1
  N  N72  1  0.84205730  0.56776380  0.48767195  1
  N  N73  1  0.90437441  0.30788966  0.09332014  1
  N  N74  1  0.27693703  0.34517228  0.88365834  1
  N  N75  1  0.72306297  0.15482772  0.38365834  1
  N  N76  1  0.09960864  0.15897954  0.75779009  1
  N  N77  1  0.25558148  0.56141201  0.84592434  1
  N  N78  1  0.75558148  0.93858799  0.84592434  1
  N  N79  1  0.40039136  0.15897954  0.25779009  1
  N  N80  1  0.74441852  0.43858799  0.15407566  1
  N  N81  1  0.85262863  0.44668631  1.00237548  1
  N  N82  1  0.85262863  0.94668631  0.49762452  1
  N  N83  1  0.25558148  0.06141201  0.65407566  1
  N  N84  1  0.75558148  0.43858799  0.65407566  1
  N  N85  1  0.84205730  0.06776380  0.01232805  1
  N  N86  1  0.90039136  0.84102046  0.24220991  1
  N  N87  1  0.77693703  0.15482772  0.88365834  1
  N  N88  1  0.34205730  0.43223620  0.01232805  1
  N  N89  1  0.09562559  0.19211034  0.59332014  1
  N  N90  1  0.15794270  0.93223620  0.98767195  1
  N  N91  1  0.64737137  0.94668631  -0.00237548  1
  N  N92  1  0.14737137  0.05331369  0.50237548  1
  N  N93  1  0.40437441  0.19211034  0.09332014  1
  N  N94  1  0.15794270  0.43223620  0.51232805  1
  N  N95  1  0.24441852  0.56141201  0.34592434  1
  F  F96  1  0.82850346  0.83804101  0.96246961  1
  F  F97  1  0.88952439  0.71140931  0.81578837  1
  F  F98  1  0.56412433  0.18579675  0.70019186  1
  F  F99  1  0.93587567  0.68579675  0.29980814  1
  F  F100  1  0.43587567  0.81420325  0.29980814  1
  F  F101  1  0.43587567  0.31420325  0.20019186  1
  F  F102  1  0.17031093  0.10060001  0.29970302  1
  F  F103  1  0.84411494  0.50275124  0.28514209  1
  F  F104  1  0.67031093  0.89939999  0.20029698  1
  F  F105  1  0.82968907  0.39939999  0.79970302  1
  F  F106  1  0.67149654  0.83804101  0.46246961  1
  F  F107  1  0.56412433  0.68579675  0.79980814  1
  F  F108  1  0.34411494  0.49724876  0.21485791  1
  F  F109  1  0.11047561  0.78859069  0.31578837  1
  F  F110  1  0.11047561  0.28859069  0.18421163  1
  F  F111  1  0.32968907  0.60060001  0.70029698  1
  F  F112  1  0.38952439  0.78859069  0.81578837  1
  F  F113  1  0.32850346  0.16195899  0.53753039  1
  F  F114  1  0.17031093  0.60060001  0.20029698  1
  F  F115  1  0.93587567  0.18579675  0.20019186  1
  F  F116  1  0.34411494  0.99724876  0.28514209  1
  F  F117  1  0.32850346  0.66195899  0.96246961  1
  F  F118  1  0.65588506  0.00275124  0.71485791  1
  F  F119  1  0.17149654  0.66195899  0.46246961  1
  F  F120  1  0.15588506  0.99724876  0.78514209  1
  F  F121  1  0.67031093  0.39939999  0.29970302  1
  F  F122  1  0.32968907  0.10060001  0.79970302  1
  F  F123  1  0.15588506  0.49724876  0.71485791  1
  F  F124  1  0.84411494  0.00275124  0.21485791  1
  F  F125  1  0.06412433  0.31420325  0.70019186  1
  F  F126  1  0.61047561  0.21140931  0.18421163  1
  F  F127  1  0.38952439  0.28859069  0.68421163  1
  F  F128  1  0.67149654  0.33804101  0.03753039  1
  F  F129  1  0.65588506  0.50275124  0.78514209  1
  F  F130  1  0.61047561  0.71140931  0.31578837  1
  F  F131  1  0.06412433  0.81420325  0.79980814  1
  F  F132  1  0.82968907  0.89939999  0.70029698  1
  F  F133  1  0.17149654  0.16195899  0.03753039  1
  F  F134  1  0.82850346  0.33804101  0.53753039  1
  F  F135  1  0.88952439  0.21140931  0.68421163  1
