# generated using pymatgen
data_La4NiO8
_symmetry_space_group_name_H-M   'P 1'
_cell_length_a   5.33406720
_cell_length_b   6.90337338
_cell_length_c   6.90337306
_cell_angle_alpha   45.40911586
_cell_angle_beta   90.00000000
_cell_angle_gamma   90.00000000
_symmetry_Int_Tables_number   1
_chemical_formula_structural   La4NiO8
_chemical_formula_sum   'La4 Ni1 O8'
_cell_volume   181.02776852
_cell_formula_units_Z   1
loop_
 _symmetry_equiv_pos_site_id
 _symmetry_equiv_pos_as_xyz
  1  'x, y, z'
loop_
 _atom_site_type_symbol
 _atom_site_label
 _atom_site_symmetry_multiplicity
 _atom_site_fract_x
 _atom_site_fract_y
 _atom_site_fract_z
 _atom_site_occupancy
  La  La0  1  0.00000000  0.13388643  0.13388643  1
  La  La1  1  0.00000000  0.86611357  0.86611357  1
  La  La2  1  0.50000000  0.36735427  0.36735427  1
  La  La3  1  0.50000000  0.63264573  0.63264573  1
  Ni  Ni4  1  0.50000000  0.00000000  0.00000000  1
  O  O5  1  0.00000000  0.31186265  0.31186265  1
  O  O6  1  0.00000000  0.68813735  0.68813735  1
  O  O7  1  0.26202604  0.24919707  0.75080293  1
  O  O8  1  0.26202604  0.75080293  0.24919707  1
  O  O9  1  0.50000000  0.84123380  0.84123380  1
  O  O10  1  0.50000000  0.15876620  0.15876620  1
  O  O11  1  0.73797396  0.75080293  0.24919707  1
  O  O12  1  0.73797396  0.24919707  0.75080293  1
