# generated using pymatgen
data_RbCrClO3
_symmetry_space_group_name_H-M   'P 1'
_cell_length_a   7.76475259
_cell_length_b   8.28627977
_cell_length_c   8.25631129
_cell_angle_alpha   90.70578649
_cell_angle_beta   90.00000000
_cell_angle_gamma   90.00000000
_symmetry_Int_Tables_number   1
_chemical_formula_structural   RbCrClO3
_chemical_formula_sum   'Rb4 Cr4 Cl4 O12'
_cell_volume   531.17829724
_cell_formula_units_Z   4
loop_
 _symmetry_equiv_pos_site_id
 _symmetry_equiv_pos_as_xyz
  1  'x, y, z'
loop_
 _atom_site_type_symbol
 _atom_site_label
 _atom_site_symmetry_multiplicity
 _atom_site_fract_x
 _atom_site_fract_y
 _atom_site_fract_z
 _atom_site_occupancy
  Rb  Rb0  1  0.14304828  0.81492703  0.36589398  1
  Rb  Rb1  1  0.35695172  0.81492703  0.86589398  1
  Rb  Rb2  1  0.85695172  0.18507297  0.63410602  1
  Rb  Rb3  1  0.64304828  0.18507297  0.13410602  1
  Cr  Cr4  1  0.87448455  0.77779575  0.87416200  1
  Cr  Cr5  1  0.12551545  0.22220425  0.12583800  1
  Cr  Cr6  1  0.62551545  0.77779575  0.37416200  1
  Cr  Cr7  1  0.37448455  0.22220425  0.62583800  1
  Cl  Cl8  1  0.77624953  0.55465623  0.36143819  1
  Cl  Cl9  1  0.22375047  0.44534377  0.63856181  1
  Cl  Cl10  1  0.72375047  0.55465623  0.86143819  1
  Cl  Cl11  1  0.27624953  0.44534377  0.13856181  1
  O  O12  1  0.49997419  0.77381883  0.53133034  1
  O  O13  1  0.73958203  0.92833537  0.88718620  1
  O  O14  1  -0.00002581  0.22618117  0.96866966  1
  O  O15  1  0.99079074  0.79337055  0.71112030  1
  O  O16  1  0.23958203  0.07166463  0.61281380  1
  O  O17  1  0.49079074  0.20662945  0.78887970  1
  O  O18  1  1.00002581  0.77381883  0.03133034  1
  O  O19  1  0.50002581  0.22618117  0.46866966  1
  O  O20  1  0.00920926  0.20662945  0.28887970  1
  O  O21  1  0.50920926  0.79337055  0.21112030  1
  O  O22  1  0.26041797  0.07166463  0.11281380  1
  O  O23  1  0.76041797  0.92833537  0.38718620  1
