# generated using pymatgen
data_MoP(Cl3O)2
_symmetry_space_group_name_H-M   'P 1'
_cell_length_a   6.72719315
_cell_length_b   12.83458201
_cell_length_c   13.85753056
_cell_angle_alpha   90.00000000
_cell_angle_beta   90.00000000
_cell_angle_gamma   102.26043920
_symmetry_Int_Tables_number   1
_chemical_formula_structural   MoP(Cl3O)2
_chemical_formula_sum   'Mo4 P4 Cl24 O8'
_cell_volume   1169.18050849
_cell_formula_units_Z   4
loop_
 _symmetry_equiv_pos_site_id
 _symmetry_equiv_pos_as_xyz
  1  'x, y, z'
loop_
 _atom_site_type_symbol
 _atom_site_label
 _atom_site_symmetry_multiplicity
 _atom_site_fract_x
 _atom_site_fract_y
 _atom_site_fract_z
 _atom_site_occupancy
  Mo  Mo0  1  0.07598209  0.02266051  0.13144529  1
  Mo  Mo1  1  0.92401791  0.47733949  0.63144529  1
  Mo  Mo2  1  0.07598209  0.52266051  0.36855471  1
  Mo  Mo3  1  0.92401791  0.97733949  0.86855471  1
  P  P4  1  0.60641179  0.72422605  0.96740914  1
  P  P5  1  0.60641179  0.22422605  0.53259086  1
  P  P6  1  0.39358821  0.77577395  0.46740914  1
  P  P7  1  0.39358821  0.27577395  0.03259086  1
  Cl  Cl8  1  0.46451755  0.70261490  0.09358986  1
  Cl  Cl9  1  0.53548245  0.79738510  0.59358986  1
  Cl  Cl10  1  0.78456142  0.61802950  0.96382438  1
  Cl  Cl11  1  0.82213069  0.07138088  0.01436918  1
  Cl  Cl12  1  0.78456142  0.11802950  0.53617562  1
  Cl  Cl13  1  0.61913935  0.49168178  0.70571904  1
  Cl  Cl14  1  0.61913935  0.99168178  0.79428096  1
  Cl  Cl15  1  0.98056323  0.34422617  0.73769288  1
  Cl  Cl16  1  0.82213069  0.57138088  0.48563082  1
  Cl  Cl17  1  0.98056323  0.84422617  0.76230712  1
  Cl  Cl18  1  0.17786931  0.42861912  0.51436918  1
  Cl  Cl19  1  0.17786931  0.92861912  0.98563082  1
  Cl  Cl20  1  0.21543858  0.88197050  0.46382438  1
  Cl  Cl21  1  0.21543858  0.38197050  0.03617562  1
  Cl  Cl22  1  0.39305170  0.67625936  0.86815269  1
  Cl  Cl23  1  0.53548245  0.29738510  0.90641014  1
  Cl  Cl24  1  0.60694830  0.32374064  0.13184731  1
  Cl  Cl25  1  0.01943677  0.65577383  0.26230712  1
  Cl  Cl26  1  0.01943677  0.15577383  0.23769288  1
  Cl  Cl27  1  0.38086065  0.00831822  0.20571904  1
  Cl  Cl28  1  0.60694830  0.82374064  0.36815269  1
  Cl  Cl29  1  0.39305170  0.17625936  0.63184731  1
  Cl  Cl30  1  0.38086065  0.50831822  0.29428096  1
  Cl  Cl31  1  0.46451755  0.20261490  0.40641014  1
  O  O32  1  0.72047540  0.33528764  0.54671321  1
  O  O33  1  0.27952460  0.16471236  0.04671321  1
  O  O34  1  0.72047540  0.83528764  0.95328679  1
  O  O35  1  0.91326771  0.41477214  0.32284039  1
  O  O36  1  0.27952460  0.66471236  0.45328679  1
  O  O37  1  0.08673229  0.08522786  0.82284039  1
  O  O38  1  0.91326771  0.91477214  0.17715961  1
  O  O39  1  0.08673229  0.58522786  0.67715961  1
