# generated using pymatgen
data_TiH8C4NO10
_symmetry_space_group_name_H-M   'P 1'
_cell_length_a   8.97904938
_cell_length_b   8.97904939
_cell_length_c   11.03027189
_cell_angle_alpha   90.00000000
_cell_angle_beta   90.00000000
_cell_angle_gamma   119.99999995
_symmetry_Int_Tables_number   1
_chemical_formula_structural   TiH8C4NO10
_chemical_formula_sum   'Ti3 H24 C12 N3 O30'
_cell_volume   770.15399069
_cell_formula_units_Z   3
loop_
 _symmetry_equiv_pos_site_id
 _symmetry_equiv_pos_as_xyz
  1  'x, y, z'
loop_
 _atom_site_type_symbol
 _atom_site_label
 _atom_site_symmetry_multiplicity
 _atom_site_fract_x
 _atom_site_fract_y
 _atom_site_fract_z
 _atom_site_occupancy
  Ti  Ti0  1  0.50000000  0.00000000  0.00000000  1
  Ti  Ti1  1  0.00000000  0.50000000  0.66666700  1
  Ti  Ti2  1  0.50000000  0.50000000  0.33333300  1
  H  H3  1  0.02506200  0.10446046  0.27891950  1
  H  H4  1  0.10142960  0.74243525  0.15438567  1
  H  H5  1  0.92060154  0.89553954  0.72108050  1
  H  H6  1  0.74243525  0.10142960  0.51228133  1
  H  H7  1  0.10446046  0.07939846  0.94558650  1
  H  H8  1  0.25756475  0.89857040  0.51228133  1
  H  H9  1  0.02506200  0.92060154  0.05441350  1
  H  H10  1  0.89857040  0.64100565  0.17894833  1
  H  H11  1  0.07939846  0.97493800  0.61225350  1
  H  H12  1  0.92060154  0.02506200  0.61225350  1
  H  H13  1  0.07939846  0.10446046  0.72108050  1
  H  H14  1  0.89553954  0.97493800  0.38774650  1
  H  H15  1  0.10142960  0.35899435  0.17894833  1
  H  H16  1  0.35899435  0.10142960  0.48771867  1
  H  H17  1  0.64100565  0.74243525  0.84561433  1
  H  H18  1  0.89553954  0.92060154  0.94558650  1
  H  H19  1  0.25756475  0.35899435  0.82105167  1
  H  H20  1  0.10446046  0.02506200  0.38774650  1
  H  H21  1  0.97493800  0.89553954  0.27891950  1
  H  H22  1  0.97493800  0.07939846  0.05441350  1
  H  H23  1  0.74243525  0.64100565  0.82105167  1
  H  H24  1  0.35899435  0.25756475  0.84561433  1
  H  H25  1  0.64100565  0.89857040  0.48771867  1
  H  H26  1  0.89857040  0.25756475  0.15438567  1
  C  C27  1  0.37734834  0.68867417  0.16666700  1
  C  C28  1  0.68867417  0.31132583  0.83333300  1
  C  C29  1  0.21490709  0.42981418  0.50000000  1
  C  C30  1  0.31132583  0.68867417  0.83333300  1
  C  C31  1  0.78509291  0.21490709  0.83333300  1
  C  C32  1  0.68867417  0.37734834  0.50000000  1
  C  C33  1  0.31132583  0.62265166  0.50000000  1
  C  C34  1  0.78509291  0.57018582  0.50000000  1
  C  C35  1  0.57018582  0.78509291  0.16666700  1
  C  C36  1  0.21490709  0.78509291  0.83333300  1
  C  C37  1  0.62265166  0.31132583  0.16666700  1
  C  C38  1  0.42981418  0.21490709  0.16666700  1
  N  N39  1  0.00000000  0.00000000  0.66666700  1
  N  N40  1  0.00000000  0.00000000  0.33333300  1
  N  N41  1  0.00000000  0.00000000  0.00000000  1
  O  O42  1  0.72226195  0.07802910  0.89600184  1
  O  O43  1  0.92197090  0.27773805  0.77066416  1
  O  O44  1  0.69339922  0.45292151  0.22454887  1
  O  O45  1  1.00000000  0.24414946  0.16666700  1
  O  O46  1  0.64423285  0.72226195  0.22933584  1
  O  O47  1  0.75952229  0.30660078  0.55788187  1
  O  O48  1  0.30660078  0.54707849  0.22454887  1
  O  O49  1  0.35576715  0.27773805  0.22933584  1
  O  O50  1  0.54707849  0.24047771  0.89121487  1
  O  O51  1  0.72226195  0.64423285  0.43733116  1
  O  O52  1  0.64423285  0.92197090  0.10399816  1
  O  O53  1  0.24414946  0.24414946  0.83333300  1
  O  O54  1  0.24047771  0.69339922  0.55788187  1
  O  O55  1  0.24047771  0.54707849  0.77545113  1
  O  O56  1  0.45292151  0.75952229  0.89121487  1
  O  O57  1  0.35576715  0.07802910  0.10399816  1
  O  O58  1  0.07802910  0.35576715  0.56266884  1
  O  O59  1  0.54707849  0.30660078  0.44211813  1
  O  O60  1  0.07802910  0.72226195  0.77066416  1
  O  O61  1  0.75952229  0.45292151  0.77545113  1
  O  O62  1  0.30660078  0.75952229  0.10878513  1
  O  O63  1  0.69339922  0.24047771  0.10878513  1
  O  O64  1  0.24414946  0.00000000  0.50000000  1
  O  O65  1  0.27773805  0.92197090  0.89600184  1
  O  O66  1  0.92197090  0.64423285  0.56266884  1
  O  O67  1  0.00000000  0.75585054  0.16666700  1
  O  O68  1  0.27773805  0.35576715  0.43733116  1
  O  O69  1  0.75585054  0.75585054  0.83333300  1
  O  O70  1  0.75585054  0.00000000  0.50000000  1
  O  O71  1  0.45292151  0.69339922  0.44211813  1
