# generated using pymatgen
data_TiH8C4NO10
_symmetry_space_group_name_H-M   'P 1'
_cell_length_a   8.97252860
_cell_length_b   8.97252853
_cell_length_c   11.01895183
_cell_angle_alpha   90.00000000
_cell_angle_beta   90.00000000
_cell_angle_gamma   120.00000027
_symmetry_Int_Tables_number   1
_chemical_formula_structural   TiH8C4NO10
_chemical_formula_sum   'Ti3 H24 C12 N3 O30'
_cell_volume   768.24654215
_cell_formula_units_Z   3
loop_
 _symmetry_equiv_pos_site_id
 _symmetry_equiv_pos_as_xyz
  1  'x, y, z'
loop_
 _atom_site_type_symbol
 _atom_site_label
 _atom_site_symmetry_multiplicity
 _atom_site_fract_x
 _atom_site_fract_y
 _atom_site_fract_z
 _atom_site_occupancy
  Ti  Ti0  1  0.00000000  0.50000000  0.83333300  1
  Ti  Ti1  1  0.50000000  0.50000000  0.16666700  1
  Ti  Ti2  1  0.50000000  0.00000000  0.50000000  1
  H  H3  1  0.89538697  0.97482766  0.11229587  1
  H  H4  1  0.89878609  0.63860297  0.31985967  1
  H  H5  1  0.10461303  0.07944069  0.55437113  1
  H  H6  1  0.10121391  0.73981688  0.34680733  1
  H  H7  1  0.36139703  0.10121391  0.01347333  1
  H  H8  1  0.92055931  0.02517234  0.88770413  1
  H  H9  1  0.97482766  0.07944069  0.44562887  1
  H  H10  1  0.10461303  0.02517234  0.11229587  1
  H  H11  1  0.89538697  0.92055931  0.55437113  1
  H  H12  1  0.10121391  0.36139703  0.31985967  1
  H  H13  1  0.02517234  0.10461303  0.22103713  1
  H  H14  1  0.36139703  0.26018312  0.65319267  1
  H  H15  1  0.63860297  0.89878609  0.01347333  1
  H  H16  1  0.73981688  0.10121391  0.98652667  1
  H  H17  1  0.63860297  0.73981688  0.65319267  1
  H  H18  1  0.07944069  0.10461303  0.77896287  1
  H  H19  1  0.02517234  0.92055931  0.44562887  1
  H  H20  1  0.97482766  0.89538697  0.22103713  1
  H  H21  1  0.26018312  0.36139703  0.68014033  1
  H  H22  1  0.26018312  0.89878609  0.98652667  1
  H  H23  1  0.92055931  0.89538697  0.77896287  1
  H  H24  1  0.73981688  0.63860297  0.68014033  1
  H  H25  1  0.89878609  0.26018312  0.34680733  1
  H  H26  1  0.07944069  0.97482766  0.88770413  1
  C  C27  1  0.42859408  0.21429704  0.33333300  1
  C  C28  1  0.31068883  0.62137766  0.00000000  1
  C  C29  1  0.57140592  0.78570296  0.33333300  1
  C  C30  1  0.78570296  0.21429704  0.66666700  1
  C  C31  1  0.37862234  0.68931117  0.33333300  1
  C  C32  1  0.68931117  0.31068883  0.66666700  1
  C  C33  1  0.21429704  0.78570296  0.66666700  1
  C  C34  1  0.31068883  0.68931117  0.66666700  1
  C  C35  1  0.62137766  0.31068883  0.33333300  1
  C  C36  1  0.21429704  0.42859408  0.00000000  1
  C  C37  1  0.68931117  0.37862234  0.00000000  1
  C  C38  1  0.78570296  0.57140592  0.00000000  1
  N  N39  1  0.00000000  0.00000000  0.83333300  1
  N  N40  1  0.00000000  0.00000000  0.16666700  1
  N  N41  1  0.00000000  0.00000000  0.50000000  1
  O  O42  1  0.69228592  0.23999917  0.39135176  1
  O  O43  1  0.54771325  0.23999917  0.60864824  1
  O  O44  1  0.07728949  0.72273211  0.72933909  1
  O  O45  1  1.00000000  0.75338752  0.33333300  1
  O  O46  1  0.30771408  0.54771325  0.27531524  1
  O  O47  1  0.76000083  0.30771408  0.94198224  1
  O  O48  1  0.72273211  0.64544262  0.06267209  1
  O  O49  1  0.45228675  0.69228592  0.05801776  1
  O  O50  1  0.75338752  0.00000000  0.00000000  1
  O  O51  1  0.92271051  0.64544262  0.93732791  1
  O  O52  1  0.76000083  0.45228675  0.72468476  1
  O  O53  1  0.64544262  0.72273211  0.27066091  1
  O  O54  1  0.27726789  0.92271051  0.60399391  1
  O  O55  1  0.27726789  0.35455738  0.06267209  1
  O  O56  1  0.35455738  0.07728949  0.39600609  1
  O  O57  1  0.69228592  0.45228675  0.27531524  1
  O  O58  1  0.75338752  0.75338752  0.66666700  1
  O  O59  1  0.45228675  0.76000083  0.60864824  1
  O  O60  1  0.00000000  0.24661248  0.33333300  1
  O  O61  1  0.24661248  0.00000000  0.00000000  1
  O  O62  1  0.92271051  0.27726789  0.72933909  1
  O  O63  1  0.35455738  0.27726789  0.27066091  1
  O  O64  1  0.72273211  0.07728949  0.60399391  1
  O  O65  1  0.23999917  0.69228592  0.94198224  1
  O  O66  1  0.23999917  0.54771325  0.72468476  1
  O  O67  1  0.24661248  0.24661248  0.66666700  1
  O  O68  1  0.07728949  0.35455738  0.93732791  1
  O  O69  1  0.54771325  0.30771408  0.05801776  1
  O  O70  1  0.30771408  0.76000083  0.39135176  1
  O  O71  1  0.64544262  0.92271051  0.39600609  1
