# generated using pymatgen
data_Sb3C2N(OF8)2
_symmetry_space_group_name_H-M   'P 1'
_cell_length_a   7.56718772
_cell_length_b   9.87351021
_cell_length_c   21.55840018
_cell_angle_alpha   94.58202257
_cell_angle_beta   90.00000000
_cell_angle_gamma   90.00000000
_symmetry_Int_Tables_number   1
_chemical_formula_structural   Sb3C2N(OF8)2
_chemical_formula_sum   'Sb12 C8 N4 O8 F64'
_cell_volume   1605.58161149
_cell_formula_units_Z   4
loop_
 _symmetry_equiv_pos_site_id
 _symmetry_equiv_pos_as_xyz
  1  'x, y, z'
loop_
 _atom_site_type_symbol
 _atom_site_label
 _atom_site_symmetry_multiplicity
 _atom_site_fract_x
 _atom_site_fract_y
 _atom_site_fract_z
 _atom_site_occupancy
  Sb  Sb0  1  0.24994281  0.67130054  0.01560183  1
  Sb  Sb1  1  0.27330644  0.76672169  0.25196309  1
  Sb  Sb2  1  0.74994281  0.32869946  0.48439817  1
  Sb  Sb3  1  0.75005719  0.32869946  0.98439817  1
  Sb  Sb4  1  0.10824091  0.20327180  0.10175191  1
  Sb  Sb5  1  0.22669356  0.76672169  0.75196309  1
  Sb  Sb6  1  0.77330644  0.23327831  0.24803691  1
  Sb  Sb7  1  0.39175909  0.20327180  0.60175191  1
  Sb  Sb8  1  0.72669356  0.23327831  0.74803691  1
  Sb  Sb9  1  0.25005719  0.67130054  0.51560183  1
  Sb  Sb10  1  0.89175909  0.79672820  0.89824809  1
  Sb  Sb11  1  0.60824091  0.79672820  0.39824809  1
  C  C12  1  0.24235949  0.30933432  0.86057119  1
  C  C13  1  0.65241017  0.88783286  0.09998002  1
  C  C14  1  0.15241017  0.11216714  0.40001998  1
  C  C15  1  0.84758983  0.88783286  0.59998002  1
  C  C16  1  0.25764051  0.30933432  0.36057119  1
  C  C17  1  0.75764051  0.69066568  0.13942881  1
  C  C18  1  0.34758983  0.11216714  0.90001998  1
  C  C19  1  0.74235949  0.69066568  0.63942881  1
  N  N20  1  0.76101780  0.80073605  0.11476093  1
  N  N21  1  0.23898220  0.19926395  0.88523907  1
  N  N22  1  0.26101780  0.19926395  0.38523907  1
  N  N23  1  0.73898220  0.80073605  0.61476093  1
  O  O24  1  0.06509358  0.02669382  0.41618344  1
  O  O25  1  0.93490642  0.97330618  0.58381656  1
  O  O26  1  0.43490642  0.02669382  0.91618344  1
  O  O27  1  0.56509358  0.97330618  0.08381656  1
  O  O28  1  0.72976842  0.58953470  0.66195857  1
  O  O29  1  0.77023158  0.58953470  0.16195857  1
  O  O30  1  0.22976842  0.41046530  0.83804143  1
  O  O31  1  0.27023158  0.41046530  0.33804143  1
  F  F32  1  0.25076866  0.09710986  0.65109996  1
  F  F33  1  0.10472317  0.79301656  0.18895854  1
  F  F34  1  0.47508969  0.81673036  0.20518927  1
  F  F35  1  0.46570429  0.73203537  0.32159112  1
  F  F36  1  0.58050811  0.32932001  0.91900898  1
  F  F37  1  0.82025920  0.14694023  0.96177442  1
  F  F38  1  0.06734769  0.93193867  0.91169502  1
  F  F39  1  0.10695938  0.71505601  0.31118265  1
  F  F40  1  0.56734769  0.06806133  0.58830498  1
  F  F41  1  0.26543166  0.94905337  0.28785452  1
  F  F42  1  0.28962255  0.48937791  0.98326406  1
  F  F43  1  0.76543166  0.05094663  0.21214548  1
  F  F44  1  0.41949189  0.67067999  0.08099102  1
  F  F45  1  0.97508969  0.18326964  0.29481073  1
  F  F46  1  0.75076866  0.90289014  0.84890004  1
  F  F47  1  0.43685302  0.67588970  0.44204231  1
  F  F48  1  0.94142297  0.38916896  0.93666228  1
  F  F49  1  0.55857703  0.38916896  0.43666228  1
  F  F50  1  0.06314698  0.67588970  0.94204231  1
  F  F51  1  0.91296853  0.26599502  0.54221915  1
  F  F52  1  0.28088554  0.15846675  0.52427647  1
  F  F53  1  0.60695938  0.28494399  0.18881735  1
  F  F54  1  0.71037745  0.51062209  0.01673594  1
  F  F55  1  0.39527683  0.79301656  0.68895854  1
  F  F56  1  0.96570429  0.26796463  0.17840888  1
  F  F57  1  0.41296853  0.73400498  0.95778085  1
  F  F58  1  0.43265231  0.93193867  0.41169502  1
  F  F59  1  0.23784585  0.36382848  0.11957795  1
  F  F60  1  0.68012371  0.41740399  0.77409654  1
  F  F61  1  0.02491031  0.81673036  0.70518927  1
  F  F62  1  0.71911446  0.84153325  0.47572353  1
  F  F63  1  0.39304062  0.71505601  0.81118265  1
  F  F64  1  0.91949189  0.32932001  0.41900898  1
  F  F65  1  0.26215415  0.36382848  0.61957795  1
  F  F66  1  0.03429571  0.73203537  0.82159112  1
  F  F67  1  0.44142297  0.61083104  0.56333772  1
  F  F68  1  0.89527683  0.20698344  0.81104146  1
  F  F69  1  0.18012371  0.58259601  0.72590346  1
  F  F70  1  0.23456834  0.94905337  0.78785452  1
  F  F71  1  0.58703147  0.26599502  0.04221915  1
  F  F72  1  0.52491031  0.18326964  0.79481073  1
  F  F73  1  0.17974080  0.85305977  0.03822558  1
  F  F74  1  0.53429571  0.26796463  0.67840888  1
  F  F75  1  0.76215415  0.63617152  0.88042205  1
  F  F76  1  0.08703147  0.73400498  0.45778085  1
  F  F77  1  0.32025920  0.85305977  0.53822558  1
  F  F78  1  0.89304062  0.28494399  0.68881735  1
  F  F79  1  0.24923134  0.09710986  0.15109996  1
  F  F80  1  0.73456834  0.05094663  0.71214548  1
  F  F81  1  0.31987629  0.58259601  0.22590346  1
  F  F82  1  0.08050811  0.67067999  0.58099102  1
  F  F83  1  0.67974080  0.14694023  0.46177442  1
  F  F84  1  0.81987629  0.41740399  0.27409654  1
  F  F85  1  0.60472317  0.20698344  0.31104146  1
  F  F86  1  0.78962255  0.51062209  0.51673594  1
  F  F87  1  0.93685302  0.32411030  0.05795769  1
  F  F88  1  0.21037745  0.48937791  0.48326406  1
  F  F89  1  0.78088554  0.84153325  0.97572353  1
  F  F90  1  0.56314698  0.32411030  0.55795769  1
  F  F91  1  0.93265231  0.06806133  0.08830498  1
  F  F92  1  0.21911446  0.15846675  0.02427647  1
  F  F93  1  0.05857703  0.61083104  0.06333772  1
  F  F94  1  0.74923134  0.90289014  0.34890004  1
  F  F95  1  0.73784585  0.63617152  0.38042205  1
