# generated using pymatgen
data_AlSeS2N2Cl5
_symmetry_space_group_name_H-M   'P 1'
_cell_length_a   9.59414674
_cell_length_b   11.06822080
_cell_length_c   11.72299560
_cell_angle_alpha   90.00000000
_cell_angle_beta   92.00512478
_cell_angle_gamma   90.00000000
_symmetry_Int_Tables_number   1
_chemical_formula_structural   AlSeS2N2Cl5
_chemical_formula_sum   'Al4 Se4 S8 N8 Cl20'
_cell_volume   1244.10424925
_cell_formula_units_Z   4
loop_
 _symmetry_equiv_pos_site_id
 _symmetry_equiv_pos_as_xyz
  1  'x, y, z'
loop_
 _atom_site_type_symbol
 _atom_site_label
 _atom_site_symmetry_multiplicity
 _atom_site_fract_x
 _atom_site_fract_y
 _atom_site_fract_z
 _atom_site_occupancy
  Al  Al0  1  0.47473752  0.63984198  0.19130926  1
  Al  Al1  1  0.02526248  0.13984198  0.30869074  1
  Al  Al2  1  0.97473752  0.86015802  0.69130926  1
  Al  Al3  1  0.52526248  0.36015802  0.80869074  1
  Se  Se4  1  0.56303068  0.28241983  0.38887448  1
  Se  Se5  1  0.93696932  0.78241983  0.11112552  1
  Se  Se6  1  0.06303068  0.21758017  0.88887448  1
  Se  Se7  1  0.43696932  0.71758017  0.61112552  1
  S  S8  1  0.99171761  0.46171195  0.81319436  1
  S  S9  1  0.53894907  0.24843775  0.19090877  1
  S  S10  1  0.46105093  0.75156225  0.80909123  1
  S  S11  1  0.00828239  0.53828805  0.18680564  1
  S  S12  1  0.96105093  0.74843775  0.30909123  1
  S  S13  1  0.03894907  0.25156225  0.69090877  1
  S  S14  1  0.49171761  0.03828805  0.31319436  1
  S  S15  1  0.50828239  0.96171195  0.68680564  1
  N  N16  1  0.53942998  0.12575279  0.41536040  1
  N  N17  1  0.00376985  0.60923269  0.30227996  1
  N  N18  1  0.49623015  0.10923269  0.19772004  1
  N  N19  1  0.03942998  0.37424721  0.91536040  1
  N  N20  1  0.50376985  0.89076731  0.80227996  1
  N  N21  1  0.96057002  0.62575279  0.08463960  1
  N  N22  1  0.99623015  0.39076731  0.69772004  1
  N  N23  1  0.46057002  0.87424721  0.58463960  1
  Cl  Cl24  1  0.64507134  0.63366692  0.57542538  1
  Cl  Cl25  1  0.92703437  0.28692794  0.39730392  1
  Cl  Cl26  1  0.35854447  0.47841962  0.74227093  1
  Cl  Cl27  1  0.63841057  0.28747580  0.66830454  1
  Cl  Cl28  1  0.86158943  0.78747580  0.83169546  1
  Cl  Cl29  1  0.85854447  0.02158038  0.24227093  1
  Cl  Cl30  1  0.14145553  0.97841962  0.75772907  1
  Cl  Cl31  1  0.16466649  0.03911687  0.41933760  1
  Cl  Cl32  1  0.42703437  0.21307206  0.89730392  1
  Cl  Cl33  1  0.85492866  0.13366692  0.92457462  1
  Cl  Cl34  1  0.36158943  0.71252420  0.33169546  1
  Cl  Cl35  1  0.83533351  0.96088313  0.58066240  1
  Cl  Cl36  1  0.14507134  0.86633308  0.07542538  1
  Cl  Cl37  1  0.64145553  0.52158038  0.25772907  1
  Cl  Cl38  1  0.35492866  0.36633308  0.42457462  1
  Cl  Cl39  1  0.33533351  0.53911687  0.08066240  1
  Cl  Cl40  1  0.07296563  0.71307206  0.60269608  1
  Cl  Cl41  1  0.66466649  0.46088313  0.91933760  1
  Cl  Cl42  1  0.13841057  0.21252420  0.16830454  1
  Cl  Cl43  1  0.57296563  0.78692794  0.10269608  1
