# generated using pymatgen
data_BaNd2CoS5
_symmetry_space_group_name_H-M   'P 1'
_cell_length_a   7.87763037
_cell_length_b   7.87763037
_cell_length_c   8.75493627
_cell_angle_alpha   116.73704369
_cell_angle_beta   116.73704370
_cell_angle_gamma   89.99999997
_symmetry_Int_Tables_number   1
_chemical_formula_structural   BaNd2CoS5
_chemical_formula_sum   'Ba2 Nd4 Co2 S10'
_cell_volume   419.15113159
_cell_formula_units_Z   2
loop_
 _symmetry_equiv_pos_site_id
 _symmetry_equiv_pos_as_xyz
  1  'x, y, z'
loop_
 _atom_site_type_symbol
 _atom_site_label
 _atom_site_symmetry_multiplicity
 _atom_site_fract_x
 _atom_site_fract_y
 _atom_site_fract_z
 _atom_site_occupancy
  S  S0  1  0.49000785  0.99000785  0.27087984  1
  S  S1  1  0.21912800  0.71912800  0.72912016  1
  S  S2  1  0.50999215  0.00999215  0.72912016  1
  S  S3  1  0.71912800  0.50999215  0.72912016  1
  S  S4  1  0.00999215  0.21912800  0.72912016  1
  S  S5  1  0.28087200  0.49000785  0.27087984  1
  S  S6  1  0.99000785  0.78087200  0.27087984  1
  S  S7  1  0.78087200  0.28087200  0.27087984  1
  S  S8  1  0.00000000  0.00000000  0.00000000  1
  S  S9  1  0.50000000  0.50000000  0.00000000  1
  Co  Co10  1  0.75000000  0.25000000  0.50000000  1
  Co  Co11  1  0.25000000  0.75000000  0.50000000  1
  Ba  Ba12  1  0.75000000  0.75000000  0.50000000  1
  Ba  Ba13  1  0.25000000  0.25000000  0.50000000  1
  Nd  Nd14  1  0.66303966  0.83696034  0.00000000  1
  Nd  Nd15  1  0.16303966  0.66303966  0.00000000  1
  Nd  Nd16  1  0.83696034  0.33696034  0.00000000  1
  Nd  Nd17  1  0.33696034  0.16303966  0.00000000  1
