# generated using pymatgen
data_YbHg6As4Br7
_symmetry_space_group_name_H-M   'P 1'
_cell_length_a   12.68179274
_cell_length_b   12.68179274
_cell_length_c   12.68179274
_cell_angle_alpha   90.00000000
_cell_angle_beta   90.00000000
_cell_angle_gamma   90.00000000
_symmetry_Int_Tables_number   1
_chemical_formula_structural   YbHg6As4Br7
_chemical_formula_sum   'Yb4 Hg24 As16 Br28'
_cell_volume   2039.58567738
_cell_formula_units_Z   4
loop_
 _symmetry_equiv_pos_site_id
 _symmetry_equiv_pos_as_xyz
  1  'x, y, z'
loop_
 _atom_site_type_symbol
 _atom_site_label
 _atom_site_symmetry_multiplicity
 _atom_site_fract_x
 _atom_site_fract_y
 _atom_site_fract_z
 _atom_site_occupancy
  Yb  Yb0  1  0.50000000  0.50000000  0.50000000  1
  Yb  Yb1  1  0.00000000  0.00000000  0.50000000  1
  Yb  Yb2  1  0.00000000  0.50000000  0.00000000  1
  Yb  Yb3  1  0.50000000  0.00000000  0.00000000  1
  Hg  Hg4  1  0.19098605  0.29389387  0.45986454  1
  Hg  Hg5  1  0.70610613  0.54013546  0.80901395  1
  Hg  Hg6  1  0.29389387  0.04013546  0.69098605  1
  Hg  Hg7  1  0.45986454  0.19098605  0.29389387  1
  Hg  Hg8  1  0.79389387  0.45986454  0.30901395  1
  Hg  Hg9  1  0.95986454  0.19098605  0.20610613  1
  Hg  Hg10  1  0.19098605  0.20610613  0.95986454  1
  Hg  Hg11  1  0.30901395  0.79389387  0.45986454  1
  Hg  Hg12  1  0.30901395  0.70610613  0.95986454  1
  Hg  Hg13  1  0.95986454  0.30901395  0.70610613  1
  Hg  Hg14  1  0.79389387  0.04013546  0.80901395  1
  Hg  Hg15  1  0.04013546  0.69098605  0.29389387  1
  Hg  Hg16  1  0.20610613  0.54013546  0.69098605  1
  Hg  Hg17  1  0.20610613  0.95986454  0.19098605  1
  Hg  Hg18  1  0.69098605  0.20610613  0.54013546  1
  Hg  Hg19  1  0.54013546  0.69098605  0.20610613  1
  Hg  Hg20  1  0.04013546  0.80901395  0.79389387  1
  Hg  Hg21  1  0.45986454  0.30901395  0.79389387  1
  Hg  Hg22  1  0.80901395  0.70610613  0.54013546  1
  Hg  Hg23  1  0.54013546  0.80901395  0.70610613  1
  Hg  Hg24  1  0.69098605  0.29389387  0.04013546  1
  Hg  Hg25  1  0.70610613  0.95986454  0.30901395  1
  Hg  Hg26  1  0.29389387  0.45986454  0.19098605  1
  Hg  Hg27  1  0.80901395  0.79389387  0.04013546  1
  As  As28  1  0.27085445  0.22914555  0.77085445  1
  As  As29  1  0.77085445  0.27085445  0.22914555  1
  As  As30  1  0.77085445  0.22914555  0.72914555  1
  As  As31  1  0.72914555  0.72914555  0.72914555  1
  As  As32  1  0.34211537  0.84211537  0.65788463  1
  As  As33  1  0.65788463  0.15788463  0.34211537  1
  As  As34  1  0.15788463  0.34211537  0.65788463  1
  As  As35  1  0.65788463  0.34211537  0.84211537  1
  As  As36  1  0.15788463  0.15788463  0.15788463  1
  As  As37  1  0.27085445  0.27085445  0.27085445  1
  As  As38  1  0.72914555  0.77085445  0.22914555  1
  As  As39  1  0.84211537  0.65788463  0.34211537  1
  As  As40  1  0.84211537  0.84211537  0.84211537  1
  As  As41  1  0.22914555  0.72914555  0.77085445  1
  As  As42  1  0.22914555  0.77085445  0.27085445  1
  As  As43  1  0.34211537  0.65788463  0.15788463  1
  Br  Br44  1  0.54444200  0.45276733  0.28339280  1
  Br  Br45  1  0.45555800  0.95276733  0.21660720  1
  Br  Br46  1  0.21660720  0.04444200  0.45276733  1
  Br  Br47  1  0.71660720  0.04444200  0.04723267  1
  Br  Br48  1  0.78339280  0.95555800  0.54723267  1
  Br  Br49  1  0.95276733  0.21660720  0.45555800  1
  Br  Br50  1  0.71660720  0.45555800  0.54723267  1
  Br  Br51  1  0.00000000  0.00000000  0.00000000  1
  Br  Br52  1  0.95276733  0.28339280  0.95555800  1
  Br  Br53  1  0.45276733  0.28339280  0.54444200  1
  Br  Br54  1  0.28339280  0.54444200  0.45276733  1
  Br  Br55  1  0.45276733  0.21660720  0.04444200  1
  Br  Br56  1  0.54444200  0.04723267  0.78339280  1
  Br  Br57  1  0.00000000  0.50000000  0.50000000  1
  Br  Br58  1  0.50000000  0.00000000  0.50000000  1
  Br  Br59  1  0.28339280  0.95555800  0.95276733  1
  Br  Br60  1  0.50000000  0.50000000  0.00000000  1
  Br  Br61  1  0.45555800  0.54723267  0.71660720  1
  Br  Br62  1  0.78339280  0.54444200  0.04723267  1
  Br  Br63  1  0.54723267  0.71660720  0.45555800  1
  Br  Br64  1  0.04444200  0.45276733  0.21660720  1
  Br  Br65  1  0.54723267  0.78339280  0.95555800  1
  Br  Br66  1  0.95555800  0.95276733  0.28339280  1
  Br  Br67  1  0.04723267  0.78339280  0.54444200  1
  Br  Br68  1  0.21660720  0.45555800  0.95276733  1
  Br  Br69  1  0.04444200  0.04723267  0.71660720  1
  Br  Br70  1  0.04723267  0.71660720  0.04444200  1
  Br  Br71  1  0.95555800  0.54723267  0.78339280  1
