# generated using pymatgen
data_CeIn7Pt2
_symmetry_space_group_name_H-M   'P 1'
_cell_length_a   4.59332165
_cell_length_b   4.59191361
_cell_length_c   12.08277940
_cell_angle_alpha   100.98483780
_cell_angle_beta   101.02434727
_cell_angle_gamma   90.07415937
_symmetry_Int_Tables_number   1
_chemical_formula_structural   CeIn7Pt2
_chemical_formula_sum   'Ce1 In7 Pt2'
_cell_volume   245.37693580
_cell_formula_units_Z   1
loop_
 _symmetry_equiv_pos_site_id
 _symmetry_equiv_pos_as_xyz
  1  'x, y, z'
loop_
 _atom_site_type_symbol
 _atom_site_label
 _atom_site_symmetry_multiplicity
 _atom_site_fract_x
 _atom_site_fract_y
 _atom_site_fract_z
 _atom_site_occupancy
  Ce  Ce0  1  0.99994817  0.99867425  0.00020592  1
  In  In1  1  0.89185536  0.38808415  0.78440135  1
  In  In2  1  0.61026768  0.10894281  0.21653412  1
  In  In3  1  0.38960185  0.88875766  0.78342872  1
  In  In4  1  0.49945363  0.49804052  0.99881517  1
  In  In5  1  0.25025495  0.74776985  0.49996490  1
  In  In6  1  0.10833340  0.60920483  0.21622258  1
  In  In7  1  0.75010348  0.24988736  0.50061983  1
  Pt  Pt8  1  0.31926731  0.31629846  0.63797234  1
  Pt  Pt9  1  0.68096316  0.68167110  0.36285907  1
