# generated using pymatgen
data_Cu2Mo3Se4
_symmetry_space_group_name_H-M   'P 1'
_cell_length_a   6.85871325
_cell_length_b   6.91136130
_cell_length_c   8.01230885
_cell_angle_alpha   70.74831485
_cell_angle_beta   73.18948923
_cell_angle_gamma   84.61087400
_symmetry_Int_Tables_number   1
_chemical_formula_structural   Cu2Mo3Se4
_chemical_formula_sum   'Cu4 Mo6 Se8'
_cell_volume   343.24538267
_cell_formula_units_Z   2
loop_
 _symmetry_equiv_pos_site_id
 _symmetry_equiv_pos_as_xyz
  1  'x, y, z'
loop_
 _atom_site_type_symbol
 _atom_site_label
 _atom_site_symmetry_multiplicity
 _atom_site_fract_x
 _atom_site_fract_y
 _atom_site_fract_z
 _atom_site_occupancy
  Cu  Cu0  1  0.22266795  0.03677183  0.06426258  1
  Cu  Cu1  1  0.77733205  0.96322817  0.93573742  1
  Cu  Cu2  1  0.53636167  0.28763701  0.91377382  1
  Cu  Cu3  1  0.46363833  0.71236299  0.08622618  1
  Mo  Mo4  1  0.57951737  0.72050101  0.54628304  1
  Mo  Mo5  1  0.50566502  0.01184235  0.25821361  1
  Mo  Mo6  1  0.49433498  0.98815765  0.74178639  1
  Mo  Mo7  1  0.77946359  0.07963196  0.41309348  1
  Mo  Mo8  1  0.42048263  0.27949899  0.45371696  1
  Mo  Mo9  1  0.22053641  0.92036804  0.58690652  1
  Se  Se10  1  0.83782408  0.78394589  0.70357274  1
  Se  Se11  1  0.69007736  0.36939302  0.13342964  1
  Se  Se12  1  0.29446789  0.66569080  0.40626927  1
  Se  Se13  1  0.30992264  0.63060698  0.86657036  1
  Se  Se14  1  0.86280892  0.82228268  0.22923591  1
  Se  Se15  1  0.16217592  0.21605411  0.29642726  1
  Se  Se16  1  0.13719108  0.17771732  0.77076409  1
  Se  Se17  1  0.70553211  0.33430920  0.59373073  1
