# generated using pymatgen
data_Yb3Si2ClO8
_symmetry_space_group_name_H-M   'P 1'
_cell_length_a   6.32344930
_cell_length_b   6.95484297
_cell_length_c   18.05788222
_cell_angle_alpha   89.98761991
_cell_angle_beta   90.00345132
_cell_angle_gamma   89.99822043
_symmetry_Int_Tables_number   1
_chemical_formula_structural   Yb3Si2ClO8
_chemical_formula_sum   'Yb12 Si8 Cl4 O32'
_cell_volume   794.16030362
_cell_formula_units_Z   4
loop_
 _symmetry_equiv_pos_site_id
 _symmetry_equiv_pos_as_xyz
  1  'x, y, z'
loop_
 _atom_site_type_symbol
 _atom_site_label
 _atom_site_symmetry_multiplicity
 _atom_site_fract_x
 _atom_site_fract_y
 _atom_site_fract_z
 _atom_site_occupancy
  Yb  Yb0  1  0.12532510  0.01534015  0.09285798  1
  Yb  Yb1  1  0.62560269  0.48468386  0.90737391  1
  Yb  Yb2  1  0.37459169  0.51533696  0.40721846  1
  Yb  Yb3  1  0.88707566  0.28784265  0.24988577  1
  Yb  Yb4  1  0.11276403  0.71217122  0.74983937  1
  Yb  Yb5  1  0.61292604  0.78790000  0.24988655  1
  Yb  Yb6  1  0.87437858  0.98468373  0.90738976  1
  Yb  Yb7  1  0.38724974  0.21209525  0.74984192  1
  Yb  Yb8  1  0.37470427  0.51533023  0.09288361  1
  Yb  Yb9  1  0.12543945  0.01535603  0.40724065  1
  Yb  Yb10  1  0.62542733  0.48467648  0.59273401  1
  Yb  Yb11  1  0.87455181  0.98466228  0.59271223  1
  Si  Si12  1  0.62549452  0.01845190  0.39887394  1
  Si  Si13  1  0.62542402  0.01865839  0.10102125  1
  Si  Si14  1  0.37439329  0.98138349  0.89900817  1
  Si  Si15  1  0.37461070  0.98152347  0.60108970  1
  Si  Si16  1  0.12537314  0.48152870  0.60111065  1
  Si  Si17  1  0.87458380  0.51868362  0.10101679  1
  Si  Si18  1  0.87451567  0.51843400  0.39885713  1
  Si  Si19  1  0.12557102  0.48134312  0.89900133  1
  Cl  Cl20  1  0.25986682  0.53668540  0.25002655  1
  Cl  Cl21  1  0.75976597  0.96332325  0.74999303  1
  Cl  Cl22  1  0.24013560  0.03667728  0.25002535  1
  Cl  Cl23  1  0.74023846  0.46331516  0.74999568  1
  O  O24  1  0.27844650  0.46223280  0.82580872  1
  O  O25  1  0.02539023  0.32992586  0.11646271  1
  O  O26  1  0.02514513  0.32999979  0.38356279  1
  O  O27  1  0.71648744  0.50638019  0.47006221  1
  O  O28  1  0.54546468  0.80589425  0.90720832  1
  O  O29  1  0.78340175  0.00636421  0.03001431  1
  O  O30  1  0.77817828  0.03771210  0.32584956  1
  O  O31  1  0.04553834  0.69414628  0.40721995  1
  O  O32  1  0.97494958  0.66990567  0.61643747  1
  O  O33  1  0.52503167  0.16988676  0.61643437  1
  O  O34  1  0.95451008  0.30585979  0.90720448  1
  O  O35  1  0.27824438  0.46229570  0.67412177  1
  O  O36  1  0.28352909  0.49360739  0.52991317  1
  O  O37  1  0.47463903  0.82993550  0.11645916  1
  O  O38  1  0.21649123  0.99360275  0.52993813  1
  O  O39  1  0.22178817  0.96232299  0.67411814  1
  O  O40  1  0.78348202  0.00638423  0.47003453  1
  O  O41  1  0.21652192  0.99362229  0.97005427  1
  O  O42  1  0.04547498  0.69414853  0.09280824  1
  O  O43  1  0.77821386  0.03762218  0.17424887  1
  O  O44  1  0.52516003  0.17014142  0.88352181  1
  O  O45  1  0.95451593  0.30593578  0.59277830  1
  O  O46  1  0.71662186  0.50637051  0.03001271  1
  O  O47  1  0.28342712  0.49362287  0.97006523  1
  O  O48  1  0.22157765  0.96224256  0.82580168  1
  O  O49  1  0.97479780  0.67016101  0.88351649  1
  O  O50  1  0.45449836  0.19410566  0.40721422  1
  O  O51  1  0.54545520  0.80597558  0.59278200  1
  O  O52  1  0.45453970  0.19413704  0.09280757  1
  O  O53  1  0.72179976  0.53772183  0.32584519  1
  O  O54  1  0.47488375  0.83002525  0.38356401  1
  O  O55  1  0.72178512  0.53762457  0.17424584  1
