# generated using pymatgen
data_Bi3(PO5)2
_symmetry_space_group_name_H-M   'P 1'
_cell_length_a   6.79401348
_cell_length_b   7.06478505
_cell_length_c   5.56587177
_cell_angle_alpha   70.75569351
_cell_angle_beta   96.64268855
_cell_angle_gamma   71.92255549
_symmetry_Int_Tables_number   1
_chemical_formula_structural   Bi3(PO5)2
_chemical_formula_sum   'Bi3 P2 O10'
_cell_volume   232.59658789
_cell_formula_units_Z   1
loop_
 _symmetry_equiv_pos_site_id
 _symmetry_equiv_pos_as_xyz
  1  'x, y, z'
loop_
 _atom_site_type_symbol
 _atom_site_label
 _atom_site_symmetry_multiplicity
 _atom_site_fract_x
 _atom_site_fract_y
 _atom_site_fract_z
 _atom_site_occupancy
  Bi  Bi0  1  0.17675656  0.24605412  0.39892434  1
  Bi  Bi1  1  0.41001147  0.67499285  0.73552750  1
  Bi  Bi2  1  1.00230679  0.99172218  0.98182620  1
  P  P3  1  0.61119610  0.33459928  0.38464932  1
  P  P4  1  0.94419150  0.57907473  0.75087554  1
  O  O5  1  0.08939181  0.65470359  0.91449180  1
  O  O6  1  0.27166142  0.98372039  0.80489849  1
  O  O7  1  0.22885503  0.93463399  0.33983538  1
  O  O8  1  0.97304284  0.34608981  0.94304068  1
  O  O9  1  0.51399932  0.36084323  0.61881303  1
  O  O10  1  0.02777977  0.57618360  0.50779682  1
  O  O11  1  0.58105581  0.55563291  0.17369338  1
  O  O12  1  0.49546800  0.21748164  0.26427806  1
  O  O13  1  0.85441080  0.19424480  0.49737791  1
  O  O14  1  0.71021277  0.73598787  0.68094258  1
