# generated using pymatgen
data_Cd2Os(CN)6
_symmetry_space_group_name_H-M   'P 1'
_cell_length_a   6.45403137
_cell_length_b   6.45403123
_cell_length_c   6.63649985
_cell_angle_alpha   90.00000000
_cell_angle_beta   90.00000000
_cell_angle_gamma   120.00000077
_symmetry_Int_Tables_number   1
_chemical_formula_structural   Cd2Os(CN)6
_chemical_formula_sum   'Cd2 Os1 C6 N6'
_cell_volume   239.40424756
_cell_formula_units_Z   1
loop_
 _symmetry_equiv_pos_site_id
 _symmetry_equiv_pos_as_xyz
  1  'x, y, z'
loop_
 _atom_site_type_symbol
 _atom_site_label
 _atom_site_symmetry_multiplicity
 _atom_site_fract_x
 _atom_site_fract_y
 _atom_site_fract_z
 _atom_site_occupancy
  Cd  Cd0  1  0.33333300  0.66666700  0.50187206  1
  Cd  Cd1  1  0.66666700  0.33333300  0.49812794  1
  Os  Os2  1  0.00000000  0.00000000  0.00000000  1
  C  C3  1  0.99878425  0.75144485  0.81585202  1
  C  C4  1  0.24855515  0.24733940  0.81585202  1
  C  C5  1  0.75266060  0.00121575  0.81585202  1
  C  C6  1  0.24733940  0.99878425  0.18414798  1
  C  C7  1  0.75144485  0.75266060  0.18414798  1
  C  C8  1  0.00121575  0.24855515  0.18414798  1
  N  N9  1  0.61451126  0.61573020  0.30326519  1
  N  N10  1  0.00121893  0.38548874  0.30326519  1
  N  N11  1  0.61573020  0.00121893  0.69673481  1
  N  N12  1  0.38426980  0.99878107  0.30326519  1
  N  N13  1  0.99878107  0.61451126  0.69673481  1
  N  N14  1  0.38548874  0.38426980  0.69673481  1
