# generated using pymatgen
data_U(HO2)2
_symmetry_space_group_name_H-M   'P 1'
_cell_length_a   5.62208668
_cell_length_b   5.62208668
_cell_length_c   6.95330954
_cell_angle_alpha   90.00000000
_cell_angle_beta   90.00000000
_cell_angle_gamma   44.48872716
_symmetry_Int_Tables_number   1
_chemical_formula_structural   U(HO2)2
_chemical_formula_sum   'U2 H4 O8'
_cell_volume   154.01444998
_cell_formula_units_Z   2
loop_
 _symmetry_equiv_pos_site_id
 _symmetry_equiv_pos_as_xyz
  1  'x, y, z'
loop_
 _atom_site_type_symbol
 _atom_site_label
 _atom_site_symmetry_multiplicity
 _atom_site_fract_x
 _atom_site_fract_y
 _atom_site_fract_z
 _atom_site_occupancy
  U  U0  1  0.50000000  0.50000000  0.50000000  1
  U  U1  1  0.00000000  0.00000000  0.00000000  1
  H  H2  1  0.16436969  0.16436969  0.63402600  1
  H  H3  1  0.83563031  0.83563031  0.36597400  1
  H  H4  1  0.33563031  0.33563031  0.13402600  1
  H  H5  1  0.66436969  0.66436969  0.86597400  1
  O  O6  1  0.33746221  0.33746221  0.59475754  1
  O  O7  1  0.66253779  0.66253779  0.40524246  1
  O  O8  1  0.16253779  0.16253779  0.09475754  1
  O  O9  1  0.83746221  0.83746221  0.90524246  1
  O  O10  1  0.06946868  0.06946868  0.64760130  1
  O  O11  1  0.93053132  0.93053132  0.35239870  1
  O  O12  1  0.43053132  0.43053132  0.14760130  1
  O  O13  1  0.56946868  0.56946868  0.85239870  1
