# generated using pymatgen
data_Ce3MoO7
_symmetry_space_group_name_H-M   'P 1'
_cell_length_a   7.64566489
_cell_length_b   7.59098233
_cell_length_c   10.79855390
_cell_angle_alpha   89.99649798
_cell_angle_beta   90.00508380
_cell_angle_gamma   89.95180652
_symmetry_Int_Tables_number   1
_chemical_formula_structural   Ce3MoO7
_chemical_formula_sum   'Ce12 Mo4 O28'
_cell_volume   626.72740247
_cell_formula_units_Z   4
loop_
 _symmetry_equiv_pos_site_id
 _symmetry_equiv_pos_as_xyz
  1  'x, y, z'
loop_
 _atom_site_type_symbol
 _atom_site_label
 _atom_site_symmetry_multiplicity
 _atom_site_fract_x
 _atom_site_fract_y
 _atom_site_fract_z
 _atom_site_occupancy
  Ce  Ce0  1  0.21368891  0.75486636  0.46981898  1
  Ce  Ce1  1  0.70359355  0.74088486  0.97810494  1
  Ce  Ce2  1  0.28624918  0.24488408  0.97002622  1
  Ce  Ce3  1  0.29636922  0.24071418  0.52185419  1
  Ce  Ce4  1  0.20369216  0.75914864  0.02198667  1
  Ce  Ce5  1  0.78622602  0.25501881  0.03010237  1
  Ce  Ce6  1  0.96707153  0.00724739  0.75642281  1
  Ce  Ce7  1  0.46713987  0.49280943  0.24366825  1
  Ce  Ce8  1  0.79634370  0.25932574  0.47801838  1
  Ce  Ce9  1  0.53271513  0.99272989  0.25633598  1
  Ce  Ce10  1  0.71363754  0.74505950  0.53006910  1
  Ce  Ce11  1  0.03283706  0.50727824  0.74357719  1
  Mo  Mo12  1  0.00376601  0.49962113  0.24932919  1
  Mo  Mo13  1  0.49640979  0.50055400  0.74929124  1
  Mo  Mo14  1  0.99634689  0.99938395  0.25065258  1
  Mo  Mo15  1  0.50373037  0.00039907  0.75069249  1
  O  O16  1  0.33412586  0.95208292  0.60002023  1
  O  O17  1  0.21519494  0.03780645  0.37377550  1
  O  O18  1  0.78747486  0.96136500  0.38573854  1
  O  O19  1  0.27642043  0.53939943  0.87221081  1
  O  O20  1  0.88755761  0.25059612  0.25758193  1
  O  O21  1  0.28758043  0.53861101  0.61410241  1
  O  O22  1  0.21242788  0.46140955  0.11418910  1
  O  O23  1  0.98637565  0.76192821  0.61900995  1
  O  O24  1  0.01365402  0.26179985  0.88086944  1
  O  O25  1  0.66629965  0.45229659  0.89987920  1
  O  O26  1  0.46976123  0.75500695  0.11336626  1
  O  O27  1  0.61238062  0.74944658  0.75751583  1
  O  O28  1  0.71556022  0.46235179  0.62636422  1
  O  O29  1  0.38763135  0.24954459  0.74242697  1
  O  O30  1  0.96963311  0.74522623  0.88669925  1
  O  O31  1  0.71223597  0.03864941  0.88587775  1
  O  O32  1  0.22372511  0.46045215  0.37225875  1
  O  O33  1  0.78462859  0.53771412  0.12619233  1
  O  O34  1  0.48631695  0.73806607  0.38082274  1
  O  O35  1  0.83383279  0.54778896  0.39988864  1
  O  O36  1  0.53024947  0.25493705  0.38668185  1
  O  O37  1  0.16597245  0.04775767  0.10016337  1
  O  O38  1  0.77625610  0.96044066  0.12786912  1
  O  O39  1  0.72363950  0.03956033  0.62791432  1
  O  O40  1  0.28477783  0.96222672  0.87366196  1
  O  O41  1  0.03044412  0.24494283  0.61325149  1
  O  O42  1  0.11238374  0.75048889  0.24254204  1
  O  O43  1  0.51364260  0.23817860  0.11917546  1
