# generated using pymatgen
data_Ba2TlCuHgO5
_symmetry_space_group_name_H-M   'P 1'
_cell_length_a   3.91053599
_cell_length_b   3.91054352
_cell_length_c   24.05481841
_cell_angle_alpha   90.00004894
_cell_angle_beta   89.99975145
_cell_angle_gamma   89.99979898
_symmetry_Int_Tables_number   1
_chemical_formula_structural   Ba2TlCuHgO5
_chemical_formula_sum   'Ba4 Tl2 Cu2 Hg2 O10'
_cell_volume   367.85400894
_cell_formula_units_Z   2
loop_
 _symmetry_equiv_pos_site_id
 _symmetry_equiv_pos_as_xyz
  1  'x, y, z'
loop_
 _atom_site_type_symbol
 _atom_site_label
 _atom_site_symmetry_multiplicity
 _atom_site_fract_x
 _atom_site_fract_y
 _atom_site_fract_z
 _atom_site_occupancy
  Ba  Ba0  1  0.49999196  0.49999581  0.91911703  1
  Ba  Ba1  1  0.00000102  0.00000461  0.58492759  1
  Ba  Ba2  1  0.49999806  0.49999983  0.08493112  1
  Ba  Ba3  1  -0.00000278  0.00000068  0.41900938  1
  Tl  Tl4  1  0.50000214  0.49999979  0.70071916  1
  Tl  Tl5  1  0.00000124  0.00000004  0.20084220  1
  Cu  Cu6  1  0.00000162  0.99999463  0.00598211  1
  Cu  Cu7  1  0.50000670  0.50000017  0.50602317  1
  Hg  Hg8  1  0.49999998  0.50000075  0.29532766  1
  Hg  Hg9  1  0.00000246  0.99999883  0.79553071  1
  O  O10  1  0.00000213  0.50000213  0.49830170  1
  O  O11  1  0.49999846  0.50000520  0.60849072  1
  O  O12  1  0.50000095  0.50000166  0.21067842  1
  O  O13  1  0.49999728  0.00000026  0.49830218  1
  O  O14  1  -0.00000012  0.99999874  0.71054428  1
  O  O15  1  0.49999774  0.50000092  0.37902163  1
  O  O16  1  -0.00000106  0.99999928  0.87881705  1
  O  O17  1  0.99999707  0.00000316  0.10876827  1
  O  O18  1  0.00000268  0.49999619  0.99833246  1
  O  O19  1  0.50000245  0.99999731  0.99833313  1
