# generated using pymatgen
data_LiNb(PO4)2
_symmetry_space_group_name_H-M   'P 1'
_cell_length_a   7.84919828
_cell_length_b   7.78605838
_cell_length_c   5.20257343
_cell_angle_alpha   90.00000000
_cell_angle_beta   93.89745390
_cell_angle_gamma   90.00000000
_symmetry_Int_Tables_number   1
_chemical_formula_structural   LiNb(PO4)2
_chemical_formula_sum   'Li2 Nb2 P4 O16'
_cell_volume   317.21638998
_cell_formula_units_Z   2
loop_
 _symmetry_equiv_pos_site_id
 _symmetry_equiv_pos_as_xyz
  1  'x, y, z'
loop_
 _atom_site_type_symbol
 _atom_site_label
 _atom_site_symmetry_multiplicity
 _atom_site_fract_x
 _atom_site_fract_y
 _atom_site_fract_z
 _atom_site_occupancy
  Li  Li0  1  0.57908647  0.11988174  0.08927910  1
  Li  Li1  1  0.92091353  0.61988174  0.41072090  1
  Nb  Nb2  1  0.00426714  0.00883297  0.49970552  1
  Nb  Nb3  1  0.49573286  0.50883297  0.00029448  1
  P  P4  1  0.70229658  0.31160728  0.54041176  1
  P  P5  1  0.79770342  0.81160728  0.95958824  1
  P  P6  1  0.29112154  0.68996729  0.46608041  1
  P  P7  1  0.20887846  0.18996729  0.03391959  1
  O  O8  1  0.40275423  0.68501740  0.22495969  1
  O  O9  1  0.65502507  0.93572539  0.93084083  1
  O  O10  1  0.27165330  0.37797233  0.98634069  1
  O  O11  1  0.73279487  0.62488950  0.02375538  1
  O  O12  1  0.92842800  0.85528856  0.19711036  1
  O  O13  1  0.35068316  0.06525188  0.05869228  1
  O  O14  1  0.14931684  0.56525188  0.44130772  1
  O  O15  1  0.09724577  0.18501740  0.27504031  1
  O  O16  1  0.57157200  0.35528856  0.30288964  1
  O  O17  1  0.22834670  0.87797233  0.51365931  1
  O  O18  1  0.76720513  0.12488950  0.47624462  1
  O  O19  1  0.59631693  0.31002810  0.78629124  1
  O  O20  1  0.90368307  0.81002810  0.71370876  1
  O  O21  1  0.07361436  0.14133356  0.80481378  1
  O  O22  1  0.84497493  0.43572539  0.56915917  1
  O  O23  1  0.42638564  0.64133356  0.69518622  1
