# generated using pymatgen
data_Ni(RhO2)2
_symmetry_space_group_name_H-M   'P 1'
_cell_length_a   5.96869670
_cell_length_b   5.96869670
_cell_length_c   6.15075929
_cell_angle_alpha   119.02557602
_cell_angle_beta   119.02557606
_cell_angle_gamma   89.99999998
_symmetry_Int_Tables_number   1
_chemical_formula_structural   Ni(RhO2)2
_chemical_formula_sum   'Ni2 Rh4 O8'
_cell_volume   159.39770073
_cell_formula_units_Z   2
loop_
 _symmetry_equiv_pos_site_id
 _symmetry_equiv_pos_as_xyz
  1  'x, y, z'
loop_
 _atom_site_type_symbol
 _atom_site_label
 _atom_site_symmetry_multiplicity
 _atom_site_fract_x
 _atom_site_fract_y
 _atom_site_fract_z
 _atom_site_occupancy
  O  O0  1  0.26866399  0.75893134  0.53732798  1
  O  O1  1  0.72160335  0.73133601  0.96267202  1
  O  O2  1  0.24106866  0.73133601  0.96267202  1
  O  O3  1  0.73133601  0.24106866  0.46267202  1
  O  O4  1  0.73133601  0.72160335  0.46267202  1
  O  O5  1  0.27839665  0.26866399  0.03732798  1
  O  O6  1  0.26866399  0.27839665  0.53732798  1
  O  O7  1  0.75893134  0.26866399  0.03732798  1
  Ni  Ni8  1  0.12500000  0.87500000  0.25000000  1
  Ni  Ni9  1  0.87500000  0.12500000  0.75000000  1
  Rh  Rh10  1  0.00000000  0.50000000  0.50000000  1
  Rh  Rh11  1  0.50000000  0.50000000  0.00000000  1
  Rh  Rh12  1  0.50000000  0.50000000  0.50000000  1
  Rh  Rh13  1  0.50000000  0.00000000  0.00000000  1
