# generated using pymatgen
data_CsZnAgC4(SN)4
_symmetry_space_group_name_H-M   'P 1'
_cell_length_a   9.14974398
_cell_length_b   9.21399373
_cell_length_c   16.87683970
_cell_angle_alpha   90.00000000
_cell_angle_beta   90.00000000
_cell_angle_gamma   98.26356736
_symmetry_Int_Tables_number   1
_chemical_formula_structural   CsZnAgC4(SN)4
_chemical_formula_sum   'Cs4 Zn4 Ag4 C16 S16 N16'
_cell_volume   1408.04097791
_cell_formula_units_Z   4
loop_
 _symmetry_equiv_pos_site_id
 _symmetry_equiv_pos_as_xyz
  1  'x, y, z'
loop_
 _atom_site_type_symbol
 _atom_site_label
 _atom_site_symmetry_multiplicity
 _atom_site_fract_x
 _atom_site_fract_y
 _atom_site_fract_z
 _atom_site_occupancy
  Cs  Cs0  1  0.39229108  0.14506122  0.12461299  1
  Cs  Cs1  1  0.89229108  0.64506122  0.37538701  1
  Cs  Cs2  1  0.60770892  0.85493878  0.87538701  1
  Cs  Cs3  1  0.10770892  0.35493878  0.62461299  1
  Zn  Zn4  1  0.40848156  0.21269294  0.44751519  1
  Zn  Zn5  1  0.90848156  0.71269294  0.05248481  1
  Zn  Zn6  1  0.09151844  0.28730706  0.94751519  1
  Zn  Zn7  1  0.59151844  0.78730706  0.55248481  1
  Ag  Ag8  1  0.92221781  0.15907793  0.26042302  1
  Ag  Ag9  1  0.57778219  0.34092207  0.76042302  1
  Ag  Ag10  1  0.07778219  0.84092207  0.73957698  1
  Ag  Ag11  1  0.42221781  0.65907793  0.23957698  1
  C  C12  1  0.28837435  0.47010047  0.81982338  1
  C  C13  1  0.24968285  0.75677722  0.58217282  1
  C  C14  1  0.63855549  0.88315807  0.37562443  1
  C  C15  1  0.36144451  0.11684193  0.62437557  1
  C  C16  1  0.78837435  0.97010047  0.68017662  1
  C  C17  1  0.71162565  0.52989953  0.18017662  1
  C  C18  1  0.13855549  0.38315807  0.12437557  1
  C  C19  1  0.74968285  0.25677722  0.91782718  1
  C  C20  1  0.31644098  0.52035576  0.40987702  1
  C  C21  1  0.86144451  0.61684193  0.87562443  1
  C  C22  1  0.21162565  0.02989953  0.31982338  1
  C  C23  1  0.25031715  0.74322278  0.08217282  1
  C  C24  1  0.75031715  0.24322278  0.41782718  1
  C  C25  1  0.81644098  0.02035576  0.09012298  1
  C  C26  1  0.18355902  0.97964424  0.90987702  1
  C  C27  1  0.68355902  0.47964424  0.59012298  1
  S  S28  1  0.90020324  0.04912596  0.74773031  1
  S  S29  1  0.42863425  0.75240402  0.09401776  1
  S  S30  1  0.71425687  0.32399137  0.62750313  1
  S  S31  1  0.85228386  0.58759879  0.78107264  1
  S  S32  1  0.09979676  0.95087404  0.25226969  1
  S  S33  1  0.40020324  0.54912596  0.75226969  1
  S  S34  1  0.21425687  0.82399137  0.87249687  1
  S  S35  1  0.59979676  0.45087404  0.24773031  1
  S  S36  1  0.78574313  0.17600863  0.12750313  1
  S  S37  1  0.07136575  0.74759598  0.59401776  1
  S  S38  1  0.57136575  0.24759598  0.90598224  1
  S  S39  1  0.64771614  0.91240121  0.28107264  1
  S  S40  1  0.14771614  0.41240121  0.21892736  1
  S  S41  1  0.92863425  0.25240402  0.40598224  1
  S  S42  1  0.28574313  0.67600863  0.37249687  1
  S  S43  1  0.35228386  0.08759879  0.71892736  1
  N  N44  1  0.16178473  0.09209387  0.93845578  1
  N  N45  1  0.33821527  0.40790613  0.43845578  1
  N  N46  1  0.62175207  0.23869437  0.42619958  1
  N  N47  1  0.63786213  0.85916302  0.44473644  1
  N  N48  1  0.12175207  0.73869437  0.07380042  1
  N  N49  1  0.83821527  0.90790613  0.06154422  1
  N  N50  1  0.13786213  0.35916302  0.05526356  1
  N  N51  1  0.37824793  0.76130563  0.57380042  1
  N  N52  1  0.79500592  0.58723381  0.13239045  1
  N  N53  1  0.36213787  0.14083698  0.55526356  1
  N  N54  1  0.86213787  0.64083698  0.94473644  1
  N  N55  1  0.70499408  0.91276619  0.63239045  1
  N  N56  1  0.29500592  0.08723381  0.36760955  1
  N  N57  1  0.87824793  0.26130563  0.92619958  1
  N  N58  1  0.20499408  0.41276619  0.86760955  1
  N  N59  1  0.66178473  0.59209387  0.56154422  1
