# generated using pymatgen
data_In(HO)3
_symmetry_space_group_name_H-M   'P 1'
_cell_length_a   6.99805383
_cell_length_b   6.96446981
_cell_length_c   7.04525448
_cell_angle_alpha   108.75818934
_cell_angle_beta   112.78780340
_cell_angle_gamma   106.86943678
_symmetry_Int_Tables_number   1
_chemical_formula_structural   In(HO)3
_chemical_formula_sum   'In4 H12 O12'
_cell_volume   263.76386666
_cell_formula_units_Z   4
loop_
 _symmetry_equiv_pos_site_id
 _symmetry_equiv_pos_as_xyz
  1  'x, y, z'
loop_
 _atom_site_type_symbol
 _atom_site_label
 _atom_site_symmetry_multiplicity
 _atom_site_fract_x
 _atom_site_fract_y
 _atom_site_fract_z
 _atom_site_occupancy
  In  In0  1  0.01765393  0.00174352  0.50212757  1
  In  In1  1  0.49517895  0.50989869  0.49782919  1
  In  In2  1  0.48081310  0.98173430  0.98975678  1
  In  In3  1  0.03722858  0.53849622  0.02514792  1
  H  H4  1  0.15984267  0.46377522  0.62595008  1
  H  H5  1  0.30749302  0.28288771  0.98095905  1
  H  H6  1  0.37121341  0.84327997  0.54559108  1
  H  H7  1  0.36273762  0.05258036  0.32947370  1
  H  H8  1  0.55325475  0.72451280  0.18297424  1
  H  H9  1  0.69782996  0.64857346  0.95479360  1
  H  H10  1  0.70407583  0.18176491  0.54207524  1
  H  H11  1  0.72374720  0.04825861  0.69403563  1
  H  H12  1  0.03104083  0.67544768  0.71484920  1
  H  H13  1  0.79423457  0.58160644  0.37707739  1
  H  H14  1  0.77123252  0.39904092  0.16830906  1
  H  H15  1  0.00563161  0.31721183  0.32934649  1
  O  O16  1  0.16233836  0.65555547  0.82160850  1
  O  O17  1  0.16555315  0.84768023  0.33567537  1
  O  O18  1  0.14408847  0.33511192  0.48599111  1
  O  O19  1  0.30067512  0.14928173  0.85274285  1
  O  O20  1  0.50625827  0.84357038  0.67650778  1
  O  O21  1  0.33026128  0.49037789  0.16772499  1
  O  O22  1  0.70670876  0.53635901  0.83261462  1
  O  O23  1  0.49682711  0.17016195  0.33601287  1
  O  O24  1  0.67136827  0.83551283  0.17023784  1
  O  O25  1  0.83451386  0.69620108  0.52744401  1
  O  O26  1  0.82746737  0.16505339  0.67036557  1
  O  O27  1  0.82763139  0.29022149  0.12677828  1
