# generated using pymatgen
data_Rb2Ti(GeO3)3
_symmetry_space_group_name_H-M   'P 1'
_cell_length_a   12.33644193
_cell_length_b   12.33644150
_cell_length_c   10.66223167
_cell_angle_alpha   90.00000000
_cell_angle_beta   90.00000000
_cell_angle_gamma   119.99999881
_symmetry_Int_Tables_number   1
_chemical_formula_structural   Rb2Ti(GeO3)3
_chemical_formula_sum   'Rb12 Ti6 Ge18 O54'
_cell_volume   1405.26611410
_cell_formula_units_Z   6
loop_
 _symmetry_equiv_pos_site_id
 _symmetry_equiv_pos_as_xyz
  1  'x, y, z'
loop_
 _atom_site_type_symbol
 _atom_site_label
 _atom_site_symmetry_multiplicity
 _atom_site_fract_x
 _atom_site_fract_y
 _atom_site_fract_z
 _atom_site_occupancy
  Rb  Rb0  1  0.63275263  0.64698230  0.47147991  1
  Rb  Rb1  1  0.64698230  0.63275263  0.02852009  1
  Rb  Rb2  1  0.98577133  0.63275263  0.52852009  1
  Rb  Rb3  1  0.36724737  0.01422867  0.02852009  1
  Rb  Rb4  1  0.35301770  0.98577133  0.47147991  1
  Rb  Rb5  1  0.01422867  0.36724737  0.47147991  1
  Rb  Rb6  1  0.64698230  0.01422867  0.52852009  1
  Rb  Rb7  1  0.01422867  0.64698230  0.97147991  1
  Rb  Rb8  1  0.63275263  0.98577133  0.97147991  1
  Rb  Rb9  1  0.35301770  0.36724737  0.97147991  1
  Rb  Rb10  1  0.98577133  0.35301770  0.02852009  1
  Rb  Rb11  1  0.36724737  0.35301770  0.52852009  1
  Ti  Ti12  1  0.33333300  0.66666700  0.00777591  1
  Ti  Ti13  1  -0.00000000  -0.00000000  0.50000000  1
  Ti  Ti14  1  0.66666700  0.33333300  0.49222409  1
  Ti  Ti15  1  0.33333300  0.66666700  0.50777591  1
  Ti  Ti16  1  0.66666700  0.33333300  0.99222409  1
  Ti  Ti17  1  -0.00000000  -0.00000000  -0.00000000  1
  Ge  Ge18  1  0.83317948  0.28709414  0.75012417  1
  Ge  Ge19  1  0.54608534  0.83317948  0.24987583  1
  Ge  Ge20  1  0.83317948  0.54608534  0.25012417  1
  Ge  Ge21  1  0.28709414  0.83317948  0.74987583  1
  Ge  Ge22  1  0.71290586  0.16682052  0.25012417  1
  Ge  Ge23  1  0.16682052  0.45391466  0.74987583  1
  Ge  Ge24  1  0.18400701  0.18400701  0.75000000  1
  Ge  Ge25  1  0.45391466  0.28709414  0.25012417  1
  Ge  Ge26  1  0.45391466  0.16682052  0.75012417  1
  Ge  Ge27  1  0.71290586  0.54608534  0.75012417  1
  Ge  Ge28  1  0.28709414  0.45391466  0.24987583  1
  Ge  Ge29  1  0.18400701  1.00000000  0.25000000  1
  Ge  Ge30  1  -0.00000000  0.18400701  0.25000000  1
  Ge  Ge31  1  0.81599299  0.81599299  0.25000000  1
  Ge  Ge32  1  0.16682052  0.71290586  0.24987583  1
  Ge  Ge33  1  0.00000000  0.81599299  0.75000000  1
  Ge  Ge34  1  0.81599299  0.00000000  0.75000000  1
  Ge  Ge35  1  0.54608534  0.71290586  0.74987583  1
  O  O36  1  0.63706764  0.63706764  0.75000000  1
  O  O37  1  0.21948416  0.87490936  0.22049486  1
  O  O38  1  0.04207745  0.89648884  0.89105833  1
  O  O39  1  0.21948416  0.34457380  0.72049486  1
  O  O40  1  0.64696542  0.19720984  0.38192321  1
  O  O41  1  0.87490936  0.65542520  0.77950514  1
  O  O42  1  0.78368405  0.30526474  0.60192017  1
  O  O43  1  0.00000000  0.63706764  0.25000000  1
  O  O44  1  0.30526474  0.78368405  0.89807983  1
  O  O45  1  0.47841931  0.69473526  0.89807983  1
  O  O46  1  1.00000000  0.36293236  0.75000000  1
  O  O47  1  0.12509064  0.34457380  0.22049486  1
  O  O48  1  0.95792255  0.85441139  0.60894167  1
  O  O49  1  0.52158069  0.30526474  0.10192017  1
  O  O50  1  0.69473526  0.21631595  0.10192017  1
  O  O51  1  0.21631595  0.52158069  0.89807983  1
  O  O52  1  0.65542520  0.78051584  0.22049486  1
  O  O53  1  0.04207745  0.14558861  0.39105833  1
  O  O54  1  0.14558861  0.10351116  0.60894167  1
  O  O55  1  0.55024342  0.19720984  0.88192321  1
  O  O56  1  0.30526474  0.52158069  0.39807983  1
  O  O57  1  0.63706764  0.00000000  0.25000000  1
  O  O58  1  0.64696542  0.44975658  0.88192321  1
  O  O59  1  0.85441139  0.95792255  0.89105833  1
  O  O60  1  0.69473526  0.47841931  0.60192017  1
  O  O61  1  0.47841931  0.78368405  0.39807983  1
  O  O62  1  0.10351116  0.14558861  0.89105833  1
  O  O63  1  0.44975658  0.80279016  0.11807679  1
  O  O64  1  0.89648884  0.85441139  0.10894167  1
  O  O65  1  0.21631595  0.69473526  0.39807983  1
  O  O66  1  0.80279016  0.35303458  0.88192321  1
  O  O67  1  0.78051584  0.12509064  0.77950514  1
  O  O68  1  0.78368405  0.47841931  0.10192017  1
  O  O69  1  0.34457380  0.12509064  0.27950514  1
  O  O70  1  0.35303458  0.55024342  0.11807679  1
  O  O71  1  0.55024342  0.35303458  0.38192321  1
  O  O72  1  0.85441139  0.89648884  0.39105833  1
  O  O73  1  0.19720984  0.55024342  0.61807679  1
  O  O74  1  0.36293236  1.00000000  0.75000000  1
  O  O75  1  0.89648884  0.04207745  0.60894167  1
  O  O76  1  0.87490936  0.21948416  0.27950514  1
  O  O77  1  0.78051584  0.65542520  0.27950514  1
  O  O78  1  0.36293236  0.36293236  0.25000000  1
  O  O79  1  0.19720984  0.64696542  0.11807679  1
  O  O80  1  0.52158069  0.21631595  0.60192017  1
  O  O81  1  0.12509064  0.78051584  0.72049486  1
  O  O82  1  0.10351116  0.95792255  0.39105833  1
  O  O83  1  0.95792255  0.10351116  0.10894167  1
  O  O84  1  0.44975658  0.64696542  0.61807679  1
  O  O85  1  0.34457380  0.21948416  0.77950514  1
  O  O86  1  0.35303458  0.80279016  0.61807679  1
  O  O87  1  0.14558861  0.04207745  0.10894167  1
  O  O88  1  0.65542520  0.87490936  0.72049486  1
  O  O89  1  0.80279016  0.44975658  0.38192321  1
