# generated using pymatgen
data_FeCu5S4
_symmetry_space_group_name_H-M   'P 1'
_cell_length_a   6.75835664
_cell_length_b   13.48226295
_cell_length_c   12.93381973
_cell_angle_alpha   16.39854785
_cell_angle_beta   28.92076853
_cell_angle_gamma   32.89328581
_symmetry_Int_Tables_number   1
_chemical_formula_structural   FeCu5S4
_chemical_formula_sum   'Fe1 Cu5 S4'
_cell_volume   160.89923013
_cell_formula_units_Z   1
loop_
 _symmetry_equiv_pos_site_id
 _symmetry_equiv_pos_as_xyz
  1  'x, y, z'
loop_
 _atom_site_type_symbol
 _atom_site_label
 _atom_site_symmetry_multiplicity
 _atom_site_fract_x
 _atom_site_fract_y
 _atom_site_fract_z
 _atom_site_occupancy
  Fe  Fe0  1  0.12171473  0.00000000  0.13175381  1
  Cu  Cu1  1  0.36884844  0.00000000  0.38664331  1
  Cu  Cu2  1  0.13843246  0.50000000  0.13306624  1
  Cu  Cu3  1  0.63651704  0.00000000  0.61115954  1
  Cu  Cu4  1  0.38590510  0.50000000  0.37322036  1
  Cu  Cu5  1  0.60359027  0.50000000  0.62847483  1
  S  S6  1  0.00043040  0.00000000  0.00640534  1
  S  S7  1  0.51439121  0.00000000  0.49678753  1
  S  S8  1  0.00036641  0.50000000  0.00181808  1
  S  S9  1  0.50180393  0.50000000  0.50267096  1
