# generated using pymatgen
data_Nd16Zr16O49
_symmetry_space_group_name_H-M   'P 1'
_cell_length_a   7.58869466
_cell_length_b   7.60677507
_cell_length_c   30.48224217
_cell_angle_alpha   59.92663550
_cell_angle_beta   59.81871912
_cell_angle_gamma   59.34255322
_symmetry_Int_Tables_number   1
_chemical_formula_structural   Nd16Zr16O49
_chemical_formula_sum   'Nd16 Zr16 O49'
_cell_volume   1235.56080580
_cell_formula_units_Z   1
loop_
 _symmetry_equiv_pos_site_id
 _symmetry_equiv_pos_as_xyz
  1  'x, y, z'
loop_
 _atom_site_type_symbol
 _atom_site_label
 _atom_site_symmetry_multiplicity
 _atom_site_fract_x
 _atom_site_fract_y
 _atom_site_fract_z
 _atom_site_occupancy
  Nd  Nd0  1  0.99208199  0.00321734  0.00202417  1
  Nd  Nd1  1  0.99363990  0.01116034  0.12429540  1
  Nd  Nd2  1  0.00460593  0.50105694  0.99564062  1
  Nd  Nd3  1  0.50652941  0.99873369  0.00031800  1
  Nd  Nd4  1  0.00087634  0.99105970  0.25217493  1
  Nd  Nd5  1  0.98826555  0.00601706  0.37407258  1
  Nd  Nd6  1  0.99843399  0.49796240  0.25409952  1
  Nd  Nd7  1  0.50498704  0.00226745  0.24765091  1
  Nd  Nd8  1  0.99570461  0.99704985  0.50174059  1
  Nd  Nd9  1  0.99135653  0.98951449  0.62545880  1
  Nd  Nd10  1  0.99222262  0.49794073  0.50511369  1
  Nd  Nd11  1  0.98481992  0.00491310  0.75339282  1
  Nd  Nd12  1  0.50070749  0.00602470  0.49785101  1
  Nd  Nd13  1  0.99589786  0.99407712  0.87420474  1
  Nd  Nd14  1  0.99406978  0.49907637  0.74774189  1
  Nd  Nd15  1  0.50066214  0.00306354  0.75116589  1
  Zr  Zr16  1  0.48259481  0.02832666  0.12327570  1
  Zr  Zr17  1  0.49872384  0.49486260  0.12166911  1
  Zr  Zr18  1  0.49071927  0.50124260  0.25171389  1
  Zr  Zr19  1  0.49190678  0.01453760  0.37453419  1
  Zr  Zr20  1  0.00323825  0.48966260  0.12609572  1
  Zr  Zr21  1  0.48984657  0.49674127  0.37449298  1
  Zr  Zr22  1  0.49173967  0.49583386  0.50297467  1
  Zr  Zr23  1  0.49786043  0.00632357  0.62435376  1
  Zr  Zr24  1  0.00370829  0.50021396  0.37397490  1
  Zr  Zr25  1  0.48833263  0.49276886  0.62623246  1
  Zr  Zr26  1  0.49084669  0.49660986  0.75346395  1
  Zr  Zr27  1  0.48566669  0.01570195  0.87482306  1
  Zr  Zr28  1  0.00803697  0.50048796  0.62368058  1
  Zr  Zr29  1  0.49174091  0.49896280  0.87530141  1
  Zr  Zr30  1  0.49786078  0.48945012  0.00546184  1
  Zr  Zr31  1  0.00320845  0.49847552  0.87539463  1
  O  O32  1  0.12913852  0.12497609  0.03082253  1
  O  O33  1  0.34113547  0.39774794  0.09539667  1
  O  O34  1  0.12890025  0.12358791  0.28054433  1
  O  O35  1  0.60071626  0.14086881  0.03747834  1
  O  O36  1  0.60663266  0.14512920  0.14983059  1
  O  O37  1  0.61166462  0.60724961  0.03420744  1
  O  O38  1  0.15294585  0.59681565  0.28779971  1
  O  O39  1  0.40735585  0.82731056  0.10820117  1
  O  O40  1  0.41056360  0.42426387  0.20576751  1
  O  O41  1  0.41162214  0.84009684  0.20630274  1
  O  O42  1  0.84482280  0.41363750  0.10287813  1
  O  O43  1  0.59558679  0.15632958  0.28891578  1
  O  O44  1  0.12453666  0.12249866  0.53204754  1
  O  O45  1  0.59760225  0.15411701  0.39887794  1
  O  O46  1  0.84839777  0.41416920  0.20617798  1
  O  O47  1  0.59532005  0.59098448  0.28921871  1
  O  O48  1  0.86005425  0.82210344  0.10121946  1
  O  O49  1  0.40729559  0.82789441  0.35974017  1
  O  O50  1  0.39948623  0.42429802  0.45762845  1
  O  O51  1  0.15268899  0.60005865  0.53851969  1
  O  O52  1  0.40471688  0.84387576  0.45701061  1
  O  O53  1  0.15100883  0.59887513  0.64884953  1
  O  O54  1  0.12626696  0.12573429  0.78082233  1
  O  O55  1  0.59781584  0.15666400  0.53688697  1
  O  O56  1  0.85213185  0.39584274  0.35522771  1
  O  O57  1  0.88355895  0.87217758  0.21763797  1
  O  O58  1  0.84966733  0.41507028  0.45634416  1
  O  O59  1  0.59131549  0.15231621  0.65168164  1
  O  O60  1  0.58773428  0.59293990  0.54065249  1
  O  O61  1  0.85215238  0.83210355  0.35538054  1
  O  O62  1  0.40200741  0.84315053  0.60735852  1
  O  O63  1  0.39772435  0.42628541  0.71189078  1
  O  O64  1  0.59456737  0.15494819  0.78904825  1
  O  O65  1  0.39623436  0.83373745  0.70773836  1
  O  O66  1  0.15254315  0.59597220  0.89971208  1
  O  O67  1  0.84303830  0.40186435  0.60695397  1
  O  O68  1  0.88229419  0.87212048  0.46741845  1
  O  O69  1  0.84889495  0.39894208  0.70739998  1
  O  O70  1  0.59440202  0.15539407  0.89826823  1
  O  O71  1  0.84057714  0.84501154  0.60194644  1
  O  O72  1  0.59420083  0.59428811  0.78896157  1
  O  O73  1  0.40336211  0.84429473  0.85576204  1
  O  O74  1  0.41215548  0.42668218  0.95931585  1
  O  O75  1  0.88289120  0.87440249  0.71887604  1
  O  O76  1  0.40504196  0.82597932  0.95758264  1
  O  O77  1  0.84854561  0.41361975  0.85321844  1
  O  O78  1  0.84523550  0.39535417  0.95879315  1
  O  O79  1  0.85424097  0.83240914  0.84835684  1
  O  O80  1  0.88851556  0.87747030  0.96679112  1
