# generated using pymatgen
data_CdIn2O4
_symmetry_space_group_name_H-M   'P 1'
_cell_length_a   6.58383055
_cell_length_b   6.58383072
_cell_length_c   6.48413744
_cell_angle_alpha   60.49964644
_cell_angle_beta   60.49964565
_cell_angle_gamma   60.85400463
_symmetry_Int_Tables_number   1
_chemical_formula_structural   CdIn2O4
_chemical_formula_sum   'Cd2 In4 O8'
_cell_volume   201.51177919
_cell_formula_units_Z   2
loop_
 _symmetry_equiv_pos_site_id
 _symmetry_equiv_pos_as_xyz
  1  'x, y, z'
loop_
 _atom_site_type_symbol
 _atom_site_label
 _atom_site_symmetry_multiplicity
 _atom_site_fract_x
 _atom_site_fract_y
 _atom_site_fract_z
 _atom_site_occupancy
  Cd  Cd0  1  0.62500000  0.62500000  0.12500000  1
  Cd  Cd1  1  0.62500000  0.62500000  0.62500000  1
  In  In2  1  0.00857228  0.00857228  0.99142772  1
  In  In3  1  0.24142772  0.24142772  0.25857228  1
  In  In4  1  0.12500000  0.62500000  0.62500000  1
  In  In5  1  0.62500000  0.12500000  0.62500000  1
  O  O6  1  0.37300020  0.37300020  0.39614770  1
  O  O7  1  0.37300020  0.37300020  0.85785189  1
  O  O8  1  0.36453754  0.85493575  0.39026335  1
  O  O9  1  0.85493575  0.36453754  0.39026335  1
  O  O10  1  0.39506425  0.88546246  0.85973665  1
  O  O11  1  0.88546246  0.39506425  0.85973665  1
  O  O12  1  0.87699980  0.87699980  0.39214811  1
  O  O13  1  0.87699980  0.87699980  0.85385230  1
