# generated using pymatgen
data_Cu9Se5
_symmetry_space_group_name_H-M   'P 1'
_cell_length_a   8.11368238
_cell_length_b   22.60652023
_cell_length_c   10.74919994
_cell_angle_alpha   18.09375265
_cell_angle_beta   55.50002996
_cell_angle_gamma   51.10091890
_symmetry_Int_Tables_number   1
_chemical_formula_structural   Cu9Se5
_chemical_formula_sum   'Cu18 Se10'
_cell_volume   472.74662422
_cell_formula_units_Z   2
loop_
 _symmetry_equiv_pos_site_id
 _symmetry_equiv_pos_as_xyz
  1  'x, y, z'
loop_
 _atom_site_type_symbol
 _atom_site_label
 _atom_site_symmetry_multiplicity
 _atom_site_fract_x
 _atom_site_fract_y
 _atom_site_fract_z
 _atom_site_occupancy
  Cu  Cu0  1  0.05075051  0.14930547  0.25199920  1
  Cu  Cu1  1  0.54894339  0.14942761  0.25170912  1
  Cu  Cu2  1  0.35105661  0.05057239  0.74829088  1
  Cu  Cu3  1  0.25095297  0.25044241  0.74842317  1
  Cu  Cu4  1  0.84924949  0.05069453  0.74800080  1
  Cu  Cu5  1  0.35072729  0.54596013  0.25894373  1
  Cu  Cu6  1  0.14709652  0.44895675  0.75587329  1
  Cu  Cu7  1  0.94661339  0.35409753  0.24472010  1
  Cu  Cu8  1  0.25093783  0.74947367  0.24992748  1
  Cu  Cu9  1  0.74868181  0.25090390  0.74852051  1
  Cu  Cu10  1  0.05032717  0.64899363  0.75208654  1
  Cu  Cu11  1  0.84967283  0.55100637  0.24791346  1
  Cu  Cu12  1  0.64906217  0.45052633  0.75007252  1
  Cu  Cu13  1  0.15131819  0.94909610  0.25147949  1
  Cu  Cu14  1  0.75290348  0.75104325  0.24412671  1
  Cu  Cu15  1  0.54927271  0.65403987  0.74105627  1
  Cu  Cu16  1  0.64904703  0.94955759  0.25157683  1
  Cu  Cu17  1  0.95338661  0.84590247  0.75527990  1
  Se  Se18  1  0.00032025  0.99942286  0.00102489  1
  Se  Se19  1  0.49859492  0.00462655  0.99098171  1
  Se  Se20  1  0.40140508  0.19537345  0.00901829  1
  Se  Se21  1  0.30320397  0.39921958  0.00282823  1
  Se  Se22  1  0.89967975  0.20057714  0.99897511  1
  Se  Se23  1  0.20275569  0.59681984  0.00327696  1
  Se  Se24  1  0.79554017  0.39799692  0.00561920  1
  Se  Se25  1  0.10445983  0.80200308  0.99438080  1
  Se  Se26  1  0.69724431  0.60318016  0.99672304  1
  Se  Se27  1  0.59679603  0.80078042  0.99717177  1
