# generated using pymatgen
data_LaZr9O20
_symmetry_space_group_name_H-M   'P 1'
_cell_length_a   18.40659241
_cell_length_b   8.22682237
_cell_length_c   6.49391611
_cell_angle_alpha   59.38734361
_cell_angle_beta   55.40648956
_cell_angle_gamma   26.60418699
_symmetry_Int_Tables_number   1
_chemical_formula_structural   LaZr9O20
_chemical_formula_sum   'La1 Zr9 O20'
_cell_volume   362.51137019
_cell_formula_units_Z   1
loop_
 _symmetry_equiv_pos_site_id
 _symmetry_equiv_pos_as_xyz
  1  'x, y, z'
loop_
 _atom_site_type_symbol
 _atom_site_label
 _atom_site_symmetry_multiplicity
 _atom_site_fract_x
 _atom_site_fract_y
 _atom_site_fract_z
 _atom_site_occupancy
  La  La0  1  0.70047777  0.25005530  0.74779558  1
  Zr  Zr1  1  0.10390459  0.24279651  0.74133307  1
  Zr  Zr2  1  0.10091429  0.75397397  0.24728856  1
  Zr  Zr3  1  0.29896056  0.25523583  0.74236855  1
  Zr  Zr4  1  0.29834144  0.75349872  0.25317999  1
  Zr  Zr5  1  0.49183305  0.25598722  0.76513667  1
  Zr  Zr6  1  0.49472816  0.75548542  0.25105573  1
  Zr  Zr7  1  0.70422045  0.74017585  0.24530774  1
  Zr  Zr8  1  0.89873084  0.25229993  0.75966952  1
  Zr  Zr9  1  0.90283481  0.74435357  0.24580641  1
  O  O10  1  0.14070761  0.24659291  0.05659013  1
  O  O11  1  0.03639072  0.25327131  0.55180861  1
  O  O12  1  0.34043165  0.25808365  0.06255241  1
  O  O13  1  0.24194297  0.23947194  0.55787218  1
  O  O14  1  0.06549447  0.74141127  0.93820672  1
  O  O15  1  0.17398170  0.72197590  0.44090683  1
  O  O16  1  0.53214757  0.25490262  0.06334579  1
  O  O17  1  0.43949279  0.24851798  0.56245724  1
  O  O18  1  0.25440647  0.76345712  0.94708084  1
  O  O19  1  0.35057036  0.76727607  0.45226240  1
  O  O20  1  0.74479535  0.24895516  0.05500329  1
  O  O21  1  0.63264086  0.25085520  0.53256469  1
  O  O22  1  0.44153297  0.79429846  0.97043411  1
  O  O23  1  0.55439372  0.76856911  0.43956004  1
  O  O24  1  0.93682592  0.24300036  0.04853534  1
  O  O25  1  0.85392637  0.25492571  0.52326587  1
  O  O26  1  0.66205991  0.75103117  0.94402234  1
  O  O27  1  0.75653322  0.76080072  0.44693039  1
  O  O28  1  0.87491232  0.70061837  0.97028956  1
  O  O29  1  0.97186712  0.72812267  0.43736939  1
