# generated using pymatgen
data_K3Co(CN)6
_symmetry_space_group_name_H-M   'P 1'
_cell_length_a   8.39846060
_cell_length_b   10.43114532
_cell_length_c   26.77015435
_cell_angle_alpha   90.00000000
_cell_angle_beta   90.00000000
_cell_angle_gamma   90.00000000
_symmetry_Int_Tables_number   1
_chemical_formula_structural   K3Co(CN)6
_chemical_formula_sum   'K24 Co8 C48 N48'
_cell_volume   2345.21444297
_cell_formula_units_Z   8
loop_
 _symmetry_equiv_pos_site_id
 _symmetry_equiv_pos_as_xyz
  1  'x, y, z'
loop_
 _atom_site_type_symbol
 _atom_site_label
 _atom_site_symmetry_multiplicity
 _atom_site_fract_x
 _atom_site_fract_y
 _atom_site_fract_z
 _atom_site_occupancy
  K  K0  1  0.24605422  0.25936973  0.37459233  1
  K  K1  1  0.24605422  0.74063027  0.12540767  1
  K  K2  1  0.25161035  0.50000000  0.75000000  1
  K  K3  1  0.25394578  0.75936973  0.62540767  1
  K  K4  1  0.75394578  0.25936973  0.87459233  1
  K  K5  1  0.49613641  0.22270367  0.62750578  1
  K  K6  1  0.75161035  0.00000000  0.75000000  1
  K  K7  1  0.50386359  0.77729633  0.37249422  1
  K  K8  1  0.50000000  0.00000000  0.00000000  1
  K  K9  1  0.00000000  0.50000000  0.50000000  1
  K  K10  1  0.00386359  0.27729633  0.12750578  1
  K  K11  1  0.24838965  0.00000000  0.25000000  1
  K  K12  1  0.25394578  0.24063027  0.87459233  1
  K  K13  1  0.74605422  0.24063027  0.37459233  1
  K  K14  1  0.50000000  0.00000000  0.50000000  1
  K  K15  1  0.49613641  0.77729633  0.87249422  1
  K  K16  1  0.00000000  0.50000000  0.00000000  1
  K  K17  1  0.99613641  0.27729633  0.62750578  1
  K  K18  1  0.75394578  0.74063027  0.62540767  1
  K  K19  1  0.00386359  0.72270367  0.37249422  1
  K  K20  1  0.50386359  0.22270367  0.12750578  1
  K  K21  1  0.99613641  0.72270367  0.87249422  1
  K  K22  1  0.74838965  0.50000000  0.25000000  1
  K  K23  1  0.74605422  0.75936973  0.12540767  1
  Co  Co24  1  0.74925994  0.50000000  0.75000000  1
  Co  Co25  1  0.50000000  0.50000000  0.50000000  1
  Co  Co26  1  0.75074006  0.00000000  0.25000000  1
  Co  Co27  1  0.50000000  0.50000000  0.00000000  1
  Co  Co28  1  0.24925994  0.00000000  0.75000000  1
  Co  Co29  1  0.00000000  0.00000000  0.00000000  1
  Co  Co30  1  0.00000000  0.00000000  0.50000000  1
  Co  Co31  1  0.25074006  0.50000000  0.25000000  1
  C  C32  1  0.09063942  0.95166281  0.70380912  1
  C  C33  1  0.15731131  0.94956066  0.45323372  1
  C  C34  1  0.15511556  0.94858422  0.95346793  1
  C  C35  1  0.34488444  0.44858422  0.04653207  1
  C  C36  1  0.15731131  0.05043934  0.04676628  1
  C  C37  1  0.84268869  0.05043934  0.54676628  1
  C  C38  1  0.65731131  0.44956066  0.04676628  1
  C  C39  1  0.90936058  0.95166281  0.20380912  1
  C  C40  1  0.50061365  0.66416878  0.52819149  1
  C  C41  1  0.49938635  0.66416878  0.02819149  1
  C  C42  1  0.99938635  0.83583122  0.02819149  1
  C  C43  1  0.90936058  0.04833719  0.29619088  1
  C  C44  1  0.75089538  0.83486725  0.27749760  1
  C  C45  1  0.09140174  0.45136500  0.29595390  1
  C  C46  1  0.74910462  0.66513275  0.77749760  1
  C  C47  1  0.90859826  0.54863500  0.70404610  1
  C  C48  1  0.40859826  0.04863500  0.79595390  1
  C  C49  1  0.40936058  0.45166281  0.29619088  1
  C  C50  1  0.34268869  0.44956066  0.54676628  1
  C  C51  1  0.00061365  0.83583122  0.52819149  1
  C  C52  1  0.59063942  0.45166281  0.79619088  1
  C  C53  1  0.25089538  0.66513275  0.27749760  1
  C  C54  1  0.34488444  0.55141578  0.45346793  1
  C  C55  1  0.40936058  0.54833719  0.20380912  1
  C  C56  1  0.49938635  0.33583122  0.47180851  1
  C  C57  1  0.74910462  0.33486725  0.72250240  1
  C  C58  1  0.59140174  0.04863500  0.29595390  1
  C  C59  1  0.40859826  0.95136500  0.70404610  1
  C  C60  1  0.59140174  0.95136500  0.20404610  1
  C  C61  1  0.50061365  0.33583122  0.97180851  1
  C  C62  1  0.24910462  0.83486725  0.77749760  1
  C  C63  1  0.65511556  0.55141578  0.95346793  1
  C  C64  1  0.09063942  0.04833719  0.79619088  1
  C  C65  1  0.15511556  0.05141578  0.54653207  1
  C  C66  1  0.09140174  0.54863500  0.20404610  1
  C  C67  1  0.84488444  0.05141578  0.04653207  1
  C  C68  1  0.84488444  0.94858422  0.45346793  1
  C  C69  1  0.00061365  0.16416878  0.97180851  1
  C  C70  1  0.34268869  0.55043934  0.95323372  1
  C  C71  1  0.99938635  0.16416878  0.47180851  1
  C  C72  1  0.59063942  0.54833719  0.70380912  1
  C  C73  1  0.65511556  0.44858422  0.54653207  1
  C  C74  1  0.25089538  0.33486725  0.22250240  1
  C  C75  1  0.75089538  0.16513275  0.22250240  1
  C  C76  1  0.24910462  0.16513275  0.72250240  1
  C  C77  1  0.65731131  0.55043934  0.45323372  1
  C  C78  1  0.84268869  0.94956066  0.95323372  1
  C  C79  1  0.90859826  0.45136500  0.79595390  1
  N  N80  1  0.74995969  0.08326482  0.07635271  1
  N  N81  1  0.49564707  0.58135915  0.67420311  1
  N  N82  1  0.00426111  0.58158632  0.67461480  1
  N  N83  1  0.99564707  0.08135915  0.82579689  1
  N  N84  1  0.25012088  0.26688586  0.70366467  1
  N  N85  1  0.25338949  0.91699729  0.42388790  1
  N  N86  1  0.25338949  0.08300271  0.07611210  1
  N  N87  1  0.24987912  0.76688586  0.29633533  1
  N  N88  1  0.74661051  0.08300271  0.57611210  1
  N  N89  1  0.50426111  0.91841368  0.67461480  1
  N  N90  1  0.74995969  0.91673518  0.42364729  1
  N  N91  1  0.25004031  0.08326482  0.57635271  1
  N  N92  1  0.50426111  0.08158632  0.82538520  1
  N  N93  1  0.75004031  0.58326482  0.92364729  1
  N  N94  1  0.24661051  0.41699729  0.57611210  1
  N  N95  1  0.49868762  0.23499559  0.45215445  1
  N  N96  1  0.49868762  0.76500441  0.04784555  1
  N  N97  1  0.49573889  0.08158632  0.32538520  1
  N  N98  1  0.24995969  0.41673518  0.07635271  1
  N  N99  1  0.24661051  0.58300271  0.92388790  1
  N  N100  1  0.99573889  0.41841368  0.32538520  1
  N  N101  1  0.50435293  0.58135915  0.17420311  1
  N  N102  1  0.75012088  0.23311414  0.70366467  1
  N  N103  1  0.50131238  0.76500441  0.54784555  1
  N  N104  1  0.00131238  0.26500441  0.95215445  1
  N  N105  1  0.50435293  0.41864085  0.32579689  1
  N  N106  1  0.74987912  0.26688586  0.20366467  1
  N  N107  1  0.25004031  0.91673518  0.92364729  1
  N  N108  1  0.50131238  0.23499559  0.95215445  1
  N  N109  1  0.75012088  0.76688586  0.79633533  1
  N  N110  1  0.75004031  0.41673518  0.57635271  1
  N  N111  1  0.99573889  0.58158632  0.17461480  1
  N  N112  1  0.75338949  0.41699729  0.07611210  1
  N  N113  1  0.24987912  0.23311414  0.20366467  1
  N  N114  1  0.74661051  0.91699729  0.92388790  1
  N  N115  1  0.24995969  0.58326482  0.42364729  1
  N  N116  1  0.99868762  0.26500441  0.45215445  1
  N  N117  1  0.00435293  0.91864085  0.17420311  1
  N  N118  1  0.49573889  0.91841368  0.17461480  1
  N  N119  1  0.75338949  0.58300271  0.42388790  1
  N  N120  1  0.25012088  0.73311414  0.79633533  1
  N  N121  1  0.74987912  0.73311414  0.29633533  1
  N  N122  1  0.99868762  0.73499559  0.04784555  1
  N  N123  1  0.00426111  0.41841368  0.82538520  1
  N  N124  1  0.00131238  0.73499559  0.54784555  1
  N  N125  1  0.00435293  0.08135915  0.32579689  1
  N  N126  1  0.49564707  0.41864085  0.82579689  1
  N  N127  1  0.99564707  0.91864085  0.67420311  1
