# generated using pymatgen
data_NaZr2SN2Cl
_symmetry_space_group_name_H-M   'P 1'
_cell_length_a   10.23341555
_cell_length_b   40.98625507
_cell_length_c   20.15952970
_cell_angle_alpha   10.35228035
_cell_angle_beta   18.12316516
_cell_angle_gamma   20.78492117
_symmetry_Int_Tables_number   1
_chemical_formula_structural   NaZr2SN2Cl
_chemical_formula_sum   'Na4 Zr8 S4 N8 Cl4'
_cell_volume   472.64191588
_cell_formula_units_Z   4
loop_
 _symmetry_equiv_pos_site_id
 _symmetry_equiv_pos_as_xyz
  1  'x, y, z'
loop_
 _atom_site_type_symbol
 _atom_site_label
 _atom_site_symmetry_multiplicity
 _atom_site_fract_x
 _atom_site_fract_y
 _atom_site_fract_z
 _atom_site_occupancy
  Na  Na0  1  0.01328257  0.00004394  0.99070274  1
  Na  Na1  1  0.01328257  0.24995606  0.99087852  1
  Na  Na2  1  0.98671743  0.50004394  0.00912148  1
  Na  Na3  1  0.98671743  0.74995606  0.00929726  1
  Zr  Zr4  1  0.18647707  0.24160357  0.23937368  1
  Zr  Zr5  1  0.76560523  0.99402433  0.81612058  1
  Zr  Zr6  1  0.23439477  0.49402433  0.20778209  1
  Zr  Zr7  1  0.76560523  0.25597567  0.79221791  1
  Zr  Zr8  1  0.23439477  0.75597567  0.18387942  1
  Zr  Zr9  1  0.81352293  0.50839643  0.76062632  1
  Zr  Zr10  1  0.18647707  0.00839643  0.20578797  1
  Zr  Zr11  1  0.81352293  0.74160357  0.79421203  1
  S  S12  1  0.60252773  0.99771913  0.60756639  1
  S  S13  1  0.60252773  0.25228087  0.59844290  1
  S  S14  1  0.39747227  0.49771913  0.40155710  1
  S  S15  1  0.39747227  0.75228087  0.39243361  1
  N  N16  1  0.10805598  0.00832230  0.13531890  1
  N  N17  1  0.10805598  0.24167770  0.16860811  1
  N  N18  1  0.16589219  0.48986656  0.14383409  1
  N  N19  1  0.16589219  0.76013344  0.10330031  1
  N  N20  1  0.83410781  0.26013344  0.85616591  1
  N  N21  1  0.89194402  0.50832230  0.83139189  1
  N  N22  1  0.89194402  0.74167770  0.86468110  1
  N  N23  1  0.83410781  0.98986656  0.89669969  1
  Cl  Cl24  1  0.39310084  0.00331291  0.38317245  1
  Cl  Cl25  1  0.39310084  0.24668709  0.39642409  1
  Cl  Cl26  1  0.60689916  0.50331291  0.60357591  1
  Cl  Cl27  1  0.60689916  0.74668709  0.61682755  1
