# generated using pymatgen
data_K3Co(CN)6
_symmetry_space_group_name_H-M   'P 1'
_cell_length_a   8.34906421
_cell_length_b   10.36524711
_cell_length_c   26.71204372
_cell_angle_alpha   90.00000000
_cell_angle_beta   90.00000000
_cell_angle_gamma   90.00000000
_symmetry_Int_Tables_number   1
_chemical_formula_structural   K3Co(CN)6
_chemical_formula_sum   'K24 Co8 C48 N48'
_cell_volume   2311.66329999
_cell_formula_units_Z   8
loop_
 _symmetry_equiv_pos_site_id
 _symmetry_equiv_pos_as_xyz
  1  'x, y, z'
loop_
 _atom_site_type_symbol
 _atom_site_label
 _atom_site_symmetry_multiplicity
 _atom_site_fract_x
 _atom_site_fract_y
 _atom_site_fract_z
 _atom_site_occupancy
  K  K0  1  0.25367541  0.24381657  0.37161829  1
  K  K1  1  0.74846791  0.49915115  0.75048649  1
  K  K2  1  0.25367541  0.75618343  0.62838171  1
  K  K3  1  0.00982218  0.50000000  0.00000000  1
  K  K4  1  0.24846791  0.99915115  0.24951351  1
  K  K5  1  0.99270877  0.73561770  0.37146987  1
  K  K6  1  0.99482078  0.29114518  0.12721676  1
  K  K7  1  0.49270877  0.23561770  0.62853013  1
  K  K8  1  0.49482078  0.20885482  0.12721676  1
  K  K9  1  0.49270877  0.76438230  0.37146987  1
  K  K10  1  0.75367541  0.25618343  0.37161829  1
  K  K11  1  0.99270877  0.26438230  0.62853013  1
  K  K12  1  0.24846791  0.00084885  0.75048649  1
  K  K13  1  0.50344955  0.00000000  0.50000000  1
  K  K14  1  0.74846791  0.50084885  0.24951351  1
  K  K15  1  0.50982218  0.00000000  0.00000000  1
  K  K16  1  0.25607725  0.22641764  0.87484310  1
  K  K17  1  0.25607725  0.77358236  0.12515690  1
  K  K18  1  0.75607725  0.27358236  0.87484310  1
  K  K19  1  0.75607725  0.72641764  0.12515690  1
  K  K20  1  0.99482078  0.70885482  0.87278324  1
  K  K21  1  0.75367541  0.74381657  0.62838171  1
  K  K22  1  0.00344955  0.50000000  0.50000000  1
  K  K23  1  0.49482078  0.79114518  0.87278324  1
  Co  Co24  1  0.75028091  0.00061347  0.75049458  1
  Co  Co25  1  0.75028091  0.99938653  0.24950542  1
  Co  Co26  1  0.49985215  0.50000000  0.00000000  1
  Co  Co27  1  0.25028091  0.50061347  0.24950542  1
  Co  Co28  1  0.49641840  0.50000000  0.50000000  1
  Co  Co29  1  0.25028091  0.49938653  0.75049458  1
  Co  Co30  1  0.99641840  0.00000000  0.50000000  1
  Co  Co31  1  0.99985215  0.00000000  0.00000000  1
  C  C32  1  0.24417414  0.66564037  0.27785866  1
  C  C33  1  0.59779804  0.94826843  0.70370929  1
  C  C34  1  0.09779804  0.55173157  0.70370929  1
  C  C35  1  0.40788447  0.54862114  0.70252407  1
  C  C36  1  0.49874557  0.33236449  0.97123670  1
  C  C37  1  0.84405642  0.94980358  0.95298142  1
  C  C38  1  0.90788447  0.04862114  0.29747593  1
  C  C39  1  0.90493052  0.94839463  0.20261445  1
  C  C40  1  0.34271690  0.44769712  0.54795671  1
  C  C41  1  0.15482801  0.94874747  0.95267542  1
  C  C42  1  0.59071670  0.95170410  0.20225218  1
  C  C43  1  0.09071670  0.54829590  0.20225218  1
  C  C44  1  0.75536139  0.16520211  0.22225512  1
  C  C45  1  0.25536139  0.66520211  0.77774488  1
  C  C46  1  0.09071670  0.45170410  0.79774782  1
  C  C47  1  0.34271690  0.55230288  0.45204329  1
  C  C48  1  0.09779804  0.44826843  0.29629071  1
  C  C49  1  0.75536139  0.83479789  0.77774488  1
  C  C50  1  0.40788447  0.45137886  0.29747593  1
  C  C51  1  0.34405642  0.55019642  0.95298142  1
  C  C52  1  0.40493052  0.44839463  0.79738555  1
  C  C53  1  0.65350815  0.44948247  0.54623828  1
  C  C54  1  0.49874557  0.66763551  0.02876330  1
  C  C55  1  0.34405642  0.44980358  0.04701858  1
  C  C56  1  0.15350815  0.94948247  0.45376172  1
  C  C57  1  0.84271690  0.94769712  0.45204329  1
  C  C58  1  0.84271690  0.05230288  0.54795671  1
  C  C59  1  0.65482801  0.55125253  0.95267542  1
  C  C60  1  0.99874557  0.83236449  0.02876330  1
  C  C61  1  0.25536139  0.33479789  0.22225512  1
  C  C62  1  0.15350815  0.05051753  0.54623828  1
  C  C63  1  0.84405642  0.05019642  0.04701858  1
  C  C64  1  0.74417414  0.16564037  0.72214134  1
  C  C65  1  0.49987169  0.33301910  0.47095331  1
  C  C66  1  0.59779804  0.05173157  0.29629071  1
  C  C67  1  0.59071670  0.04829590  0.79774782  1
  C  C68  1  0.24417414  0.33435963  0.72214134  1
  C  C69  1  0.65350815  0.55051753  0.45376172  1
  C  C70  1  0.90493052  0.05160537  0.79738555  1
  C  C71  1  0.15482801  0.05125253  0.04732458  1
  C  C72  1  0.74417414  0.83435963  0.27785866  1
  C  C73  1  -0.00012831  0.83301910  0.52904669  1
  C  C74  1  -0.00012831  0.16698090  0.47095331  1
  C  C75  1  0.65482801  0.44874747  0.04732458  1
  C  C76  1  0.49987169  0.66698090  0.52904669  1
  C  C77  1  0.40493052  0.55160537  0.20261445  1
  C  C78  1  0.99874557  0.16763551  0.97123670  1
  C  C79  1  0.90788447  0.95137886  0.70252407  1
  N  N80  1  0.49792094  0.77008084  0.04776588  1
  N  N81  1  0.75118848  0.58271893  0.42476114  1
  N  N82  1  0.74879368  0.91917972  0.92285792  1
  N  N83  1  0.49837023  0.08357543  0.32475939  1
  N  N84  1  0.50096612  0.23021048  0.45228148  1
  N  N85  1  0.00364247  0.92194080  0.67230723  1
  N  N86  1  0.75829214  0.26803144  0.20391126  1
  N  N87  1  0.75118848  0.41728107  0.57523886  1
  N  N88  1  0.99792094  0.27008084  0.95223412  1
  N  N89  1  0.24879368  0.58082028  0.92285792  1
  N  N90  1  0.49837023  0.91642457  0.67524061  1
  N  N91  1  0.25829214  0.76803144  0.79608874  1
  N  N92  1  0.99332719  0.42153404  0.82735708  1
  N  N93  1  0.50096612  0.76978952  0.54771852  1
  N  N94  1  0.99837023  0.58357543  0.67524061  1
  N  N95  1  0.00675955  0.08206301  0.82519100  1
  N  N96  1  0.50364247  0.57805920  0.67230723  1
  N  N97  1  0.00096612  0.73021048  0.54771852  1
  N  N98  1  0.25107700  0.08382111  0.07683901  1
  N  N99  1  0.24879368  0.41917972  0.07714208  1
  N  N100  1  0.24026302  0.76896832  0.29568732  1
  N  N101  1  0.74695502  0.91416047  0.42247610  1
  N  N102  1  0.50675955  0.41793699  0.82519100  1
  N  N103  1  0.75107700  0.58382111  0.92316099  1
  N  N104  1  0.74026302  0.73103168  0.29568732  1
  N  N105  1  0.99332719  0.57846596  0.17264292  1
  N  N106  1  0.25107700  0.91617889  0.92316099  1
  N  N107  1  0.50364247  0.42194080  0.32769277  1
  N  N108  1  0.25118848  0.91728107  0.42476114  1
  N  N109  1  0.24026302  0.23103168  0.70431268  1
  N  N110  1  0.00096612  0.26978952  0.45228148  1
  N  N111  1  0.49332719  0.92153404  0.17264292  1
  N  N112  1  0.99837023  0.41642457  0.32475939  1
  N  N113  1  0.74879368  0.08082028  0.07714208  1
  N  N114  1  0.49792094  0.22991916  0.95223412  1
  N  N115  1  0.00364247  0.07805920  0.32769277  1
  N  N116  1  0.25829214  0.23196856  0.20391126  1
  N  N117  1  0.99792094  0.72991916  0.04776588  1
  N  N118  1  0.25118848  0.08271893  0.57523886  1
  N  N119  1  0.24695502  0.41416047  0.57752390  1
  N  N120  1  0.74026302  0.26896832  0.70431268  1
  N  N121  1  0.00675955  0.91793699  0.17480900  1
  N  N122  1  0.50675955  0.58206301  0.17480900  1
  N  N123  1  0.75107700  0.41617889  0.07683901  1
  N  N124  1  0.74695502  0.08583953  0.57752390  1
  N  N125  1  0.49332719  0.07846596  0.82735708  1
  N  N126  1  0.24695502  0.58583953  0.42247610  1
  N  N127  1  0.75829214  0.73196856  0.79608874  1
