# generated using pymatgen
data_LiFe2(PO4)3
_symmetry_space_group_name_H-M   'P 1'
_cell_length_a   8.67000561
_cell_length_b   8.80097277
_cell_length_c   8.68958877
_cell_angle_alpha   60.73758051
_cell_angle_beta   60.07451780
_cell_angle_gamma   89.99999838
_symmetry_Int_Tables_number   1
_chemical_formula_structural   LiFe2(PO4)3
_chemical_formula_sum   'Li2 Fe4 P6 O24'
_cell_volume   474.53123379
_cell_formula_units_Z   2
loop_
 _symmetry_equiv_pos_site_id
 _symmetry_equiv_pos_as_xyz
  1  'x, y, z'
loop_
 _atom_site_type_symbol
 _atom_site_label
 _atom_site_symmetry_multiplicity
 _atom_site_fract_x
 _atom_site_fract_y
 _atom_site_fract_z
 _atom_site_occupancy
  Li  Li0  1  0.36127017  0.55012916  0.60487730  1
  Li  Li1  1  0.03385253  0.05012916  0.60487730  1
  Fe  Fe2  1  0.35327821  0.07394387  0.79326992  1
  Fe  Fe3  1  0.14666022  0.43556048  0.20075622  1
  Fe  Fe4  1  0.65258356  0.93556048  0.20075622  1
  Fe  Fe5  1  0.85345187  0.57394387  0.79326992  1
  P  P6  1  0.52726054  0.74265651  0.71906247  1
  P  P7  1  0.04215883  0.25769104  0.99671936  1
  P  P8  1  0.96112181  0.75769104  0.99671936  1
  P  P9  1  0.24721029  0.75517403  0.28075688  1
  P  P10  1  0.47203283  0.25517403  0.28075688  1
  P  P11  1  0.75367799  0.24265651  0.71906247  1
  O  O12  1  0.76326552  0.39772607  0.75169946  1
  O  O13  1  0.24166910  0.59955878  0.24728807  1
  O  O14  1  0.77554552  0.75346081  0.17130739  1
  O  O15  1  0.48503603  0.89772607  0.75169946  1
  O  O16  1  0.36836391  0.55554023  0.90377229  1
  O  O17  1  0.12104190  0.94001218  0.85992671  1
  O  O18  1  0.54562634  0.77461747  0.51797577  1
  O  O19  1  0.27687826  0.25481008  0.31886173  1
  O  O20  1  0.58941133  0.23704893  0.69589119  1
  O  O21  1  0.45786646  0.22053386  0.47988840  1
  O  O22  1  0.05314709  0.25346081  0.17130739  1
  O  O23  1  0.23309006  0.26351654  0.82462997  1
  O  O24  1  0.87839431  0.08484228  0.12391000  1
  O  O25  1  0.27886952  0.94094868  0.09243988  1
  O  O26  1  0.71469749  0.73704893  0.69589119  1
  O  O27  1  0.94227997  0.76351654  0.82462997  1
  O  O28  1  0.51104383  0.09955878  0.24728807  1
  O  O29  1  0.62869060  0.44094868  0.09243988  1
  O  O30  1  0.72786380  0.05554023  0.90377229  1
  O  O31  1  0.01903139  0.44001218  0.85992671  1
  O  O32  1  0.93639789  0.27461747  0.51797577  1
  O  O33  1  0.99769570  0.58484228  0.12391000  1
  O  O34  1  0.06224413  0.72053386  0.47988840  1
  O  O35  1  0.40426001  0.75481008  0.31886173  1
