# generated using pymatgen
data_Y2Al9Si27(N15O)3
_symmetry_space_group_name_H-M   'P 1'
_cell_length_a   7.96392611
_cell_length_b   7.93459210
_cell_length_c   17.25059728
_cell_angle_alpha   90.02108787
_cell_angle_beta   90.13917038
_cell_angle_gamma   120.31402610
_symmetry_Int_Tables_number   1
_chemical_formula_structural   Y2Al9Si27(N15O)3
_chemical_formula_sum   'Y2 Al9 Si27 N45 O3'
_cell_volume   941.02596168
_cell_formula_units_Z   1
loop_
 _symmetry_equiv_pos_site_id
 _symmetry_equiv_pos_as_xyz
  1  'x, y, z'
loop_
 _atom_site_type_symbol
 _atom_site_label
 _atom_site_symmetry_multiplicity
 _atom_site_fract_x
 _atom_site_fract_y
 _atom_site_fract_z
 _atom_site_occupancy
  Y  Y0  1  0.67721304  0.33027416  0.39002315  1
  Y  Y1  1  0.65804722  0.33073689  0.73429876  1
  Al  Al2  1  0.09642310  0.57947332  0.38270716  1
  Al  Al3  1  0.41435739  0.51077192  0.71983570  1
  Al  Al4  1  0.57089598  0.07407654  0.89088874  1
  Al  Al5  1  0.91710009  0.48277079  0.21702408  1
  Al  Al6  1  0.92730089  0.48928865  0.55501672  1
  Al  Al7  1  0.91889283  0.49016883  0.89319687  1
  Al  Al8  1  0.92262848  0.16801214  0.65229801  1
  Al  Al9  1  0.92250940  0.16728465  0.31625973  1
  Al  Al10  1  0.91278057  0.16588917  0.98848839  1
  Si  Si11  1  0.16740995  0.92710032  0.14717846  1
  Si  Si12  1  0.16982616  0.92612764  0.48243805  1
  Si  Si13  1  0.17511862  0.93752886  0.81792983  1
  Si  Si14  1  0.08707603  0.57085401  0.05284588  1
  Si  Si15  1  0.09133625  0.57708855  0.71994822  1
  Si  Si16  1  0.08897076  0.26091978  0.15239508  1
  Si  Si17  1  0.08011715  0.25524052  0.48464666  1
  Si  Si18  1  0.08409506  0.25743900  0.82261558  1
  Si  Si19  1  0.48860859  0.92021457  0.05585089  1
  Si  Si20  1  0.48612420  0.90695502  0.38627119  1
  Si  Si21  1  0.48372354  0.90946803  0.71937374  1
  Si  Si22  1  0.42986731  0.51253653  0.05540505  1
  Si  Si23  1  0.42748385  0.51221203  0.38663135  1
  Si  Si24  1  0.24621081  0.07474870  0.31423050  1
  Si  Si25  1  0.25008536  0.07615486  0.64749392  1
  Si  Si26  1  0.25001954  0.08190590  0.98388880  1
  Si  Si27  1  0.51406454  0.43040921  0.21778509  1
  Si  Si28  1  0.51023843  0.42750086  0.55209109  1
  Si  Si29  1  0.50806253  0.43224656  0.89016518  1
  Si  Si30  1  0.74436626  0.83596930  0.15042579  1
  Si  Si31  1  0.74907593  0.83019997  0.48465970  1
  Si  Si32  1  0.74762410  0.83001012  0.81730773  1
  Si  Si33  1  0.83224837  0.74571160  0.31508418  1
  Si  Si34  1  0.83699524  0.75058577  0.98713485  1
  Si  Si35  1  0.83368688  0.74568281  0.65278428  1
  Si  Si36  1  0.56090958  0.07816278  0.21958586  1
  Si  Si37  1  0.56545147  0.07641481  0.55342777  1
  N  N38  1  0.00340620  0.98718259  0.32021905  1
  N  N39  1  0.00584932  0.98744699  0.64993004  1
  N  N40  1  0.31511209  0.99650114  0.06699324  1
  N  N41  1  0.32402934  0.00003125  0.39972018  1
  N  N42  1  0.33078856  0.01358289  0.73349261  1
  N  N43  1  0.00990027  0.33251832  0.07331108  1
  N  N44  1  0.98437718  0.31829898  0.40693020  1
  N  N45  1  0.99714075  0.33257036  0.73977432  1
  N  N46  1  0.33437054  0.66790337  0.04162594  1
  N  N47  1  0.34842354  0.66823640  0.36526985  1
  N  N48  1  0.32608604  0.67526588  0.69426774  1
  N  N49  1  0.60452794  0.95020507  0.14887343  1
  N  N50  1  0.61034303  0.95130127  0.47749484  1
  N  N51  1  0.61343645  0.94906692  0.80413801  1
  N  N52  1  0.34679180  0.38744618  0.14524954  1
  N  N53  1  0.34426851  0.38497479  0.47528039  1
  N  N54  1  0.34025525  0.38037193  0.81384825  1
  N  N55  1  0.40137877  0.33940420  0.31431695  1
  N  N56  1  0.40304107  0.33222705  0.64216175  1
  N  N57  1  0.39328048  0.34482814  0.98032777  1
  N  N58  1  0.30844275  0.99307552  0.23186056  1
  N  N59  1  0.31526625  0.99402055  0.56373460  1
  N  N60  1  0.30755431  0.00054355  0.89955982  1
  N  N61  1  0.67915457  0.68728155  0.06773351  1
  N  N62  1  0.68169916  0.67190739  0.40157099  1
  N  N63  1  0.68642761  0.67175418  0.73443695  1
  N  N64  1  0.68392923  0.68181817  0.23256857  1
  N  N65  1  0.68818447  0.67762900  0.56587695  1
  N  N66  1  0.68955448  0.68386359  0.90045582  1
  N  N67  1  0.65255017  0.32334983  0.20401266  1
  N  N68  1  0.65885993  0.34010605  0.86167755  1
  N  N69  1  0.65846972  0.32591341  0.52617483  1
  N  N70  1  0.99717249  0.00178742  0.15167852  1
  N  N71  1  0.99905682  0.99961465  0.48302019  1
  N  N72  1  0.99773694  0.00211441  0.81385730  1
  N  N73  1  0.00525092  0.99362463  0.98708949  1
  N  N74  1  0.64533870  0.05954817  0.64583446  1
  N  N75  1  0.64312036  0.05689003  0.31477217  1
  N  N76  1  0.64752407  0.03895199  0.98485712  1
  N  N77  1  0.92560466  0.59262533  0.31627417  1
  N  N78  1  0.93350670  0.59204688  0.65329219  1
  N  N79  1  0.95365711  0.61450744  0.98606743  1
  N  N80  1  0.01594792  0.32404627  0.23340601  1
  N  N81  1  0.99876947  0.31521777  0.89991547  1
  N  N82  1  0.01372284  0.31982974  0.56632712  1
  O  O83  1  0.05143741  0.67219198  0.14208071  1
  O  O84  1  0.05205741  0.67637070  0.47783860  1
  O  O85  1  0.05958291  0.67853789  0.80563603  1
