# generated using pymatgen
data_Ce2Nd2O7
_symmetry_space_group_name_H-M   'P 1'
_cell_length_a   3.80789909
_cell_length_b   15.73249767
_cell_length_c   13.56694850
_cell_angle_alpha   30.41831684
_cell_angle_beta   55.85083806
_cell_angle_gamma   61.04774637
_symmetry_Int_Tables_number   1
_chemical_formula_structural   Ce2Nd2O7
_chemical_formula_sum   'Ce4 Nd4 O14'
_cell_volume   340.55776657
_cell_formula_units_Z   2
loop_
 _symmetry_equiv_pos_site_id
 _symmetry_equiv_pos_as_xyz
  1  'x, y, z'
loop_
 _atom_site_type_symbol
 _atom_site_label
 _atom_site_symmetry_multiplicity
 _atom_site_fract_x
 _atom_site_fract_y
 _atom_site_fract_z
 _atom_site_occupancy
  Ce  Ce0  1  0.00151041  0.00000000  0.99924479  1
  Ce  Ce1  1  0.99848959  0.50000000  0.00075521  1
  Ce  Ce2  1  0.00000000  0.25000000  0.50000000  1
  Ce  Ce3  1  0.00000000  0.75000000  0.00000000  1
  Nd  Nd4  1  0.00000000  0.25000000  0.00000000  1
  Nd  Nd5  1  0.04440392  0.50000000  0.47779804  1
  Nd  Nd6  1  0.00000000  0.75000000  0.50000000  1
  Nd  Nd7  1  0.95559608  0.00000000  0.52220196  1
  O  O8  1  0.23718974  0.00000000  0.13140513  1
  O  O9  1  0.24323260  0.20884987  0.16953383  1
  O  O10  1  0.26777095  0.50000000  0.11611453  1
  O  O11  1  0.73763716  0.26558196  0.36559946  1
  O  O12  1  0.26236284  0.23441804  0.63440054  1
  O  O13  1  0.26236284  0.76558196  0.10323662  1
  O  O14  1  0.73222905  0.00000000  0.88388547  1
  O  O15  1  0.76868703  0.50000000  0.36565649  1
  O  O16  1  0.75676740  0.29115013  0.83046617  1
  O  O17  1  0.75676740  0.70884987  0.41276644  1
  O  O18  1  0.24323260  0.79115013  0.58723356  1
  O  O19  1  0.76281026  0.50000000  0.86859487  1
  O  O20  1  0.23131297  0.00000000  0.63434351  1
  O  O21  1  0.73763716  0.73441804  0.89676338  1
