# generated using pymatgen
data_Sb2OsC6(OF2)6
_symmetry_space_group_name_H-M   'P 1'
_cell_length_a   8.44550739
_cell_length_b   8.44550739
_cell_length_c   12.66606170
_cell_angle_alpha   90.00000000
_cell_angle_beta   90.00000000
_cell_angle_gamma   90.00000000
_symmetry_Int_Tables_number   1
_chemical_formula_structural   Sb2OsC6(OF2)6
_chemical_formula_sum   'Sb4 Os2 C12 O12 F24'
_cell_volume   903.42705407
_cell_formula_units_Z   2
loop_
 _symmetry_equiv_pos_site_id
 _symmetry_equiv_pos_as_xyz
  1  'x, y, z'
loop_
 _atom_site_type_symbol
 _atom_site_label
 _atom_site_symmetry_multiplicity
 _atom_site_fract_x
 _atom_site_fract_y
 _atom_site_fract_z
 _atom_site_occupancy
  C  C0  1  0.62893355  0.70127074  0.50000000  1
  C  C1  1  0.37106645  0.29872926  0.50000000  1
  C  C2  1  0.00000000  0.00000000  0.15898293  1
  C  C3  1  0.50000000  0.50000000  0.34101707  1
  C  C4  1  0.00000000  0.00000000  0.84101707  1
  C  C5  1  0.50000000  0.50000000  0.65898293  1
  C  C6  1  0.20127074  0.12893355  0.00000000  1
  C  C7  1  0.87106645  0.20127074  0.00000000  1
  C  C8  1  0.12893355  0.79872926  0.00000000  1
  C  C9  1  0.70127074  0.37106645  0.50000000  1
  C  C10  1  0.29872926  0.62893355  0.50000000  1
  C  C11  1  0.79872926  0.87106645  0.00000000  1
  O  O12  1  0.29971357  0.18461869  0.50000000  1
  O  O13  1  0.70028643  0.81538131  0.50000000  1
  O  O14  1  0.00000000  0.00000000  0.24878987  1
  O  O15  1  0.50000000  0.50000000  0.25121013  1
  O  O16  1  0.00000000  0.00000000  0.75121013  1
  O  O17  1  0.50000000  0.50000000  0.74878987  1
  O  O18  1  0.31538131  0.20028643  0.00000000  1
  O  O19  1  0.79971357  0.31538131  0.00000000  1
  O  O20  1  0.20028643  0.68461869  0.00000000  1
  O  O21  1  0.81538131  0.29971357  0.50000000  1
  O  O22  1  0.18461869  0.70028643  0.50000000  1
  O  O23  1  0.68461869  0.79971357  0.00000000  1
  F  F24  1  0.33959926  0.16040074  0.75000000  1
  F  F25  1  0.83959926  0.33959926  0.75000000  1
  F  F26  1  0.66040074  0.83959926  0.75000000  1
  F  F27  1  0.38086987  0.89301716  0.85814470  1
  F  F28  1  0.66040074  0.83959926  0.25000000  1
  F  F29  1  0.16040074  0.66040074  0.25000000  1
  F  F30  1  0.61913013  0.10698284  0.14185530  1
  F  F31  1  0.89301716  0.61913013  0.14185530  1
  F  F32  1  0.10698284  0.38086987  0.14185530  1
  F  F33  1  0.11913013  0.39301716  0.35814470  1
  F  F34  1  0.88086987  0.60698284  0.35814470  1
  F  F35  1  0.38086987  0.89301716  0.14185530  1
  F  F36  1  0.60698284  0.11913013  0.35814470  1
  F  F37  1  0.39301716  0.88086987  0.35814470  1
  F  F38  1  0.83959926  0.33959926  0.25000000  1
  F  F39  1  0.10698284  0.38086987  0.85814470  1
  F  F40  1  0.89301716  0.61913013  0.85814470  1
  F  F41  1  0.88086987  0.60698284  0.64185530  1
  F  F42  1  0.11913013  0.39301716  0.64185530  1
  F  F43  1  0.61913013  0.10698284  0.85814470  1
  F  F44  1  0.39301716  0.88086987  0.64185530  1
  F  F45  1  0.60698284  0.11913013  0.64185530  1
  F  F46  1  0.33959926  0.16040074  0.25000000  1
  F  F47  1  0.16040074  0.66040074  0.75000000  1
  Sb  Sb48  1  0.00000000  0.50000000  0.75000000  1
  Sb  Sb49  1  0.50000000  0.00000000  0.75000000  1
  Sb  Sb50  1  0.50000000  0.00000000  0.25000000  1
  Sb  Sb51  1  0.00000000  0.50000000  0.25000000  1
  Os  Os52  1  0.50000000  0.50000000  0.50000000  1
  Os  Os53  1  0.00000000  0.00000000  0.00000000  1
