# generated using pymatgen
data_Ba6Fe14Cu11S27
_symmetry_space_group_name_H-M   'P 1'
_cell_length_a   10.44188547
_cell_length_b   10.32883278
_cell_length_c   10.20852374
_cell_angle_alpha   90.12571366
_cell_angle_beta   89.88420816
_cell_angle_gamma   90.46095089
_symmetry_Int_Tables_number   1
_chemical_formula_structural   Ba6Fe14Cu11S27
_chemical_formula_sum   'Ba6 Fe14 Cu11 S27'
_cell_volume   1100.97420307
_cell_formula_units_Z   1
loop_
 _symmetry_equiv_pos_site_id
 _symmetry_equiv_pos_as_xyz
  1  'x, y, z'
loop_
 _atom_site_type_symbol
 _atom_site_label
 _atom_site_symmetry_multiplicity
 _atom_site_fract_x
 _atom_site_fract_y
 _atom_site_fract_z
 _atom_site_occupancy
  Ba  Ba0  1  0.99758607  -0.00004832  0.30338779  1
  Ba  Ba1  1  0.99706707  0.99934803  0.69680306  1
  Ba  Ba2  1  0.30306692  0.99930904  0.00054152  1
  Ba  Ba3  1  0.69780013  0.00023797  0.00004310  1
  Ba  Ba4  1  0.99713686  0.30332812  0.00036226  1
  Ba  Ba5  1  0.99911606  0.69661102  0.99996435  1
  Fe  Fe6  1  0.13659167  0.36972619  0.37035407  1
  Fe  Fe7  1  0.13520601  0.37125235  0.62953434  1
  Fe  Fe8  1  0.13777958  0.63030362  0.37152736  1
  Fe  Fe9  1  0.13803247  0.63087617  0.62879441  1
  Fe  Fe10  1  0.37235606  0.13292254  0.63044209  1
  Fe  Fe11  1  0.36785282  0.86464886  0.62779408  1
  Fe  Fe12  1  0.36696179  0.36737560  0.13328884  1
  Fe  Fe13  1  0.36841753  0.36765412  0.86561121  1
  Fe  Fe14  1  0.36747681  0.86051658  0.37246654  1
  Fe  Fe15  1  0.50472507  0.49916180  0.50051734  1
  Fe  Fe16  1  0.63186422  0.14021699  0.63278618  1
  Fe  Fe17  1  0.63414218  0.63485032  0.13434451  1
  Fe  Fe18  1  0.63309074  0.13856188  0.36831095  1
  Fe  Fe19  1  0.63449499  0.63465836  0.86596143  1
  Cu  Cu20  1  0.36547570  0.63517990  0.14131572  1
  Cu  Cu21  1  0.36513536  0.63541923  0.85868933  1
  Cu  Cu22  1  0.36482975  0.14074120  0.36422052  1
  Cu  Cu23  1  0.63434720  0.36408611  0.14027604  1
  Cu  Cu24  1  0.63489565  0.85966259  0.63578272  1
  Cu  Cu25  1  0.63430189  0.36428914  0.85969109  1
  Cu  Cu26  1  0.63424195  0.86048339  0.36473916  1
  Cu  Cu27  1  0.85823805  0.36578343  0.63315792  1
  Cu  Cu28  1  0.85895430  0.36624429  0.36713151  1
  Cu  Cu29  1  0.85881071  0.63261453  0.63430434  1
  Cu  Cu30  1  0.85865952  0.63277036  0.36561674  1
  S  S31  1  0.00146792  0.00014705  0.00009220  1
  S  S32  1  0.00195498  0.75205038  0.50020089  1
  S  S33  1  0.21910015  0.22203378  0.21898181  1
  S  S34  1  0.22091025  0.22001092  0.77864427  1
  S  S35  1  0.21951927  0.78021384  0.22183586  1
  S  S36  1  0.21967061  0.78074445  0.77875275  1
  S  S37  1  0.24613931  0.49672343  0.99937427  1
  S  S38  1  0.24257545  0.00108469  0.50040686  1
  S  S39  1  0.27299392  0.49943751  0.49995738  1
  S  S40  1  0.50137765  0.50036855  0.26502198  1
  S  S41  1  0.49986424  0.73199531  0.50026535  1
  S  S42  1  0.49548627  0.24533895  0.99982056  1
  S  S43  1  0.49975770  -0.00018238  0.75495724  1
  S  S44  1  0.50191186  0.27026281  0.49949462  1
  S  S45  1  0.50174927  0.50085706  0.73476713  1
  S  S46  1  0.50332468  0.75447034  0.00017923  1
  S  S47  1  0.49962802  0.00054191  0.24806311  1
  S  S48  1  0.73162144  0.49949350  0.50002201  1
  S  S49  1  0.75380781  0.50275547  0.99974762  1
  S  S50  1  0.75296239  0.00284994  0.50023046  1
  S  S51  1  0.77869527  0.21839698  0.22053377  1
  S  S52  1  0.77896019  0.21819552  0.78062875  1
  S  S53  1  0.77911655  0.77829752  0.21819002  1
  S  S54  1  0.77882038  0.77849496  0.78182301  1
  S  S55  1  0.00322208  0.24731343  0.50003394  1
  S  S56  1  0.00368674  0.49937899  0.24773599  1
  S  S57  1  0.00302049  0.49993970  0.75247840  1
