# generated using pymatgen
data_NaPH5C2SN3O4
_symmetry_space_group_name_H-M   'P 1'
_cell_length_a   5.92577697
_cell_length_b   7.04360917
_cell_length_c   10.22096721
_cell_angle_alpha   90.14842595
_cell_angle_beta   81.19408090
_cell_angle_gamma   76.95765434
_symmetry_Int_Tables_number   1
_chemical_formula_structural   NaPH5C2SN3O4
_chemical_formula_sum   'Na2 P2 H10 C4 S2 N6 O8'
_cell_volume   410.40178822
_cell_formula_units_Z   2
loop_
 _symmetry_equiv_pos_site_id
 _symmetry_equiv_pos_as_xyz
  1  'x, y, z'
loop_
 _atom_site_type_symbol
 _atom_site_label
 _atom_site_symmetry_multiplicity
 _atom_site_fract_x
 _atom_site_fract_y
 _atom_site_fract_z
 _atom_site_occupancy
  Na  Na0  1  0.47942655  0.32769560  0.79934034  1
  Na  Na1  1  0.52057345  0.67230440  0.20065966  1
  P  P2  1  0.96725228  0.75514232  0.77626170  1
  P  P3  1  0.03274772  0.24485768  0.22373830  1
  H  H4  1  0.99623269  0.08150082  0.81744402  1
  H  H5  1  0.00376731  0.91849918  0.18255598  1
  H  H6  1  0.91128039  0.58162548  0.59155985  1
  H  H7  1  0.08871961  0.41837452  0.40844015  1
  H  H8  1  0.56082678  0.13592332  0.52415878  1
  H  H9  1  0.43917322  0.86407668  0.47584122  1
  H  H10  1  0.91596823  0.40759352  0.86419975  1
  H  H11  1  0.08403177  0.59240648  0.13580025  1
  H  H12  1  0.83294162  0.32217092  0.99612300  1
  H  H13  1  0.16705838  0.67782908  0.00387700  1
  C  C14  1  0.23645439  0.98778790  0.65194203  1
  C  C15  1  0.76354561  0.01221210  0.34805797  1
  C  C16  1  0.18125609  0.71098833  0.51916063  1
  C  C17  1  0.81874391  0.28901167  0.48083937  1
  S  S18  1  0.64023008  0.82070225  0.85977750  1
  S  S19  1  0.35976992  0.17929775  0.14022250  1
  N  N20  1  0.06925822  0.96228601  0.75188959  1
  N  N21  1  0.93074178  0.03771399  0.24811041  1
  N  N22  1  0.00083223  0.68625723  0.61198295  1
  N  N23  1  0.99916777  0.31374277  0.38801705  1
  N  N24  1  0.29929578  0.85078944  0.54797207  1
  N  N25  1  0.70070422  0.14921056  0.45202793  1
  O  O26  1  0.13940701  0.60191031  0.83923216  1
  O  O27  1  0.86059299  0.39808969  0.16076784  1
  O  O28  1  0.33021530  0.13163197  0.64912808  1
  O  O29  1  0.66978470  0.86836803  0.35087192  1
  O  O30  1  0.75886794  0.38207630  0.59016538  1
  O  O31  1  0.24113206  0.61792370  0.40983462  1
  O  O32  1  0.83404771  0.30701941  0.89918880  1
  O  O33  1  0.16595229  0.69298059  0.10081120  1
