# generated using pymatgen
data_Mn2P3O10
_symmetry_space_group_name_H-M   'P 1'
_cell_length_a   8.22515917
_cell_length_b   8.22515931
_cell_length_c   9.49749985
_cell_angle_alpha   62.27096942
_cell_angle_beta   117.72903109
_cell_angle_gamma   113.80363138
_symmetry_Int_Tables_number   1
_chemical_formula_structural   Mn2P3O10
_chemical_formula_sum   'Mn4 P6 O20'
_cell_volume   488.86450845
_cell_formula_units_Z   2
loop_
 _symmetry_equiv_pos_site_id
 _symmetry_equiv_pos_as_xyz
  1  'x, y, z'
loop_
 _atom_site_type_symbol
 _atom_site_label
 _atom_site_symmetry_multiplicity
 _atom_site_fract_x
 _atom_site_fract_y
 _atom_site_fract_z
 _atom_site_occupancy
  Mn  Mn0  1  0.69993188  0.26191445  0.03397418  1
  Mn  Mn1  1  0.73808555  0.30006812  0.53397418  1
  Mn  Mn2  1  0.26191445  0.69993188  0.46602582  1
  Mn  Mn3  1  0.30006812  0.73808555  0.96602582  1
  P  P4  1  0.91608907  0.91608907  0.25000000  1
  P  P5  1  0.15456201  0.43391379  0.79954160  1
  P  P6  1  0.84543799  0.56608621  0.20045840  1
  P  P7  1  0.08391093  0.08391093  0.75000000  1
  P  P8  1  0.56608621  0.84543799  0.29954160  1
  P  P9  1  0.43391379  0.15456201  0.70045840  1
  O  O10  1  0.44373905  0.95086874  0.81617104  1
  O  O11  1  0.10481311  0.88868705  0.87178540  1
  O  O12  1  0.43753362  0.70084458  0.20999293  1
  O  O13  1  0.29915542  0.56246638  0.70999293  1
  O  O14  1  0.82946011  0.78259436  0.13720898  1
  O  O15  1  0.79060543  0.52644079  0.04043098  1
  O  O16  1  0.04913126  0.55626095  0.31617104  1
  O  O17  1  0.52644079  0.79060543  0.45956902  1
  O  O18  1  0.11131295  0.89518689  0.37178540  1
  O  O19  1  0.70084458  0.43753362  0.29000707  1
  O  O20  1  0.20939457  0.47355921  0.95956902  1
  O  O21  1  0.56246638  0.29915542  0.79000707  1
  O  O22  1  0.89518689  0.11131295  0.12821460  1
  O  O23  1  0.78259436  0.82946011  0.36279102  1
  O  O24  1  0.55626095  0.04913126  0.18382896  1
  O  O25  1  0.95086874  0.44373905  0.68382896  1
  O  O26  1  0.88868705  0.10481311  0.62821460  1
  O  O27  1  0.47355921  0.20939457  0.54043098  1
  O  O28  1  0.17053989  0.21740564  0.86279102  1
  O  O29  1  0.21740564  0.17053989  0.63720898  1
