# generated using pymatgen
data_HS3N
_symmetry_space_group_name_H-M   'P 1'
_cell_length_a   8.47377100
_cell_length_b   13.35059698
_cell_length_c   7.45466832
_cell_angle_alpha   90.00000000
_cell_angle_beta   90.00000000
_cell_angle_gamma   90.00000000
_symmetry_Int_Tables_number   1
_chemical_formula_structural   HS3N
_chemical_formula_sum   'H8 S24 N8'
_cell_volume   843.34589292
_cell_formula_units_Z   8
loop_
 _symmetry_equiv_pos_site_id
 _symmetry_equiv_pos_as_xyz
  1  'x, y, z'
loop_
 _atom_site_type_symbol
 _atom_site_label
 _atom_site_symmetry_multiplicity
 _atom_site_fract_x
 _atom_site_fract_y
 _atom_site_fract_z
 _atom_site_occupancy
  H  H0  1  0.82299699  0.25000000  0.35120529  1
  H  H1  1  0.32299699  0.25000000  0.14879471  1
  H  H2  1  0.17700301  0.75000000  0.64879471  1
  H  H3  1  0.67700301  0.75000000  0.85120529  1
  H  H4  1  0.64333342  0.25000000  0.63435164  1
  H  H5  1  0.14333342  0.25000000  0.86564836  1
  H  H6  1  0.35666658  0.75000000  0.36564836  1
  H  H7  1  0.85666658  0.75000000  0.13435164  1
  S  S8  1  0.62593772  0.13754416  0.27216792  1
  S  S9  1  0.12593772  0.36245584  0.22783208  1
  S  S10  1  0.37406228  0.63754416  0.72783208  1
  S  S11  1  0.87406228  0.86245584  0.77216792  1
  S  S12  1  0.37406228  0.86245584  0.72783208  1
  S  S13  1  0.87406228  0.63754416  0.77216792  1
  S  S14  1  0.62593772  0.36245584  0.27216792  1
  S  S15  1  0.12593772  0.13754416  0.22783208  1
  S  S16  1  0.69756639  0.09924309  0.01662557  1
  S  S17  1  0.19756639  0.40075691  0.48337443  1
  S  S18  1  0.30243361  0.59924309  0.98337443  1
  S  S19  1  0.80243361  0.90075691  0.51662557  1
  S  S20  1  0.30243361  0.90075691  0.98337443  1
  S  S21  1  0.80243361  0.59924309  0.51662557  1
  S  S22  1  0.69756639  0.40075691  0.01662557  1
  S  S23  1  0.19756639  0.09924309  0.48337443  1
  S  S24  1  0.52269073  0.13867753  0.83288225  1
  S  S25  1  0.02269073  0.36132247  0.66711775  1
  S  S26  1  0.47730927  0.63867753  0.16711775  1
  S  S27  1  0.97730927  0.86132247  0.33288225  1
  S  S28  1  0.47730927  0.86132247  0.16711775  1
  S  S29  1  0.97730927  0.63867753  0.33288225  1
  S  S30  1  0.52269073  0.36132247  0.83288225  1
  S  S31  1  0.02269073  0.13867753  0.66711775  1
  N  N32  1  0.70271105  0.25000000  0.33472060  1
  N  N33  1  0.20271105  0.25000000  0.16527940  1
  N  N34  1  0.29728895  0.75000000  0.66527940  1
  N  N35  1  0.79728895  0.75000000  0.83472060  1
  N  N36  1  0.56515419  0.25000000  0.74003354  1
  N  N37  1  0.06515419  0.25000000  0.75996646  1
  N  N38  1  0.43484581  0.75000000  0.25996646  1
  N  N39  1  0.93484581  0.75000000  0.24003354  1
