# generated using pymatgen
data_SnH24C6N2(OF3)2
_symmetry_space_group_name_H-M   'P 1'
_cell_length_a   8.30893420
_cell_length_b   8.30893420
_cell_length_c   8.26588880
_cell_angle_alpha   63.54232576
_cell_angle_beta   116.45767424
_cell_angle_gamma   127.51084506
_symmetry_Int_Tables_number   1
_chemical_formula_structural   SnH24C6N2(OF3)2
_chemical_formula_sum   'Sn1 H24 C6 N2 O2 F6'
_cell_volume   392.87294519
_cell_formula_units_Z   1
loop_
 _symmetry_equiv_pos_site_id
 _symmetry_equiv_pos_as_xyz
  1  'x, y, z'
loop_
 _atom_site_type_symbol
 _atom_site_label
 _atom_site_symmetry_multiplicity
 _atom_site_fract_x
 _atom_site_fract_y
 _atom_site_fract_z
 _atom_site_occupancy
  Sn  Sn0  1  0.00000000  0.00000000  0.00000000  1
  H  H1  1  0.70058724  0.29941276  0.29856673  1
  H  H2  1  0.29941276  0.70058724  0.70143327  1
  H  H3  1  0.64448827  0.57018969  0.22354907  1
  H  H4  1  0.42981031  0.35551173  0.22354907  1
  H  H5  1  0.35551173  0.42981031  0.77645093  1
  H  H6  1  0.57018969  0.64448827  0.77645093  1
  H  H7  1  0.06704454  0.50710808  0.29986230  1
  H  H8  1  0.49289192  0.93295546  0.29986230  1
  H  H9  1  0.93295546  0.49289192  0.70013770  1
  H  H10  1  0.50710808  0.06704454  0.70013770  1
  H  H11  1  0.06410398  0.27061517  0.35496875  1
  H  H12  1  0.72938483  0.93589602  0.35496875  1
  H  H13  1  0.93589602  0.72938483  0.64503125  1
  H  H14  1  0.27061517  0.06410398  0.64503125  1
  H  H15  1  0.01718008  0.31810221  0.51768593  1
  H  H16  1  0.68189779  0.98281992  0.51768593  1
  H  H17  1  0.98281992  0.68189779  0.48231407  1
  H  H18  1  0.31810221  0.01718008  0.48231407  1
  H  H19  1  0.79687341  0.44634938  0.01651431  1
  H  H20  1  0.55365062  0.20312659  0.01651431  1
  H  H21  1  0.20312659  0.55365062  0.98348569  1
  H  H22  1  0.44634938  0.79687341  0.98348569  1
  H  H23  1  0.78688596  0.21311404  0.04403502  1
  H  H24  1  0.21311404  0.78688596  0.95596498  1
  C  C25  1  0.99564528  0.34011514  0.37004351  1
  C  C26  1  0.65988486  0.00435472  0.37004351  1
  C  C27  1  0.00435472  0.65988486  0.62995649  1
  C  C28  1  0.34011514  0.99564528  0.62995649  1
  C  C29  1  0.72351045  0.27648955  0.07479072  1
  C  C30  1  0.27648955  0.72351045  0.92520928  1
  N  N31  1  0.76634257  0.23365743  0.28092239  1
  N  N32  1  0.23365743  0.76634257  0.71907761  1
  O  O33  1  0.58121324  0.41878676  0.28449431  1
  O  O34  1  0.41878676  0.58121324  0.71550569  1
  F  F35  1  0.16256524  0.22331997  0.13983310  1
  F  F36  1  0.77668003  0.83743476  0.13983310  1
  F  F37  1  0.83743476  0.77668003  0.86016690  1
  F  F38  1  0.22331997  0.16256524  0.86016690  1
  F  F39  1  0.85146391  0.14853609  0.80245156  1
  F  F40  1  0.14853609  0.85146391  0.19754844  1
