# generated using pymatgen
data_CrP2O7
_symmetry_space_group_name_H-M   'P 1'
_cell_length_a   5.11666919
_cell_length_b   8.20738120
_cell_length_c   13.18027678
_cell_angle_alpha   90.00000000
_cell_angle_beta   84.60625721
_cell_angle_gamma   90.00000000
_symmetry_Int_Tables_number   1
_chemical_formula_structural   CrP2O7
_chemical_formula_sum   'Cr4 P8 O28'
_cell_volume   551.04777277
_cell_formula_units_Z   4
loop_
 _symmetry_equiv_pos_site_id
 _symmetry_equiv_pos_as_xyz
  1  'x, y, z'
loop_
 _atom_site_type_symbol
 _atom_site_label
 _atom_site_symmetry_multiplicity
 _atom_site_fract_x
 _atom_site_fract_y
 _atom_site_fract_z
 _atom_site_occupancy
  Cr  Cr0  1  0.72447224  0.84826747  0.13288370  1
  Cr  Cr1  1  0.27552776  0.15173253  0.86711630  1
  Cr  Cr2  1  0.22447224  0.65173253  0.63288370  1
  Cr  Cr3  1  0.77552776  0.34826747  0.36711630  1
  P  P4  1  0.76527625  0.45529709  0.18642130  1
  P  P5  1  0.26527625  0.04470291  0.68642130  1
  P  P6  1  0.73472375  0.95529709  0.31357870  1
  P  P7  1  0.23472375  0.54470291  0.81357870  1
  P  P8  1  0.25521329  0.80081818  0.97939476  1
  P  P9  1  0.75521329  0.69918182  0.47939476  1
  P  P10  1  0.74478671  0.19918182  0.02060524  1
  P  P11  1  0.24478671  0.30081818  0.52060524  1
  O  O12  1  0.46258233  0.67112704  0.50960365  1
  O  O13  1  0.28096539  0.62809071  0.91883222  1
  O  O14  1  0.21903461  0.12809071  0.58116778  1
  O  O15  1  0.66754605  0.13063867  0.34043422  1
  O  O16  1  0.71903461  0.37190929  0.08116778  1
  O  O17  1  0.51064099  0.86815358  0.26238727  1
  O  O18  1  0.08191913  0.27017811  0.43252269  1
  O  O19  1  0.16754605  0.36936133  0.84043422  1
  O  O20  1  0.53741767  0.32887296  0.49039635  1
  O  O21  1  0.36510107  0.93212212  0.90423391  1
  O  O22  1  0.46465738  0.56450552  0.72976147  1
  O  O23  1  0.01064099  0.63184642  0.76238727  1
  O  O24  1  0.48935901  0.13184642  0.73761273  1
  O  O25  1  0.03534262  0.06450552  0.77023853  1
  O  O26  1  0.58191913  0.22982189  0.93252269  1
  O  O27  1  0.78096539  0.87190929  0.41883222  1
  O  O28  1  0.91808087  0.72982189  0.56747731  1
  O  O29  1  0.86510107  0.56787788  0.40423391  1
  O  O30  1  0.13489893  0.43212212  0.59576609  1
  O  O31  1  0.96258233  0.82887296  0.00960365  1
  O  O32  1  0.96465738  0.93549448  0.22976147  1
  O  O33  1  0.41808087  0.77017811  0.06747731  1
  O  O34  1  0.53534262  0.43549448  0.27023853  1
  O  O35  1  0.33245395  0.86936133  0.65956578  1
  O  O36  1  0.03741767  0.17112704  0.99039635  1
  O  O37  1  0.63489893  0.06787788  0.09576609  1
  O  O38  1  0.98935901  0.36815358  0.23761273  1
  O  O39  1  0.83245395  0.63063867  0.15956578  1
