# generated using pymatgen
data_H13C3NF4
_symmetry_space_group_name_H-M   'P 1'
_cell_length_a   7.73920925
_cell_length_b   9.43400908
_cell_length_c   10.84157949
_cell_angle_alpha   102.60439601
_cell_angle_beta   91.75593328
_cell_angle_gamma   90.73244156
_symmetry_Int_Tables_number   1
_chemical_formula_structural   H13C3NF4
_chemical_formula_sum   'H52 C12 N4 F16'
_cell_volume   771.96969862
_cell_formula_units_Z   4
loop_
 _symmetry_equiv_pos_site_id
 _symmetry_equiv_pos_as_xyz
  1  'x, y, z'
loop_
 _atom_site_type_symbol
 _atom_site_label
 _atom_site_symmetry_multiplicity
 _atom_site_fract_x
 _atom_site_fract_y
 _atom_site_fract_z
 _atom_site_occupancy
  H  H0  1  0.75447696  0.73426478  0.87633514  1
  H  H1  1  0.24552304  0.26573522  0.12366486  1
  H  H2  1  0.78019978  0.42535524  0.87749868  1
  H  H3  1  0.21980022  0.57464476  0.12250132  1
  H  H4  1  0.93976246  0.25318237  0.95224904  1
  H  H5  1  0.06023754  0.74681763  0.04775096  1
  H  H6  1  0.59773048  0.27522818  0.96441536  1
  H  H7  1  0.40226952  0.72477182  0.03558464  1
  H  H8  1  0.74055392  0.78063009  0.20522081  1
  H  H9  1  0.25944608  0.21936991  0.79477919  1
  H  H10  1  0.73069181  0.07969929  0.31454397  1
  H  H11  1  0.26930819  0.92030071  0.68545603  1
  H  H12  1  0.74804945  0.09216219  0.52989428  1
  H  H13  1  0.25195055  0.90783781  0.47010572  1
  H  H14  1  0.74939329  0.33437048  0.45904102  1
  H  H15  1  0.25060671  0.66562952  0.54095898  1
  H  H16  1  0.59296257  0.95543443  0.91442440  1
  H  H17  1  0.40703743  0.04456557  0.08557560  1
  H  H18  1  0.72383605  0.01626236  0.80275491  1
  H  H19  1  0.27616395  0.98373764  0.19724509  1
  H  H20  1  0.82209128  0.98468186  0.94742855  1
  H  H21  1  0.17790872  0.01531814  0.05257145  1
  H  H22  1  0.63713183  0.62854472  0.66669490  1
  H  H23  1  0.36286817  0.37145528  0.33330510  1
  H  H24  1  0.59874113  0.81096154  0.64852279  1
  H  H25  1  0.40125887  0.18903846  0.35147721  1
  H  H26  1  0.48807708  0.74093530  0.76595252  1
  H  H27  1  0.51192292  0.25906470  0.23404748  1
  H  H28  1  0.02303336  0.82341423  0.81924712  1
  H  H29  1  0.97696664  0.17658577  0.18075288  1
  H  H30  1  0.91894860  0.85064449  0.67662225  1
  H  H31  1  0.08105140  0.14935551  0.32337775  1
  H  H32  1  0.93842541  0.66895687  0.70157985  1
  H  H33  1  0.06157459  0.33104313  0.29842015  1
  H  H34  1  0.01013272  0.72677424  0.29119035  1
  H  H35  1  0.98986728  0.27322576  0.70880965  1
  H  H36  1  0.89990406  0.66385043  0.41222778  1
  H  H37  1  0.10009594  0.33614957  0.58777222  1
  H  H38  1  0.89344488  0.85342611  0.40501416  1
  H  H39  1  0.10655512  0.14657389  0.59498584  1
  H  H40  1  0.58009653  0.84531925  0.39477647  1
  H  H41  1  0.41990347  0.15468075  0.60522353  1
  H  H42  1  0.56960692  0.65576059  0.39862130  1
  H  H43  1  0.43039308  0.34423941  0.60137870  1
  H  H44  1  0.46638070  0.71855975  0.27036515  1
  H  H45  1  0.53361930  0.28144025  0.72963485  1
  H  H46  1  0.62287662  0.53981346  0.12655515  1
  H  H47  1  0.37712338  0.46018654  0.87344485  1
  H  H48  1  0.74247447  0.48432153  0.25317365  1
  H  H49  1  0.25752553  0.51567847  0.74682635  1
  H  H50  1  0.85447802  0.54594578  0.13123090  1
  H  H51  1  0.14552198  0.45405422  0.86876910  1
  C  C52  1  0.72091711  0.95035526  0.87409880  1
  C  C53  1  0.27908289  0.04964474  0.12590120  1
  C  C54  1  0.60815669  0.73950168  0.71538394  1
  C  C55  1  0.39184331  0.26049832  0.28461606  1
  C  C56  1  0.92157810  0.78325364  0.74697214  1
  C  C57  1  0.07842190  0.21674636  0.25302786  1
  C  C58  1  0.89699604  0.74137164  0.35020898  1
  C  C59  1  0.10300396  0.25862836  0.64979102  1
  C  C60  1  0.57645939  0.73431743  0.33797130  1
  C  C61  1  0.42354061  0.26568257  0.66202870  1
  C  C62  1  0.73944482  0.55818736  0.18792139  1
  C  C63  1  0.26055518  0.44181264  0.81207861  1
  N  N64  1  0.75131866  0.79653005  0.80920345  1
  N  N65  1  0.24868134  0.20346995  0.19079655  1
  N  N66  1  0.73842468  0.70959951  0.26563725  1
  N  N67  1  0.26157532  0.29040049  0.73436275  1
  F  F68  1  0.77023341  0.30899235  0.93866277  1
  F  F69  1  0.22976659  0.69100765  0.06133723  1
  F  F70  1  0.79015954  0.50478192  0.82991637  1
  F  F71  1  0.20984046  0.49521808  0.17008363  1
  F  F72  1  0.06000859  0.21716696  0.95478711  1
  F  F73  1  0.93999141  0.78283304  0.04521289  1
  F  F74  1  0.47350035  0.25921024  0.98054764  1
  F  F75  1  0.52649965  0.74078976  0.01945236  1
  F  F76  1  0.75237660  0.17618501  0.43765340  1
  F  F77  1  0.24762340  0.82381499  0.56234660  1
  F  F78  1  0.71448747  0.00978041  0.23145537  1
  F  F79  1  0.28551253  0.99021959  0.76854463  1
  F  F80  1  0.74534990  0.02511996  0.59018097  1
  F  F81  1  0.25465010  0.97488004  0.40981903  1
  F  F82  1  0.74484200  0.44143997  0.46937803  1
  F  F83  1  0.25515800  0.55856003  0.53062197  1
