# generated using pymatgen
data_Sm2Fe15Si2
_symmetry_space_group_name_H-M   'P 1'
_cell_length_a   6.38312745
_cell_length_b   6.38312745
_cell_length_c   6.38312726
_cell_angle_alpha   81.69925360
_cell_angle_beta   81.69925360
_cell_angle_gamma   81.69925724
_symmetry_Int_Tables_number   1
_chemical_formula_structural   Sm2Fe15Si2
_chemical_formula_sum   'Sm2 Fe15 Si2'
_cell_volume   252.62094251
_cell_formula_units_Z   1
loop_
 _symmetry_equiv_pos_site_id
 _symmetry_equiv_pos_as_xyz
  1  'x, y, z'
loop_
 _atom_site_type_symbol
 _atom_site_label
 _atom_site_symmetry_multiplicity
 _atom_site_fract_x
 _atom_site_fract_y
 _atom_site_fract_z
 _atom_site_occupancy
  Sm  Sm0  1  0.65538805  0.65538805  0.65538805  1
  Sm  Sm1  1  0.34461195  0.34461195  0.34461195  1
  Fe  Fe2  1  0.00000000  0.00000000  0.50000000  1
  Fe  Fe3  1  0.00000000  0.50000000  0.00000000  1
  Fe  Fe4  1  0.50000000  0.00000000  0.00000000  1
  Fe  Fe5  1  0.28966796  0.71033204  -0.00000000  1
  Fe  Fe6  1  0.71033204  1.00000000  0.28966796  1
  Fe  Fe7  1  0.00000000  0.28966796  0.71033204  1
  Fe  Fe8  1  0.28966796  0.00000000  0.71033204  1
  Fe  Fe9  1  1.00000000  0.71033204  0.28966796  1
  Fe  Fe10  1  0.71033204  0.28966796  0.00000000  1
  Fe  Fe11  1  0.33947986  0.33947986  0.84470968  1
  Fe  Fe12  1  0.33947986  0.84470968  0.33947986  1
  Fe  Fe13  1  0.84470968  0.33947986  0.33947986  1
  Fe  Fe14  1  0.66052014  0.66052014  0.15529032  1
  Fe  Fe15  1  0.66052014  0.15529032  0.66052014  1
  Fe  Fe16  1  0.15529032  0.66052014  0.66052014  1
  Si  Si17  1  0.89842463  0.89842463  0.89842463  1
  Si  Si18  1  0.10157537  0.10157537  0.10157537  1
