# generated using pymatgen
data_Rb8W13O43
_symmetry_space_group_name_H-M   'P 1'
_cell_length_a   7.59750531
_cell_length_b   7.30053978
_cell_length_c   28.76537897
_cell_angle_alpha   61.58668863
_cell_angle_beta   60.07189914
_cell_angle_gamma   59.39695096
_symmetry_Int_Tables_number   1
_chemical_formula_structural   Rb8W13O43
_chemical_formula_sum   'Rb8 W13 O43'
_cell_volume   1136.29757864
_cell_formula_units_Z   1
loop_
 _symmetry_equiv_pos_site_id
 _symmetry_equiv_pos_as_xyz
  1  'x, y, z'
loop_
 _atom_site_type_symbol
 _atom_site_label
 _atom_site_symmetry_multiplicity
 _atom_site_fract_x
 _atom_site_fract_y
 _atom_site_fract_z
 _atom_site_occupancy
  Rb  Rb0  1  0.39184721  0.42615205  0.08777718  1
  Rb  Rb1  1  0.57658580  0.66009486  0.15533325  1
  Rb  Rb2  1  0.40138410  0.38600127  0.34290528  1
  Rb  Rb3  1  0.58676976  0.64687600  0.40199551  1
  Rb  Rb4  1  0.38289979  0.42696386  0.58159993  1
  Rb  Rb5  1  0.60950452  0.69246025  0.63730797  1
  Rb  Rb6  1  0.36641757  0.34035944  0.85488013  1
  Rb  Rb7  1  0.55606930  0.64003524  0.91269304  1
  W  W8  1  0.96567054  0.48089239  0.99473088  1
  W  W9  1  0.50092107  0.02146367  0.00234156  1
  W  W10  1  0.98661278  0.47810285  0.24187812  1
  W  W11  1  0.50748475  0.01615350  0.25278445  1
  W  W12  1  0.99055980  0.97097949  0.12171309  1
  W  W13  1  0.51489867  0.01307076  0.49926601  1
  W  W14  1  0.97713637  0.00280225  0.75121927  1
  W  W15  1  0.99361978  0.96032887  0.36870691  1
  W  W16  1  0.01366353  0.00731326  0.88064403  1
  W  W17  1  0.00383578  0.49540457  0.75112984  1
  W  W18  1  0.49091763  0.99115423  0.74790722  1
  W  W19  1  0.00107593  0.97079669  0.61869770  1
  W  W20  1  0.99047942  0.47577286  0.49281529  1
  O  O21  1  0.08660727  0.72561660  0.18298681  1
  O  O22  1  0.57489918  0.11898289  0.03539672  1
  O  O23  1  0.28698989  0.32144483  0.23732917  1
  O  O24  1  0.27948042  0.95382207  0.08346886  1
  O  O25  1  0.71979005  0.08659920  0.17731456  1
  O  O26  1  0.75497585  0.72115125  0.02186813  1
  O  O27  1  0.40543141  0.88525785  0.23485494  1
  O  O28  1  0.60004985  0.08548401  0.28803314  1
  O  O29  1  0.08740600  0.71455640  0.43168326  1
  O  O30  1  0.91203595  0.27737872  0.07053670  1
  O  O31  1  0.29232356  0.31891008  0.48489055  1
  O  O32  1  0.04845433  0.04793556  0.67413255  1
  O  O33  1  0.28196134  0.94585670  0.33310493  1
  O  O34  1  0.94761069  0.82380702  0.09739109  1
  O  O35  1  0.74065551  0.09005684  0.42449500  1
  O  O36  1  0.93960610  0.41229506  0.19885350  1
  O  O37  1  0.73260076  0.69423764  0.27243968  1
  O  O38  1  0.42568661  0.91481269  0.46884094  1
  O  O39  1  0.07922682  0.67026265  0.67468662  1
  O  O40  1  0.91530606  0.25280627  0.31331045  1
  O  O41  1  0.59729094  0.09764317  0.53409431  1
  O  O42  1  0.31412351  0.30324390  0.73641935  1
  O  O43  1  0.11229486  0.07006489  0.91338264  1
  O  O44  1  0.05710734  0.68369853  0.76956178  1
  O  O45  1  0.29764388  0.91875923  0.57575910  1
  O  O46  1  0.95210196  0.79701187  0.34878390  1
  O  O47  1  0.93397458  0.38148455  0.45792604  1
  O  O48  1  0.69382572  0.04254980  0.67265664  1
  O  O49  1  0.72770088  0.69728512  0.52020223  1
  O  O50  1  0.31704359  0.93910786  0.73068400  1
  O  O51  1  0.68415204  0.05994117  0.76792612  1
  O  O52  1  0.07477386  0.69486469  0.92315422  1
  O  O53  1  0.92665552  0.27993384  0.57106145  1
  O  O54  1  0.27554373  0.30905738  0.98083934  1
  O  O55  1  0.32132902  0.92541780  0.82567295  1
  O  O56  1  0.95072859  0.84897666  0.58809723  1
  O  O57  1  0.69949490  0.68504556  0.76511793  1
  O  O58  1  0.70859267  0.08860736  0.92517305  1
  O  O59  1  0.94731440  0.31027033  0.73342011  1
  O  O60  1  0.42325237  0.84076853  0.99359873  1
  O  O61  1  0.94796563  0.31444086  0.82797655  1
  O  O62  1  0.95122929  0.95097349  0.82590539  1
  O  O63  1  0.85540897  0.40860068  0.96809269  1
