# generated using pymatgen
data_MnSiO3
_symmetry_space_group_name_H-M   'P 1'
_cell_length_a   10.27450558
_cell_length_b   10.27450508
_cell_length_c   10.27450510
_cell_angle_alpha   109.12427555
_cell_angle_beta   109.12427466
_cell_angle_gamma   110.16736576
_symmetry_Int_Tables_number   1
_chemical_formula_structural   MnSiO3
_chemical_formula_sum   'Mn16 Si16 O48'
_cell_volume   834.85815484
_cell_formula_units_Z   16
loop_
 _symmetry_equiv_pos_site_id
 _symmetry_equiv_pos_as_xyz
  1  'x, y, z'
loop_
 _atom_site_type_symbol
 _atom_site_label
 _atom_site_symmetry_multiplicity
 _atom_site_fract_x
 _atom_site_fract_y
 _atom_site_fract_z
 _atom_site_occupancy
  Mn  Mn0  1  0.63313392  0.26812056  0.88247958  1
  Mn  Mn1  1  0.12403224  0.87403224  0.25000000  1
  Mn  Mn2  1  0.76812056  0.38564099  0.63498664  1
  Mn  Mn3  1  0.88564099  0.75065435  0.61752042  1
  Mn  Mn4  1  0.37403224  0.62403224  0.75000000  1
  Mn  Mn5  1  0.25065435  0.13313392  0.86501336  1
  Mn  Mn6  1  0.00000000  0.50000000  0.50000000  1
  Mn  Mn7  1  0.00000000  0.50000000  0.00000000  1
  Mn  Mn8  1  0.00000000  0.00000000  0.50000000  1
  Mn  Mn9  1  0.50000000  0.50000000  0.00000000  1
  Mn  Mn10  1  0.74934565  0.86686608  0.13498664  1
  Mn  Mn11  1  0.62596776  0.37596776  0.25000000  1
  Mn  Mn12  1  0.11435901  0.24934565  0.38247958  1
  Mn  Mn13  1  0.23187944  0.61435901  0.36501336  1
  Mn  Mn14  1  0.87596776  0.12596776  0.75000000  1
  Mn  Mn15  1  0.36686608  0.73187944  0.11752042  1
  O  O16  1  0.03084484  0.63241688  0.23125665  1
  O  O17  1  0.08354525  0.91635084  0.88647827  1
  O  O18  1  0.99448525  0.62478827  0.71045521  1
  O  O19  1  0.14367724  0.73541252  0.03231206  1
  O  O20  1  0.12478827  0.91433306  0.63030302  1
  O  O21  1  0.38800254  0.00125359  0.31899833  1
  O  O22  1  0.31631048  0.82251257  0.91178884  1
  O  O23  1  0.41635084  0.02987256  0.83280558  1
  O  O24  1  0.13241688  0.40116022  0.60157204  1
  O  O25  1  0.23541252  0.70310046  0.59173528  1
  O  O26  1  0.29958818  0.53084484  0.89842796  1
  O  O27  1  0.32251257  0.91072373  0.50620209  1
  O  O28  1  0.90116022  0.79958818  0.26874335  1
  O  O29  1  0.56900421  0.88800254  0.88674895  1
  O  O30  1  0.20310046  0.11136518  0.46768794  1
  O  O31  1  0.41433306  0.28403004  0.78954479  1
  O  O32  1  0.50125359  0.68225526  0.61325105  1
  O  O33  1  0.41072373  0.40452164  0.58821116  1
  O  O34  1  0.61136518  0.64367724  0.90826472  1
  O  O35  1  0.18225526  0.06900421  0.18100167  1
  O  O36  1  0.52987256  0.19706698  0.61352173  1
  O  O37  1  0.69706698  0.58354525  0.66719442  1
  O  O38  1  0.90452164  0.81631048  0.99379791  1
  O  O39  1  0.21596996  0.50551475  0.13030302  1
  O  O40  1  0.78403004  0.49448525  0.86969698  1
  O  O41  1  0.09547836  0.18368952  0.00620209  1
  O  O42  1  0.30293302  0.41645475  0.33280558  1
  O  O43  1  0.47012744  0.80293302  0.38647827  1
  O  O44  1  0.81774474  0.93099579  0.81899833  1
  O  O45  1  0.38863482  0.35632276  0.09173528  1
  O  O46  1  0.58927627  0.59547836  0.41178884  1
  O  O47  1  0.49874641  0.31774474  0.38674895  1
  O  O48  1  0.58566694  0.71596996  0.21045521  1
  O  O49  1  0.79689954  0.88863482  0.53231206  1
  O  O50  1  0.43099579  0.11199746  0.11325105  1
  O  O51  1  0.09883978  0.20041182  0.73125665  1
  O  O52  1  0.67748743  0.08927627  0.49379791  1
  O  O53  1  0.70041182  0.46915516  0.10157204  1
  O  O54  1  0.76458748  0.29689954  0.40826472  1
  O  O55  1  0.86758312  0.59883978  0.39842796  1
  O  O56  1  0.58364916  0.97012744  0.16719442  1
  O  O57  1  0.68368952  0.17748743  0.08821116  1
  O  O58  1  0.61199746  0.99874641  0.68100167  1
  O  O59  1  0.87521173  0.08566694  0.36969698  1
  O  O60  1  0.85632276  0.26458748  0.96768794  1
  O  O61  1  0.00551475  0.37521173  0.28954479  1
  O  O62  1  0.91645475  0.08364916  0.11352173  1
  O  O63  1  0.96915516  0.36758312  0.76874335  1
  Si  Si64  1  0.13341973  0.77416224  0.88770064  1
  Si  Si65  1  0.27416224  0.88646160  0.64074252  1
  Si  Si66  1  0.38646160  0.24571908  0.61229936  1
  Si  Si67  1  0.74571908  0.63341973  0.85925748  1
  Si  Si68  1  0.00000000  0.00000000  0.00000000  1
  Si  Si69  1  0.25428092  0.36658027  0.14074252  1
  Si  Si70  1  0.50000000  0.50000000  0.50000000  1
  Si  Si71  1  0.61353840  0.75428092  0.38770064  1
  Si  Si72  1  0.37500000  0.12500000  0.25000000  1
  Si  Si73  1  0.50000000  0.00000000  0.50000000  1
  Si  Si74  1  0.50000000  0.00000000  0.00000000  1
  Si  Si75  1  0.72583776  0.11353840  0.35925748  1
  Si  Si76  1  0.87500000  0.62500000  0.25000000  1
  Si  Si77  1  0.62500000  0.87500000  0.75000000  1
  Si  Si78  1  0.86658027  0.22583776  0.11229936  1
  Si  Si79  1  0.12500000  0.37500000  0.75000000  1
