# generated using pymatgen
data_V4O9
_symmetry_space_group_name_H-M   'P 1'
_cell_length_a   6.93009207
_cell_length_b   6.93009207
_cell_length_c   14.95899650
_cell_angle_alpha   90.00000000
_cell_angle_beta   90.00000000
_cell_angle_gamma   101.79945048
_symmetry_Int_Tables_number   1
_chemical_formula_structural   V4O9
_chemical_formula_sum   'V16 O36'
_cell_volume   703.24264613
_cell_formula_units_Z   4
loop_
 _symmetry_equiv_pos_site_id
 _symmetry_equiv_pos_as_xyz
  1  'x, y, z'
loop_
 _atom_site_type_symbol
 _atom_site_label
 _atom_site_symmetry_multiplicity
 _atom_site_fract_x
 _atom_site_fract_y
 _atom_site_fract_z
 _atom_site_occupancy
  V  V0  1  0.68554196  0.68554196  0.37246002  1
  V  V1  1  0.31445804  0.31445804  0.62753998  1
  V  V2  1  0.68554196  0.68554196  0.12753998  1
  V  V3  1  0.31445804  0.31445804  0.87246002  1
  V  V4  1  0.32052429  0.32052429  0.37252172  1
  V  V5  1  0.67947571  0.67947571  0.62747828  1
  V  V6  1  0.32052429  0.32052429  0.12747828  1
  V  V7  1  0.67947571  0.67947571  0.87252172  1
  V  V8  1  0.79182491  0.21392150  0.38398672  1
  V  V9  1  0.78607850  0.20817509  0.61601328  1
  V  V10  1  0.79182491  0.21392150  0.11601328  1
  V  V11  1  0.78607850  0.20817509  0.88398672  1
  V  V12  1  0.20817509  0.78607850  0.61601328  1
  V  V13  1  0.21392150  0.79182491  0.38398672  1
  V  V14  1  0.20817509  0.78607850  0.88398672  1
  V  V15  1  0.21392150  0.79182491  0.11601328  1
  O  O16  1  0.33311457  0.33311457  0.25000000  1
  O  O17  1  0.66688543  0.66688543  0.75000000  1
  O  O18  1  0.67621326  0.67621326  0.25000000  1
  O  O19  1  0.32378674  0.32378674  0.75000000  1
  O  O20  1  0.03218233  0.30050464  0.35645254  1
  O  O21  1  0.69949536  0.96781767  0.64354746  1
  O  O22  1  0.03218233  0.30050464  0.14354746  1
  O  O23  1  0.69949536  0.96781767  0.85645254  1
  O  O24  1  0.96781767  0.69949536  0.64354746  1
  O  O25  1  0.30050464  0.03218233  0.35645254  1
  O  O26  1  0.96781767  0.69949536  0.85645254  1
  O  O27  1  0.30050464  0.03218233  0.14354746  1
  O  O28  1  0.97443886  0.70505710  0.35737688  1
  O  O29  1  0.29494290  0.02556114  0.64262312  1
  O  O30  1  0.97443886  0.70505710  0.14262312  1
  O  O31  1  0.29494290  0.02556114  0.85737688  1
  O  O32  1  0.02556114  0.29494290  0.64262312  1
  O  O33  1  0.70505710  0.97443886  0.35737688  1
  O  O34  1  0.02556114  0.29494290  0.85737688  1
  O  O35  1  0.70505710  0.97443886  0.14262312  1
  O  O36  1  0.79898201  0.20101799  0.50000000  1
  O  O37  1  0.79898201  0.20101799  -0.00000000  1
  O  O38  1  0.20101799  0.79898201  0.50000000  1
  O  O39  1  0.20101799  0.79898201  0.00000000  1
  O  O40  1  0.31113773  0.31113773  0.49999698  1
  O  O41  1  0.68886227  0.68886227  0.50000302  1
  O  O42  1  0.31113773  0.31113773  0.00000302  1
  O  O43  1  0.68886227  0.68886227  -0.00000302  1
  O  O44  1  0.62571779  0.38015145  0.36813248  1
  O  O45  1  0.61984855  0.37428221  0.63186752  1
  O  O46  1  0.62571779  0.38015145  0.13186752  1
  O  O47  1  0.61984855  0.37428221  0.86813248  1
  O  O48  1  0.37428221  0.61984855  0.63186752  1
  O  O49  1  0.38015145  0.62571779  0.36813248  1
  O  O50  1  0.37428221  0.61984855  0.86813248  1
  O  O51  1  0.38015145  0.62571779  0.13186752  1
