# generated using pymatgen
data_HS3N
_symmetry_space_group_name_H-M   'P 1'
_cell_length_a   8.53720235
_cell_length_b   13.13900666
_cell_length_c   14.62223887
_cell_angle_alpha   90.00000000
_cell_angle_beta   90.00000000
_cell_angle_gamma   90.00000000
_symmetry_Int_Tables_number   1
_chemical_formula_structural   HS3N
_chemical_formula_sum   'H16 S48 N16'
_cell_volume   1640.18177662
_cell_formula_units_Z   16
loop_
 _symmetry_equiv_pos_site_id
 _symmetry_equiv_pos_as_xyz
  1  'x, y, z'
loop_
 _atom_site_type_symbol
 _atom_site_label
 _atom_site_symmetry_multiplicity
 _atom_site_fract_x
 _atom_site_fract_y
 _atom_site_fract_z
 _atom_site_occupancy
  H  H0  1  0.62994691  0.06257010  0.16968067  1
  H  H1  1  0.12994691  0.43742990  0.83031933  1
  H  H2  1  0.37005309  0.56257010  0.33031933  1
  H  H3  1  0.87005309  0.93742990  0.66968067  1
  H  H4  1  0.37005309  0.93742990  0.83031933  1
  H  H5  1  0.87005309  0.56257010  0.16968067  1
  H  H6  1  0.62994691  0.43742990  0.66968067  1
  H  H7  1  0.12994691  0.06257010  0.33031933  1
  H  H8  1  0.79279700  0.23049265  0.00710432  1
  H  H9  1  0.29279700  0.26950735  0.99289568  1
  H  H10  1  0.20720300  0.73049265  0.49289568  1
  H  H11  1  0.70720300  0.76950735  0.50710432  1
  H  H12  1  0.20720300  0.76950735  0.99289568  1
  H  H13  1  0.70720300  0.73049265  0.00710432  1
  H  H14  1  0.79279700  0.26950735  0.50710432  1
  H  H15  1  0.29279700  0.23049265  0.49289568  1
  S  S16  1  0.59125625  0.34998385  0.99074378  1
  S  S17  1  0.09125625  0.15001615  0.00925622  1
  S  S18  1  0.40874375  0.84998385  0.50925622  1
  S  S19  1  0.90874375  0.65001615  0.49074378  1
  S  S20  1  0.40874375  0.65001615  0.00925622  1
  S  S21  1  0.90874375  0.84998385  0.99074378  1
  S  S22  1  0.59125625  0.15001615  0.49074378  1
  S  S23  1  0.09125625  0.34998385  0.50925622  1
  S  S24  1  0.39581494  0.14536767  0.20259481  1
  S  S25  1  0.89581494  0.35463233  0.79740519  1
  S  S26  1  0.60418506  0.64536767  0.29740519  1
  S  S27  1  0.10418506  0.85463233  0.70259481  1
  S  S28  1  0.60418506  0.85463233  0.79740519  1
  S  S29  1  0.10418506  0.64536767  0.20259481  1
  S  S30  1  0.39581494  0.35463233  0.70259481  1
  S  S31  1  0.89581494  0.14536767  0.29740519  1
  S  S32  1  0.59558416  0.43384074  0.11055058  1
  S  S33  1  0.09558416  0.06615926  0.88944942  1
  S  S34  1  0.40441584  0.93384074  0.38944942  1
  S  S35  1  0.90441584  0.56615926  0.61055058  1
  S  S36  1  0.40441584  0.56615926  0.88944942  1
  S  S37  1  0.90441584  0.93384074  0.11055058  1
  S  S38  1  0.59558416  0.06615926  0.61055058  1
  S  S39  1  0.09558416  0.43384074  0.38944942  1
  S  S40  1  0.40086380  0.39940868  0.18935597  1
  S  S41  1  0.90086380  0.10059132  0.81064403  1
  S  S42  1  0.59913620  0.89940868  0.31064403  1
  S  S43  1  0.09913620  0.60059132  0.68935597  1
  S  S44  1  0.59913620  0.60059132  0.81064403  1
  S  S45  1  0.09913620  0.89940868  0.18935597  1
  S  S46  1  0.40086380  0.10059132  0.68935597  1
  S  S47  1  0.90086380  0.39940868  0.31064403  1
  S  S48  1  0.46036059  0.27583626  0.27080678  1
  S  S49  1  0.96036059  0.22416374  0.72919322  1
  S  S50  1  0.53963941  0.77583626  0.22919322  1
  S  S51  1  0.03963941  0.72416374  0.77080678  1
  S  S52  1  0.53963941  0.72416374  0.72919322  1
  S  S53  1  0.03963941  0.77583626  0.27080678  1
  S  S54  1  0.46036059  0.22416374  0.77080678  1
  S  S55  1  0.96036059  0.27583626  0.22919322  1
  S  S56  1  0.56822259  0.12800609  0.02470042  1
  S  S57  1  0.06822259  0.37199391  0.97529958  1
  S  S58  1  0.43177741  0.62800609  0.47529958  1
  S  S59  1  0.93177741  0.87199391  0.52470042  1
  S  S60  1  0.43177741  0.87199391  0.97529958  1
  S  S61  1  0.93177741  0.62800609  0.02470042  1
  S  S62  1  0.56822259  0.37199391  0.52470042  1
  S  S63  1  0.06822259  0.12800609  0.47529958  1
  N  N64  1  0.54471134  0.10365330  0.13704755  1
  N  N65  1  0.04471134  0.39634670  0.86295245  1
  N  N66  1  0.45528866  0.60365330  0.36295245  1
  N  N67  1  0.95528866  0.89634670  0.63704755  1
  N  N68  1  0.45528866  0.89634670  0.86295245  1
  N  N69  1  0.95528866  0.60365330  0.13704755  1
  N  N70  1  0.54471134  0.39634670  0.63704755  1
  N  N71  1  0.04471134  0.10365330  0.36295245  1
  N  N72  1  0.67268647  0.23482177  0.00808394  1
  N  N73  1  0.17268647  0.26517823  0.99191606  1
  N  N74  1  0.32731353  0.73482177  0.49191606  1
  N  N75  1  0.82731353  0.76517823  0.50808394  1
  N  N76  1  0.32731353  0.76517823  0.99191606  1
  N  N77  1  0.82731353  0.73482177  0.00808394  1
  N  N78  1  0.67268647  0.26517823  0.50808394  1
  N  N79  1  0.17268647  0.23482177  0.49191606  1
