# generated using pymatgen
data_K4Mn2H16S4O23
_symmetry_space_group_name_H-M   'P 1'
_cell_length_a   8.10461930
_cell_length_b   7.95087640
_cell_length_c   9.75678225
_cell_angle_alpha   86.59822018
_cell_angle_beta   86.27124845
_cell_angle_gamma   80.79852096
_symmetry_Int_Tables_number   1
_chemical_formula_structural   K4Mn2H16S4O23
_chemical_formula_sum   'K4 Mn2 H16 S4 O23'
_cell_volume   618.54680209
_cell_formula_units_Z   1
loop_
 _symmetry_equiv_pos_site_id
 _symmetry_equiv_pos_as_xyz
  1  'x, y, z'
loop_
 _atom_site_type_symbol
 _atom_site_label
 _atom_site_symmetry_multiplicity
 _atom_site_fract_x
 _atom_site_fract_y
 _atom_site_fract_z
 _atom_site_occupancy
  K  K0  1  0.09097745  0.60748519  0.25036136  1
  K  K1  1  0.58024808  0.09009920  0.27285547  1
  K  K2  1  0.40801861  0.91160401  0.74386065  1
  K  K3  1  0.89960995  0.41828699  0.77150834  1
  Mn  Mn4  1  0.99843195  0.00301335  0.00730478  1
  Mn  Mn5  1  0.49547882  0.49412773  0.49946804  1
  H  H6  1  0.09400671  0.02844407  0.30075642  1
  H  H7  1  0.07791182  0.07886307  0.71577564  1
  H  H8  1  0.17098311  0.66241160  0.61951042  1
  H  H9  1  0.26311407  0.55989940  0.74103484  1
  H  H10  1  0.23333056  0.65531956  0.96741335  1
  H  H11  1  0.34589373  0.77122805  0.03440000  1
  H  H12  1  0.33568995  0.83277519  0.37872299  1
  H  H13  1  0.44160894  0.73446154  0.26038106  1
  H  H14  1  0.56402927  0.26855893  0.74222862  1
  H  H15  1  0.66468247  0.17360496  0.62134138  1
  H  H16  1  0.65193084  0.22528334  0.97117500  1
  H  H17  1  0.76029191  0.34201338  0.04250638  1
  H  H18  1  0.74401869  0.44276347  0.25720532  1
  H  H19  1  0.81791465  0.33897249  0.38696641  1
  H  H20  1  0.92998742  0.93536865  0.29311048  1
  H  H21  1  0.95611028  0.94110344  0.69961348  1
  S  S22  1  0.23275156  0.26012996  0.38947300  1
  S  S23  1  0.26132979  0.26743720  0.88566625  1
  S  S24  1  0.73777243  0.73838866  0.11156202  1
  S  S25  1  0.75458688  0.75643225  0.60619765  1
  O  O26  1  0.00392969  0.00374310  0.23977969  1
  O  O27  1  0.16875172  0.17152187  0.99215294  1
  O  O28  1  0.21521155  0.22861179  0.74655992  1
  O  O29  1  0.24333592  0.06207721  0.39797520  1
  O  O30  1  0.21185175  0.45514818  0.90211464  1
  O  O31  1  0.28213939  0.31118021  0.24239346  1
  O  O32  1  0.23378190  0.77103764  0.00058186  1
  O  O33  1  0.38258060  0.28921108  0.47271616  1
  O  O34  1  0.28390023  0.62818747  0.65420739  1
  O  O35  1  0.36942558  0.71619310  0.34449277  1
  O  O36  1  0.44557954  0.21468871  0.89668952  1
  O  O37  1  0.55403553  0.78725700  0.09533881  1
  O  O38  1  0.64047220  0.28746273  0.66069013  1
  O  O39  1  0.71483633  0.36882733  0.33860824  1
  O  O40  1  0.76314939  0.22779221  0.00570260  1
  O  O41  1  0.66577104  0.65356550  0.52029941  1
  O  O42  1  0.70715321  0.71836679  0.75284900  1
  O  O43  1  0.79066659  0.54937531  0.09926428  1
  O  O44  1  0.70305615  0.94147527  0.56871447  1
  O  O45  1  0.77771517  0.78435003  0.24936732  1
  O  O46  1  0.83377286  0.82985888  0.00366719  1
  O  O47  1  0.93956933  0.70656612  0.57870534  1
  O  O48  1  0.00400439  0.00622677  0.76543029  1
