# generated using pymatgen
data_ZnP2H6O5
_symmetry_space_group_name_H-M   'P 1'
_cell_length_a   7.81772185
_cell_length_b   7.50053447
_cell_length_c   10.58903201
_cell_angle_alpha   90.00000000
_cell_angle_beta   104.31843402
_cell_angle_gamma   90.00000000
_symmetry_Int_Tables_number   1
_chemical_formula_structural   ZnP2H6O5
_chemical_formula_sum   'Zn4 P8 H24 O20'
_cell_volume   601.62222905
_cell_formula_units_Z   4
loop_
 _symmetry_equiv_pos_site_id
 _symmetry_equiv_pos_as_xyz
  1  'x, y, z'
loop_
 _atom_site_type_symbol
 _atom_site_label
 _atom_site_symmetry_multiplicity
 _atom_site_fract_x
 _atom_site_fract_y
 _atom_site_fract_z
 _atom_site_occupancy
  Zn  Zn0  1  0.19375852  0.46062399  0.60317561  1
  Zn  Zn1  1  0.80624148  0.96062399  0.89682439  1
  Zn  Zn2  1  0.80624148  0.53937601  0.39682439  1
  Zn  Zn3  1  0.19375852  0.03937601  0.10317561  1
  P  P4  1  0.46871366  0.12385559  0.68742511  1
  P  P5  1  0.53128634  0.62385559  0.81257489  1
  P  P6  1  0.53128634  0.87614441  0.31257489  1
  P  P7  1  0.46871366  0.37614441  0.18742511  1
  P  P8  1  0.03851338  0.31406725  0.84530258  1
  P  P9  1  0.96148662  0.81406725  0.65469742  1
  P  P10  1  0.96148662  0.68593275  0.15469742  1
  P  P11  1  0.03851338  0.18593275  0.34530258  1
  H  H12  1  0.40623652  0.65731080  0.46531168  1
  H  H13  1  0.59376348  0.15731080  0.03468832  1
  H  H14  1  0.59376348  0.34268920  0.53468832  1
  H  H15  1  0.40623652  0.84268920  0.96531168  1
  H  H16  1  0.20234051  0.68096673  0.40329510  1
  H  H17  1  0.79765949  0.18096673  0.09670490  1
  H  H18  1  0.79765949  0.31903327  0.59670490  1
  H  H19  1  0.20234051  0.81903327  0.90329510  1
  H  H20  1  0.39303808  0.97747775  0.60757020  1
  H  H21  1  0.60696192  0.47747775  0.89242980  1
  H  H22  1  0.60696192  0.02252225  0.39242980  1
  H  H23  1  0.39303808  0.52252225  0.10757020  1
  H  H24  1  0.38999461  0.11637013  0.79406572  1
  H  H25  1  0.61000539  0.61637013  0.70593428  1
  H  H26  1  0.61000539  0.88362987  0.20593428  1
  H  H27  1  0.38999461  0.38362987  0.29406572  1
  H  H28  1  0.88159768  0.41337692  0.83461623  1
  H  H29  1  0.11840232  0.91337692  0.66538377  1
  H  H30  1  0.11840232  0.58662308  0.16538377  1
  H  H31  1  0.88159768  0.08662308  0.33461623  1
  H  H32  1  0.17258904  0.42389602  0.92015951  1
  H  H33  1  0.82741096  0.92389602  0.57984049  1
  H  H34  1  0.82741096  0.57610398  0.07984049  1
  H  H35  1  0.17258904  0.07610398  0.42015951  1
  O  O36  1  0.41210701  0.29635648  0.60918205  1
  O  O37  1  0.58789299  0.79635648  0.89081795  1
  O  O38  1  0.58789299  0.70364352  0.39081795  1
  O  O39  1  0.41210701  0.20364352  0.10918205  1
  O  O40  1  0.66800525  0.09992015  0.73350398  1
  O  O41  1  0.33199475  0.59992015  0.76649602  1
  O  O42  1  0.33199475  0.90007985  0.26649602  1
  O  O43  1  0.66800525  0.40007985  0.23350398  1
  O  O44  1  0.06728548  0.28650356  0.70867334  1
  O  O45  1  0.93271452  0.78650356  0.79132666  1
  O  O46  1  0.93271452  0.71349644  0.29132666  1
  O  O47  1  0.06728548  0.21349644  0.20867334  1
  O  O48  1  0.02850072  0.14421745  0.92455634  1
  O  O49  1  0.97149928  0.64421745  0.57544366  1
  O  O50  1  0.97149928  0.85578255  0.07544366  1
  O  O51  1  0.02850072  0.35578255  0.42455634  1
  O  O52  1  0.28861307  0.64860123  0.48441729  1
  O  O53  1  0.71138693  0.14860123  0.01558271  1
  O  O54  1  0.71138693  0.35139877  0.51558271  1
  O  O55  1  0.28861307  0.85139877  0.98441729  1
