# generated using pymatgen
data_Fe9(PO4)8
_symmetry_space_group_name_H-M   'P 1'
_cell_length_a   9.35225793
_cell_length_b   8.94020332
_cell_length_c   8.82179982
_cell_angle_alpha   101.00497530
_cell_angle_beta   101.80784967
_cell_angle_gamma   111.46221939
_symmetry_Int_Tables_number   1
_chemical_formula_structural   Fe9(PO4)8
_chemical_formula_sum   'Fe9 P8 O32'
_cell_volume   642.69791769
_cell_formula_units_Z   1
loop_
 _symmetry_equiv_pos_site_id
 _symmetry_equiv_pos_as_xyz
  1  'x, y, z'
loop_
 _atom_site_type_symbol
 _atom_site_label
 _atom_site_symmetry_multiplicity
 _atom_site_fract_x
 _atom_site_fract_y
 _atom_site_fract_z
 _atom_site_occupancy
  Fe  Fe0  1  0.93224775  0.73464834  0.20259083  1
  Fe  Fe1  1  0.42970214  0.85711400  0.71379065  1
  Fe  Fe2  1  0.54093671  0.29583466  0.68365955  1
  Fe  Fe3  1  0.50000000  0.50000000  0.00000000  1
  Fe  Fe4  1  0.57029786  0.14288600  0.28620935  1
  Fe  Fe5  1  0.45906329  0.70416534  0.31634045  1
  Fe  Fe6  1  0.00000000  0.50000000  0.50000000  1
  Fe  Fe7  1  0.06775225  0.26535166  0.79740917  1
  Fe  Fe8  1  0.00000000  0.00000000  0.00000000  1
  P  P9  1  0.70071994  0.03755583  0.60336557  1
  P  P10  1  0.09888472  0.38053503  0.16412169  1
  P  P11  1  0.90111528  0.61946497  0.83587831  1
  P  P12  1  0.72335485  0.54440854  0.33383922  1
  P  P13  1  0.65272866  0.87685854  0.06195184  1
  P  P14  1  0.27664515  0.45559146  0.66616078  1
  P  P15  1  0.29928006  0.96244417  0.39663443  1
  P  P16  1  0.34727134  0.12314146  0.93804816  1
  O  O17  1  0.71668865  0.50165719  0.80224214  1
  O  O18  1  0.58286232  0.82051813  0.87601787  1
  O  O19  1  0.82177462  0.87248760  0.10762846  1
  O  O20  1  0.45456200  0.25748726  0.86865464  1
  O  O21  1  0.36818552  0.86885429  0.28352203  1
  O  O22  1  0.92082935  0.79193995  0.81678579  1
  O  O23  1  0.65849318  0.05044407  0.13158099  1
  O  O24  1  0.98314693  0.64882849  0.01995929  1
  O  O25  1  0.13111154  0.93749301  0.30412308  1
  O  O26  1  0.70703774  0.08972940  0.44875805  1
  O  O27  1  0.40973305  0.41594512  0.62136834  1
  O  O28  1  0.29242374  0.47238234  0.85069360  1
  O  O29  1  0.17822538  0.12751240  0.89237154  1
  O  O30  1  0.03044516  0.47120916  0.27422851  1
  O  O31  1  0.63181448  0.13114571  0.71647797  1
  O  O32  1  0.86888846  0.06250699  0.69587692  1
  O  O33  1  0.28331135  0.49834281  0.19775786  1
  O  O34  1  0.70757626  0.52761766  0.14930640  1
  O  O35  1  0.01685307  0.35117151  0.98004071  1
  O  O36  1  0.07917065  0.20806005  0.18321421  1
  O  O37  1  0.42922507  0.15098613  0.44357981  1
  O  O38  1  0.34150682  0.94955593  0.86841901  1
  O  O39  1  0.96955484  0.52879084  0.72577149  1
  O  O40  1  0.10112097  0.31589121  0.58602750  1
  O  O41  1  0.57077493  0.84901387  0.55642019  1
  O  O42  1  0.41713768  0.17948187  0.12398213  1
  O  O43  1  0.54543800  0.74251274  0.13134536  1
  O  O44  1  0.59026695  0.58405488  0.37863166  1
  O  O45  1  0.89887903  0.68410879  0.41397250  1
  O  O46  1  0.27499670  0.61565023  0.62078137  1
  O  O47  1  0.72500330  0.38434977  0.37921863  1
  O  O48  1  0.29296226  0.91027060  0.55124195  1
