# generated using pymatgen
data_LiTiP2O7
_symmetry_space_group_name_H-M   'P 1'
_cell_length_a   5.30787928
_cell_length_b   5.30787928
_cell_length_c   4.61095751
_cell_angle_alpha   81.41715986
_cell_angle_beta   98.58284014
_cell_angle_gamma   76.95823468
_symmetry_Int_Tables_number   1
_chemical_formula_structural   LiTiP2O7
_chemical_formula_sum   'Li1 Ti1 P2 O7'
_cell_volume   122.86228426
_cell_formula_units_Z   1
loop_
 _symmetry_equiv_pos_site_id
 _symmetry_equiv_pos_as_xyz
  1  'x, y, z'
loop_
 _atom_site_type_symbol
 _atom_site_label
 _atom_site_symmetry_multiplicity
 _atom_site_fract_x
 _atom_site_fract_y
 _atom_site_fract_z
 _atom_site_occupancy
  Li  Li0  1  0.74720542  0.74720542  0.00000000  1
  Ti  Ti1  1  0.12566950  0.12566950  0.00000000  1
  P  P2  1  0.25427110  0.66750308  0.58972246  1
  P  P3  1  0.66750308  0.25427110  0.41027754  1
  O  O4  1  0.07350768  0.81722716  0.29272393  1
  O  O5  1  0.34653130  0.84032348  0.80180220  1
  O  O6  1  0.13186174  0.46342124  0.74325844  1
  O  O7  1  0.52732830  0.52732830  0.50000000  1
  O  O8  1  0.46342124  0.13186174  0.25674156  1
  O  O9  1  0.84032348  0.34653130  0.19819780  1
  O  O10  1  0.81722716  0.07350768  0.70727607  1
