# generated using pymatgen
data_CaTb2O4
_symmetry_space_group_name_H-M   'P 1'
_cell_length_a   9.99029000
_cell_length_b   11.86285247
_cell_length_c   3.40273326
_cell_angle_alpha   90.00000000
_cell_angle_beta   90.00000000
_cell_angle_gamma   90.00000000
_symmetry_Int_Tables_number   1
_chemical_formula_structural   CaTb2O4
_chemical_formula_sum   'Ca4 Tb8 O16'
_cell_volume   403.26927153
_cell_formula_units_Z   4
loop_
 _symmetry_equiv_pos_site_id
 _symmetry_equiv_pos_as_xyz
  1  'x, y, z'
loop_
 _atom_site_type_symbol
 _atom_site_label
 _atom_site_symmetry_multiplicity
 _atom_site_fract_x
 _atom_site_fract_y
 _atom_site_fract_z
 _atom_site_occupancy
  Tb  Tb0  1  0.07837688  0.61150265  0.75000000  1
  Tb  Tb1  1  0.07859371  0.11373226  0.75000000  1
  Tb  Tb2  1  0.42140629  0.61373226  0.25000000  1
  Tb  Tb3  1  0.42162312  0.11150265  0.25000000  1
  Tb  Tb4  1  0.57837688  0.88849735  0.75000000  1
  Tb  Tb5  1  0.57859371  0.38626774  0.75000000  1
  Tb  Tb6  1  0.92140629  0.88626774  0.25000000  1
  Tb  Tb7  1  0.92162312  0.38849735  0.25000000  1
  Ca  Ca8  1  0.24974163  0.35120505  0.75000000  1
  Ca  Ca9  1  0.25025837  0.85120505  0.25000000  1
  Ca  Ca10  1  0.74974163  0.14879495  0.75000000  1
  Ca  Ca11  1  0.75025837  0.64879495  0.25000000  1
  O  O12  1  0.02045503  0.71772065  0.25000000  1
  O  O13  1  0.07821645  0.92059467  0.75000000  1
  O  O14  1  0.13280216  0.47628960  0.25000000  1
  O  O15  1  0.21105121  0.18733991  0.25000000  1
  O  O16  1  0.28894879  0.68733991  0.75000000  1
  O  O17  1  0.36719784  0.97628960  0.75000000  1
  O  O18  1  0.42178355  0.42059467  0.25000000  1
  O  O19  1  0.47954497  0.21772065  0.75000000  1
  O  O20  1  0.52045503  0.78227935  0.25000000  1
  O  O21  1  0.57821645  0.57940533  0.75000000  1
  O  O22  1  0.63280216  0.02371040  0.25000000  1
  O  O23  1  0.71105121  0.31266009  0.25000000  1
  O  O24  1  0.78894879  0.81266009  0.75000000  1
  O  O25  1  0.86719784  0.52371040  0.75000000  1
  O  O26  1  0.92178355  0.07940533  0.25000000  1
  O  O27  1  0.97954497  0.28227935  0.75000000  1
