# generated using pymatgen
data_Ca3(PO4)2
_symmetry_space_group_name_H-M   'P 1'
_cell_length_a   5.27185301
_cell_length_b   5.62171063
_cell_length_c   7.23381360
_cell_angle_alpha   89.46240596
_cell_angle_beta   90.29414027
_cell_angle_gamma   122.21931206
_symmetry_Int_Tables_number   1
_chemical_formula_structural   Ca3(PO4)2
_chemical_formula_sum   'Ca3 P2 O8'
_cell_volume   181.36658200
_cell_formula_units_Z   1
loop_
 _symmetry_equiv_pos_site_id
 _symmetry_equiv_pos_as_xyz
  1  'x, y, z'
loop_
 _atom_site_type_symbol
 _atom_site_label
 _atom_site_symmetry_multiplicity
 _atom_site_fract_x
 _atom_site_fract_y
 _atom_site_fract_z
 _atom_site_occupancy
  Ca  Ca0  1  0.37652428  0.68840582  0.74996832  1
  Ca  Ca1  1  0.01629839  0.00297760  0.02303062  1
  Ca  Ca2  1  0.01633943  0.01340980  0.47700929  1
  P  P3  1  0.30292695  0.65148251  0.25004956  1
  P  P4  1  0.69460404  0.34726906  0.74984544  1
  O  O5  1  0.10339233  0.77793584  0.25599541  1
  O  O6  1  0.10331239  0.32550614  0.24399026  1
  O  O7  1  0.49540998  0.75953376  0.06947467  1
  O  O8  1  0.49538446  0.73583289  0.43043431  1
  O  O9  1  0.49865508  0.22981765  0.57855006  1
  O  O10  1  0.49837876  0.26845831  0.92160373  1
  O  O11  1  0.91091412  0.68066301  0.74160693  1
  O  O12  1  0.91127080  0.23061160  0.75844140  1
