# generated using pymatgen
data_K3H8RhC4(ClO6)2
_symmetry_space_group_name_H-M   'P 1'
_cell_length_a   8.34788251
_cell_length_b   8.34788251
_cell_length_c   6.44823292
_cell_angle_alpha   71.67254305
_cell_angle_beta   71.67254305
_cell_angle_gamma   91.80279071
_symmetry_Int_Tables_number   1
_chemical_formula_structural   K3H8RhC4(ClO6)2
_chemical_formula_sum   'K3 H8 Rh1 C4 Cl2 O12'
_cell_volume   400.66962828
_cell_formula_units_Z   1
loop_
 _symmetry_equiv_pos_site_id
 _symmetry_equiv_pos_as_xyz
  1  'x, y, z'
loop_
 _atom_site_type_symbol
 _atom_site_label
 _atom_site_symmetry_multiplicity
 _atom_site_fract_x
 _atom_site_fract_y
 _atom_site_fract_z
 _atom_site_occupancy
  K  K0  1  0.50000000  0.50000000  0.00000000  1
  K  K1  1  0.23078551  0.76921449  0.50000000  1
  K  K2  1  0.76921449  0.23078551  0.50000000  1
  H  H3  1  0.12693870  0.45438907  0.02152795  1
  H  H4  1  0.45438907  0.12693870  0.02152795  1
  H  H5  1  0.62282710  0.13026833  0.07653682  1
  H  H6  1  0.13026833  0.62282710  0.07653682  1
  H  H7  1  0.37717290  0.86973167  0.92346318  1
  H  H8  1  0.86973167  0.37717290  0.92346318  1
  H  H9  1  0.54561093  0.87306130  0.97847205  1
  H  H10  1  0.87306130  0.54561093  0.97847205  1
  Rh  Rh11  1  0.00000000  0.00000000  0.00000000  1
  C  C12  1  0.29722086  0.16823756  0.60770867  1
  C  C13  1  0.16823756  0.29722086  0.60770867  1
  C  C14  1  0.70277914  0.83176244  0.39229133  1
  C  C15  1  0.83176244  0.70277914  0.39229133  1
  Cl  Cl16  1  0.13859721  0.13859721  0.17932611  1
  Cl  Cl17  1  0.86140279  0.86140279  0.82067389  1
  O  O18  1  0.42700597  0.81817016  0.04443333  1
  O  O19  1  0.81817016  0.42700597  0.04443333  1
  O  O20  1  0.21272354  0.44512787  0.46773178  1
  O  O21  1  0.44512787  0.21272354  0.46773178  1
  O  O22  1  0.23736056  0.01484083  0.75996173  1
  O  O23  1  0.01484083  0.23736056  0.75996173  1
  O  O24  1  0.76263944  0.98515917  0.24003827  1
  O  O25  1  0.98515917  0.76263944  0.24003827  1
  O  O26  1  0.55487213  0.78727646  0.53226822  1
  O  O27  1  0.78727646  0.55487213  0.53226822  1
  O  O28  1  0.18182984  0.57299403  0.95556667  1
  O  O29  1  0.57299403  0.18182984  0.95556667  1
