# generated using pymatgen
data_BaCaI4
_symmetry_space_group_name_H-M   'P 1'
_cell_length_a   6.08317062
_cell_length_b   11.45684639
_cell_length_c   8.30078679
_cell_angle_alpha   90.00000000
_cell_angle_beta   90.00000000
_cell_angle_gamma   105.39558914
_symmetry_Int_Tables_number   1
_chemical_formula_structural   BaCaI4
_chemical_formula_sum   'Ba2 Ca2 I8'
_cell_volume   557.75512218
_cell_formula_units_Z   2
loop_
 _symmetry_equiv_pos_site_id
 _symmetry_equiv_pos_as_xyz
  1  'x, y, z'
loop_
 _atom_site_type_symbol
 _atom_site_label
 _atom_site_symmetry_multiplicity
 _atom_site_fract_x
 _atom_site_fract_y
 _atom_site_fract_z
 _atom_site_occupancy
  Ba  Ba0  1  0.16252230  0.32504560  0.92049982  1
  Ba  Ba1  1  0.83747770  0.67495440  0.42049982  1
  Ca  Ca2  1  0.40900518  0.81800935  0.00121840  1
  Ca  Ca3  1  0.59099482  0.18199065  0.50121840  1
  I  I4  1  0.09050969  0.18101838  0.53354891  1
  I  I5  1  0.46053097  0.92106094  0.35756114  1
  I  I6  1  0.33095912  0.66191824  0.69033236  1
  I  I7  1  0.28740079  0.57480058  0.20654737  1
  I  I8  1  0.90949031  0.81898162  0.03354891  1
  I  I9  1  0.71259921  0.42519942  0.70654737  1
  I  I10  1  0.53946903  0.07893906  0.85756114  1
  I  I11  1  0.66904088  0.33808176  0.19033236  1
