# generated using pymatgen
data_Y2Bi2O7
_symmetry_space_group_name_H-M   'P 1'
_cell_length_a   6.05511388
_cell_length_b   6.05511388
_cell_length_c   5.88119337
_cell_angle_alpha   84.21393020
_cell_angle_beta   95.78606980
_cell_angle_gamma   73.87373393
_symmetry_Int_Tables_number   1
_chemical_formula_structural   Y2Bi2O7
_chemical_formula_sum   'Y2 Bi2 O7'
_cell_volume   204.21001453
_cell_formula_units_Z   1
loop_
 _symmetry_equiv_pos_site_id
 _symmetry_equiv_pos_as_xyz
  1  'x, y, z'
loop_
 _atom_site_type_symbol
 _atom_site_label
 _atom_site_symmetry_multiplicity
 _atom_site_fract_x
 _atom_site_fract_y
 _atom_site_fract_z
 _atom_site_occupancy
  Y  Y0  1  0.69245195  0.69245195  0.00000000  1
  Y  Y1  1  0.30754805  0.30754805  0.00000000  1
  Bi  Bi2  1  0.25887367  0.74112633  0.39356840  1
  Bi  Bi3  1  0.74112633  0.25887367  0.60643160  1
  O  O4  1  0.05449521  0.58630890  0.18242729  1
  O  O5  1  0.41369110  0.94550479  0.18242729  1
  O  O6  1  0.45740142  0.54259858  0.74492927  1
  O  O7  1  0.00000000  0.00000000  0.50000000  1
  O  O8  1  0.54259858  0.45740142  0.25507073  1
  O  O9  1  0.94550479  0.41369110  0.81757271  1
  O  O10  1  0.58630890  0.05449521  0.81757271  1
