# generated using pymatgen
data_BaSrI4
_symmetry_space_group_name_H-M   'P 1'
_cell_length_a   8.41000250
_cell_length_b   14.72671766
_cell_length_c   9.70018268
_cell_angle_alpha   90.00000000
_cell_angle_beta   90.00000000
_cell_angle_gamma   90.00000000
_symmetry_Int_Tables_number   1
_chemical_formula_structural   BaSrI4
_chemical_formula_sum   'Ba4 Sr4 I16'
_cell_volume   1201.38442891
_cell_formula_units_Z   4
loop_
 _symmetry_equiv_pos_site_id
 _symmetry_equiv_pos_as_xyz
  1  'x, y, z'
loop_
 _atom_site_type_symbol
 _atom_site_label
 _atom_site_symmetry_multiplicity
 _atom_site_fract_x
 _atom_site_fract_y
 _atom_site_fract_z
 _atom_site_occupancy
  Ba  Ba0  1  0.00000000  0.32471939  0.75000000  1
  Ba  Ba1  1  0.00000000  0.67528061  0.25000000  1
  Ba  Ba2  1  0.50000000  0.17528061  0.25000000  1
  Ba  Ba3  1  0.50000000  0.82471939  0.75000000  1
  Sr  Sr4  1  0.00000000  0.00000000  0.00000000  1
  Sr  Sr5  1  0.00000000  0.00000000  0.50000000  1
  Sr  Sr6  1  0.50000000  0.50000000  0.00000000  1
  Sr  Sr7  1  0.50000000  0.50000000  0.50000000  1
  I  I8  1  0.11463069  0.21589765  0.04708891  1
  I  I9  1  0.11463069  0.78410235  0.54708891  1
  I  I10  1  0.23699224  0.47714880  0.25004940  1
  I  I11  1  0.23699224  0.52285120  0.75004940  1
  I  I12  1  0.26300776  0.02285120  0.75004940  1
  I  I13  1  0.26300776  0.97714880  0.25004940  1
  I  I14  1  0.38536931  0.71589765  0.04708891  1
  I  I15  1  0.38536931  0.28410235  0.54708891  1
  I  I16  1  0.61463069  0.28410235  0.95291109  1
  I  I17  1  0.61463069  0.71589765  0.45291109  1
  I  I18  1  0.73699224  0.02285120  0.74995060  1
  I  I19  1  0.73699224  0.97714880  0.24995060  1
  I  I20  1  0.76300776  0.52285120  0.74995060  1
  I  I21  1  0.76300776  0.47714880  0.24995060  1
  I  I22  1  0.88536931  0.21589765  0.45291109  1
  I  I23  1  0.88536931  0.78410235  0.95291109  1
