# generated using pymatgen
data_Li(BiO2)3
_symmetry_space_group_name_H-M   'P 1'
_cell_length_a   6.72808783
_cell_length_b   6.72808737
_cell_length_c   6.72808741
_cell_angle_alpha   93.14724691
_cell_angle_beta   93.14724424
_cell_angle_gamma   93.14724416
_symmetry_Int_Tables_number   1
_chemical_formula_structural   Li(BiO2)3
_chemical_formula_sum   'Li2 Bi6 O12'
_cell_volume   303.13062954
_cell_formula_units_Z   2
loop_
 _symmetry_equiv_pos_site_id
 _symmetry_equiv_pos_as_xyz
  1  'x, y, z'
loop_
 _atom_site_type_symbol
 _atom_site_label
 _atom_site_symmetry_multiplicity
 _atom_site_fract_x
 _atom_site_fract_y
 _atom_site_fract_z
 _atom_site_occupancy
  Li  Li0  1  0.00000000  0.00000000  0.00000000  1
  Li  Li1  1  0.50000000  0.50000000  0.50000000  1
  Bi  Bi2  1  0.08382552  0.56590537  0.25763591  1
  Bi  Bi3  1  0.25763591  0.08382552  0.56590537  1
  Bi  Bi4  1  0.43409463  0.74236409  0.91617448  1
  Bi  Bi5  1  0.56590537  0.25763591  0.08382552  1
  Bi  Bi6  1  0.74236409  0.91617448  0.43409463  1
  Bi  Bi7  1  0.91617448  0.43409463  0.74236409  1
  O  O8  1  0.08877486  0.68015545  0.92185301  1
  O  O9  1  0.07814699  0.91122514  0.31984455  1
  O  O10  1  0.18876994  0.40519694  0.53013196  1
  O  O11  1  0.31984455  0.07814699  0.91122514  1
  O  O12  1  0.40519694  0.53013196  0.18876994  1
  O  O13  1  0.46986804  0.81123006  0.59480306  1
  O  O14  1  0.53013196  0.18876994  0.40519694  1
  O  O15  1  0.59480306  0.46986804  0.81123006  1
  O  O16  1  0.68015545  0.92185301  0.08877486  1
  O  O17  1  0.81123006  0.59480306  0.46986804  1
  O  O18  1  0.92185301  0.08877486  0.68015545  1
  O  O19  1  0.91122514  0.31984455  0.07814699  1
