# generated using pymatgen
data_Er2TeO2
_symmetry_space_group_name_H-M   'P 1'
_cell_length_a   3.87796819
_cell_length_b   3.87815815
_cell_length_c   7.19902403
_cell_angle_alpha   90.00018529
_cell_angle_beta   90.00106891
_cell_angle_gamma   60.00023134
_symmetry_Int_Tables_number   1
_chemical_formula_structural   Er2TeO2
_chemical_formula_sum   'Er2 Te1 O2'
_cell_volume   93.76376234
_cell_formula_units_Z   1
loop_
 _symmetry_equiv_pos_site_id
 _symmetry_equiv_pos_as_xyz
  1  'x, y, z'
loop_
 _atom_site_type_symbol
 _atom_site_label
 _atom_site_symmetry_multiplicity
 _atom_site_fract_x
 _atom_site_fract_y
 _atom_site_fract_z
 _atom_site_occupancy
  Er  Er0  1  0.33328907  0.33332747  0.69419567  1
  Er  Er1  1  0.66661729  0.66666378  0.30580610  1
  Te  Te2  1  0.00003540  0.00000502  -0.00000027  1
  O  O3  1  0.33325085  0.33335157  0.38008697  1
  O  O4  1  0.66660738  0.66665216  0.61991153  1
