# generated using pymatgen
data_SrLaCl5
_symmetry_space_group_name_H-M   'P 1'
_cell_length_a   7.67307868
_cell_length_b   4.39112326
_cell_length_c   12.86186264
_cell_angle_alpha   90.00000000
_cell_angle_beta   92.39856183
_cell_angle_gamma   90.00000000
_symmetry_Int_Tables_number   1
_chemical_formula_structural   SrLaCl5
_chemical_formula_sum   'Sr2 La2 Cl10'
_cell_volume   432.98064822
_cell_formula_units_Z   2
loop_
 _symmetry_equiv_pos_site_id
 _symmetry_equiv_pos_as_xyz
  1  'x, y, z'
loop_
 _atom_site_type_symbol
 _atom_site_label
 _atom_site_symmetry_multiplicity
 _atom_site_fract_x
 _atom_site_fract_y
 _atom_site_fract_z
 _atom_site_occupancy
  Sr  Sr0  1  0.05620117  0.75000000  0.85095128  1
  Sr  Sr1  1  0.94379883  0.25000000  0.14904872  1
  La  La2  1  0.43151211  0.25000000  0.65788582  1
  La  La3  1  0.56848789  0.75000000  0.34211418  1
  Cl  Cl4  1  0.06865945  0.25000000  0.67054726  1
  Cl  Cl5  1  0.14710845  0.75000000  0.07477580  1
  Cl  Cl6  1  0.32333517  0.75000000  0.51960634  1
  Cl  Cl7  1  0.35292508  0.25000000  0.86658453  1
  Cl  Cl8  1  0.35483486  0.25000000  0.28046516  1
  Cl  Cl9  1  0.64516514  0.75000000  0.71953484  1
  Cl  Cl10  1  0.64707492  0.75000000  0.13341547  1
  Cl  Cl11  1  0.67666483  0.25000000  0.48039366  1
  Cl  Cl12  1  0.85289155  0.25000000  0.92522420  1
  Cl  Cl13  1  0.93134055  0.75000000  0.32945274  1
