# generated using pymatgen
data_Zr2N2O
_symmetry_space_group_name_H-M   'P 1'
_cell_length_a   10.32857291
_cell_length_b   5.52936097
_cell_length_c   5.57643360
_cell_angle_alpha   60.66498589
_cell_angle_beta   104.53314261
_cell_angle_gamma   105.07432786
_symmetry_Int_Tables_number   1
_chemical_formula_structural   Zr2N2O
_chemical_formula_sum   'Zr8 N8 O4'
_cell_volume   265.17888204
_cell_formula_units_Z   4
loop_
 _symmetry_equiv_pos_site_id
 _symmetry_equiv_pos_as_xyz
  1  'x, y, z'
loop_
 _atom_site_type_symbol
 _atom_site_label
 _atom_site_symmetry_multiplicity
 _atom_site_fract_x
 _atom_site_fract_y
 _atom_site_fract_z
 _atom_site_occupancy
  Zr  Zr0  1  0.96203133  0.30780090  0.31188975  1
  Zr  Zr1  1  0.53778758  0.16957059  0.18340678  1
  Zr  Zr2  1  0.71278457  0.58799315  0.55775383  1
  Zr  Zr3  1  0.21272079  0.07915688  0.04722849  1
  Zr  Zr4  1  0.78794361  0.91301349  0.93374526  1
  Zr  Zr5  1  0.28691773  0.43439695  0.42030719  1
  Zr  Zr6  1  0.46367337  0.79908950  0.83137678  1
  Zr  Zr7  1  0.03748550  0.68034692  0.69091471  1
  N  N8  1  0.87355910  0.91594922  0.32466103  1
  N  N9  1  0.62158909  0.58224054  0.17119742  1
  N  N10  1  0.87450319  0.61613101  0.92584314  1
  N  N11  1  0.62810053  0.88795685  0.57534803  1
  N  N12  1  0.37678025  0.83015006  0.13266797  1
  N  N13  1  0.12494421  0.37905263  0.08032933  1
  N  N14  1  0.36986114  0.42250984  0.82680137  1
  N  N15  1  0.12137994  0.07877485  0.67330262  1
  O  O16  1  0.87593503  0.32047784  0.62683131  1
  O  O17  1  0.62543650  0.18754062  0.87085994  1
  O  O18  1  0.37881600  0.12706637  0.43574079  1
  O  O19  1  0.12774952  0.68078182  0.37979627  1
