# generated using pymatgen
data_CaSm2O4
_symmetry_space_group_name_H-M   'P 1'
_cell_length_a   6.96478288
_cell_length_b   6.96478288
_cell_length_c   7.02002328
_cell_angle_alpha   60.25995936
_cell_angle_beta   60.25996876
_cell_angle_gamma   90.00000000
_symmetry_Int_Tables_number   1
_chemical_formula_structural   CaSm2O4
_chemical_formula_sum   'Ca2 Sm4 O8'
_cell_volume   242.67012923
_cell_formula_units_Z   2
loop_
 _symmetry_equiv_pos_site_id
 _symmetry_equiv_pos_as_xyz
  1  'x, y, z'
loop_
 _atom_site_type_symbol
 _atom_site_label
 _atom_site_symmetry_multiplicity
 _atom_site_fract_x
 _atom_site_fract_y
 _atom_site_fract_z
 _atom_site_occupancy
  Ca  Ca0  1  0.37500000  0.12500000  0.75000000  1
  Ca  Ca1  1  0.62500000  0.87500000  0.25000000  1
  Sm  Sm2  1  0.00000000  0.00000000  0.50000000  1
  Sm  Sm3  1  0.50000000  0.50000000  0.00000000  1
  Sm  Sm4  1  0.00000000  0.50000000  0.00000000  1
  Sm  Sm5  1  0.00000000  0.50000000  0.50000000  1
  O  O6  1  0.23605474  0.25599538  0.02807794  1
  O  O7  1  0.78407332  0.26394626  0.47192206  1
  O  O8  1  0.24400462  0.26413268  0.47192206  1
  O  O9  1  0.76413268  0.28407332  0.97192206  1
  O  O10  1  0.23586732  0.71592668  0.02807794  1
  O  O11  1  0.75599538  0.73586732  0.52807794  1
  O  O12  1  0.21592668  0.73605374  0.52807794  1
  O  O13  1  0.76394626  0.74400462  0.97192206  1
