# generated using pymatgen
data_Li5Nb2Cu3O10
_symmetry_space_group_name_H-M   'P 1'
_cell_length_a   5.26906694
_cell_length_b   5.77923210
_cell_length_c   7.72470045
_cell_angle_alpha   100.85719605
_cell_angle_beta   105.62391061
_cell_angle_gamma   106.12224979
_symmetry_Int_Tables_number   1
_chemical_formula_structural   Li5Nb2Cu3O10
_chemical_formula_sum   'Li5 Nb2 Cu3 O10'
_cell_volume   208.63652940
_cell_formula_units_Z   1
loop_
 _symmetry_equiv_pos_site_id
 _symmetry_equiv_pos_as_xyz
  1  'x, y, z'
loop_
 _atom_site_type_symbol
 _atom_site_label
 _atom_site_symmetry_multiplicity
 _atom_site_fract_x
 _atom_site_fract_y
 _atom_site_fract_z
 _atom_site_occupancy
  Li  Li0  1  0.22019530  0.86834065  0.37543618  1
  Li  Li1  1  0.41062576  0.32939590  0.80569030  1
  Li  Li2  1  0.50000000  0.50000000  0.50000000  1
  Li  Li3  1  0.58937424  0.67060410  0.19430970  1
  Li  Li4  1  0.77980470  0.13165935  0.62456382  1
  Nb  Nb5  1  0.10864991  0.72622582  0.70331716  1
  Nb  Nb6  1  0.89135009  0.27377418  0.29668284  1
  Cu  Cu7  1  0.00000000  0.50000000  0.00000000  1
  Cu  Cu8  1  0.69714825  0.87734443  0.90027683  1
  Cu  Cu9  1  0.30285175  0.12265557  0.09972317  1
  O  O10  1  0.07175058  0.03484386  0.82705125  1
  O  O11  1  0.33215786  0.64659460  0.93102566  1
  O  O12  1  0.13891476  0.34160680  0.55051702  1
  O  O13  1  0.21675207  0.52515275  0.24910571  1
  O  O14  1  0.45107022  0.87495860  0.65159895  1
  O  O15  1  0.54892978  0.12504140  0.34840105  1
  O  O16  1  0.78324793  0.47484725  0.75089429  1
  O  O17  1  0.86108524  0.65839320  0.44948298  1
  O  O18  1  0.66784214  0.35340540  0.06897434  1
  O  O19  1  0.92824942  0.96515614  0.17294875  1
