# generated using pymatgen
data_Sr2ScFePO3
_symmetry_space_group_name_H-M   'P 1'
_cell_length_a   4.08175671
_cell_length_b   4.08175671
_cell_length_c   16.06862802
_cell_angle_alpha   90.00000000
_cell_angle_beta   90.00000000
_cell_angle_gamma   90.00000000
_symmetry_Int_Tables_number   1
_chemical_formula_structural   Sr2ScFePO3
_chemical_formula_sum   'Sr4 Sc2 Fe2 P2 O6'
_cell_volume   267.71519888
_cell_formula_units_Z   2
loop_
 _symmetry_equiv_pos_site_id
 _symmetry_equiv_pos_as_xyz
  1  'x, y, z'
loop_
 _atom_site_type_symbol
 _atom_site_label
 _atom_site_symmetry_multiplicity
 _atom_site_fract_x
 _atom_site_fract_y
 _atom_site_fract_z
 _atom_site_occupancy
  Sr  Sr0  1  0.25000000  0.25000000  0.80809723  1
  Sr  Sr1  1  0.75000000  0.75000000  0.19190277  1
  Sr  Sr2  1  0.25000000  0.25000000  0.58511562  1
  Sr  Sr3  1  0.75000000  0.75000000  0.41488438  1
  Sc  Sc4  1  0.75000000  0.75000000  0.69178985  1
  Sc  Sc5  1  0.25000000  0.25000000  0.30821015  1
  Fe  Fe6  1  0.25000000  0.75000000  -0.00000000  1
  Fe  Fe7  1  0.75000000  0.25000000  -0.00000000  1
  P  P8  1  0.75000000  0.75000000  0.90760165  1
  P  P9  1  0.25000000  0.25000000  0.09239835  1
  O  O10  1  0.25000000  0.75000000  0.71262974  1
  O  O11  1  0.75000000  0.25000000  0.71262974  1
  O  O12  1  0.75000000  0.25000000  0.28737026  1
  O  O13  1  0.25000000  0.75000000  0.28737026  1
  O  O14  1  0.75000000  0.75000000  0.56662351  1
  O  O15  1  0.25000000  0.25000000  0.43337649  1
