# generated using pymatgen
data_NaBrO3
_symmetry_space_group_name_H-M   'P 1'
_cell_length_a   7.77917649
_cell_length_b   7.77917649
_cell_length_c   7.77917649
_cell_angle_alpha   90.00000000
_cell_angle_beta   90.00000000
_cell_angle_gamma   90.00000000
_symmetry_Int_Tables_number   1
_chemical_formula_structural   NaBrO3
_chemical_formula_sum   'Na4 Br4 O12'
_cell_volume   470.76143060
_cell_formula_units_Z   4
loop_
 _symmetry_equiv_pos_site_id
 _symmetry_equiv_pos_as_xyz
  1  'x, y, z'
loop_
 _atom_site_type_symbol
 _atom_site_label
 _atom_site_symmetry_multiplicity
 _atom_site_fract_x
 _atom_site_fract_y
 _atom_site_fract_z
 _atom_site_occupancy
  Na  Na0  1  0.49873044  0.99873044  0.50126956  1
  Na  Na1  1  0.99873044  0.50126956  0.49873044  1
  Na  Na2  1  0.50126956  0.49873044  0.99873044  1
  Na  Na3  1  0.00126956  0.00126956  0.00126956  1
  Br  Br4  1  0.05095994  0.55095994  0.94904006  1
  Br  Br5  1  0.55095994  0.94904006  0.05095994  1
  Br  Br6  1  0.94904006  0.05095994  0.55095994  1
  Br  Br7  1  0.44904006  0.44904006  0.44904006  1
  O  O8  1  0.23478519  0.45219281  0.89112479  1
  O  O9  1  0.10887521  0.73478519  0.04780719  1
  O  O10  1  0.95219281  0.60887521  0.76521481  1
  O  O11  1  0.73478519  0.04780719  0.10887521  1
  O  O12  1  0.60887521  0.76521481  0.95219281  1
  O  O13  1  0.45219281  0.89112479  0.23478519  1
  O  O14  1  0.76521481  0.95219281  0.60887521  1
  O  O15  1  0.89112479  0.23478519  0.45219281  1
  O  O16  1  0.04780719  0.10887521  0.73478519  1
  O  O17  1  0.26521481  0.54780719  0.39112479  1
  O  O18  1  0.39112479  0.26521481  0.54780719  1
  O  O19  1  0.54780719  0.39112479  0.26521481  1
