# generated using pymatgen
data_Li4Cu2Si3O10
_symmetry_space_group_name_H-M   'P 1'
_cell_length_a   5.38706554
_cell_length_b   5.38706554
_cell_length_c   16.24747025
_cell_angle_alpha   82.87111300
_cell_angle_beta   97.12888700
_cell_angle_gamma   118.57258736
_symmetry_Int_Tables_number   1
_chemical_formula_structural   Li4Cu2Si3O10
_chemical_formula_sum   'Li8 Cu4 Si6 O20'
_cell_volume   409.74826352
_cell_formula_units_Z   2
loop_
 _symmetry_equiv_pos_site_id
 _symmetry_equiv_pos_as_xyz
  1  'x, y, z'
loop_
 _atom_site_type_symbol
 _atom_site_label
 _atom_site_symmetry_multiplicity
 _atom_site_fract_x
 _atom_site_fract_y
 _atom_site_fract_z
 _atom_site_occupancy
  Li  Li0  1  0.16471470  0.68244651  0.94687418  1
  Li  Li1  1  0.41585761  0.78752183  0.76560007  1
  Li  Li2  1  0.31755349  0.83528530  0.44687418  1
  Li  Li3  1  0.21247817  0.58414239  0.26560007  1
  Li  Li4  1  0.78752183  0.41585761  0.73439993  1
  Li  Li5  1  0.68244651  0.16471470  0.55312582  1
  Li  Li6  1  0.58414239  0.21247817  0.23439993  1
  Li  Li7  1  0.83528530  0.31755349  0.05312582  1
  Cu  Cu8  1  0.79941457  0.97974960  0.91795803  1
  Cu  Cu9  1  0.02025040  0.20058543  0.41795803  1
  Cu  Cu10  1  0.97974960  0.79941457  0.58204197  1
  Cu  Cu11  1  0.20058543  0.02025040  0.08204197  1
  Si  Si12  1  0.34394712  0.47087326  0.59688797  1
  Si  Si13  1  0.10896910  0.10896910  0.75000000  1
  Si  Si14  1  0.47087326  0.34394712  0.90311203  1
  Si  Si15  1  0.52912674  0.65605288  0.09688797  1
  Si  Si16  1  0.89103090  0.89103090  0.25000000  1
  Si  Si17  1  0.65605288  0.52912674  0.40311203  1
  O  O18  1  0.06722368  0.83771174  0.70497270  1
  O  O19  1  0.16228826  0.93277632  0.20497270  1
  O  O20  1  0.39288219  0.78463704  0.56574899  1
  O  O21  1  0.43243593  0.63197711  0.88655986  1
  O  O22  1  0.19790030  0.40259851  0.68828353  1
  O  O23  1  0.22160043  0.09038151  0.95922873  1
  O  O24  1  0.09038151  0.22160043  0.54077127  1
  O  O25  1  0.21536296  0.60711781  0.06574899  1
  O  O26  1  0.36802289  0.56756407  0.38655986  1
  O  O27  1  0.40259851  0.19790030  0.81171647  1
  O  O28  1  0.59740149  0.80209970  0.18828353  1
  O  O29  1  0.63197711  0.43243593  0.61344014  1
  O  O30  1  0.78463704  0.39288219  0.93425101  1
  O  O31  1  0.90961849  0.77839957  0.45922873  1
  O  O32  1  0.77839957  0.90961849  0.04077127  1
  O  O33  1  0.80209970  0.59740149  0.31171647  1
  O  O34  1  0.56756407  0.36802289  0.11344014  1
  O  O35  1  0.60711781  0.21536296  0.43425101  1
  O  O36  1  0.83771174  0.06722368  0.79502730  1
  O  O37  1  0.93277632  0.16228826  0.29502730  1
