# generated using pymatgen
data_Li4Ti3Cu3(TeO8)2
_symmetry_space_group_name_H-M   'P 1'
_cell_length_a   5.98575884
_cell_length_b   5.97290867
_cell_length_c   10.12710007
_cell_angle_alpha   90.00290992
_cell_angle_beta   91.47691599
_cell_angle_gamma   119.91916423
_symmetry_Int_Tables_number   1
_chemical_formula_structural   Li4Ti3Cu3(TeO8)2
_chemical_formula_sum   'Li4 Ti3 Cu3 Te2 O16'
_cell_volume   313.67616165
_cell_formula_units_Z   1
loop_
 _symmetry_equiv_pos_site_id
 _symmetry_equiv_pos_as_xyz
  1  'x, y, z'
loop_
 _atom_site_type_symbol
 _atom_site_label
 _atom_site_symmetry_multiplicity
 _atom_site_fract_x
 _atom_site_fract_y
 _atom_site_fract_z
 _atom_site_occupancy
  Li  Li0  1  0.31606499  0.65804452  0.91114017  1
  Li  Li1  1  0.98430999  0.99216931  0.98087036  1
  Li  Li2  1  0.01492209  0.00748234  0.48841923  1
  Li  Li3  1  0.67052469  0.33526521  0.40784454  1
  Ti  Ti4  1  0.18681630  0.83409502  0.21840875  1
  Ti  Ti5  1  0.18682016  0.35274016  0.21840916  1
  Ti  Ti6  1  0.34668001  0.17334633  0.72172771  1
  Cu  Cu7  1  0.66202062  0.83102268  0.20238494  1
  Cu  Cu8  1  0.82992200  0.66095561  0.71570180  1
  Cu  Cu9  1  0.82990537  0.16899941  0.71568432  1
  Te  Te10  1  0.35268878  0.67633155  0.50314896  1
  Te  Te11  1  0.66457946  0.33230243  0.98504111  1
  O  O12  1  0.20832497  0.86137143  0.60727078  1
  O  O13  1  0.02364673  0.51182743  0.31337160  1
  O  O14  1  0.31828924  0.65914708  0.10827872  1
  O  O15  1  0.00238974  0.00120131  0.29187039  1
  O  O16  1  0.00174674  0.00082926  0.79624819  1
  O  O17  1  0.20838877  0.34700480  0.60725915  1
  O  O18  1  0.46089080  0.98073565  0.33359946  1
  O  O19  1  0.46088894  0.48017199  0.33361116  1
  O  O20  1  0.33694100  0.16848387  0.09457900  1
  O  O21  1  0.69317483  0.84653837  0.58766430  1
  O  O22  1  0.48385328  0.45416256  0.86326054  1
  O  O23  1  0.48381958  0.02970957  0.86327616  1
  O  O24  1  0.66172852  0.33093642  0.61924606  1
  O  O25  1  0.83383653  0.66006450  0.08233060  1
  O  O26  1  0.94298921  0.47156240  0.85486616  1
  O  O27  1  0.83383763  0.17379780  0.08232566  1
