# generated using pymatgen
data_Mg(AgO2)2
_symmetry_space_group_name_H-M   'P 1'
_cell_length_a   7.24123011
_cell_length_b   5.89129338
_cell_length_c   5.89247638
_cell_angle_alpha   90.05596319
_cell_angle_beta   114.25878887
_cell_angle_gamma   114.02075507
_symmetry_Int_Tables_number   1
_chemical_formula_structural   Mg(AgO2)2
_chemical_formula_sum   'Mg2 Ag4 O8'
_cell_volume   205.01471994
_cell_formula_units_Z   2
loop_
 _symmetry_equiv_pos_site_id
 _symmetry_equiv_pos_as_xyz
  1  'x, y, z'
loop_
 _atom_site_type_symbol
 _atom_site_label
 _atom_site_symmetry_multiplicity
 _atom_site_fract_x
 _atom_site_fract_y
 _atom_site_fract_z
 _atom_site_occupancy
  Mg  Mg0  1  0.24973571  0.12483217  0.87515470  1
  Mg  Mg1  1  0.75035015  0.87517565  0.12490356  1
  Ag  Ag2  1  0.50006826  -0.00011613  0.50004954  1
  Ag  Ag3  1  0.50004297  0.50016912  0.50005226  1
  Ag  Ag4  1  0.99994635  0.49997084  0.00003628  1
  Ag  Ag5  1  0.99996676  0.49997791  0.49985500  1
  O  O6  1  0.96262979  0.71645672  0.23116313  1
  O  O7  1  0.53420529  0.76737498  0.75338786  1
  O  O8  1  0.54127058  0.77045413  0.28657991  1
  O  O9  1  0.03637298  0.75379597  0.76872865  1
  O  O10  1  0.45865048  0.22950337  0.71353798  1
  O  O11  1  0.46578109  0.23261288  0.24656402  1
  O  O12  1  0.96363350  0.24636569  0.23121741  1
  O  O13  1  0.03734809  0.28342770  0.76876969  1
