# generated using pymatgen
data_K2TbO3
_symmetry_space_group_name_H-M   'P 1'
_cell_length_a   6.53852367
_cell_length_b   6.53852367
_cell_length_c   6.18653734
_cell_angle_alpha   90.00000000
_cell_angle_beta   90.00000000
_cell_angle_gamma   114.84364181
_symmetry_Int_Tables_number   1
_chemical_formula_structural   K2TbO3
_chemical_formula_sum   'K4 Tb2 O6'
_cell_volume   240.01226699
_cell_formula_units_Z   2
loop_
 _symmetry_equiv_pos_site_id
 _symmetry_equiv_pos_as_xyz
  1  'x, y, z'
loop_
 _atom_site_type_symbol
 _atom_site_label
 _atom_site_symmetry_multiplicity
 _atom_site_fract_x
 _atom_site_fract_y
 _atom_site_fract_z
 _atom_site_occupancy
  Tb  Tb0  1  0.89335288  0.89335288  0.73179295  1
  Tb  Tb1  1  0.10664712  0.10664712  0.23179295  1
  K  K2  1  0.18841206  0.52537264  0.76741144  1
  K  K3  1  0.47462736  0.81158794  0.26741144  1
  K  K4  1  0.52537264  0.18841206  0.76741144  1
  K  K5  1  0.81158794  0.47462736  0.26741144  1
  O  O6  1  0.15666823  0.89393238  0.49965317  1
  O  O7  1  0.10606762  0.84333177  0.99965317  1
  O  O8  1  0.39842154  0.39842154  0.13407783  1
  O  O9  1  0.60157846  0.60157846  0.63407783  1
  O  O10  1  0.84333177  0.10606762  0.99965317  1
  O  O11  1  0.89393238  0.15666823  0.49965317  1
