# generated using pymatgen
data_Li2CuSiO4
_symmetry_space_group_name_H-M   'P 1'
_cell_length_a   10.81931368
_cell_length_b   5.01297030
_cell_length_c   6.33903933
_cell_angle_alpha   90.00197428
_cell_angle_beta   90.00346563
_cell_angle_gamma   90.00479363
_symmetry_Int_Tables_number   1
_chemical_formula_structural   Li2CuSiO4
_chemical_formula_sum   'Li8 Cu4 Si4 O16'
_cell_volume   343.80982814
_cell_formula_units_Z   4
loop_
 _symmetry_equiv_pos_site_id
 _symmetry_equiv_pos_as_xyz
  1  'x, y, z'
loop_
 _atom_site_type_symbol
 _atom_site_label
 _atom_site_symmetry_multiplicity
 _atom_site_fract_x
 _atom_site_fract_y
 _atom_site_fract_z
 _atom_site_occupancy
  Li  Li0  1  0.07740268  0.80106643  0.86987648  1
  Li  Li1  1  0.16606907  0.19510934  0.11972972  1
  Li  Li2  1  0.33393867  0.69514332  0.61974662  1
  Li  Li3  1  0.42263488  0.30104018  0.36986530  1
  Li  Li4  1  0.57735920  0.69897980  0.86989747  1
  Li  Li5  1  0.66601263  0.30487277  0.11982012  1
  Li  Li6  1  0.83393592  0.80489847  0.61977120  1
  Li  Li7  1  0.92260429  0.19896356  0.36992582  1
  Cu  Cu8  1  0.16829523  0.20386732  0.61654940  1
  Cu  Cu9  1  0.33176359  0.70363128  0.11656960  1
  Cu  Cu10  1  0.66830815  0.29620764  0.61675719  1
  Cu  Cu11  1  0.83174660  0.79619189  0.11660198  1
  Si  Si12  1  0.08544976  0.69012059  0.36732446  1
  Si  Si13  1  0.41454489  0.18997337  0.86748108  1
  Si  Si14  1  0.58540332  0.80995126  0.36744644  1
  Si  Si15  1  0.91456898  0.30994485  0.86741577  1
  O  O16  1  0.05889110  0.20366841  0.86690907  1
  O  O17  1  0.08708813  0.36107279  0.36623891  1
  O  O18  1  0.15764002  0.79712528  0.58161818  1
  O  O19  1  0.15688878  0.79726136  0.15345714  1
  O  O20  1  0.34313567  0.29730830  0.65350313  1
  O  O21  1  0.34232932  0.29697853  0.08166895  1
  O  O22  1  0.41286444  0.86102709  0.86629305  1
  O  O23  1  0.44115530  0.70363778  0.36692490  1
  O  O24  1  0.55884032  0.29639494  0.86704921  1
  O  O25  1  0.58709993  0.13894248  0.36636037  1
  O  O26  1  0.65765514  0.70294191  0.58168578  1
  O  O27  1  0.65688075  0.70276654  0.15348730  1
  O  O28  1  0.84313435  0.20271061  0.65348265  1
  O  O29  1  0.84235068  0.20294780  0.08165477  1
  O  O30  1  0.91290249  0.63892237  0.86632895  1
  O  O31  1  0.94110573  0.79633174  0.36696300  1
