# generated using pymatgen
data_LiSnPO4
_symmetry_space_group_name_H-M   'P 1'
_cell_length_a   10.07074845
_cell_length_b   5.57367147
_cell_length_c   7.10741217
_cell_angle_alpha   102.02258273
_cell_angle_beta   106.59321442
_cell_angle_gamma   79.44420387
_symmetry_Int_Tables_number   1
_chemical_formula_structural   LiSnPO4
_chemical_formula_sum   'Li4 Sn4 P4 O16'
_cell_volume   370.67555437
_cell_formula_units_Z   4
loop_
 _symmetry_equiv_pos_site_id
 _symmetry_equiv_pos_as_xyz
  1  'x, y, z'
loop_
 _atom_site_type_symbol
 _atom_site_label
 _atom_site_symmetry_multiplicity
 _atom_site_fract_x
 _atom_site_fract_y
 _atom_site_fract_z
 _atom_site_occupancy
  Li  Li0  1  0.10387751  0.31764996  0.31662868  1
  Li  Li1  1  0.25588693  0.88338571  0.50473559  1
  Li  Li2  1  0.74411307  0.11661429  0.49526441  1
  Li  Li3  1  0.89612249  0.68235004  0.68337132  1
  Sn  Sn4  1  0.21364704  0.69763028  0.93783819  1
  Sn  Sn5  1  0.41218170  0.25533709  0.20943015  1
  Sn  Sn6  1  0.58781830  0.74466291  0.79056985  1
  Sn  Sn7  1  0.78635296  0.30236972  0.06216181  1
  P  P8  1  0.05096857  0.20361578  0.80487782  1
  P  P9  1  0.41965357  0.28780814  0.64403911  1
  P  P10  1  0.58034643  0.71219186  0.35596089  1
  P  P11  1  0.94903143  0.79638422  0.19512218  1
  O  O12  1  0.08635362  0.42626501  0.72661410  1
  O  O13  1  0.13838331  0.95555243  0.72390329  1
  O  O14  1  0.10527914  0.81301898  0.27765888  1
  O  O15  1  0.09826955  0.23951410  0.03508534  1
  O  O16  1  0.44077561  0.09761152  0.78495863  1
  O  O17  1  0.38317163  0.55596055  0.75472328  1
  O  O18  1  0.29838345  0.22659357  0.45456570  1
  O  O19  1  0.44747484  0.71652691  0.42684742  1
  O  O20  1  0.55252516  0.28347309  0.57315258  1
  O  O21  1  0.70161655  0.77340643  0.54543430  1
  O  O22  1  0.61682837  0.44403945  0.24527672  1
  O  O23  1  0.55922439  0.90238848  0.21504137  1
  O  O24  1  0.90173045  0.76048590  0.96491466  1
  O  O25  1  0.89472086  0.18698102  0.72234112  1
  O  O26  1  0.86161669  0.04444757  0.27609671  1
  O  O27  1  0.91364638  0.57373499  0.27338590  1
