# generated using pymatgen
data_Li3Ti(PO4)2
_symmetry_space_group_name_H-M   'P 1'
_cell_length_a   4.99391220
_cell_length_b   18.02798212
_cell_length_c   6.34518230
_cell_angle_alpha   90.00000000
_cell_angle_beta   93.44627900
_cell_angle_gamma   90.00000000
_symmetry_Int_Tables_number   1
_chemical_formula_structural   Li3Ti(PO4)2
_chemical_formula_sum   'Li12 Ti4 P8 O32'
_cell_volume   570.22471420
_cell_formula_units_Z   4
loop_
 _symmetry_equiv_pos_site_id
 _symmetry_equiv_pos_as_xyz
  1  'x, y, z'
loop_
 _atom_site_type_symbol
 _atom_site_label
 _atom_site_symmetry_multiplicity
 _atom_site_fract_x
 _atom_site_fract_y
 _atom_site_fract_z
 _atom_site_occupancy
  Li  Li0  1  0.18998864  0.69884026  0.81064810  1
  Li  Li1  1  0.21898721  0.87747525  0.50395883  1
  Li  Li2  1  0.25875977  0.05080220  0.29329516  1
  Li  Li3  1  0.28101279  0.37747525  0.99604117  1
  Li  Li4  1  0.24124023  0.55080220  0.20670484  1
  Li  Li5  1  0.31001136  0.19884026  0.68935190  1
  Li  Li6  1  0.68998864  0.80115974  0.31064810  1
  Li  Li7  1  0.75875977  0.44919780  0.79329516  1
  Li  Li8  1  0.71898721  0.62252475  0.00395883  1
  Li  Li9  1  0.74124023  0.94919780  0.70670484  1
  Li  Li10  1  0.78101279  0.12252475  0.49604117  1
  Li  Li11  1  0.81001136  0.30115974  0.18935190  1
  Ti  Ti12  1  0.20533274  0.87316658  0.01139574  1
  Ti  Ti13  1  0.29466726  0.37316658  0.48860426  1
  Ti  Ti14  1  0.70533274  0.62683342  0.51139574  1
  Ti  Ti15  1  0.79466726  0.12683342  0.98860426  1
  P  P16  1  0.18201978  0.71457120  0.28581872  1
  P  P17  1  0.22907611  0.53635436  0.72626704  1
  P  P18  1  0.27092389  0.03635436  0.77373296  1
  P  P19  1  0.31798022  0.21457120  0.21418128  1
  P  P20  1  0.68201978  0.78542880  0.78581872  1
  P  P21  1  0.72907611  0.96364564  0.22626704  1
  P  P22  1  0.77092389  0.46364564  0.27373296  1
  P  P23  1  0.81798022  0.28542880  0.71418128  1
  O  O24  1  0.00820639  0.19881296  0.18501475  1
  O  O25  1  0.04299495  0.69172144  0.48980535  1
  O  O26  1  0.07547540  0.43974367  0.27574876  1
  O  O27  1  0.06592846  0.67186504  0.09488294  1
  O  O28  1  0.14413471  0.06584609  0.97582709  1
  O  O29  1  0.12042308  0.06620595  0.57756076  1
  O  O30  1  0.13037396  0.80045619  0.26042260  1
  O  O31  1  0.22176159  0.44893894  0.72657700  1
  O  O32  1  0.27823841  0.94893894  0.77342300  1
  O  O33  1  0.36962604  0.30045619  0.23957740  1
  O  O34  1  0.37957692  0.56620595  0.92243924  1
  O  O35  1  0.35586529  0.56584609  0.52417291  1
  O  O36  1  0.43407154  0.17186504  0.40511706  1
  O  O37  1  0.42452460  0.93974367  0.22425124  1
  O  O38  1  0.45700505  0.19172144  0.01019465  1
  O  O39  1  0.49179361  0.69881296  0.31498525  1
  O  O40  1  0.50820639  0.30118704  0.68501475  1
  O  O41  1  0.54299495  0.80827856  0.98980535  1
  O  O42  1  0.57547540  0.06025633  0.77574876  1
  O  O43  1  0.56592846  0.82813496  0.59488294  1
  O  O44  1  0.64413471  0.43415391  0.47582709  1
  O  O45  1  0.62042308  0.43379405  0.07756076  1
  O  O46  1  0.63037396  0.69954381  0.76042260  1
  O  O47  1  0.72176159  0.05106106  0.22657700  1
  O  O48  1  0.77823841  0.55106106  0.27342300  1
  O  O49  1  0.86962604  0.19954381  0.73957740  1
  O  O50  1  0.87957692  0.93379405  0.42243924  1
  O  O51  1  0.85586529  0.93415391  0.02417291  1
  O  O52  1  0.93407154  0.32813496  0.90511706  1
  O  O53  1  0.92452460  0.56025633  0.72425124  1
  O  O54  1  0.95700505  0.30827856  0.51019465  1
  O  O55  1  0.99179361  0.80118704  0.81498525  1
