# generated using pymatgen
data_LiCuPO4
_symmetry_space_group_name_H-M   'P 1'
_cell_length_a   5.62405223
_cell_length_b   10.24133246
_cell_length_c   5.86873565
_cell_angle_alpha   90.00000000
_cell_angle_beta   90.00000000
_cell_angle_gamma   102.29966020
_symmetry_Int_Tables_number   1
_chemical_formula_structural   LiCuPO4
_chemical_formula_sum   'Li4 Cu4 P4 O16'
_cell_volume   330.26742570
_cell_formula_units_Z   4
loop_
 _symmetry_equiv_pos_site_id
 _symmetry_equiv_pos_as_xyz
  1  'x, y, z'
loop_
 _atom_site_type_symbol
 _atom_site_label
 _atom_site_symmetry_multiplicity
 _atom_site_fract_x
 _atom_site_fract_y
 _atom_site_fract_z
 _atom_site_occupancy
  Li  Li0  1  0.22925713  0.93390419  0.66240677  1
  Li  Li1  1  0.27074287  0.56609581  0.16240677  1
  Li  Li2  1  0.72925713  0.43390419  0.83759323  1
  Li  Li3  1  0.77074287  0.06609581  0.33759323  1
  Cu  Cu4  1  0.38758341  0.64195990  0.59685601  1
  Cu  Cu5  1  0.11241659  0.85804010  0.09685601  1
  Cu  Cu6  1  0.88758341  0.14195990  0.90314399  1
  Cu  Cu7  1  0.61241659  0.35804010  0.40314399  1
  P  P8  1  0.21750690  0.39224904  0.68361799  1
  P  P9  1  0.28249310  0.10775096  0.18361799  1
  P  P10  1  0.71750690  0.89224904  0.81638201  1
  P  P11  1  0.78249310  0.60775096  0.31638201  1
  O  O12  1  0.91826136  0.80921777  0.80798340  1
  O  O13  1  0.03940040  0.69303413  0.26701164  1
  O  O14  1  0.23160876  0.46539767  0.44839475  1
  O  O15  1  0.27099340  0.51367799  0.85253391  1
  O  O16  1  0.22900660  0.98632201  0.35253391  1
  O  O17  1  0.26839124  0.03460233  0.94839475  1
  O  O18  1  0.41826136  0.30921777  0.69201660  1
  O  O19  1  0.53940040  0.19303413  0.23298836  1
  O  O20  1  0.46059960  0.80696587  0.76701164  1
  O  O21  1  0.58173864  0.69078223  0.30798340  1
  O  O22  1  0.73160876  0.96539767  0.05160525  1
  O  O23  1  0.77099340  0.01367799  0.64746609  1
  O  O24  1  0.72900660  0.48632201  0.14746609  1
  O  O25  1  0.76839124  0.53460233  0.55160525  1
  O  O26  1  0.96059960  0.30696587  0.73298836  1
  O  O27  1  0.08173864  0.19078223  0.19201660  1
