# generated using pymatgen
data_LiSb2P3O11
_symmetry_space_group_name_H-M   'P 1'
_cell_length_a   7.59195795
_cell_length_b   7.59195795
_cell_length_c   9.25524158
_cell_angle_alpha   71.29731455
_cell_angle_beta   108.70268545
_cell_angle_gamma   103.35633499
_symmetry_Int_Tables_number   1
_chemical_formula_structural   LiSb2P3O11
_chemical_formula_sum   'Li2 Sb4 P6 O22'
_cell_volume   473.69167622
_cell_formula_units_Z   2
loop_
 _symmetry_equiv_pos_site_id
 _symmetry_equiv_pos_as_xyz
  1  'x, y, z'
loop_
 _atom_site_type_symbol
 _atom_site_label
 _atom_site_symmetry_multiplicity
 _atom_site_fract_x
 _atom_site_fract_y
 _atom_site_fract_z
 _atom_site_occupancy
  Li  Li0  1  0.49056308  0.97179922  0.05029008  1
  Li  Li1  1  0.97179922  0.49056308  0.44970992  1
  Sb  Sb2  1  0.12719943  0.34857761  0.94312077  1
  Sb  Sb3  1  0.64768726  0.86883651  0.45254979  1
  Sb  Sb4  1  0.34857761  0.12719943  0.55687923  1
  Sb  Sb5  1  0.86883651  0.64768726  0.04745021  1
  P  P6  1  0.43831433  0.68914959  0.77996175  1
  P  P7  1  0.03321799  0.03321799  0.75000000  1
  P  P8  1  0.31045217  0.57055009  0.26628105  1
  P  P9  1  0.68914959  0.43831433  0.72003825  1
  P  P10  1  0.96199488  0.96199488  0.25000000  1
  P  P11  1  0.57055009  0.31045217  0.23371895  1
  O  O12  1  0.00088227  0.89417750  0.90343042  1
  O  O13  1  0.10628383  0.98397955  0.40288488  1
  O  O14  1  0.23498146  0.59453362  0.76323526  1
  O  O15  1  0.45063159  0.86720439  0.63648980  1
  O  O16  1  0.54062052  0.73554016  0.93673017  1
  O  O17  1  0.02657064  0.24010692  0.74673910  1
  O  O18  1  0.40351235  0.77687530  0.23839119  1
  O  O19  1  0.54997691  0.54997691  0.75000000  1
  O  O20  1  0.13633577  0.54988222  0.12159011  1
  O  O21  1  0.25978954  0.48188587  0.42171635  1
  O  O22  1  0.75640987  0.96250039  0.25782897  1
  O  O23  1  0.24010692  0.02657064  0.75326090  1
  O  O24  1  0.73554016  0.54062052  0.56326983  1
  O  O25  1  0.86720439  0.45063159  0.86351020  1
  O  O26  1  0.45600616  0.45600616  0.25000000  1
  O  O27  1  0.59453362  0.23498146  0.73676474  1
  O  O28  1  0.96250039  0.75640987  0.24217103  1
  O  O29  1  0.48188587  0.25978954  0.07828365  1
  O  O30  1  0.54988222  0.13633577  0.37840989  1
  O  O31  1  0.77687530  0.40351235  0.26160881  1
  O  O32  1  0.89417750  0.00088227  0.59656958  1
  O  O33  1  0.98397955  0.10628383  0.09711512  1
