# generated using pymatgen
data_Li2Bi(PO3)5
_symmetry_space_group_name_H-M   'P 1'
_cell_length_a   7.12089466
_cell_length_b   7.12089466
_cell_length_c   13.40791870
_cell_angle_alpha   88.11868824
_cell_angle_beta   91.88131176
_cell_angle_gamma   65.86519325
_symmetry_Int_Tables_number   1
_chemical_formula_structural   Li2Bi(PO3)5
_chemical_formula_sum   'Li4 Bi2 P10 O30'
_cell_volume   619.31413339
_cell_formula_units_Z   2
loop_
 _symmetry_equiv_pos_site_id
 _symmetry_equiv_pos_as_xyz
  1  'x, y, z'
loop_
 _atom_site_type_symbol
 _atom_site_label
 _atom_site_symmetry_multiplicity
 _atom_site_fract_x
 _atom_site_fract_y
 _atom_site_fract_z
 _atom_site_occupancy
  Li  Li0  1  0.31444475  0.28246737  0.72325789  1
  Li  Li1  1  0.71753263  0.68555525  0.22325789  1
  Li  Li2  1  0.76321388  0.27792310  0.59578589  1
  Li  Li3  1  0.72207690  0.23678612  0.09578589  1
  Bi  Bi4  1  0.89231393  0.87870464  0.76007092  1
  Bi  Bi5  1  0.12129536  0.10768607  0.26007092  1
  P  P6  1  0.62833046  0.97455074  0.50359995  1
  P  P7  1  0.26939759  0.59991863  0.56404251  1
  P  P8  1  0.41262633  0.84716647  0.84926511  1
  P  P9  1  0.02544926  0.37166954  0.00359995  1
  P  P10  1  0.40008137  0.73060241  0.06404251  1
  P  P11  1  0.15283353  0.58737367  0.34926511  1
  P  P12  1  0.17936966  0.06612720  0.52821417  1
  P  P13  1  0.93387280  0.82063034  0.02821417  1
  P  P14  1  0.76148296  0.44082996  0.81820279  1
  P  P15  1  0.55917004  0.23851704  0.31820279  1
  O  O16  1  0.18848178  0.90807833  0.82304819  1
  O  O17  1  0.09192167  0.81151822  0.32304819  1
  O  O18  1  0.15052555  0.59982177  0.65556365  1
  O  O19  1  0.40017823  0.84947445  0.15556365  1
  O  O20  1  0.24632782  0.82432839  0.53001178  1
  O  O21  1  0.17567161  0.75367218  0.03001178  1
  O  O22  1  0.45304748  0.84675917  0.96832374  1
  O  O23  1  0.15324083  0.54695252  0.46832374  1
  O  O24  1  0.50768221  0.97338819  0.79385835  1
  O  O25  1  0.02661181  0.49231779  0.29385835  1
  O  O26  1  0.21623289  0.33160515  0.95209802  1
  O  O27  1  0.66839485  0.78376711  0.45209802  1
  O  O28  1  0.84432060  0.91936622  0.92667811  1
  O  O29  1  0.49058598  0.45795451  0.57379736  1
  O  O30  1  0.08063378  0.15567940  0.42667811  1
  O  O31  1  0.52663570  0.60424802  0.82797053  1
  O  O32  1  0.54204549  0.50941402  0.07379736  1
  O  O33  1  0.39575198  0.47336430  0.32797053  1
  O  O34  1  0.06041189  0.16342155  0.61620952  1
  O  O35  1  0.83657845  0.93958811  0.11620952  1
  O  O36  1  0.39582819  0.08376556  0.54294232  1
  O  O37  1  0.91623444  0.60417181  0.04294232  1
  O  O38  1  0.88517527  0.55235910  0.77738413  1
  O  O39  1  0.44764090  0.11482473  0.27738413  1
  O  O40  1  0.84199053  0.35949074  0.93045283  1
  O  O41  1  0.64050926  0.15800947  0.43045283  1
  O  O42  1  0.74700640  0.26756005  0.76143506  1
  O  O43  1  0.73243995  0.25299360  0.26143506  1
  O  O44  1  0.75736561  0.98774361  0.59358719  1
  O  O45  1  0.01225639  0.24263439  0.09358719  1
