# generated using pymatgen
data_AgBH8C4(N2F)4
_symmetry_space_group_name_H-M   'P 1'
_cell_length_a   5.57149398
_cell_length_b   9.70559657
_cell_length_c   11.41486544
_cell_angle_alpha   90.46461060
_cell_angle_beta   102.58785485
_cell_angle_gamma   95.66455637
_symmetry_Int_Tables_number   1
_chemical_formula_structural   AgBH8C4(N2F)4
_chemical_formula_sum   'Ag2 B2 H16 C8 N16 F8'
_cell_volume   599.19755453
_cell_formula_units_Z   2
loop_
 _symmetry_equiv_pos_site_id
 _symmetry_equiv_pos_as_xyz
  1  'x, y, z'
loop_
 _atom_site_type_symbol
 _atom_site_label
 _atom_site_symmetry_multiplicity
 _atom_site_fract_x
 _atom_site_fract_y
 _atom_site_fract_z
 _atom_site_occupancy
  Ag  Ag0  1  0.52583983  0.83504964  0.49121979  1
  Ag  Ag1  1  0.47416017  0.16495036  0.50878021  1
  B  B2  1  0.10664339  0.29393956  0.01906369  1
  B  B3  1  0.89335661  0.70606044  0.98093631  1
  H  H4  1  0.20603703  0.82493311  0.81189340  1
  H  H5  1  0.15747080  0.39567879  0.78994687  1
  H  H6  1  0.49506595  0.85088988  0.90799198  1
  H  H7  1  0.41860183  0.50456608  0.85523672  1
  H  H8  1  0.24090146  0.96106360  0.10018501  1
  H  H9  1  0.31062528  0.83261671  0.20405337  1
  H  H10  1  0.35094207  0.44782407  0.40827810  1
  H  H11  1  0.29656360  0.41545354  0.25240852  1
  H  H12  1  0.70343640  0.58454646  0.74759148  1
  H  H13  1  0.64905793  0.55217593  0.59172190  1
  H  H14  1  0.68937472  0.16738329  0.79594663  1
  H  H15  1  0.75909854  0.03893640  0.89981499  1
  H  H16  1  0.58139817  0.49543392  0.14476328  1
  H  H17  1  0.50493405  0.14911012  0.09200802  1
  H  H18  1  0.84252920  0.60432121  0.21005313  1
  H  H19  1  0.79396297  0.17506689  0.18810660  1
  C  C20  1  0.05502684  0.98109592  0.64888799  1
  C  C21  1  0.03030485  0.33451987  0.57179698  1
  C  C22  1  0.38082070  0.46486666  0.67540425  1
  C  C23  1  0.42321213  0.00214031  0.78492457  1
  C  C24  1  0.57678787  0.99785969  0.21507543  1
  C  C25  1  0.61917930  0.53513334  0.32459575  1
  C  C26  1  0.96969515  0.66548013  0.42820302  1
  C  C27  1  0.94497316  0.01890408  0.35111201  1
  N  N28  1  0.16588354  0.72727453  0.43676923  1
  N  N29  1  0.37225396  0.88238020  0.83634364  1
  N  N30  1  0.30800890  0.45843481  0.77944410  1
  N  N31  1  0.24598635  0.40001443  0.57270752  1
  N  N32  1  0.14269280  0.07670007  0.39032600  1
  N  N33  1  0.26963795  0.05019990  0.68898655  1
  N  N34  1  0.36262335  0.92310287  0.16868695  1
  N  N35  1  0.40492969  0.46206091  0.32867959  1
  N  N36  1  0.59507031  0.53793909  0.67132041  1
  N  N37  1  0.63737665  0.07689713  0.83131305  1
  N  N38  1  0.73036205  0.94980010  0.31101345  1
  N  N39  1  0.85730720  0.92329993  0.60967400  1
  N  N40  1  0.75401365  0.59998557  0.42729248  1
  N  N41  1  0.69199110  0.54156519  0.22055590  1
  N  N42  1  0.62774604  0.11762080  0.16365636  1
  N  N43  1  0.83411646  0.27272547  0.56323077  1
  F  F44  1  0.05049262  0.66061670  0.08431418  1
  F  F45  1  0.01974908  0.32170687  0.12417107  1
  F  F46  1  0.11861997  0.14812709  0.00692909  1
  F  F47  1  0.65112167  0.63839491  0.96800450  1
  F  F48  1  0.34887833  0.36160509  0.03199550  1
  F  F49  1  0.88138003  0.85187291  0.99307091  1
  F  F50  1  0.98025092  0.67829313  0.87582893  1
  F  F51  1  0.94950738  0.33938330  0.91568582  1
