# generated using pymatgen
data_LiBiP2O7
_symmetry_space_group_name_H-M   'P 1'
_cell_length_a   7.46602669
_cell_length_b   7.94331838
_cell_length_c   10.09997692
_cell_angle_alpha   90.00000000
_cell_angle_beta   111.19171442
_cell_angle_gamma   90.00000000
_symmetry_Int_Tables_number   1
_chemical_formula_structural   LiBiP2O7
_chemical_formula_sum   'Li4 Bi4 P8 O28'
_cell_volume   558.47407299
_cell_formula_units_Z   4
loop_
 _symmetry_equiv_pos_site_id
 _symmetry_equiv_pos_as_xyz
  1  'x, y, z'
loop_
 _atom_site_type_symbol
 _atom_site_label
 _atom_site_symmetry_multiplicity
 _atom_site_fract_x
 _atom_site_fract_y
 _atom_site_fract_z
 _atom_site_occupancy
  Li  Li0  1  0.24511371  0.50739177  0.75451770  1
  Li  Li1  1  0.24511371  0.99260823  0.25451770  1
  Li  Li2  1  0.75488629  0.00739177  0.74548230  1
  Li  Li3  1  0.75488629  0.49260823  0.24548230  1
  Bi  Bi4  1  0.28536491  0.97182721  0.77146610  1
  Bi  Bi5  1  0.28536491  0.52817279  0.27146610  1
  Bi  Bi6  1  0.71463509  0.47182721  0.72853390  1
  Bi  Bi7  1  0.71463509  0.02817279  0.22853390  1
  P  P8  1  0.08688441  0.75695883  0.96020759  1
  P  P9  1  0.08688441  0.74304117  0.46020759  1
  P  P10  1  0.33061678  0.22180437  0.54016274  1
  P  P11  1  0.66938322  0.72180437  0.95983726  1
  P  P12  1  0.33061678  0.27819563  0.04016274  1
  P  P13  1  0.66938322  0.77819563  0.45983726  1
  P  P14  1  0.91311559  0.25695883  0.53979241  1
  P  P15  1  0.91311559  0.24304117  0.03979241  1
  O  O16  1  0.94616212  0.43203815  0.60907956  1
  O  O17  1  0.17370632  0.63593136  0.88657687  1
  O  O18  1  0.12977742  0.17767120  0.56721258  1
  O  O19  1  0.29629380  0.27162025  0.88265285  1
  O  O20  1  0.18742905  0.74115832  0.62358382  1
  O  O21  1  0.94616212  0.06796185  0.10907956  1
  O  O22  1  0.17370632  0.86406864  0.38657687  1
  O  O23  1  0.40036641  0.39617328  0.61061223  1
  O  O24  1  0.12977742  0.32232880  0.06721258  1
  O  O25  1  0.54775928  0.57852940  0.86785832  1
  O  O26  1  0.29629380  0.22837975  0.38265285  1
  O  O27  1  0.18742905  0.75884168  0.12358382  1
  O  O28  1  0.45224072  0.07852940  0.63214168  1
  O  O29  1  0.59963359  0.89617328  0.88938777  1
  O  O30  1  0.40036641  0.10382672  0.11061223  1
  O  O31  1  0.54775928  0.92147060  0.36785832  1
  O  O32  1  0.81257095  0.24115832  0.87641618  1
  O  O33  1  0.70370620  0.77162025  0.61734715  1
  O  O34  1  0.45224072  0.42147060  0.13214168  1
  O  O35  1  0.87022258  0.67767120  0.93278742  1
  O  O36  1  0.59963359  0.60382672  0.38938777  1
  O  O37  1  0.82629368  0.13593136  0.61342313  1
  O  O38  1  0.05383788  0.93203815  0.89092044  1
  O  O39  1  0.81257095  0.25884168  0.37641618  1
  O  O40  1  0.70370620  0.72837975  0.11734715  1
  O  O41  1  0.87022258  0.82232880  0.43278742  1
  O  O42  1  0.82629368  0.36406864  0.11342313  1
  O  O43  1  0.05383788  0.56796185  0.39092044  1
