# generated using pymatgen
data_Tb5Ge3B
_symmetry_space_group_name_H-M   'P 1'
_cell_length_a   6.41102295
_cell_length_b   8.68043884
_cell_length_c   8.68031537
_cell_angle_alpha   120.00046610
_cell_angle_beta   90.00000000
_cell_angle_gamma   90.00000000
_symmetry_Int_Tables_number   1
_chemical_formula_structural   Tb5Ge3B
_chemical_formula_sum   'Tb10 Ge6 B2'
_cell_volume   418.34358037
_cell_formula_units_Z   2
loop_
 _symmetry_equiv_pos_site_id
 _symmetry_equiv_pos_as_xyz
  1  'x, y, z'
loop_
 _atom_site_type_symbol
 _atom_site_label
 _atom_site_symmetry_multiplicity
 _atom_site_fract_x
 _atom_site_fract_y
 _atom_site_fract_z
 _atom_site_occupancy
  Tb  Tb0  1  0.50000023  0.33332485  0.66667884  1
  Tb  Tb1  1  0.50000023  0.66664601  0.33332116  1
  Tb  Tb2  1  0.00000023  0.66667515  0.33332116  1
  Tb  Tb3  1  0.00000023  0.33335399  0.66667884  1
  Tb  Tb4  1  0.74999801  0.23774744  1.00000000  1
  Tb  Tb5  1  0.75000105  0.76224436  0.76222435  1
  Tb  Tb6  1  0.75000105  0.00002002  0.23777565  1
  Tb  Tb7  1  0.24999801  0.76225256  0.00000000  1
  Tb  Tb8  1  0.25000105  0.23775564  0.23777565  1
  Tb  Tb9  1  0.25000105  0.99997998  0.76222435  1
  Ge  Ge10  1  0.75000422  0.60196781  1.00000000  1
  Ge  Ge11  1  0.74999767  0.39806278  0.39806722  1
  Ge  Ge12  1  0.74999767  0.99999556  0.60193278  1
  Ge  Ge13  1  0.25000422  0.39803219  0.00000000  1
  Ge  Ge14  1  0.24999767  0.60193722  0.60193278  1
  Ge  Ge15  1  0.24999767  0.00000444  0.39806722  1
  B  B16  1  0.49999987  0.99999567  1.00000000  1
  B  B17  1  0.99999987  0.00000433  0.00000000  1
