# generated using pymatgen
data_FeB18H32(C4S)2
_symmetry_space_group_name_H-M   'P 1'
_cell_length_a   13.42080863
_cell_length_b   10.69944889
_cell_length_c   8.23932602
_cell_angle_alpha   90.00000000
_cell_angle_beta   90.00000000
_cell_angle_gamma   90.00000000
_symmetry_Int_Tables_number   1
_chemical_formula_structural   FeB18H32(C4S)2
_chemical_formula_sum   'Fe2 B36 H64 C16 S4'
_cell_volume   1183.12812910
_cell_formula_units_Z   2
loop_
 _symmetry_equiv_pos_site_id
 _symmetry_equiv_pos_as_xyz
  1  'x, y, z'
loop_
 _atom_site_type_symbol
 _atom_site_label
 _atom_site_symmetry_multiplicity
 _atom_site_fract_x
 _atom_site_fract_y
 _atom_site_fract_z
 _atom_site_occupancy
  Fe  Fe0  1  0.00000000  0.00000000  0.84895077  1
  Fe  Fe1  1  0.50000000  0.50000000  0.15104923  1
  B  B2  1  0.00756252  0.69886717  0.97017792  1
  B  B3  1  0.00977546  0.69454687  0.75675392  1
  B  B4  1  0.01694298  0.85226296  0.68126169  1
  B  B5  1  0.11895402  0.66065787  0.86975129  1
  B  B6  1  0.11991755  0.76455223  0.03832190  1
  B  B7  1  0.12612911  0.75399787  0.69184384  1
  B  B8  1  0.12744673  0.92218351  0.96401368  1
  B  B9  1  0.13193811  0.91386595  0.75019616  1
  B  B10  1  0.19467359  0.79683034  0.86796116  1
  B  B11  1  0.30532641  0.29683034  0.13203884  1
  B  B12  1  0.36806189  0.41386595  0.24980384  1
  B  B13  1  0.37255327  0.42218351  0.03598632  1
  B  B14  1  0.37387089  0.25399787  0.30815616  1
  B  B15  1  0.38008245  0.26455223  0.96167810  1
  B  B16  1  0.38104598  0.16065787  0.13024871  1
  B  B17  1  0.48305702  0.35226296  0.31873831  1
  B  B18  1  0.49022454  0.19454687  0.24324608  1
  B  B19  1  0.49243748  0.19886717  0.02982208  1
  B  B20  1  0.50756252  0.80113283  0.02982208  1
  B  B21  1  0.50977546  0.80545313  0.24324608  1
  B  B22  1  0.51694298  0.64773704  0.31873831  1
  B  B23  1  0.61895402  0.83934213  0.13024871  1
  B  B24  1  0.61991755  0.73544777  0.96167810  1
  B  B25  1  0.62612911  0.74600213  0.30815616  1
  B  B26  1  0.62744673  0.57781649  0.03598632  1
  B  B27  1  0.63193811  0.58613405  0.24980384  1
  B  B28  1  0.69467359  0.70316966  0.13203884  1
  B  B29  1  0.80532641  0.20316966  0.86796116  1
  B  B30  1  0.86806189  0.08613405  0.75019616  1
  B  B31  1  0.87255327  0.07781649  0.96401368  1
  B  B32  1  0.87387089  0.24600213  0.69184384  1
  B  B33  1  0.88008245  0.23544777  0.03832190  1
  B  B34  1  0.88104598  0.33934213  0.86975129  1
  B  B35  1  0.98305702  0.14773704  0.68126169  1
  B  B36  1  0.99022454  0.30545313  0.75675392  1
  B  B37  1  0.99243748  0.30113283  0.97017792  1
  H  H38  1  0.11276507  0.52371075  0.44716724  1
  H  H39  1  0.10861213  0.99842134  0.39348122  1
  H  H40  1  0.13302019  0.48162347  0.23852702  1
  H  H41  1  0.15553972  0.36836174  0.39604323  1
  H  H42  1  0.20586247  0.88321187  0.39449437  1
  H  H43  1  0.23281229  0.04212348  0.33418158  1
  H  H44  1  0.26718771  0.54212348  0.66581842  1
  H  H45  1  0.29413753  0.38321187  0.60550563  1
  H  H46  1  0.34446028  0.86836174  0.60395677  1
  H  H47  1  0.36697981  0.98162347  0.76147298  1
  H  H48  1  0.39138787  0.49842134  0.60651878  1
  H  H49  1  0.38723493  0.02371075  0.55283276  1
  H  H50  1  0.61276507  0.97628925  0.55283276  1
  H  H51  1  0.60861213  0.50157866  0.60651878  1
  H  H52  1  0.63302019  0.01837653  0.76147298  1
  H  H53  1  0.65553972  0.13163826  0.60395677  1
  H  H54  1  0.70586247  0.61678813  0.60550563  1
  H  H55  1  0.73281229  0.45787652  0.66581842  1
  H  H56  1  0.76718771  0.95787652  0.33418158  1
  H  H57  1  0.79413753  0.11678813  0.39449437  1
  H  H58  1  0.84446028  0.63163826  0.39604323  1
  H  H59  1  0.86697981  0.51837653  0.23852702  1
  H  H60  1  0.89138787  0.00157866  0.39348122  1
  H  H61  1  0.88723493  0.47628925  0.44716724  1
  H  H62  1  0.02439032  0.12243321  0.12310342  1
  H  H63  1  0.02344922  0.13847835  0.55223097  1
  H  H64  1  0.04164463  0.37980507  0.68895297  1
  H  H65  1  0.04585549  0.36323655  0.05218668  1
  H  H66  1  0.12617788  0.18921847  0.86514060  1
  H  H67  1  0.14735360  0.74152898  0.17310644  1
  H  H68  1  0.15126574  0.55670454  0.87828657  1
  H  H69  1  0.16549351  0.71847870  0.56956526  1
  H  H70  1  0.16982886  0.99222060  0.05350912  1
  H  H71  1  0.21664949  0.28882518  0.12278706  1
  H  H72  1  0.28335051  0.78882518  0.87721294  1
  H  H73  1  0.33017114  0.49222060  0.94649088  1
  H  H74  1  0.33450649  0.21847870  0.43043474  1
  H  H75  1  0.34873426  0.05670454  0.12171343  1
  H  H76  1  0.35264640  0.24152898  0.82689356  1
  H  H77  1  0.37382212  0.68921847  0.13485940  1
  H  H78  1  0.45414451  0.86323655  0.94781332  1
  H  H79  1  0.45835537  0.87980507  0.31104703  1
  H  H80  1  0.47655078  0.63847835  0.44776903  1
  H  H81  1  0.47560968  0.62243321  0.87689658  1
  H  H82  1  0.52439032  0.37756679  0.87689658  1
  H  H83  1  0.52344922  0.36152165  0.44776903  1
  H  H84  1  0.54164463  0.12019493  0.31104703  1
  H  H85  1  0.54585549  0.13676345  0.94781332  1
  H  H86  1  0.62617788  0.31078153  0.13485940  1
  H  H87  1  0.64735360  0.75847102  0.82689356  1
  H  H88  1  0.65126574  0.94329546  0.12171343  1
  H  H89  1  0.66549351  0.78152130  0.43043474  1
  H  H90  1  0.66982886  0.50777940  0.94649088  1
  H  H91  1  0.71664949  0.21117482  0.87721294  1
  H  H92  1  0.78335051  0.71117482  0.12278706  1
  H  H93  1  0.83017114  0.00777940  0.05350912  1
  H  H94  1  0.83450649  0.28152130  0.56956526  1
  H  H95  1  0.84873426  0.44329546  0.87828657  1
  H  H96  1  0.85264640  0.25847102  0.17310644  1
  H  H97  1  0.87382212  0.81078153  0.86514060  1
  H  H98  1  0.95414451  0.63676345  0.05218668  1
  H  H99  1  0.95835537  0.62019493  0.68895297  1
  H  H100  1  0.97655078  0.86152165  0.55223097  1
  H  H101  1  0.97560968  0.87756679  0.12310342  1
  C  C102  1  0.01686821  0.85638480  0.01296968  1
  C  C103  1  0.04564394  0.18314335  0.85464528  1
  C  C104  1  0.45435606  0.68314335  0.14535472  1
  C  C105  1  0.48313179  0.35638480  0.98703032  1
  C  C106  1  0.51686821  0.64361520  0.98703032  1
  C  C107  1  0.54564394  0.31685665  0.14535472  1
  C  C108  1  0.95435606  0.81685665  0.85464528  1
  C  C109  1  0.98313179  0.14361520  0.01296968  1
  C  C110  1  0.15822205  0.46773267  0.36360765  1
  C  C111  1  0.18805647  0.98213207  0.41378881  1
  C  C112  1  0.31194353  0.48213207  0.58621119  1
  C  C113  1  0.34177795  0.96773267  0.63639235  1
  C  C114  1  0.65822205  0.03226733  0.63639235  1
  C  C115  1  0.68805647  0.51786793  0.58621119  1
  C  C116  1  0.81194353  0.01786793  0.41378881  1
  C  C117  1  0.84177795  0.53226733  0.36360765  1
  S  S118  1  0.21501719  0.02370888  0.62164818  1
  S  S119  1  0.28498281  0.52370888  0.37835182  1
  S  S120  1  0.71501719  0.47629112  0.37835182  1
  S  S121  1  0.78498281  0.97629112  0.62164818  1
