# generated using pymatgen
data_Li3Ag2F5
_symmetry_space_group_name_H-M   'P 1'
_cell_length_a   5.75753436
_cell_length_b   8.16435538
_cell_length_c   11.94921904
_cell_angle_alpha   90.15139358
_cell_angle_beta   97.84943079
_cell_angle_gamma   98.98155311
_symmetry_Int_Tables_number   1
_chemical_formula_structural   Li3Ag2F5
_chemical_formula_sum   'Li12 Ag8 F20'
_cell_volume   549.44139988
_cell_formula_units_Z   4
loop_
 _symmetry_equiv_pos_site_id
 _symmetry_equiv_pos_as_xyz
  1  'x, y, z'
loop_
 _atom_site_type_symbol
 _atom_site_label
 _atom_site_symmetry_multiplicity
 _atom_site_fract_x
 _atom_site_fract_y
 _atom_site_fract_z
 _atom_site_occupancy
  Li  Li0  1  0.02118025  0.71337997  0.40300853  1
  Li  Li1  1  0.00724294  0.41806787  0.56241843  1
  Li  Li2  1  0.36449892  0.63484305  0.75795300  1
  Li  Li3  1  0.15945174  0.50658531  0.00907268  1
  Li  Li4  1  0.56889834  0.98584628  0.77010040  1
  Li  Li5  1  0.50672764  0.68592919  0.24287979  1
  Li  Li6  1  0.57056139  0.37328554  0.71100838  1
  Li  Li7  1  0.49417867  0.07306313  0.21307638  1
  Li  Li8  1  0.63396486  0.39848195  0.20769378  1
  Li  Li9  1  0.99776241  0.83758800  0.60467794  1
  Li  Li10  1  0.91312624  0.12308110  0.41103720  1
  Li  Li11  1  0.92305539  0.15236257  0.03652556  1
  Ag  Ag12  1  0.06749416  0.16746053  0.76638614  1
  Ag  Ag13  1  0.37334604  0.97046316  0.98947554  1
  Ag  Ag14  1  0.10218476  0.40967403  0.25922698  1
  Ag  Ag15  1  0.56746892  0.40159184  0.95384116  1
  Ag  Ag16  1  0.51915413  0.49664656  0.47178517  1
  Ag  Ag17  1  0.44720689  0.06322284  0.51850617  1
  Ag  Ag18  1  0.96987655  0.79638750  0.86335488  1
  Ag  Ag19  1  0.96883774  0.81694973  0.12192797  1
  F  F20  1  0.05176242  0.94106445  0.46002149  1
  F  F21  1  0.10622668  0.29258332  0.94672980  1
  F  F22  1  0.28110837  0.65807548  0.90681543  1
  F  F23  1  0.28780144  0.84644907  0.70496677  1
  F  F24  1  0.12735373  0.31449206  0.44091503  1
  F  F25  1  0.26639319  0.43444026  0.67150277  1
  F  F26  1  0.31041466  0.68698341  0.35574750  1
  F  F27  1  0.16409899  0.07704914  0.14940612  1
  F  F28  1  0.38255840  0.49710626  0.14119602  1
  F  F29  1  0.49072018  0.19162945  0.80355943  1
  F  F30  1  0.75018458  0.97754474  0.92616665  1
  F  F31  1  0.57833045  0.87657192  0.16667673  1
  F  F32  1  0.67732716  0.57455518  0.79494642  1
  F  F33  1  0.79454523  0.95341709  0.67461483  1
  F  F34  1  0.62312444  0.17754113  0.34864157  1
  F  F35  1  0.72172695  0.29124349  0.59793070  1
  F  F36  1  0.77370008  0.58307442  0.30289493  1
  F  F37  1  0.68606473  0.22085869  0.11813830  1
  F  F38  1  0.91660959  0.62554436  0.53774736  1
  F  F39  1  0.90274476  0.55108592  0.07870307  1
