# generated using pymatgen
data_Sb5O7F
_symmetry_space_group_name_H-M   'P 1'
_cell_length_a   5.28540393
_cell_length_b   14.44174051
_cell_length_c   14.44174051
_cell_angle_alpha   114.31233026
_cell_angle_beta   79.45600272
_cell_angle_gamma   100.54399728
_symmetry_Int_Tables_number   1
_chemical_formula_structural   Sb5O7F
_chemical_formula_sum   'Sb20 O28 F4'
_cell_volume   980.46451793
_cell_formula_units_Z   4
loop_
 _symmetry_equiv_pos_site_id
 _symmetry_equiv_pos_as_xyz
  1  'x, y, z'
loop_
 _atom_site_type_symbol
 _atom_site_label
 _atom_site_symmetry_multiplicity
 _atom_site_fract_x
 _atom_site_fract_y
 _atom_site_fract_z
 _atom_site_occupancy
  Sb  Sb0  1  0.34116299  0.22554349  0.11139920  1
  Sb  Sb1  1  0.72701971  0.11139920  0.22554349  1
  Sb  Sb2  1  0.22701971  0.27445651  0.38860080  1
  Sb  Sb3  1  0.84116299  0.38860080  0.27445651  1
  Sb  Sb4  1  0.36646373  0.51073199  0.14807467  1
  Sb  Sb5  1  0.13353627  0.64807467  0.01073199  1
  Sb  Sb6  1  0.99619359  0.01073199  0.64807467  1
  Sb  Sb7  1  0.50380641  0.14807467  0.51073199  1
  Sb  Sb8  1  0.70176710  0.45176710  0.54823290  1
  Sb  Sb9  1  0.20176710  0.95176710  0.04823290  1
  Sb  Sb10  1  0.79823290  0.04823290  0.95176710  1
  Sb  Sb11  1  0.29823290  0.54823290  0.45176710  1
  Sb  Sb12  1  0.49619359  0.85192533  0.48926801  1
  Sb  Sb13  1  0.63353627  0.48926801  0.85192533  1
  Sb  Sb14  1  0.00380641  0.98926801  0.35192533  1
  Sb  Sb15  1  0.86646373  0.35192533  0.98926801  1
  Sb  Sb16  1  0.77298029  0.72554349  0.61139920  1
  Sb  Sb17  1  0.15883701  0.61139920  0.72554349  1
  Sb  Sb18  1  0.27298029  0.88860080  0.77445651  1
  Sb  Sb19  1  0.65883701  0.77445651  0.88860080  1
  O  O20  1  0.47969102  0.08429063  0.07591621  1
  O  O21  1  0.97131561  0.07591621  0.08429063  1
  O  O22  1  0.05646606  0.07875162  0.27343157  1
  O  O23  1  0.75114701  0.27343157  0.07875162  1
  O  O24  1  0.52294794  0.40435612  0.01878015  1
  O  O25  1  0.63737197  0.01878015  0.40435612  1
  O  O26  1  0.95660617  0.25000000  0.25000000  1
  O  O27  1  0.45660617  0.25000000  0.25000000  1
  O  O28  1  0.02294794  0.48121985  0.09564388  1
  O  O29  1  0.13737197  0.09564388  0.48121985  1
  O  O30  1  0.25114701  0.42124838  0.22656843  1
  O  O31  1  0.55646606  0.22656843  0.42124838  1
  O  O32  1  0.47131561  0.41570937  0.42408379  1
  O  O33  1  0.97969102  0.42408379  0.41570937  1
  O  O34  1  0.02030898  0.57591621  0.58429063  1
  O  O35  1  0.52868439  0.58429063  0.57591621  1
  O  O36  1  0.44353394  0.77343157  0.57875162  1
  O  O37  1  0.74885299  0.57875162  0.77343157  1
  O  O38  1  0.97705206  0.51878015  0.90435612  1
  O  O39  1  0.86262803  0.90435612  0.51878015  1
  O  O40  1  0.04339383  0.75000000  0.75000000  1
  O  O41  1  0.54339383  0.75000000  0.75000000  1
  O  O42  1  0.36262803  0.98121985  0.59564388  1
  O  O43  1  0.47705206  0.59564388  0.98121985  1
  O  O44  1  0.24885299  0.72656843  0.92124838  1
  O  O45  1  0.94353394  0.92124838  0.72656843  1
  O  O46  1  0.52030898  0.91570937  0.92408379  1
  O  O47  1  0.02868439  0.92408379  0.91570937  1
  F  F48  1  0.15361653  0.40361653  0.59638347  1
  F  F49  1  0.65361653  0.90361653  0.09638347  1
  F  F50  1  0.34638347  0.09638347  0.90361653  1
  F  F51  1  0.84638347  0.59638347  0.40361653  1
