# generated using pymatgen
data_LiAg2F5
_symmetry_space_group_name_H-M   'P 1'
_cell_length_a   8.10225134
_cell_length_b   10.70927294
_cell_length_c   11.71823470
_cell_angle_alpha   90.21272245
_cell_angle_beta   88.92018397
_cell_angle_gamma   71.09852683
_symmetry_Int_Tables_number   1
_chemical_formula_structural   LiAg2F5
_chemical_formula_sum   'Li8 Ag16 F40'
_cell_volume   961.73155185
_cell_formula_units_Z   8
loop_
 _symmetry_equiv_pos_site_id
 _symmetry_equiv_pos_as_xyz
  1  'x, y, z'
loop_
 _atom_site_type_symbol
 _atom_site_label
 _atom_site_symmetry_multiplicity
 _atom_site_fract_x
 _atom_site_fract_y
 _atom_site_fract_z
 _atom_site_occupancy
  Li  Li0  1  0.29701502  0.28031587  0.05487317  1
  Li  Li1  1  0.19933115  0.60048364  0.21595414  1
  Li  Li2  1  0.38104354  0.33089897  0.55105616  1
  Li  Li3  1  0.30150018  0.90200312  0.77868698  1
  Li  Li4  1  0.69882435  0.09831844  0.22153764  1
  Li  Li5  1  0.61867216  0.66945753  0.44905871  1
  Li  Li6  1  0.80073803  0.39953889  0.78479129  1
  Li  Li7  1  0.70361919  0.71935140  0.94489213  1
  Ag  Ag8  1  0.12389913  0.09246418  0.23402913  1
  Ag  Ag9  1  0.99989446  0.49985625  0.00016123  1
  Ag  Ag10  1  0.12506584  0.17295635  0.74847711  1
  Ag  Ag11  1  0.50038509  0.00025948  0.49994316  1
  Ag  Ag12  1  0.39697782  0.33479723  0.26894753  1
  Ag  Ag13  1  0.21605966  0.76856419  0.50151680  1
  Ag  Ag14  1  0.25121348  0.74799412  0.00012408  1
  Ag  Ag15  1  0.37657739  0.42162588  0.77424397  1
  Ag  Ag16  1  0.62274008  0.57877983  0.22582930  1
  Ag  Ag17  1  0.74906524  0.25135284  0.99941936  1
  Ag  Ag18  1  0.78311023  0.23230479  0.49864720  1
  Ag  Ag19  1  0.60264404  0.66478277  0.73101942  1
  Ag  Ag20  1  0.50034337  0.00007310  0.99966223  1
  Ag  Ag21  1  0.99970473  0.49904006  0.49969970  1
  Ag  Ag22  1  0.87462610  0.82718969  0.25088869  1
  Ag  Ag23  1  0.87662237  0.90777901  0.76611940  1
  F  F24  1  0.02152470  0.05650426  0.38101291  1
  F  F25  1  0.23877641  0.12406994  0.08505797  1
  F  F26  1  0.28049224  0.06173237  0.60710624  1
  F  F27  1  0.16213431  0.42697332  0.15727702  1
  F  F28  1  0.05372984  0.72079563  0.10658131  1
  F  F29  1  0.07132033  0.64813626  0.57045950  1
  F  F30  1  0.30648466  0.14760339  0.31193432  1
  F  F31  1  0.20737524  0.35954973  0.67155088  1
  F  F32  1  0.34891228  0.05358491  0.84255791  1
  F  F33  1  0.11568100  0.72710622  0.33784638  1
  F  F34  1  0.24736092  0.41731715  0.42687172  1
  F  F35  1  0.24894155  0.37995843  0.92228283  1
  F  F36  1  0.16827225  0.66494144  0.87062395  1
  F  F37  1  0.06656198  0.95830803  0.84336837  1
  F  F38  1  0.54151483  0.22251744  0.10439556  1
  F  F39  1  0.42464735  0.52571123  0.14902702  1
  F  F40  1  0.56584645  0.16336456  0.55948495  1
  F  F41  1  0.33928821  0.82807596  0.13096712  1
  F  F42  1  0.49708606  0.43843152  0.61995339  1
  F  F43  1  0.35108389  0.77269367  0.66039668  1
  F  F44  1  0.64869395  0.22819619  0.34052824  1
  F  F45  1  0.50140277  0.56286053  0.38005270  1
  F  F46  1  0.66043119  0.17039756  0.86887072  1
  F  F47  1  0.57524481  0.47339200  0.85152487  1
  F  F48  1  0.43527538  0.83705191  0.44067550  1
  F  F49  1  0.45675793  0.77737065  0.89687042  1
  F  F50  1  0.93345761  0.04218937  0.15646053  1
  F  F51  1  0.83315581  0.33588435  0.13044026  1
  F  F52  1  0.75085618  0.62042649  0.07776326  1
  F  F53  1  0.75249540  0.58219946  0.57290793  1
  F  F54  1  0.88339564  0.27288726  0.66160331  1
  F  F55  1  0.65115930  0.94679217  0.15693721  1
  F  F56  1  0.79184153  0.64086149  0.32842901  1
  F  F57  1  0.69390183  0.85201697  0.68860357  1
  F  F58  1  0.92874490  0.35095253  0.42816460  1
  F  F59  1  0.94858087  0.27875763  0.89186514  1
  F  F60  1  0.83748520  0.57269034  0.84271533  1
  F  F61  1  0.71960816  0.93929767  0.39257598  1
  F  F62  1  0.76281861  0.87506561  0.91552697  1
  F  F63  1  0.97798678  0.94315973  0.61916488  1
