# generated using pymatgen
data_Li5Cu3F14
_symmetry_space_group_name_H-M   'P 1'
_cell_length_a   6.96576573
_cell_length_b   6.96576573
_cell_length_c   9.63802574
_cell_angle_alpha   90.00000000
_cell_angle_beta   90.00000000
_cell_angle_gamma   90.00000000
_symmetry_Int_Tables_number   1
_chemical_formula_structural   Li5Cu3F14
_chemical_formula_sum   'Li10 Cu6 F28'
_cell_volume   467.65524603
_cell_formula_units_Z   2
loop_
 _symmetry_equiv_pos_site_id
 _symmetry_equiv_pos_as_xyz
  1  'x, y, z'
loop_
 _atom_site_type_symbol
 _atom_site_label
 _atom_site_symmetry_multiplicity
 _atom_site_fract_x
 _atom_site_fract_y
 _atom_site_fract_z
 _atom_site_occupancy
  Li  Li0  1  0.00000000  0.00000000  0.50000000  1
  Li  Li1  1  0.22971641  0.27028359  0.25000000  1
  Li  Li2  1  0.22971641  0.27028359  0.75000000  1
  Li  Li3  1  0.27028359  0.77028359  0.75000000  1
  Li  Li4  1  0.27028359  0.77028359  0.25000000  1
  Li  Li5  1  0.50000000  0.50000000  0.00000000  1
  Li  Li6  1  0.72971641  0.22971641  0.75000000  1
  Li  Li7  1  0.72971641  0.22971641  0.25000000  1
  Li  Li8  1  0.77028359  0.72971641  0.75000000  1
  Li  Li9  1  0.77028359  0.72971641  0.25000000  1
  Cu  Cu10  1  0.00000000  0.00000000  0.00000000  1
  Cu  Cu11  1  0.00000000  0.50000000  0.00000000  1
  Cu  Cu12  1  0.00000000  0.50000000  0.50000000  1
  Cu  Cu13  1  0.50000000  0.50000000  0.50000000  1
  Cu  Cu14  1  0.50000000  0.00000000  0.00000000  1
  Cu  Cu15  1  0.50000000  0.00000000  0.50000000  1
  F  F16  1  0.00000000  0.00000000  0.19408267  1
  F  F17  1  0.00000000  0.00000000  0.80591733  1
  F  F18  1  0.03609627  0.69920703  0.36312210  1
  F  F19  1  0.03609627  0.69920703  0.63687790  1
  F  F20  1  0.10402195  0.24801954  0.00000000  1
  F  F21  1  0.19920703  0.53609627  0.13687790  1
  F  F22  1  0.19920703  0.53609627  0.86312210  1
  F  F23  1  0.24801954  0.89597805  0.00000000  1
  F  F24  1  0.25198046  0.39597805  0.50000000  1
  F  F25  1  0.30079297  0.03609627  0.36312210  1
  F  F26  1  0.30079297  0.03609627  0.63687790  1
  F  F27  1  0.39597805  0.74801954  0.50000000  1
  F  F28  1  0.46390373  0.19920703  0.13687790  1
  F  F29  1  0.46390373  0.19920703  0.86312210  1
  F  F30  1  0.50000000  0.50000000  0.30591733  1
  F  F31  1  0.50000000  0.50000000  0.69408267  1
  F  F32  1  0.53609627  0.80079297  0.13687790  1
  F  F33  1  0.53609627  0.80079297  0.86312210  1
  F  F34  1  0.60402195  0.25198046  0.50000000  1
  F  F35  1  0.69920703  0.96390373  0.36312210  1
  F  F36  1  0.69920703  0.96390373  0.63687790  1
  F  F37  1  0.74801954  0.60402195  0.50000000  1
  F  F38  1  0.75198046  0.10402195  0.00000000  1
  F  F39  1  0.80079297  0.46390373  0.13687790  1
  F  F40  1  0.80079297  0.46390373  0.86312210  1
  F  F41  1  0.89597805  0.75198046  0.00000000  1
  F  F42  1  0.96390373  0.30079297  0.36312210  1
  F  F43  1  0.96390373  0.30079297  0.63687790  1
