# generated using pymatgen
data_LiTi2O4
_symmetry_space_group_name_H-M   'P 1'
_cell_length_a   5.95934013
_cell_length_b   5.94241074
_cell_length_c   5.99779547
_cell_angle_alpha   89.98910100
_cell_angle_beta   59.78910120
_cell_angle_gamma   60.10483204
_symmetry_Int_Tables_number   1
_chemical_formula_structural   LiTi2O4
_chemical_formula_sum   'Li2 Ti4 O8'
_cell_volume   149.96088593
_cell_formula_units_Z   2
loop_
 _symmetry_equiv_pos_site_id
 _symmetry_equiv_pos_as_xyz
  1  'x, y, z'
loop_
 _atom_site_type_symbol
 _atom_site_label
 _atom_site_symmetry_multiplicity
 _atom_site_fract_x
 _atom_site_fract_y
 _atom_site_fract_z
 _atom_site_occupancy
  Li  Li0  1  0.00000000  0.50000000  0.50000000  1
  Li  Li1  1  0.00000000  0.00000000  0.50000000  1
  Ti  Ti2  1  0.50000000  0.00000000  0.50000000  1
  Ti  Ti3  1  0.50000000  0.00000000  0.00000000  1
  Ti  Ti4  1  0.00000000  0.50000000  0.00000000  1
  Ti  Ti5  1  0.00000000  0.00000000  0.00000000  1
  O  O6  1  0.97447998  0.76274690  0.78007209  1
  O  O7  1  0.97443423  0.76272147  0.24551437  1
  O  O8  1  0.47956666  0.78839830  0.76018351  1
  O  O9  1  0.52063126  0.76788315  0.23975790  1
  O  O10  1  0.47936874  0.23211685  0.76024210  1
  O  O11  1  0.52043334  0.21160170  0.23981749  1
  O  O12  1  0.02556577  0.23727853  0.75448563  1
  O  O13  1  0.02552002  0.23725310  0.21992791  1
