# generated using pymatgen
data_LiVPO5
_symmetry_space_group_name_H-M   'P 1'
_cell_length_a   12.62110667
_cell_length_b   6.31019672
_cell_length_c   10.52568166
_cell_angle_alpha   90.00000000
_cell_angle_beta   90.00000000
_cell_angle_gamma   90.00000000
_symmetry_Int_Tables_number   1
_chemical_formula_structural   LiVPO5
_chemical_formula_sum   'Li8 V8 P8 O40'
_cell_volume   838.28282226
_cell_formula_units_Z   8
loop_
 _symmetry_equiv_pos_site_id
 _symmetry_equiv_pos_as_xyz
  1  'x, y, z'
loop_
 _atom_site_type_symbol
 _atom_site_label
 _atom_site_symmetry_multiplicity
 _atom_site_fract_x
 _atom_site_fract_y
 _atom_site_fract_z
 _atom_site_occupancy
  Li  Li0  1  0.10940057  0.17422346  0.10018144  1
  Li  Li1  1  0.11836330  0.84576207  0.88967713  1
  Li  Li2  1  0.38163670  0.34576207  0.38967713  1
  Li  Li3  1  0.39059943  0.67422346  0.60018144  1
  Li  Li4  1  0.60940057  0.32577654  0.10018144  1
  Li  Li5  1  0.61836330  0.65423793  0.88967713  1
  Li  Li6  1  0.88163670  0.15423793  0.38967713  1
  Li  Li7  1  0.89059943  0.82577654  0.60018144  1
  V  V8  1  0.13062573  0.96323800  0.50428751  1
  V  V9  1  0.22783323  0.74043968  0.22880256  1
  V  V10  1  0.27216677  0.24043968  0.72880256  1
  V  V11  1  0.36937427  0.46323800  0.00428751  1
  V  V12  1  0.63062573  0.53676200  0.50428751  1
  V  V13  1  0.72783323  0.75956032  0.22880256  1
  V  V14  1  0.77216677  0.25956032  0.72880256  1
  V  V15  1  0.86937427  0.03676200  0.00428751  1
  P  P16  1  0.01780311  0.17015497  0.74731766  1
  P  P17  1  0.18309952  0.46239454  0.47761895  1
  P  P18  1  0.31690048  0.96239454  0.97761895  1
  P  P19  1  0.48219689  0.67015497  0.24731766  1
  P  P20  1  0.51780311  0.32984503  0.74731766  1
  P  P21  1  0.68309952  0.03760546  0.47761895  1
  P  P22  1  0.81690048  0.53760546  0.97761895  1
  P  P23  1  0.98219689  0.82984503  0.24731766  1
  O  O24  1  0.00922833  0.06787760  0.88296412  1
  O  O25  1  0.02087552  0.97847465  0.65046921  1
  O  O26  1  0.07442232  0.67822930  0.21496810  1
  O  O27  1  0.10917108  0.27046922  0.46943304  1
  O  O28  1  0.11746096  0.65416045  0.51892634  1
  O  O29  1  0.11970839  0.29988097  0.73792529  1
  O  O30  1  0.20363457  0.92978383  0.34452089  1
  O  O31  1  0.21914585  0.92824501  0.07137869  1
  O  O32  1  0.24383594  0.49417243  0.34954285  1
  O  O33  1  0.24161914  0.00169528  0.59747622  1
  O  O34  1  0.25838086  0.50169528  0.09747622  1
  O  O35  1  0.25616406  0.99417243  0.84954285  1
  O  O36  1  0.28085415  0.42824501  0.57137869  1
  O  O37  1  0.29636543  0.42978383  0.84452089  1
  O  O38  1  0.38029161  0.79988097  0.23792529  1
  O  O39  1  0.38253904  0.15416045  0.01892634  1
  O  O40  1  0.39082892  0.77046922  0.96943304  1
  O  O41  1  0.42557768  0.17822930  0.71496810  1
  O  O42  1  0.47912448  0.47847465  0.15046921  1
  O  O43  1  0.49077167  0.56787760  0.38296412  1
  O  O44  1  0.50922833  0.43212240  0.88296412  1
  O  O45  1  0.52087552  0.52152535  0.65046921  1
  O  O46  1  0.57442232  0.82177070  0.21496810  1
  O  O47  1  0.60917108  0.22953078  0.46943304  1
  O  O48  1  0.61746096  0.84583955  0.51892634  1
  O  O49  1  0.61970839  0.20011903  0.73792529  1
  O  O50  1  0.70363457  0.57021617  0.34452089  1
  O  O51  1  0.71914585  0.57175499  0.07137869  1
  O  O52  1  0.74383594  0.00582757  0.34954285  1
  O  O53  1  0.74161914  0.49830472  0.59747622  1
  O  O54  1  0.75838086  0.99830472  0.09747622  1
  O  O55  1  0.75616406  0.50582757  0.84954285  1
  O  O56  1  0.78085415  0.07175499  0.57137869  1
  O  O57  1  0.79636543  0.07021617  0.84452089  1
  O  O58  1  0.88029161  0.70011903  0.23792529  1
  O  O59  1  0.88253904  0.34583955  0.01892634  1
  O  O60  1  0.89082892  0.72953078  0.96943304  1
  O  O61  1  0.92557768  0.32177070  0.71496810  1
  O  O62  1  0.97912448  0.02152535  0.15046921  1
  O  O63  1  0.99077167  0.93212240  0.38296412  1
