# generated using pymatgen
data_Mn5O8
_symmetry_space_group_name_H-M   'P 1'
_cell_length_a   5.99598407
_cell_length_b   5.99598385
_cell_length_c   6.18769483
_cell_angle_alpha   90.00000652
_cell_angle_beta   61.01971523
_cell_angle_gamma   59.99999677
_symmetry_Int_Tables_number   1
_chemical_formula_structural   Mn5O8
_chemical_formula_sum   'Mn5 O8'
_cell_volume   159.68324486
_cell_formula_units_Z   1
loop_
 _symmetry_equiv_pos_site_id
 _symmetry_equiv_pos_as_xyz
  1  'x, y, z'
loop_
 _atom_site_type_symbol
 _atom_site_label
 _atom_site_symmetry_multiplicity
 _atom_site_fract_x
 _atom_site_fract_y
 _atom_site_fract_z
 _atom_site_occupancy
  Mn  Mn0  1  0.00000000  0.50000000  0.50000000  1
  Mn  Mn1  1  0.00000000  0.00000000  0.00000000  1
  Mn  Mn2  1  0.50000000  0.00000000  0.00000000  1
  Mn  Mn3  1  0.00000000  0.50000000  0.00000000  1
  Mn  Mn4  1  0.50000000  0.50000000  0.00000000  1
  O  O5  1  0.46112488  0.26943806  0.80831318  1
  O  O6  1  0.95400726  0.29388040  0.79810609  1
  O  O7  1  0.49577431  0.75211235  0.79810609  1
  O  O8  1  0.95400726  0.75211235  0.79810609  1
  O  O9  1  0.04599274  0.24788765  0.20189391  1
  O  O10  1  0.50422569  0.24788765  0.20189391  1
  O  O11  1  0.04599274  0.70611960  0.20189391  1
  O  O12  1  0.53887512  0.73056194  0.19168682  1
