# generated using pymatgen
data_LiVPO4
_symmetry_space_group_name_H-M   'P 1'
_cell_length_a   5.70756038
_cell_length_b   11.22221807
_cell_length_c   9.97687252
_cell_angle_alpha   90.00000000
_cell_angle_beta   91.98324823
_cell_angle_gamma   90.00000000
_symmetry_Int_Tables_number   1
_chemical_formula_structural   LiVPO4
_chemical_formula_sum   'Li8 V8 P8 O32'
_cell_volume   638.65073434
_cell_formula_units_Z   8
loop_
 _symmetry_equiv_pos_site_id
 _symmetry_equiv_pos_as_xyz
  1  'x, y, z'
loop_
 _atom_site_type_symbol
 _atom_site_label
 _atom_site_symmetry_multiplicity
 _atom_site_fract_x
 _atom_site_fract_y
 _atom_site_fract_z
 _atom_site_occupancy
  Li  Li0  1  0.08113004  0.11005137  0.93006450  1
  Li  Li1  1  0.08113004  0.38994863  0.43006450  1
  Li  Li2  1  0.45815594  0.65995404  0.67021862  1
  Li  Li3  1  0.45815594  0.84004596  0.17021862  1
  Li  Li4  1  0.54184406  0.15995404  0.82978138  1
  Li  Li5  1  0.54184406  0.34004596  0.32978138  1
  Li  Li6  1  0.91886996  0.61005137  0.56993550  1
  Li  Li7  1  0.91886996  0.88994863  0.06993550  1
  V  V8  1  0.13157948  0.90043076  0.72979198  1
  V  V9  1  0.13157948  0.59956924  0.22979198  1
  V  V10  1  0.33095149  0.37121476  0.98385986  1
  V  V11  1  0.33095149  0.12878524  0.48385986  1
  V  V12  1  0.66904851  0.87121476  0.51614014  1
  V  V13  1  0.66904851  0.62878524  0.01614014  1
  V  V14  1  0.86842052  0.40043076  0.77020802  1
  V  V15  1  0.86842052  0.09956924  0.27020802  1
  P  P16  1  0.11897280  0.64210228  0.90582712  1
  P  P17  1  0.11897280  0.85789772  0.40582712  1
  P  P18  1  0.37768806  0.39425833  0.64736978  1
  P  P19  1  0.37768806  0.10574167  0.14736978  1
  P  P20  1  0.62231194  0.89425833  0.85263022  1
  P  P21  1  0.62231194  0.60574167  0.35263022  1
  P  P22  1  0.88102720  0.14210228  0.59417288  1
  P  P23  1  0.88102720  0.35789772  0.09417288  1
  O  O24  1  0.03991904  0.79610440  0.53893072  1
  O  O25  1  0.10270860  0.07181845  0.64425504  1
  O  O26  1  0.03991904  0.70389560  0.03893072  1
  O  O27  1  0.10270860  0.42818155  0.14425504  1
  O  O28  1  0.19285008  0.72717290  0.79581014  1
  O  O29  1  0.13468044  0.46076537  0.63046024  1
  O  O30  1  0.19285008  0.77282710  0.29581014  1
  O  O31  1  0.13468044  0.03923463  0.13046024  1
  O  O32  1  0.33057495  0.55976323  0.94114089  1
  O  O33  1  0.38099664  0.31757883  0.77834926  1
  O  O34  1  0.33057495  0.94023677  0.44114089  1
  O  O35  1  0.39923104  0.31421718  0.52081540  1
  O  O36  1  0.41815613  0.98564446  0.84179188  1
  O  O37  1  0.38099664  0.18242117  0.27834926  1
  O  O38  1  0.39923104  0.18578282  0.02081540  1
  O  O39  1  0.41815613  0.51435554  0.34179188  1
  O  O40  1  0.58184387  0.48564446  0.65820812  1
  O  O41  1  0.60076896  0.81421718  0.97918460  1
  O  O42  1  0.61900336  0.81757883  0.72165074  1
  O  O43  1  0.58184387  0.01435554  0.15820812  1
  O  O44  1  0.60076896  0.68578282  0.47918460  1
  O  O45  1  0.66942505  0.05976323  0.55885911  1
  O  O46  1  0.61900336  0.68242117  0.22165074  1
  O  O47  1  0.66942505  0.44023677  0.05885911  1
  O  O48  1  0.86531956  0.96076537  0.86953976  1
  O  O49  1  0.80714992  0.22717290  0.70418986  1
  O  O50  1  0.86531956  0.53923463  0.36953976  1
  O  O51  1  0.80714992  0.27282710  0.20418986  1
  O  O52  1  0.89729140  0.57181845  0.85574496  1
  O  O53  1  0.96008096  0.29610440  0.96106928  1
  O  O54  1  0.89729140  0.92818155  0.35574496  1
  O  O55  1  0.96008096  0.20389560  0.46106928  1
