# generated using pymatgen
data_Ni5Sb(PO4)6
_symmetry_space_group_name_H-M   'P 1'
_cell_length_a   8.52701472
_cell_length_b   8.65287469
_cell_length_c   8.65287481
_cell_angle_alpha   59.99999694
_cell_angle_beta   59.51052686
_cell_angle_gamma   59.51052374
_symmetry_Int_Tables_number   1
_chemical_formula_structural   Ni5Sb(PO4)6
_chemical_formula_sum   'Ni5 Sb1 P6 O24'
_cell_volume   448.07407381
_cell_formula_units_Z   1
loop_
 _symmetry_equiv_pos_site_id
 _symmetry_equiv_pos_as_xyz
  1  'x, y, z'
loop_
 _atom_site_type_symbol
 _atom_site_label
 _atom_site_symmetry_multiplicity
 _atom_site_fract_x
 _atom_site_fract_y
 _atom_site_fract_z
 _atom_site_occupancy
  Ni  Ni0  1  0.01603792  0.99465403  0.99465403  1
  Ni  Ni1  1  0.07313018  0.64229027  0.64229027  1
  Ni  Ni2  1  0.49746213  0.50084629  0.50084629  1
  Ni  Ni3  1  0.43047792  0.85650736  0.85650736  1
  Ni  Ni4  1  0.92341871  0.35886010  0.35886010  1
  Sb  Sb5  1  0.57214519  0.14261860  0.14261860  1
  P  P6  1  0.24596288  0.25309164  0.54811678  1
  P  P7  1  0.24596288  0.95282970  0.25309164  1
  P  P8  1  0.24596288  0.54811678  0.95282970  1
  P  P9  1  0.74936727  0.45761258  0.04832683  1
  P  P10  1  0.74936727  0.04832683  0.74469332  1
  P  P11  1  0.74936727  0.74469332  0.45761258  1
  O  O12  1  0.06656188  0.10919320  0.31986424  1
  O  O13  1  0.06656188  0.50438068  0.10919320  1
  O  O14  1  0.06656188  0.31986424  0.50438068  1
  O  O15  1  0.22513413  0.09167493  0.74251994  1
  O  O16  1  0.43702323  0.18141786  0.38896284  1
  O  O17  1  0.28037253  0.40603408  0.55869767  1
  O  O18  1  0.22513413  0.94067099  0.09167493  1
  O  O19  1  0.28037253  0.75489671  0.40603408  1
  O  O20  1  0.56389535  0.60949476  0.01278076  1
  O  O21  1  0.28037253  0.55869767  0.75489671  1
  O  O22  1  0.77256302  0.25255601  0.06323003  1
  O  O23  1  0.56389535  0.01278076  0.81382913  1
  O  O24  1  0.43702323  0.99259707  0.18141786  1
  O  O25  1  0.22513413  0.74251994  0.94067099  1
  O  O26  1  0.72043408  0.43870053  0.24835336  1
  O  O27  1  0.43702323  0.38896284  0.99259707  1
  O  O28  1  0.72043408  0.24835336  0.59251203  1
  O  O29  1  0.77256302  0.06323003  0.91164995  1
  O  O30  1  0.72043408  0.59251203  0.43870053  1
  O  O31  1  0.56389535  0.81382913  0.60949476  1
  O  O32  1  0.77256302  0.91164995  0.25255601  1
  O  O33  1  0.93446128  0.68424657  0.48764299  1
  O  O34  1  0.93446128  0.48764299  0.89364917  1
  O  O35  1  0.93446128  0.89364917  0.68424657  1
