# generated using pymatgen
data_BiP3NO10
_symmetry_space_group_name_H-M   'P 1'
_cell_length_a   7.01512446
_cell_length_b   9.34291339
_cell_length_c   8.90556115
_cell_angle_alpha   70.55857441
_cell_angle_beta   65.96523542
_cell_angle_gamma   84.57824019
_symmetry_Int_Tables_number   1
_chemical_formula_structural   BiP3NO10
_chemical_formula_sum   'Bi2 P6 N2 O20'
_cell_volume   502.11210462
_cell_formula_units_Z   2
loop_
 _symmetry_equiv_pos_site_id
 _symmetry_equiv_pos_as_xyz
  1  'x, y, z'
loop_
 _atom_site_type_symbol
 _atom_site_label
 _atom_site_symmetry_multiplicity
 _atom_site_fract_x
 _atom_site_fract_y
 _atom_site_fract_z
 _atom_site_occupancy
  Bi  Bi0  1  0.18449256  0.70473663  0.04613497  1
  Bi  Bi1  1  0.81550744  0.29526337  0.95386503  1
  P  P2  1  0.33850900  0.34037875  0.91730580  1
  P  P3  1  0.66149100  0.65962125  0.08269420  1
  P  P4  1  0.14303416  0.05182272  0.13719240  1
  P  P5  1  0.85696584  0.94817728  0.86280760  1
  P  P6  1  0.29482913  0.23543695  0.27375086  1
  P  P7  1  0.70517087  0.76456305  0.72624914  1
  N  N8  1  0.32447373  0.77627384  0.52452169  1
  N  N9  1  0.67552627  0.22372616  0.47547831  1
  O  O10  1  0.43878265  0.68932318  0.46981607  1
  O  O11  1  0.56121735  0.31067682  0.53018393  1
  O  O12  1  0.56678472  0.38977444  0.82815949  1
  O  O13  1  0.43321528  0.61022556  0.17184051  1
  O  O14  1  0.81510399  0.58583183  0.15898966  1
  O  O15  1  0.18489601  0.41416817  0.84101034  1
  O  O16  1  0.67350653  0.84410834  0.03737950  1
  O  O17  1  0.32649347  0.15589166  0.96262050  1
  O  O18  1  0.93436572  0.10736957  0.13566460  1
  O  O19  1  0.06563428  0.89263043  0.86433540  1
  O  O20  1  0.81551197  0.11294655  0.84781505  1
  O  O21  1  0.18448803  0.88705345  0.15218495  1
  O  O22  1  0.81580791  0.91946020  0.71179872  1
  O  O23  1  0.18419209  0.08053980  0.28820128  1
  O  O24  1  0.53166750  0.21499307  0.19832834  1
  O  O25  1  0.46833250  0.78500693  0.80167166  1
  O  O26  1  0.24602703  0.35777378  0.11176769  1
  O  O27  1  0.75397297  0.64222622  0.88823231  1
  O  O28  1  0.19340146  0.27295972  0.43453357  1
  O  O29  1  0.80659854  0.72704028  0.56546643  1
