# generated using pymatgen
data_Li2Co2P2O9
_symmetry_space_group_name_H-M   'P 1'
_cell_length_a   7.97410825
_cell_length_b   5.53008784
_cell_length_c   14.72518998
_cell_angle_alpha   89.99820508
_cell_angle_beta   89.96772810
_cell_angle_gamma   90.00429761
_symmetry_Int_Tables_number   1
_chemical_formula_structural   Li2Co2P2O9
_chemical_formula_sum   'Li8 Co8 P8 O36'
_cell_volume   649.34424123
_cell_formula_units_Z   4
loop_
 _symmetry_equiv_pos_site_id
 _symmetry_equiv_pos_as_xyz
  1  'x, y, z'
loop_
 _atom_site_type_symbol
 _atom_site_label
 _atom_site_symmetry_multiplicity
 _atom_site_fract_x
 _atom_site_fract_y
 _atom_site_fract_z
 _atom_site_occupancy
  Li  Li0  1  0.06612351  0.24999280  0.75270830  1
  Li  Li1  1  0.04678562  0.25000644  0.12573298  1
  Li  Li2  1  0.45354387  0.74998420  0.62551688  1
  Li  Li3  1  0.43273249  0.74999939  0.25354213  1
  Li  Li4  1  0.56707789  0.25000303  0.74664599  1
  Li  Li5  1  0.54627261  0.25001026  0.37444245  1
  Li  Li6  1  0.95325137  0.74999300  0.87427415  1
  Li  Li7  1  0.93398722  0.75000807  0.24731810  1
  Co  Co8  1  0.00002143  -0.00001285  0.50001600  1
  Co  Co9  1  0.00002165  0.50000973  0.50001618  1
  Co  Co10  1  0.21423413  0.25000171  0.93542659  1
  Co  Co11  1  0.28583332  0.74999471  0.43565739  1
  Co  Co12  1  0.50002533  -0.00001654  0.99997373  1
  Co  Co13  1  0.50002531  0.50001778  0.99997371  1
  Co  Co14  1  0.71420315  0.25000430  0.56434564  1
  Co  Co15  1  0.78578551  0.75000206  0.06454586  1
  P  P16  1  0.18019758  0.75000697  0.07635077  1
  P  P17  1  0.19846222  0.25000801  0.33681322  1
  P  P18  1  0.30151638  0.75000517  0.83696893  1
  P  P19  1  0.31971438  0.24998967  0.57638229  1
  P  P20  1  0.68025575  0.75000630  0.42368454  1
  P  P21  1  0.69844662  0.24999932  0.16299575  1
  P  P22  1  0.80154172  0.74999339  0.66320874  1
  P  P23  1  0.81980636  0.24999202  0.92358219  1
  O  O24  1  0.98945663  0.25000785  0.97417683  1
  O  O25  1  0.05750407  0.25000321  0.41529687  1
  O  O26  1  0.05789458  0.75000310  0.42068797  1
  O  O27  1  0.10700069  0.25000401  0.24886512  1
  O  O28  1  0.16717466  0.75000023  0.17873150  1
  O  O29  1  0.18344236  0.52557663  0.85152609  1
  O  O30  1  0.18345488  0.97441543  0.85152098  1
  O  O31  1  0.22856008  0.01125511  0.54267509  1
  O  O32  1  0.22856681  0.48871485  0.54267615  1
  O  O33  1  0.27136703  0.51127813  0.04266923  1
  O  O34  1  0.27137311  0.98874659  0.04266043  1
  O  O35  1  0.31665202  0.02545893  0.35152154  1
  O  O36  1  0.31666563  0.47457567  0.35151557  1
  O  O37  1  0.33256096  0.24998878  0.67867579  1
  O  O38  1  0.39334693  0.75001098  0.74860690  1
  O  O39  1  0.44225292  0.25000378  0.92064438  1
  O  O40  1  0.44262232  0.75001359  0.91517411  1
  O  O41  1  0.51050739  0.74999032  0.47446966  1
  O  O42  1  0.48946213  0.25000423  0.52562539  1
  O  O43  1  0.55740186  0.24998762  0.08475622  1
  O  O44  1  0.55776450  0.74999594  0.07927469  1
  O  O45  1  0.60662893  0.24999588  0.25134430  1
  O  O46  1  0.66725157  0.75001051  0.32140142  1
  O  O47  1  0.68339871  0.52538785  0.64851778  1
  O  O48  1  0.68341335  0.97458165  0.64851191  1
  O  O49  1  0.72865318  0.01125943  0.95729544  1
  O  O50  1  0.72865698  0.48871286  0.95728389  1
  O  O51  1  0.77144883  0.51128975  0.45735545  1
  O  O52  1  0.77145513  0.98873174  0.45735726  1
  O  O53  1  0.81654899  0.02562768  0.14846651  1
  O  O54  1  0.81655952  0.47439203  0.14845952  1
  O  O55  1  0.83276283  0.24999274  0.82119922  1
  O  O56  1  0.89312025  0.74999787  0.75114747  1
  O  O57  1  0.94216077  0.24999420  0.57932153  1
  O  O58  1  0.94250981  0.74999460  0.58472084  1
  O  O59  1  0.01053417  0.74999731  0.02574444  1
