# generated using pymatgen
data_Li2Si3Ni2O9
_symmetry_space_group_name_H-M   'P 1'
_cell_length_a   9.93840866
_cell_length_b   9.93840941
_cell_length_c   12.24471243
_cell_angle_alpha   90.00000000
_cell_angle_beta   90.00000000
_cell_angle_gamma   119.99999837
_symmetry_Int_Tables_number   1
_chemical_formula_structural   Li2Si3Ni2O9
_chemical_formula_sum   'Li12 Si18 Ni12 O54'
_cell_volume   1047.40094893
_cell_formula_units_Z   6
loop_
 _symmetry_equiv_pos_site_id
 _symmetry_equiv_pos_as_xyz
  1  'x, y, z'
loop_
 _atom_site_type_symbol
 _atom_site_label
 _atom_site_symmetry_multiplicity
 _atom_site_fract_x
 _atom_site_fract_y
 _atom_site_fract_z
 _atom_site_occupancy
  Li  Li0  1  0.14310718  0.97540448  0.18325095  1
  Li  Li1  1  0.30308195  0.82528076  0.01347790  1
  Li  Li2  1  0.17471924  0.47780119  0.68014390  1
  Li  Li3  1  0.02459552  0.16770269  0.84991795  1
  Li  Li4  1  0.52219881  0.69691805  0.34681090  1
  Li  Li5  1  0.16680240  0.02813104  0.68284464  1
  Li  Li6  1  0.34545964  0.33176674  0.76102302  1
  Li  Li7  1  0.83229731  0.85689282  0.51658395  1
  Li  Li8  1  0.86132964  0.83319760  0.01617764  1
  Li  Li9  1  0.66823326  0.01369290  0.42769002  1
  Li  Li10  1  0.98630710  0.65454036  0.09435702  1
  Li  Li11  1  0.97186896  0.13867036  0.34951164  1
  Si  Si12  1  0.13884862  0.95676752  0.91835294  1
  Si  Si13  1  0.29212983  0.81424675  0.75737869  1
  Si  Si14  1  0.17459413  0.50720241  0.90524828  1
  Si  Si15  1  0.33260828  0.82540687  0.23858228  1
  Si  Si16  1  0.04323248  0.18208110  0.58501894  1
  Si  Si17  1  0.18575325  0.47788308  0.42404569  1
  Si  Si18  1  0.17114625  0.00504988  0.43630529  1
  Si  Si19  1  0.49279759  0.66739172  0.57191528  1
  Si  Si20  1  0.52211692  0.70787017  0.09071169  1
  Si  Si21  1  0.61833976  0.48856618  0.44481874  1
  Si  Si22  1  0.46993355  0.18412210  0.57228803  1
  Si  Si23  1  0.81791890  0.86115138  0.25168594  1
  Si  Si24  1  0.83390263  0.82885375  0.76963929  1
  Si  Si25  1  0.71418855  0.53006645  0.90562203  1
  Si  Si26  1  0.51143382  0.12977358  0.11148474  1
  Si  Si27  1  0.87022642  0.38166024  0.77815174  1
  Si  Si28  1  0.81587790  0.28581145  0.23895503  1
  Si  Si29  1  0.99495012  0.16609737  0.10297229  1
  Ni  Ni30  1  0.34093241  0.82790564  0.49806643  1
  Ni  Ni31  1  0.17209436  0.51302677  0.16473343  1
  Ni  Ni32  1  0.48697323  0.65906759  0.83139943  1
  Ni  Ni33  1  0.34221991  0.32938394  0.23744085  1
  Ni  Ni34  1  0.37014365  0.33288014  0.00151664  1
  Ni  Ni35  1  0.48933886  0.16083470  0.84030628  1
  Ni  Ni36  1  0.67149584  0.51066114  0.17363928  1
  Ni  Ni37  1  0.98716403  0.65778009  0.57077485  1
  Ni  Ni38  1  0.96273648  0.62985635  0.33485064  1
  Ni  Ni39  1  0.66711986  0.03726352  0.66818364  1
  Ni  Ni40  1  0.67061606  0.01283597  0.90410785  1
  Ni  Ni41  1  0.83916530  0.32850416  0.50697328  1
  O  O42  1  0.07076764  0.81500870  0.43733806  1
  O  O43  1  0.09746646  0.87751782  0.03704982  1
  O  O44  1  0.19224627  0.86240204  0.83574984  1
  O  O45  1  0.14710771  0.69893417  0.23238169  1
  O  O46  1  0.05915875  0.53349707  0.44024280  1
  O  O47  1  0.01790283  0.37705879  0.84035666  1
  O  O48  1  0.21586549  0.76844549  0.63577874  1
  O  O49  1  0.14224769  0.57371519  0.01587707  1
  O  O50  1  0.35915696  0.98209717  0.17368966  1
  O  O51  1  0.26462515  0.65125438  0.81443727  1
  O  O52  1  0.13759796  0.32984423  0.50241684  1
  O  O53  1  0.43146750  0.85775231  0.34921007  1
  O  O54  1  0.12248218  0.21994964  0.70371682  1
  O  O55  1  0.23155451  0.44742000  0.30244574  1
  O  O56  1  0.47433832  0.94084125  0.77357580  1
  O  O57  1  0.38662923  0.73537485  0.14777027  1
  O  O58  1  0.30106583  0.44817354  0.89904769  1
  O  O59  1  0.18499130  0.25575893  0.10400406  1
  O  O60  1  0.07631750  0.04964821  0.52797751  1
  O  O61  1  0.34874562  0.61337077  0.48110427  1
  O  O62  1  0.20246989  0.10376394  0.32532397  1
  O  O63  1  0.42628481  0.56853250  0.68254307  1
  O  O64  1  0.55182646  0.85289229  0.56571469  1
  O  O65  1  0.55258000  0.78413451  0.96911274  1
  O  O66  1  0.26699831  0.13816519  0.90474819  1
  O  O67  1  0.46650293  0.52566168  0.10690880  1
  O  O68  1  0.67015577  0.80775373  0.16908284  1
  O  O69  1  0.62294121  0.64084304  0.50702266  1
  O  O70  1  0.33395006  0.03414125  0.49919840  1
  O  O71  1  0.74424107  0.92923236  0.77067106  1
  O  O72  1  0.55405654  0.48350112  0.32039742  1
  O  O73  1  0.39924074  0.17334738  0.69333868  1
  O  O74  1  0.78005036  0.90253354  0.37038382  1
  O  O75  1  0.48671383  0.33678481  0.50985554  1
  O  O76  1  0.48612293  0.27891277  0.12834979  1
  O  O77  1  0.54527453  0.37672296  0.89322289  1
  O  O78  1  0.70019118  0.66604994  0.83253240  1
  O  O79  1  0.51649888  0.07055542  0.98706442  1
  O  O80  1  0.77410564  0.60075926  0.02667168  1
  O  O81  1  0.90129405  0.79753011  0.65865697  1
  O  O82  1  0.87116688  0.73300169  0.23808119  1
  O  O83  1  0.62327704  0.16855256  0.55988989  1
  O  O84  1  0.79279084  0.51387707  0.46168279  1
  O  O85  1  0.97333071  0.92368250  0.86131051  1
  O  O86  1  0.66321519  0.14992802  0.17652154  1
  O  O87  1  0.85007198  0.51328617  0.84318854  1
  O  O88  1  0.83144744  0.45472547  0.22655589  1
  O  O89  1  0.72108723  0.20720916  0.79501679  1
  O  O90  1  0.82665262  0.22589436  0.36000568  1
  O  O91  1  0.92944458  0.44594346  0.65373042  1
  O  O92  1  0.86183481  0.12883312  0.57141419  1
  O  O93  1  0.96585875  0.29980882  0.16586540  1
  O  O94  1  0.89623606  0.09870595  0.99198997  1
  O  O95  1  0.95035179  0.02666929  0.19464451  1
