# generated using pymatgen
data_Li5V(SiO4)2
_symmetry_space_group_name_H-M   'P 1'
_cell_length_a   5.28299686
_cell_length_b   5.28299686
_cell_length_c   6.32245959
_cell_angle_alpha   90.40047258
_cell_angle_beta   89.59952742
_cell_angle_gamma   88.53639357
_symmetry_Int_Tables_number   1
_chemical_formula_structural   Li5V(SiO4)2
_chemical_formula_sum   'Li5 V1 Si2 O8'
_cell_volume   176.39378609
_cell_formula_units_Z   1
loop_
 _symmetry_equiv_pos_site_id
 _symmetry_equiv_pos_as_xyz
  1  'x, y, z'
loop_
 _atom_site_type_symbol
 _atom_site_label
 _atom_site_symmetry_multiplicity
 _atom_site_fract_x
 _atom_site_fract_y
 _atom_site_fract_z
 _atom_site_occupancy
  Li  Li0  1  0.17160404  0.80484148  0.48635989  1
  Li  Li1  1  0.69750041  0.69750041  0.75000000  1
  Li  Li2  1  0.32798062  0.32798062  0.25000000  1
  Li  Li3  1  0.68116502  0.68116502  0.25000000  1
  Li  Li4  1  0.80484148  0.17160404  0.01364011  1
  V  V5  1  0.32197725  0.32197725  0.75000000  1
  Si  Si6  1  0.16852937  0.81786064  0.00633813  1
  Si  Si7  1  0.81786064  0.16852937  0.49366187  1
  O  O8  1  0.30372996  0.69733630  0.21309405  1
  O  O9  1  0.30115218  0.69044324  0.78406715  1
  O  O10  1  0.13396321  0.21982109  0.50764054  1
  O  O11  1  0.79877405  0.86332213  0.49995261  1
  O  O12  1  0.21982109  0.13396321  0.99235946  1
  O  O13  1  0.86332213  0.79877405  0.00004739  1
  O  O14  1  0.69044324  0.30115218  0.71593285  1
  O  O15  1  0.69733630  0.30372996  0.28690595  1
