# generated using pymatgen
data_Li3Co11O14
_symmetry_space_group_name_H-M   'P 1'
_cell_length_a   5.13299822
_cell_length_b   10.76838884
_cell_length_c   5.12547691
_cell_angle_alpha   103.67807802
_cell_angle_beta   108.76902679
_cell_angle_gamma   85.74770016
_symmetry_Int_Tables_number   1
_chemical_formula_structural   Li3Co11O14
_chemical_formula_sum   'Li3 Co11 O14'
_cell_volume   260.63296890
_cell_formula_units_Z   1
loop_
 _symmetry_equiv_pos_site_id
 _symmetry_equiv_pos_as_xyz
  1  'x, y, z'
loop_
 _atom_site_type_symbol
 _atom_site_label
 _atom_site_symmetry_multiplicity
 _atom_site_fract_x
 _atom_site_fract_y
 _atom_site_fract_z
 _atom_site_occupancy
  Li  Li0  1  0.50178209  0.28661777  0.64106045  1
  Li  Li1  1  0.99890546  0.00360913  0.00011416  1
  Li  Li2  1  0.99872022  0.56736590  0.28245586  1
  Co  Co3  1  0.00016264  0.14380385  0.57085181  1
  Co  Co4  1  0.99824071  0.71591889  0.85686021  1
  Co  Co5  1  0.99963349  0.42786746  0.71194137  1
  Co  Co6  1  0.99811286  0.85756596  0.42526734  1
  Co  Co7  1  0.49717613  0.85883023  0.92692558  1
  Co  Co8  1  0.50119436  0.00802201  0.50493848  1
  Co  Co9  1  0.00052839  0.28524909  0.14152393  1
  Co  Co10  1  0.49835724  0.56551091  0.78040170  1
  Co  Co11  1  0.49729311  0.71302471  0.35470857  1
  Co  Co12  1  0.49949353  0.42826699  0.21200132  1
  Co  Co13  1  0.50002066  0.14416869  0.07068716  1
  O  O14  1  0.25295196  0.00313259  0.74399529  1
  O  O15  1  0.23258495  0.28530605  0.90798459  1
  O  O16  1  0.24983444  0.71627554  0.61191182  1
  O  O17  1  0.76012189  0.15183185  0.83656265  1
  O  O18  1  0.76178881  0.41874319  0.96997395  1
  O  O19  1  0.24025374  0.15220540  0.31343727  1
  O  O20  1  0.23837285  0.41882196  0.44516967  1
  O  O21  1  0.74487523  0.00349681  0.25606571  1
  O  O22  1  0.74320672  0.56900748  0.53987918  1
  O  O23  1  0.25099203  0.85577529  0.18248227  1
  O  O24  1  0.76814100  0.28616543  0.37519910  1
  O  O25  1  0.25506005  0.56834748  0.02560108  1
  O  O26  1  0.74560437  0.85611767  0.67013785  1
  O  O27  1  0.74417810  0.71689566  0.09974764  1
