# generated using pymatgen
data_Li3Cr(PO4)2
_symmetry_space_group_name_H-M   'P 1'
_cell_length_a   8.51130891
_cell_length_b   5.34321212
_cell_length_c   6.72233010
_cell_angle_alpha   90.00000000
_cell_angle_beta   95.96414135
_cell_angle_gamma   90.00000000
_symmetry_Int_Tables_number   1
_chemical_formula_structural   Li3Cr(PO4)2
_chemical_formula_sum   'Li6 Cr2 P4 O16'
_cell_volume   304.06150045
_cell_formula_units_Z   2
loop_
 _symmetry_equiv_pos_site_id
 _symmetry_equiv_pos_as_xyz
  1  'x, y, z'
loop_
 _atom_site_type_symbol
 _atom_site_label
 _atom_site_symmetry_multiplicity
 _atom_site_fract_x
 _atom_site_fract_y
 _atom_site_fract_z
 _atom_site_occupancy
  Li  Li0  1  0.99420792  0.75000000  0.32694483  1
  Li  Li1  1  0.30504728  0.25000000  0.42100729  1
  Li  Li2  1  0.36669202  0.75000000  0.73644640  1
  Li  Li3  1  0.63330798  0.25000000  0.26355360  1
  Li  Li4  1  0.69495272  0.75000000  0.57899271  1
  Li  Li5  1  0.00579208  0.25000000  0.67305517  1
  Cr  Cr6  1  0.24644331  0.25000000  0.97881585  1
  Cr  Cr7  1  0.75355669  0.75000000  0.02118415  1
  P  P8  1  0.06055716  0.75000000  0.78373008  1
  P  P9  1  0.40181753  0.75000000  0.25269954  1
  P  P10  1  0.59818247  0.25000000  0.74730046  1
  P  P11  1  0.93944284  0.25000000  0.21626992  1
  O  O12  1  0.97905947  0.75000000  0.97599713  1
  O  O13  1  0.05813357  0.25000000  0.40283862  1
  O  O14  1  0.17489936  0.51929625  0.77494583  1
  O  O15  1  0.17489936  0.98070375  0.77494583  1
  O  O16  1  0.30569730  0.50753730  0.19249139  1
  O  O17  1  0.30569730  0.99246270  0.19249139  1
  O  O18  1  0.43750459  0.75000000  0.48070102  1
  O  O19  1  0.44815931  0.25000000  0.85683448  1
  O  O20  1  0.55184069  0.75000000  0.14316552  1
  O  O21  1  0.56249541  0.25000000  0.51929898  1
  O  O22  1  0.69430270  0.00753730  0.80750861  1
  O  O23  1  0.69430270  0.49246270  0.80750861  1
  O  O24  1  0.82510064  0.01929625  0.22505417  1
  O  O25  1  0.82510064  0.48070375  0.22505417  1
  O  O26  1  0.94186643  0.75000000  0.59716138  1
  O  O27  1  0.02094053  0.25000000  0.02400287  1
