# generated using pymatgen
data_Li7Fe3(SiO6)2
_symmetry_space_group_name_H-M   'P 1'
_cell_length_a   4.98082856
_cell_length_b   4.98041847
_cell_length_c   9.86122940
_cell_angle_alpha   94.82146928
_cell_angle_beta   99.67669249
_cell_angle_gamma   59.99728128
_symmetry_Int_Tables_number   1
_chemical_formula_structural   Li7Fe3(SiO6)2
_chemical_formula_sum   'Li7 Fe3 Si2 O12'
_cell_volume   208.83037614
_cell_formula_units_Z   1
loop_
 _symmetry_equiv_pos_site_id
 _symmetry_equiv_pos_as_xyz
  1  'x, y, z'
loop_
 _atom_site_type_symbol
 _atom_site_label
 _atom_site_symmetry_multiplicity
 _atom_site_fract_x
 _atom_site_fract_y
 _atom_site_fract_z
 _atom_site_occupancy
  Li  Li0  1  0.66383449  0.66666700  0.00660281  1
  Li  Li1  1  0.82590794  0.33867314  0.49339218  1
  Li  Li2  1  0.41666700  0.66666700  0.25000000  1
  Li  Li3  1  0.33541893  0.33867314  0.00660782  1
  Li  Li4  1  0.16949851  0.66666700  0.49339719  1
  Li  Li5  1  0.49791507  0.99465986  0.49339218  1
  Li  Li6  1  0.00742506  0.99465986  0.00660782  1
  Fe  Fe7  1  0.91666700  0.66666700  0.75000000  1
  Fe  Fe8  1  0.58378675  0.33242749  0.75000000  1
  Fe  Fe9  1  0.24954725  0.00090651  0.75000000  1
  Si  Si10  1  0.74997060  0.00005880  0.25000000  1
  Si  Si11  1  0.08336240  0.33327420  0.25000000  1
  O  O12  1  0.82501915  0.66666700  0.35238617  1
  O  O13  1  0.75687610  0.29230861  0.14758591  1
  O  O14  1  0.95557063  0.33385377  0.86856193  1
  O  O15  1  0.54250399  0.66666700  0.62866434  1
  O  O16  1  0.87776237  0.99947923  0.63143807  1
  O  O17  1  0.45081629  0.29230861  0.35241409  1
  O  O18  1  0.29083001  0.66666700  0.87133566  1
  O  O19  1  0.00831385  0.66666700  0.14761383  1
  O  O20  1  0.62275740  0.99947923  0.86856193  1
  O  O21  1  0.38251771  0.04102539  0.14758591  1
  O  O22  1  0.21057560  0.33385377  0.63143807  1
  O  O23  1  0.07645790  0.04102539  0.35241409  1
