# generated using pymatgen
data_Cr3Co3(TeO8)2
_symmetry_space_group_name_H-M   'P 1'
_cell_length_a   5.81462440
_cell_length_b   5.83842039
_cell_length_c   9.11825660
_cell_angle_alpha   90.00690769
_cell_angle_beta   88.64518742
_cell_angle_gamma   120.13666549
_symmetry_Int_Tables_number   1
_chemical_formula_structural   Cr3Co3(TeO8)2
_chemical_formula_sum   'Cr3 Co3 Te2 O16'
_cell_volume   267.60745314
_cell_formula_units_Z   1
loop_
 _symmetry_equiv_pos_site_id
 _symmetry_equiv_pos_as_xyz
  1  'x, y, z'
loop_
 _atom_site_type_symbol
 _atom_site_label
 _atom_site_symmetry_multiplicity
 _atom_site_fract_x
 _atom_site_fract_y
 _atom_site_fract_z
 _atom_site_occupancy
  Cr  Cr0  1  0.16534897  0.82626769  0.21707714  1
  Cr  Cr1  1  0.16530534  0.33971736  0.21687184  1
  Cr  Cr2  1  0.33634221  0.16788819  0.71893147  1
  Co  Co3  1  0.65336799  0.82700777  0.21228544  1
  Co  Co4  1  0.82512853  0.65551590  0.71266326  1
  Co  Co5  1  0.82507388  0.16900541  0.71274956  1
  Te  Te6  1  0.33912770  0.66940779  0.49387077  1
  Te  Te7  1  0.67150093  0.33587957  0.98964819  1
  O  O8  1  0.16735458  0.83470745  0.59672967  1
  O  O9  1  0.03759066  0.51897200  0.35141600  1
  O  O10  1  0.33765311  0.66932350  0.10824570  1
  O  O11  1  0.98497970  0.99269968  0.29810454  1
  O  O12  1  0.98751166  0.99346950  0.79714837  1
  O  O13  1  0.16743939  0.33231781  0.59669157  1
  O  O14  1  0.48882242  0.96269046  0.34083477  1
  O  O15  1  0.48883749  0.52647941  0.34063030  1
  O  O16  1  0.33744745  0.16891994  0.09602025  1
  O  O17  1  0.67443032  0.83695346  0.59690064  1
  O  O18  1  0.52369209  0.48575026  0.84299122  1
  O  O19  1  0.52361557  0.03761755  0.84313914  1
  O  O20  1  0.67144935  0.33534881  0.61195516  1
  O  O21  1  0.83268583  0.66599967  0.09466572  1
  O  O22  1  0.96272610  0.48115735  0.83136790  1
  O  O23  1  0.83256871  0.16710147  0.09478135  1
