# generated using pymatgen
data_LiMnPO4
_symmetry_space_group_name_H-M   'P 1'
_cell_length_a   7.72179039
_cell_length_b   8.58513514
_cell_length_c   4.82252429
_cell_angle_alpha   90.00000000
_cell_angle_beta   90.00000000
_cell_angle_gamma   90.00000000
_symmetry_Int_Tables_number   1
_chemical_formula_structural   LiMnPO4
_chemical_formula_sum   'Li4 Mn4 P4 O16'
_cell_volume   319.69774136
_cell_formula_units_Z   4
loop_
 _symmetry_equiv_pos_site_id
 _symmetry_equiv_pos_as_xyz
  1  'x, y, z'
loop_
 _atom_site_type_symbol
 _atom_site_label
 _atom_site_symmetry_multiplicity
 _atom_site_fract_x
 _atom_site_fract_y
 _atom_site_fract_z
 _atom_site_occupancy
  Li  Li0  1  0.14589727  0.02308950  0.03090610  1
  Li  Li1  1  0.35410273  0.52308950  0.53090610  1
  Li  Li2  1  0.64589727  0.47691050  0.03090610  1
  Li  Li3  1  0.85410273  0.97691050  0.53090610  1
  Mn  Mn4  1  0.02571444  0.68055982  0.97519836  1
  Mn  Mn5  1  0.47428556  0.18055982  0.47519836  1
  Mn  Mn6  1  0.52571444  0.81944018  0.97519836  1
  Mn  Mn7  1  0.97428556  0.31944018  0.47519836  1
  P  P8  1  0.24353342  0.86048056  0.55089652  1
  P  P9  1  0.25646658  0.36048056  0.05089652  1
  P  P10  1  0.74353342  0.63951944  0.55089652  1
  P  P11  1  0.75646658  0.13951944  0.05089652  1
  O  O12  1  0.08235240  0.94558049  0.65697244  1
  O  O13  1  0.09372765  0.45686625  0.14318019  1
  O  O14  1  0.24646101  0.83383683  0.22950787  1
  O  O15  1  0.25354590  0.70128433  0.70533853  1
  O  O16  1  0.24645410  0.20128433  0.20533853  1
  O  O17  1  0.25353899  0.33383683  0.72950787  1
  O  O18  1  0.40627235  0.95686625  0.64318019  1
  O  O19  1  0.41764760  0.44558049  0.15697244  1
  O  O20  1  0.58235240  0.55441951  0.65697244  1
  O  O21  1  0.59372765  0.04313375  0.14318019  1
  O  O22  1  0.74646101  0.66616317  0.22950787  1
  O  O23  1  0.75354590  0.79871567  0.70533853  1
  O  O24  1  0.74645410  0.29871567  0.20533853  1
  O  O25  1  0.75353899  0.16616317  0.72950787  1
  O  O26  1  0.90627235  0.54313375  0.64318019  1
  O  O27  1  0.91764760  0.05441951  0.15697244  1
