# generated using pymatgen
data_Li4Co5SbO12
_symmetry_space_group_name_H-M   'P 1'
_cell_length_a   4.99163573
_cell_length_b   5.01212866
_cell_length_c   9.88437608
_cell_angle_alpha   92.27008152
_cell_angle_beta   94.56242210
_cell_angle_gamma   60.13516338
_symmetry_Int_Tables_number   1
_chemical_formula_structural   Li4Co5SbO12
_chemical_formula_sum   'Li4 Co5 Sb1 O12'
_cell_volume   213.77481354
_cell_formula_units_Z   1
loop_
 _symmetry_equiv_pos_site_id
 _symmetry_equiv_pos_as_xyz
  1  'x, y, z'
loop_
 _atom_site_type_symbol
 _atom_site_label
 _atom_site_symmetry_multiplicity
 _atom_site_fract_x
 _atom_site_fract_y
 _atom_site_fract_z
 _atom_site_occupancy
  Li  Li0  1  0.19728302  0.33429541  0.71659421  1
  Li  Li1  1  0.46842157  0.33429541  0.28340579  1
  Li  Li2  1  0.53157843  0.66570459  0.71659421  1
  Li  Li3  1  0.80271698  0.66570459  0.28340579  1
  Co  Co4  1  0.16471223  0.67057553  0.50000000  1
  Co  Co5  1  0.66611938  0.66776023  1.00000000  1
  Co  Co6  1  0.33388062  0.33223977  0.00000000  1
  Co  Co7  1  0.83528777  0.32942447  0.50000000  1
  Co  Co8  1  0.50000000  0.00000000  0.50000000  1
  Sb  Sb9  1  0.00000000  0.00000000  0.00000000  1
  O  O10  1  0.01590116  0.65412334  0.10433934  1
  O  O11  1  0.32997550  0.65412334  0.89566066  1
  O  O12  1  0.15101774  0.33991589  0.39775246  1
  O  O13  1  0.49093263  0.66008411  0.39775246  1
  O  O14  1  0.50906737  0.33991589  0.60224754  1
  O  O15  1  0.18923587  0.00000000  0.60352501  1
  O  O16  1  0.84898226  0.66008411  0.60224754  1
  O  O17  1  0.67002450  0.34587666  0.10433934  1
  O  O18  1  0.36505556  1.00000000  0.10335787  1
  O  O19  1  0.98409884  0.34587666  0.89566066  1
  O  O20  1  0.63494444  0.00000000  0.89664213  1
  O  O21  1  0.81076413  1.00000000  0.39647499  1
