# generated using pymatgen
data_LiMnPO4
_symmetry_space_group_name_H-M   'P 1'
_cell_length_a   10.84380780
_cell_length_b   10.84380796
_cell_length_c   12.68398819
_cell_angle_alpha   90.00000000
_cell_angle_beta   90.00000000
_cell_angle_gamma   120.00000257
_symmetry_Int_Tables_number   1
_chemical_formula_structural   LiMnPO4
_chemical_formula_sum   'Li12 Mn12 P12 O48'
_cell_volume   1291.66555514
_cell_formula_units_Z   12
loop_
 _symmetry_equiv_pos_site_id
 _symmetry_equiv_pos_as_xyz
  1  'x, y, z'
loop_
 _atom_site_type_symbol
 _atom_site_label
 _atom_site_symmetry_multiplicity
 _atom_site_fract_x
 _atom_site_fract_y
 _atom_site_fract_z
 _atom_site_occupancy
  Li  Li0  1  0.00000000  0.50000000  0.00607195  1
  Li  Li1  1  0.00000000  0.50000000  0.66059505  1
  Li  Li2  1  0.00000000  0.50000000  0.33333300  1
  Li  Li3  1  0.00000000  0.00000000  0.16666700  1
  Li  Li4  1  0.00000000  0.00000000  0.50000000  1
  Li  Li5  1  0.00000000  0.00000000  0.83333300  1
  Li  Li6  1  0.50000000  0.50000000  0.33940495  1
  Li  Li7  1  0.50000000  0.50000000  0.66666700  1
  Li  Li8  1  0.50000000  0.50000000  0.99392805  1
  Li  Li9  1  0.50000000  0.00000000  0.32726205  1
  Li  Li10  1  0.50000000  0.00000000  0.00000000  1
  Li  Li11  1  0.50000000  0.00000000  0.67273795  1
  Mn  Mn12  1  1.00000000  0.74903686  0.83333300  1
  Mn  Mn13  1  0.00000000  0.25096314  0.83333300  1
  Mn  Mn14  1  0.24881965  0.75118035  0.16666700  1
  Mn  Mn15  1  0.24881965  0.49763829  0.50000000  1
  Mn  Mn16  1  0.50236171  0.75118035  0.83333300  1
  Mn  Mn17  1  0.25096314  0.25096314  0.16666700  1
  Mn  Mn18  1  0.25096314  0.00000000  0.50000000  1
  Mn  Mn19  1  0.74903686  0.74903686  0.16666700  1
  Mn  Mn20  1  0.49763829  0.24881965  0.83333300  1
  Mn  Mn21  1  0.75118035  0.50236171  0.50000000  1
  Mn  Mn22  1  0.75118035  0.24881965  0.16666700  1
  Mn  Mn23  1  0.74903686  1.00000000  0.50000000  1
  P  P24  1  0.00000000  0.75625945  0.33333300  1
  P  P25  1  0.24763491  0.75236509  0.66666700  1
  P  P26  1  1.00000000  0.24374055  0.33333300  1
  P  P27  1  0.24763491  0.49526982  0.00000000  1
  P  P28  1  0.24374055  0.24374055  0.66666700  1
  P  P29  1  0.50473018  0.75236509  0.33333300  1
  P  P30  1  0.24374055  1.00000000  0.00000000  1
  P  P31  1  0.49526982  0.24763491  0.33333300  1
  P  P32  1  0.75625945  0.75625945  0.66666700  1
  P  P33  1  0.75236509  0.50473018  0.00000000  1
  P  P34  1  0.75236509  0.24763491  0.66666700  1
  P  P35  1  0.75625945  0.00000000  0.00000000  1
  O  O36  1  0.06405545  0.87387978  0.41988145  1
  O  O37  1  0.12612022  0.93594455  0.91345155  1
  O  O38  1  0.10570156  0.69911818  0.72825889  1
  O  O39  1  0.10932730  0.71912495  0.28403862  1
  O  O40  1  0.28087505  0.89067270  0.04929438  1
  O  O41  1  0.30088182  0.89429844  0.60507411  1
  O  O42  1  0.20562471  0.62415606  0.59179578  1
  O  O43  1  0.10570156  0.40658438  0.93840811  1
  O  O44  1  0.20562471  0.58146865  0.07487022  1
  O  O45  1  0.10932730  0.39020236  0.38262738  1
  O  O46  1  0.06405545  0.19017567  0.24678455  1
  O  O47  1  0.37584394  0.79437529  0.74153722  1
  O  O48  1  0.41853135  0.79437529  0.25846278  1
  O  O49  1  0.12612022  0.19017567  0.75321545  1
  O  O50  1  0.28087505  0.39020236  0.61737262  1
  O  O51  1  0.37584394  0.58146865  0.92512978  1
  O  O52  1  0.30088182  0.40658438  0.06159189  1
  O  O53  1  0.41853135  0.62415606  0.40820422  1
  O  O54  1  0.19017567  0.12612022  0.58011855  1
  O  O55  1  0.19017567  0.06405545  0.08654845  1
  O  O56  1  0.59341562  0.89429844  0.39492589  1
  O  O57  1  0.60979764  0.89067270  0.95070562  1
  O  O58  1  0.60979764  0.71912495  0.71596138  1
  O  O59  1  0.40658438  0.30088182  0.27174111  1
  O  O60  1  0.59341562  0.69911818  0.27174111  1
  O  O61  1  0.39020236  0.28087505  0.71596138  1
  O  O62  1  0.39020236  0.10932730  0.95070562  1
  O  O63  1  0.40658438  0.10570156  0.39492589  1
  O  O64  1  0.80982433  0.93594455  0.08654845  1
  O  O65  1  0.80982433  0.87387978  0.58011855  1
  O  O66  1  0.58146865  0.37584394  0.40820422  1
  O  O67  1  0.69911818  0.59341562  0.06159189  1
  O  O68  1  0.62415606  0.41853135  0.92512978  1
  O  O69  1  0.71912495  0.60979764  0.61737262  1
  O  O70  1  0.87387978  0.80982433  0.75321545  1
  O  O71  1  0.58146865  0.20562471  0.25846278  1
  O  O72  1  0.62415606  0.20562471  0.74153722  1
  O  O73  1  0.93594455  0.80982433  0.24678455  1
  O  O74  1  0.89067270  0.60979764  0.38262738  1
  O  O75  1  0.79437529  0.41853135  0.07487022  1
  O  O76  1  0.89429844  0.59341562  0.93840811  1
  O  O77  1  0.79437529  0.37584394  0.59179578  1
  O  O78  1  0.69911818  0.10570156  0.60507411  1
  O  O79  1  0.71912495  0.10932730  0.04929438  1
  O  O80  1  0.89067270  0.28087505  0.28403862  1
  O  O81  1  0.89429844  0.30088182  0.72825889  1
  O  O82  1  0.87387978  0.06405545  0.91345155  1
  O  O83  1  0.93594455  0.12612022  0.41988145  1
