# generated using pymatgen
data_U3Al3CoRh2
_symmetry_space_group_name_H-M   'P 1'
_cell_length_a   4.12774744
_cell_length_b   6.74772063
_cell_length_c   6.75829654
_cell_angle_alpha   119.98950842
_cell_angle_beta   90.00000000
_cell_angle_gamma   90.00000000
_symmetry_Int_Tables_number   1
_chemical_formula_structural   U3Al3CoRh2
_chemical_formula_sum   'U3 Al3 Co1 Rh2'
_cell_volume   163.03617939
_cell_formula_units_Z   1
loop_
 _symmetry_equiv_pos_site_id
 _symmetry_equiv_pos_as_xyz
  1  'x, y, z'
loop_
 _atom_site_type_symbol
 _atom_site_label
 _atom_site_symmetry_multiplicity
 _atom_site_fract_x
 _atom_site_fract_y
 _atom_site_fract_z
 _atom_site_occupancy
  U  U0  1  0.50000000  0.56141314  0.98182806  1
  U  U1  1  0.50000000  0.42044673  0.43836534  1
  U  U2  1  0.50000000  0.01731600  0.57904392  1
  Al  Al3  1  -0.00000000  0.23559629  0.99669475  1
  Al  Al4  1  -0.00000000  0.76115197  0.76429150  1
  Al  Al5  1  -0.00000000  0.00330784  0.23915137  1
  Co  Co6  1  -0.00000000  0.33320456  0.66664182  1
  Rh  Rh7  1  0.00000000  0.66706468  0.33372263  1
  Rh  Rh8  1  0.50000000  0.00039878  0.00026061  1
