# generated using pymatgen
data_Li2Fe(Si2O5)2
_symmetry_space_group_name_H-M   'P 1'
_cell_length_a   11.15924675
_cell_length_b   7.75540860
_cell_length_c   11.20958957
_cell_angle_alpha   90.00000000
_cell_angle_beta   111.52965805
_cell_angle_gamma   90.00000000
_symmetry_Int_Tables_number   1
_chemical_formula_structural   Li2Fe(Si2O5)2
_chemical_formula_sum   'Li8 Fe4 Si16 O40'
_cell_volume   902.44046007
_cell_formula_units_Z   4
loop_
 _symmetry_equiv_pos_site_id
 _symmetry_equiv_pos_as_xyz
  1  'x, y, z'
loop_
 _atom_site_type_symbol
 _atom_site_label
 _atom_site_symmetry_multiplicity
 _atom_site_fract_x
 _atom_site_fract_y
 _atom_site_fract_z
 _atom_site_occupancy
  Li  Li0  1  0.09008659  0.25000000  0.38846905  1
  Li  Li1  1  0.02724357  0.25000000  0.10482368  1
  Li  Li2  1  0.37221003  0.25000000  0.87740100  1
  Li  Li3  1  0.37430716  0.25000000  0.45747832  1
  Li  Li4  1  0.62569284  0.75000000  0.54252168  1
  Li  Li5  1  0.62778997  0.75000000  0.12259900  1
  Li  Li6  1  0.97275643  0.75000000  0.89517632  1
  Li  Li7  1  0.90991341  0.75000000  0.61153095  1
  Fe  Fe8  1  0.21146943  0.01154270  0.27775355  1
  Fe  Fe9  1  0.21146943  0.48845730  0.27775355  1
  Fe  Fe10  1  0.78853057  0.51154270  0.72224645  1
  Fe  Fe11  1  0.78853057  0.98845730  0.72224645  1
  Si  Si12  1  0.08918245  0.04996013  0.74007776  1
  Si  Si13  1  0.08918245  0.45003987  0.74007776  1
  Si  Si14  1  0.25919737  0.95318484  0.58837836  1
  Si  Si15  1  0.25919737  0.54681516  0.58837836  1
  Si  Si16  1  0.24246733  0.55140536  0.00787655  1
  Si  Si17  1  0.24246733  0.94859464  0.00787655  1
  Si  Si18  1  0.52980838  0.55302908  0.77616144  1
  Si  Si19  1  0.52980838  0.94697092  0.77616144  1
  Si  Si20  1  0.47019162  0.05302908  0.22383856  1
  Si  Si21  1  0.47019162  0.44697092  0.22383856  1
  Si  Si22  1  0.75753267  0.05140536  0.99212345  1
  Si  Si23  1  0.75753267  0.44859464  0.99212345  1
  Si  Si24  1  0.74080263  0.04681516  0.41162164  1
  Si  Si25  1  0.74080263  0.45318484  0.41162164  1
  Si  Si26  1  0.91081755  0.54996013  0.25992224  1
  Si  Si27  1  0.91081755  0.95003987  0.25992224  1
  O  O28  1  0.04529498  0.25000000  0.69751810  1
  O  O29  1  0.22070197  0.05993002  0.87431107  1
  O  O30  1  0.22070197  0.44006998  0.87431107  1
  O  O31  1  0.19254505  0.75000000  0.96142394  1
  O  O32  1  0.13090034  0.53680105  0.62733061  1
  O  O33  1  0.13090034  0.96319895  0.62733061  1
  O  O34  1  0.02380397  0.06350781  0.24295183  1
  O  O35  1  0.02380397  0.43649219  0.24295183  1
  O  O36  1  0.28606682  0.75000000  0.56392709  1
  O  O37  1  0.24130638  0.06932365  0.46417024  1
  O  O38  1  0.24130638  0.43067635  0.46417024  1
  O  O39  1  0.16494631  0.03109095  0.08933551  1
  O  O40  1  0.16494631  0.46890905  0.08933551  1
  O  O41  1  0.38160879  0.47331999  0.71517244  1
  O  O42  1  0.38160879  0.02668001  0.71517244  1
  O  O43  1  0.52193516  0.75000000  0.82765371  1
  O  O44  1  0.59965600  0.05790830  0.91100487  1
  O  O45  1  0.59965600  0.44209170  0.91100487  1
  O  O46  1  0.39953475  0.04093411  0.32545592  1
  O  O47  1  0.39953475  0.45906589  0.32545592  1
  O  O48  1  0.60046525  0.54093411  0.67454408  1
  O  O49  1  0.60046525  0.95906589  0.67454408  1
  O  O50  1  0.40034400  0.55790830  0.08899513  1
  O  O51  1  0.40034400  0.94209170  0.08899513  1
  O  O52  1  0.47806484  0.25000000  0.17234629  1
  O  O53  1  0.61839121  0.52668001  0.28482756  1
  O  O54  1  0.61839121  0.97331999  0.28482756  1
  O  O55  1  0.83505369  0.96890905  0.91066449  1
  O  O56  1  0.83505369  0.53109095  0.91066449  1
  O  O57  1  0.75869362  0.56932365  0.53582976  1
  O  O58  1  0.75869362  0.93067635  0.53582976  1
  O  O59  1  0.71393318  0.25000000  0.43607291  1
  O  O60  1  0.97619603  0.56350781  0.75704817  1
  O  O61  1  0.97619603  0.93649219  0.75704817  1
  O  O62  1  0.86909966  0.03680105  0.37266939  1
  O  O63  1  0.86909966  0.46319895  0.37266939  1
  O  O64  1  0.80745495  0.25000000  0.03857606  1
  O  O65  1  0.77929803  0.55993002  0.12568893  1
  O  O66  1  0.77929803  0.94006998  0.12568893  1
  O  O67  1  0.95470502  0.75000000  0.30248190  1
