# generated using pymatgen
data_Li6Ti3Cr(PO4)6
_symmetry_space_group_name_H-M   'P 1'
_cell_length_a   8.60764672
_cell_length_b   8.57707997
_cell_length_c   8.67242214
_cell_angle_alpha   62.15387587
_cell_angle_beta   62.05678371
_cell_angle_gamma   62.82729625
_symmetry_Int_Tables_number   1
_chemical_formula_structural   Li6Ti3Cr(PO4)6
_chemical_formula_sum   'Li6 Ti3 Cr1 P6 O24'
_cell_volume   476.38943585
_cell_formula_units_Z   1
loop_
 _symmetry_equiv_pos_site_id
 _symmetry_equiv_pos_as_xyz
  1  'x, y, z'
loop_
 _atom_site_type_symbol
 _atom_site_label
 _atom_site_symmetry_multiplicity
 _atom_site_fract_x
 _atom_site_fract_y
 _atom_site_fract_z
 _atom_site_occupancy
  Li  Li0  1  0.02594476  0.99645301  0.99468763  1
  Li  Li1  1  0.75222024  0.15067276  0.34528845  1
  Li  Li2  1  0.47332843  0.50764141  0.49483748  1
  Li  Li3  1  0.23153273  0.83493574  0.66163150  1
  Li  Li4  1  0.65830920  0.23119597  0.83733217  1
  Li  Li5  1  0.83646194  0.66597983  0.22538544  1
  Ti  Ti6  1  0.14713864  0.14511163  0.13633620  1
  Ti  Ti7  1  0.35374715  0.35972997  0.35452823  1
  Ti  Ti8  1  0.64736032  0.64955767  0.64952958  1
  Cr  Cr9  1  0.85267055  0.85419718  0.84642284  1
  P  P10  1  0.05640978  0.75117770  0.44730640  1
  P  P11  1  0.44462460  0.05956156  0.75045199  1
  P  P12  1  0.75177124  0.45109166  0.05024971  1
  P  P13  1  0.25636213  0.54090654  0.95945120  1
  P  P14  1  0.54089143  0.95998601  0.25345083  1
  P  P15  1  0.95421698  0.25222470  0.53705102  1
  O  O16  1  0.12247471  0.30601668  0.49030685  1
  O  O17  1  0.32500529  0.48830213  0.11679702  1
  O  O18  1  0.05156781  0.92131348  0.26710476  1
  O  O19  1  0.51285832  0.11735385  0.31319373  1
  O  O20  1  0.24172361  0.59454008  0.41254557  1
  O  O21  1  0.04541783  0.79785683  0.60323109  1
  O  O22  1  0.25457987  0.07257409  0.90696715  1
  O  O23  1  0.43180804  0.23981051  0.57959491  1
  O  O24  1  0.59575307  0.42081619  0.24258788  1
  O  O25  1  0.19273383  0.38208995  0.99600610  1
  O  O26  1  0.10470112  0.73028202  0.94745565  1
  O  O27  1  0.37328125  0.00294522  0.20241710  1
  O  O28  1  0.59291537  0.04955104  0.80670267  1
  O  O29  1  0.90621371  0.25914540  0.07328744  1
  O  O30  1  0.80654539  0.60887294  0.02714906  1
  O  O31  1  0.41322204  0.56156250  0.76740667  1
  O  O32  1  0.55914541  0.76914368  0.41308448  1
  O  O33  1  0.72731865  0.94105309  0.09409462  1
  O  O34  1  0.97606180  0.20202230  0.37678636  1
  O  O35  1  0.76897959  0.41224061  0.56561449  1
  O  O36  1  0.49156213  0.88858525  0.69863038  1
  O  O37  1  0.93918805  0.09093437  0.72395176  1
  O  O38  1  0.69637404  0.48630040  0.88895824  1
  O  O39  1  0.88758096  0.69526603  0.49318235  1
