# generated using pymatgen
data_Li4Ti2V3Co3O16
_symmetry_space_group_name_H-M   'P 1'
_cell_length_a   5.83435339
_cell_length_b   5.82939102
_cell_length_c   9.48247169
_cell_angle_alpha   89.91678406
_cell_angle_beta   89.86531911
_cell_angle_gamma   120.03208234
_symmetry_Int_Tables_number   1
_chemical_formula_structural   Li4Ti2V3Co3O16
_chemical_formula_sum   'Li4 Ti2 V3 Co3 O16'
_cell_volume   279.20578510
_cell_formula_units_Z   1
loop_
 _symmetry_equiv_pos_site_id
 _symmetry_equiv_pos_as_xyz
  1  'x, y, z'
loop_
 _atom_site_type_symbol
 _atom_site_label
 _atom_site_symmetry_multiplicity
 _atom_site_fract_x
 _atom_site_fract_y
 _atom_site_fract_z
 _atom_site_occupancy
  Li  Li0  1  0.32823959  0.66195789  0.90415266  1
  Li  Li1  1  0.00991389  0.00605816  0.99532981  1
  Li  Li2  1  0.00470524  0.00351678  0.49313258  1
  Li  Li3  1  0.67214464  0.33653791  0.38913572  1
  Ti  Ti4  1  0.30729479  0.65314141  0.49431898  1
  Ti  Ti5  1  0.67090114  0.33720783  0.00404887  1
  V  V6  1  0.65710294  0.82941348  0.22403480  1
  V  V7  1  0.81371275  0.65036987  0.72076948  1
  V  V8  1  0.80555159  0.15821887  0.71853936  1
  Co  Co9  1  0.17552552  0.83151079  0.21282062  1
  Co  Co10  1  0.17523782  0.34422764  0.21269798  1
  Co  Co11  1  0.34117344  0.16884816  0.70933247  1
  O  O12  1  0.15119231  0.81824096  0.59144320  1
  O  O13  1  0.04628493  0.52297443  0.33102352  1
  O  O14  1  0.33646706  0.66881500  0.10942949  1
  O  O15  1  0.00757117  0.00374301  0.30309390  1
  O  O16  1  0.98828754  0.99446157  0.80492872  1
  O  O17  1  0.14753311  0.33424206  0.59179203  1
  O  O18  1  0.48075658  0.96286536  0.33569488  1
  O  O19  1  0.48059458  0.51852493  0.33590808  1
  O  O20  1  0.33951250  0.16984281  0.09832757  1
  O  O21  1  0.65823925  0.82872913  0.59597867  1
  O  O22  1  0.53541448  0.49523661  0.84844090  1
  O  O23  1  0.53593306  0.03413765  0.84725442  1
  O  O24  1  0.68598564  0.34612494  0.59758297  1
  O  O25  1  0.83955961  0.66953201  0.10033384  1
  O  O26  1  0.96565964  0.48250234  0.83817076  1
  O  O27  1  0.83950318  0.16931640  0.10012473  1
