# generated using pymatgen
data_Li2Fe2(SiO3)3
_symmetry_space_group_name_H-M   'P 1'
_cell_length_a   12.38980435
_cell_length_b   9.65449997
_cell_length_c   6.28087282
_cell_angle_alpha   90.00000000
_cell_angle_beta   90.00000000
_cell_angle_gamma   90.00000000
_symmetry_Int_Tables_number   1
_chemical_formula_structural   Li2Fe2(SiO3)3
_chemical_formula_sum   'Li8 Fe8 Si12 O36'
_cell_volume   751.30146118
_cell_formula_units_Z   4
loop_
 _symmetry_equiv_pos_site_id
 _symmetry_equiv_pos_as_xyz
  1  'x, y, z'
loop_
 _atom_site_type_symbol
 _atom_site_label
 _atom_site_symmetry_multiplicity
 _atom_site_fract_x
 _atom_site_fract_y
 _atom_site_fract_z
 _atom_site_occupancy
  Li  Li0  1  0.08400847  0.55893488  0.14856533  1
  Li  Li1  1  0.08400847  0.94106512  0.14856533  1
  Li  Li2  1  0.41599153  0.05893488  0.64856533  1
  Li  Li3  1  0.41599153  0.44106512  0.64856533  1
  Li  Li4  1  0.58400847  0.55893488  0.35143467  1
  Li  Li5  1  0.58400847  0.94106512  0.35143467  1
  Li  Li6  1  0.91599153  0.05893488  0.85143467  1
  Li  Li7  1  0.91599153  0.44106512  0.85143467  1
  Fe  Fe8  1  0.16375105  0.50242582  0.70168940  1
  Fe  Fe9  1  0.16375105  0.99757418  0.70168940  1
  Fe  Fe10  1  0.33624895  0.00242582  0.20168940  1
  Fe  Fe11  1  0.33624895  0.49757418  0.20168940  1
  Fe  Fe12  1  0.66375105  0.50242582  0.79831060  1
  Fe  Fe13  1  0.66375105  0.99757418  0.79831060  1
  Fe  Fe14  1  0.83624895  0.00242582  0.29831060  1
  Fe  Fe15  1  0.83624895  0.49757418  0.29831060  1
  Si  Si16  1  0.03595243  0.75000000  0.53491765  1
  Si  Si17  1  0.08116653  0.25000000  0.03594700  1
  Si  Si18  1  0.21439107  0.25000000  0.43281596  1
  Si  Si19  1  0.28560893  0.75000000  0.93281596  1
  Si  Si20  1  0.41883347  0.75000000  0.53594700  1
  Si  Si21  1  0.46404757  0.25000000  0.03491765  1
  Si  Si22  1  0.53595243  0.75000000  0.96508235  1
  Si  Si23  1  0.58116653  0.25000000  0.46405300  1
  Si  Si24  1  0.71439107  0.25000000  0.06718404  1
  Si  Si25  1  0.78560893  0.75000000  0.56718404  1
  Si  Si26  1  0.91883347  0.75000000  0.96405300  1
  Si  Si27  1  0.96404757  0.25000000  0.46508235  1
  O  O28  1  0.02492547  0.75000000  0.79972155  1
  O  O29  1  0.07237594  0.10264448  0.91435930  1
  O  O30  1  0.07237594  0.39735552  0.91435930  1
  O  O31  1  0.09569109  0.60877227  0.45879905  1
  O  O32  1  0.09569109  0.89122773  0.45879905  1
  O  O33  1  0.09335926  0.25000000  0.53941129  1
  O  O34  1  0.22581819  0.89527248  0.99761601  1
  O  O35  1  0.22581819  0.60472752  0.99761601  1
  O  O36  1  0.19667711  0.25000000  0.17223697  1
  O  O37  1  0.30332289  0.75000000  0.67223697  1
  O  O38  1  0.27418181  0.10472752  0.49761601  1
  O  O39  1  0.27418181  0.39527248  0.49761601  1
  O  O40  1  0.40664074  0.75000000  0.03941129  1
  O  O41  1  0.40430891  0.10877227  0.95879905  1
  O  O42  1  0.40430891  0.39122773  0.95879905  1
  O  O43  1  0.42762406  0.60264448  0.41435930  1
  O  O44  1  0.42762406  0.89735552  0.41435930  1
  O  O45  1  0.47507453  0.25000000  0.29972155  1
  O  O46  1  0.52492547  0.75000000  0.70027845  1
  O  O47  1  0.57237594  0.10264448  0.58564070  1
  O  O48  1  0.57237594  0.39735552  0.58564070  1
  O  O49  1  0.59569109  0.60877227  0.04120095  1
  O  O50  1  0.59569109  0.89122773  0.04120095  1
  O  O51  1  0.59335926  0.25000000  0.96058871  1
  O  O52  1  0.72581819  0.60472752  0.50238399  1
  O  O53  1  0.72581819  0.89527248  0.50238399  1
  O  O54  1  0.69667711  0.25000000  0.32776303  1
  O  O55  1  0.80332289  0.75000000  0.82776303  1
  O  O56  1  0.77418181  0.10472752  0.00238399  1
  O  O57  1  0.77418181  0.39527248  0.00238399  1
  O  O58  1  0.90664074  0.75000000  0.46058871  1
  O  O59  1  0.90430891  0.10877227  0.54120095  1
  O  O60  1  0.90430891  0.39122773  0.54120095  1
  O  O61  1  0.92762406  0.60264448  0.08564070  1
  O  O62  1  0.92762406  0.89735552  0.08564070  1
  O  O63  1  0.97507453  0.25000000  0.20027845  1
