# generated using pymatgen
data_Li6Fe3Sb(PO4)6
_symmetry_space_group_name_H-M   'P 1'
_cell_length_a   8.63900083
_cell_length_b   8.76982420
_cell_length_c   8.81254560
_cell_angle_alpha   60.84361340
_cell_angle_beta   60.99083427
_cell_angle_gamma   61.51053578
_symmetry_Int_Tables_number   1
_chemical_formula_structural   Li6Fe3Sb(PO4)6
_chemical_formula_sum   'Li6 Fe3 Sb1 P6 O24'
_cell_volume   483.92001823
_cell_formula_units_Z   1
loop_
 _symmetry_equiv_pos_site_id
 _symmetry_equiv_pos_as_xyz
  1  'x, y, z'
loop_
 _atom_site_type_symbol
 _atom_site_label
 _atom_site_symmetry_multiplicity
 _atom_site_fract_x
 _atom_site_fract_y
 _atom_site_fract_z
 _atom_site_occupancy
  Li  Li0  1  0.02915813  0.01535463  0.00738778  1
  Li  Li1  1  0.72968968  0.15566545  0.35184455  1
  Li  Li2  1  0.47195480  0.49759498  0.48839803  1
  Li  Li3  1  0.31071180  0.83916586  0.63832150  1
  Li  Li4  1  0.64333712  0.31257309  0.83566364  1
  Li  Li5  1  0.83606766  0.63838287  0.31296340  1
  Fe  Fe6  1  0.14678747  0.14932126  0.14056835  1
  Fe  Fe7  1  0.34927876  0.36080493  0.35325766  1
  Fe  Fe8  1  0.64746933  0.65348205  0.65342429  1
  Sb  Sb9  1  0.85405816  0.84997841  0.85162881  1
  P  P10  1  0.05258715  0.75196257  0.44070166  1
  P  P11  1  0.44433667  0.05060341  0.74860353  1
  P  P12  1  0.74870716  0.44463613  0.04990930  1
  P  P13  1  0.24700246  0.54295948  0.95428379  1
  P  P14  1  0.54833857  0.96018580  0.24555878  1
  P  P15  1  0.95275692  0.24230042  0.53657196  1
  O  O16  1  0.13097206  0.26026112  0.51051729  1
  O  O17  1  0.27715707  0.53293972  0.11398241  1
  O  O18  1  0.05506212  0.92490805  0.26541196  1
  O  O19  1  0.55788113  0.11132594  0.27713627  1
  O  O20  1  0.23870204  0.60155251  0.43290086  1
  O  O21  1  0.00083166  0.81026551  0.61090518  1
  O  O22  1  0.26186734  0.07883550  0.90928160  1
  O  O23  1  0.46637162  0.22497105  0.58147419  1
  O  O24  1  0.59755421  0.43348012  0.23983288  1
  O  O25  1  0.17321732  0.39372851  0.00058400  1
  O  O26  1  0.09638606  0.74744390  0.89916783  1
  O  O27  1  0.38500952  0.02216348  0.18359259  1
  O  O28  1  0.61110191  0.99225832  0.81797523  1
  O  O29  1  0.90934184  0.25967150  0.07267086  1
  O  O30  1  0.81159502  0.61030799  0.00239218  1
  O  O31  1  0.41444122  0.54887534  0.77143508  1
  O  O32  1  0.54835603  0.77769299  0.41158426  1
  O  O33  1  0.74939142  0.90100391  0.09135279  1
  O  O34  1  0.97137454  0.18392209  0.38924659  1
  O  O35  1  0.77623142  0.41280701  0.55382556  1
  O  O36  1  0.46553422  0.89651001  0.69650505  1
  O  O37  1  0.90337299  0.09178292  0.74307566  1
  O  O38  1  0.69069848  0.47378249  0.89677086  1
  O  O39  1  0.89530387  0.69353867  0.47029282  1
