# generated using pymatgen
data_Li2Fe2(SiO3)3
_symmetry_space_group_name_H-M   'P 1'
_cell_length_a   12.80535807
_cell_length_b   10.07081554
_cell_length_c   7.08146037
_cell_angle_alpha   90.00000000
_cell_angle_beta   90.00000000
_cell_angle_gamma   90.00000000
_symmetry_Int_Tables_number   1
_chemical_formula_structural   Li2Fe2(SiO3)3
_chemical_formula_sum   'Li8 Fe8 Si12 O36'
_cell_volume   913.22795515
_cell_formula_units_Z   4
loop_
 _symmetry_equiv_pos_site_id
 _symmetry_equiv_pos_as_xyz
  1  'x, y, z'
loop_
 _atom_site_type_symbol
 _atom_site_label
 _atom_site_symmetry_multiplicity
 _atom_site_fract_x
 _atom_site_fract_y
 _atom_site_fract_z
 _atom_site_occupancy
  Li  Li0  1  0.15790187  0.51159088  0.56858170  1
  Li  Li1  1  0.15790187  0.98840912  0.56858170  1
  Li  Li2  1  0.34209813  0.01159088  0.06858170  1
  Li  Li3  1  0.34209813  0.48840912  0.06858170  1
  Li  Li4  1  0.65790187  0.51159088  0.93141830  1
  Li  Li5  1  0.65790187  0.98840912  0.93141830  1
  Li  Li6  1  0.84209813  0.01159088  0.43141830  1
  Li  Li7  1  0.84209813  0.48840912  0.43141830  1
  Fe  Fe8  1  0.09105611  0.56717527  0.11760562  1
  Fe  Fe9  1  0.09105611  0.93282473  0.11760562  1
  Fe  Fe10  1  0.40894389  0.06717527  0.61760562  1
  Fe  Fe11  1  0.40894389  0.43282473  0.61760562  1
  Fe  Fe12  1  0.59105611  0.56717527  0.38239438  1
  Fe  Fe13  1  0.59105611  0.93282473  0.38239438  1
  Fe  Fe14  1  0.90894389  0.06717527  0.88239438  1
  Fe  Fe15  1  0.90894389  0.43282473  0.88239438  1
  Si  Si16  1  0.02563568  0.75000000  0.46947864  1
  Si  Si17  1  0.06202367  0.25000000  0.12936765  1
  Si  Si18  1  0.21183634  0.25000000  0.46101136  1
  Si  Si19  1  0.28816366  0.75000000  0.96101136  1
  Si  Si20  1  0.43797633  0.75000000  0.62936765  1
  Si  Si21  1  0.47436432  0.25000000  0.96947864  1
  Si  Si22  1  0.52563568  0.75000000  0.03052136  1
  Si  Si23  1  0.56202367  0.25000000  0.37063235  1
  Si  Si24  1  0.71183634  0.25000000  0.03898864  1
  Si  Si25  1  0.78816366  0.75000000  0.53898864  1
  Si  Si26  1  0.93797633  0.75000000  0.87063235  1
  Si  Si27  1  0.97436432  0.25000000  0.53052136  1
  O  O28  1  0.03144629  0.75000000  0.70421210  1
  O  O29  1  0.05054237  0.11529023  0.00484995  1
  O  O30  1  0.05054237  0.38470977  0.00484995  1
  O  O31  1  0.08030131  0.61436859  0.39132373  1
  O  O32  1  0.08030131  0.88563141  0.39132373  1
  O  O33  1  0.10058737  0.25000000  0.58287407  1
  O  O34  1  0.22986910  0.88950374  0.00935245  1
  O  O35  1  0.22986910  0.61049626  0.00935245  1
  O  O36  1  0.17793423  0.25000000  0.23433457  1
  O  O37  1  0.32206577  0.75000000  0.73433457  1
  O  O38  1  0.27013090  0.11049626  0.50935245  1
  O  O39  1  0.27013090  0.38950374  0.50935245  1
  O  O40  1  0.39941263  0.75000000  0.08287407  1
  O  O41  1  0.41969869  0.11436859  0.89132373  1
  O  O42  1  0.41969869  0.38563141  0.89132373  1
  O  O43  1  0.44945763  0.61529023  0.50484995  1
  O  O44  1  0.44945763  0.88470977  0.50484995  1
  O  O45  1  0.46855371  0.25000000  0.20421210  1
  O  O46  1  0.53144629  0.75000000  0.79578790  1
  O  O47  1  0.55054237  0.11529023  0.49515005  1
  O  O48  1  0.55054237  0.38470977  0.49515005  1
  O  O49  1  0.58030131  0.61436859  0.10867627  1
  O  O50  1  0.58030131  0.88563141  0.10867627  1
  O  O51  1  0.60058737  0.25000000  0.91712593  1
  O  O52  1  0.72986910  0.61049626  0.49064755  1
  O  O53  1  0.72986910  0.88950374  0.49064755  1
  O  O54  1  0.67793423  0.25000000  0.26566543  1
  O  O55  1  0.82206577  0.75000000  0.76566543  1
  O  O56  1  0.77013090  0.11049626  0.99064755  1
  O  O57  1  0.77013090  0.38950374  0.99064755  1
  O  O58  1  0.89941263  0.75000000  0.41712593  1
  O  O59  1  0.91969869  0.11436859  0.60867627  1
  O  O60  1  0.91969869  0.38563141  0.60867627  1
  O  O61  1  0.94945763  0.61529023  0.99515005  1
  O  O62  1  0.94945763  0.88470977  0.99515005  1
  O  O63  1  0.96855371  0.25000000  0.29578790  1
