# generated using pymatgen
data_LiV(PO3)4
_symmetry_space_group_name_H-M   'P 1'
_cell_length_a   7.60440872
_cell_length_b   7.60440872
_cell_length_c   17.24392028
_cell_angle_alpha   90.00000000
_cell_angle_beta   90.00000000
_cell_angle_gamma   101.42301615
_symmetry_Int_Tables_number   1
_chemical_formula_structural   LiV(PO3)4
_chemical_formula_sum   'Li4 V4 P16 O48'
_cell_volume   977.41258652
_cell_formula_units_Z   4
loop_
 _symmetry_equiv_pos_site_id
 _symmetry_equiv_pos_as_xyz
  1  'x, y, z'
loop_
 _atom_site_type_symbol
 _atom_site_label
 _atom_site_symmetry_multiplicity
 _atom_site_fract_x
 _atom_site_fract_y
 _atom_site_fract_z
 _atom_site_occupancy
  Li  Li0  1  0.19718032  0.09726375  0.38813151  1
  Li  Li1  1  0.90273625  0.80281968  0.61186849  1
  Li  Li2  1  0.80281968  0.90273625  0.88813151  1
  Li  Li3  1  0.09726375  0.19718032  0.11186849  1
  V  V4  1  0.58030077  0.97186838  0.62185503  1
  V  V5  1  0.02813162  0.41969923  0.37814497  1
  V  V6  1  0.41969923  0.02813162  0.12185503  1
  V  V7  1  0.97186838  0.58030077  0.87814497  1
  P  P8  1  0.03781580  0.75758940  0.09215617  1
  P  P9  1  0.24241060  0.96218420  0.90784383  1
  P  P10  1  0.30960187  0.78095543  0.76350035  1
  P  P11  1  0.21904457  0.69039813  0.23649965  1
  P  P12  1  0.37568545  0.62431455  0.50000000  1
  P  P13  1  0.25304862  0.33647184  0.94046087  1
  P  P14  1  0.66352816  0.74695138  0.05953913  1
  P  P15  1  0.35359277  0.35359277  0.25000000  1
  P  P16  1  0.64640723  0.64640723  0.75000000  1
  P  P17  1  0.33647184  0.25304862  0.55953913  1
  P  P18  1  0.74695138  0.66352816  0.44046087  1
  P  P19  1  0.62431455  0.37568545  0.00000000  1
  P  P20  1  0.78095543  0.30960187  0.73649965  1
  P  P21  1  0.69039813  0.21904457  0.26350035  1
  P  P22  1  0.75758940  0.03781580  0.40784383  1
  P  P23  1  0.96218420  0.24241060  0.59215617  1
  O  O24  1  0.14604453  0.94867038  0.10381986  1
  O  O25  1  0.05132962  0.85395547  0.89618014  1
  O  O26  1  0.34510837  0.95688027  0.97991608  1
  O  O27  1  0.04311973  0.65489163  0.02008392  1
  O  O28  1  0.31923018  0.88035078  0.22995586  1
  O  O29  1  0.11964922  0.68076982  0.77004414  1
  O  O30  1  0.09054484  0.63596251  0.16267443  1
  O  O31  1  0.36403749  0.90945516  0.83732557  1
  O  O32  1  0.10987467  0.63715669  0.30847787  1
  O  O33  1  0.36284331  0.89012533  0.69152213  1
  O  O34  1  0.41458857  0.79395791  0.54686572  1
  O  O35  1  0.20604209  0.58541143  0.45313428  1
  O  O36  1  0.51664600  0.80745206  0.10436060  1
  O  O37  1  0.19254794  0.48335400  0.89563940  1
  O  O38  1  0.36018734  0.55736504  0.22693391  1
  O  O39  1  0.44263496  0.63981266  0.77306609  1
  O  O40  1  0.77953542  0.83746205  0.38344418  1
  O  O41  1  0.16253795  0.22046458  0.61655582  1
  O  O42  1  0.53116016  0.60995615  0.43843909  1
  O  O43  1  0.39004385  0.46883984  0.56156091  1
  O  O44  1  0.69338933  0.76292670  0.67888757  1
  O  O45  1  0.23707330  0.30661067  0.32111243  1
  O  O46  1  0.18068219  0.29091727  0.01920474  1
  O  O47  1  0.70908273  0.81931781  0.98079526  1
  O  O48  1  0.29091727  0.18068219  0.48079526  1
  O  O49  1  0.81931781  0.70908273  0.51920474  1
  O  O50  1  0.30661067  0.23707330  0.17888757  1
  O  O51  1  0.76292670  0.69338933  0.82111243  1
  O  O52  1  0.60995615  0.53116016  0.06156091  1
  O  O53  1  0.46883984  0.39004385  0.93843909  1
  O  O54  1  0.22046458  0.16253795  0.88344418  1
  O  O55  1  0.83746205  0.77953542  0.11655582  1
  O  O56  1  0.63981266  0.44263496  0.72693391  1
  O  O57  1  0.55736504  0.36018734  0.27306609  1
  O  O58  1  0.80745206  0.51664600  0.39563940  1
  O  O59  1  0.48335400  0.19254794  0.60436060  1
  O  O60  1  0.79395791  0.41458857  0.95313428  1
  O  O61  1  0.58541143  0.20604209  0.04686572  1
  O  O62  1  0.63715669  0.10987467  0.19152213  1
  O  O63  1  0.89012533  0.36284331  0.80847787  1
  O  O64  1  0.63596251  0.09054484  0.33732557  1
  O  O65  1  0.90945516  0.36403749  0.66267443  1
  O  O66  1  0.68076982  0.11964922  0.72995586  1
  O  O67  1  0.88035078  0.31923018  0.27004414  1
  O  O68  1  0.65489163  0.04311973  0.47991608  1
  O  O69  1  0.95688027  0.34510837  0.52008392  1
  O  O70  1  0.94867038  0.14604453  0.39618014  1
  O  O71  1  0.85395547  0.05132962  0.60381986  1
