# generated using pymatgen
data_LiFe(CO3)2
_symmetry_space_group_name_H-M   'P 1'
_cell_length_a   7.33547550
_cell_length_b   9.99180688
_cell_length_c   8.04767918
_cell_angle_alpha   90.00000000
_cell_angle_beta   72.39589170
_cell_angle_gamma   90.00000000
_symmetry_Int_Tables_number   1
_chemical_formula_structural   LiFe(CO3)2
_chemical_formula_sum   'Li4 Fe4 C8 O24'
_cell_volume   562.22850321
_cell_formula_units_Z   4
loop_
 _symmetry_equiv_pos_site_id
 _symmetry_equiv_pos_as_xyz
  1  'x, y, z'
loop_
 _atom_site_type_symbol
 _atom_site_label
 _atom_site_symmetry_multiplicity
 _atom_site_fract_x
 _atom_site_fract_y
 _atom_site_fract_z
 _atom_site_occupancy
  Li  Li0  1  0.00674288  0.88930334  0.33542436  1
  Li  Li1  1  0.49325712  0.38930334  0.16457564  1
  Li  Li2  1  0.50674288  0.61069666  0.83542436  1
  Li  Li3  1  0.99325712  0.11069666  0.66457564  1
  Fe  Fe4  1  0.06064017  0.35396261  0.42527030  1
  Fe  Fe5  1  0.43935983  0.85396261  0.07472970  1
  Fe  Fe6  1  0.56064017  0.14603739  0.92527030  1
  Fe  Fe7  1  0.93935983  0.64603739  0.57472970  1
  C  C8  1  0.25520571  0.11095970  0.27635011  1
  C  C9  1  0.24479429  0.61095970  0.22364989  1
  C  C10  1  0.26542642  0.49106005  0.64057121  1
  C  C11  1  0.23457358  0.99106005  0.85942879  1
  C  C12  1  0.76542642  0.00893995  0.14057121  1
  C  C13  1  0.73457358  0.50893995  0.35942879  1
  C  C14  1  0.75520571  0.38904030  0.77635011  1
  C  C15  1  0.74479429  0.88904030  0.72364989  1
  O  O16  1  0.11701520  0.16007353  0.40578101  1
  O  O17  1  0.22951059  0.48274391  0.23660336  1
  O  O18  1  0.13259810  0.69319251  0.33071557  1
  O  O19  1  0.36740190  0.19319251  0.16928443  1
  O  O20  1  0.27048941  0.98274491  0.26339664  1
  O  O21  1  0.11015017  0.99217473  0.78202786  1
  O  O22  1  0.38298480  0.66007353  0.09421899  1
  O  O23  1  0.15338793  0.59586145  0.64717193  1
  O  O24  1  0.24194442  0.38637586  0.55093676  1
  O  O25  1  0.25805558  0.88637586  0.94906324  1
  O  O26  1  0.34661207  0.09586145  0.85282807  1
  O  O27  1  0.61015017  0.50782527  0.28202786  1
  O  O28  1  0.38984983  0.49217473  0.71797214  1
  O  O29  1  0.65338793  0.90413855  0.14717193  1
  O  O30  1  0.74194442  0.11362414  0.05093676  1
  O  O31  1  0.75805558  0.61362414  0.44906324  1
  O  O32  1  0.84661207  0.40413855  0.35282807  1
  O  O33  1  0.61701520  0.33992747  0.90578101  1
  O  O34  1  0.88984983  0.00782527  0.21797214  1
  O  O35  1  0.72951059  0.01725609  0.73660336  1
  O  O36  1  0.63259810  0.80680749  0.83071557  1
  O  O37  1  0.86740190  0.30680749  0.66928443  1
  O  O38  1  0.77048941  0.51725509  0.76339664  1
  O  O39  1  0.88298480  0.83992647  0.59421899  1
