# generated using pymatgen
data_NdI3O10
_symmetry_space_group_name_H-M   'P 1'
_cell_length_a   6.69954882
_cell_length_b   7.51914553
_cell_length_c   10.22214134
_cell_angle_alpha   109.99609766
_cell_angle_beta   90.00000000
_cell_angle_gamma   90.00000000
_symmetry_Int_Tables_number   1
_chemical_formula_structural   NdI3O10
_chemical_formula_sum   'Nd2 I6 O20'
_cell_volume   483.89653182
_cell_formula_units_Z   2
loop_
 _symmetry_equiv_pos_site_id
 _symmetry_equiv_pos_as_xyz
  1  'x, y, z'
loop_
 _atom_site_type_symbol
 _atom_site_label
 _atom_site_symmetry_multiplicity
 _atom_site_fract_x
 _atom_site_fract_y
 _atom_site_fract_z
 _atom_site_occupancy
  Nd  Nd0  1  0.00081794  0.73692953  0.81231025  1
  Nd  Nd1  1  0.50081794  0.26307047  0.18768975  1
  I  I2  1  0.47476144  0.96950091  0.77556634  1
  I  I3  1  0.97476144  0.03049909  0.22443366  1
  I  I4  1  0.02784543  0.33028125  0.95951142  1
  I  I5  1  0.52784543  0.66971875  0.04048858  1
  I  I6  1  0.12887858  0.60804477  0.41995045  1
  I  I7  1  0.62887858  0.39195523  0.58004955  1
  O  O8  1  0.36361213  0.79780416  0.84881070  1
  O  O9  1  0.86361213  0.20219584  0.15118930  1
  O  O10  1  0.71138445  0.84548881  0.72013334  1
  O  O11  1  0.21138445  0.15451119  0.27986666  1
  O  O12  1  0.55589245  0.14875536  0.93697631  1
  O  O13  1  0.05589245  0.85124464  0.06302369  1
  O  O14  1  0.14164052  0.45411324  0.85157145  1
  O  O15  1  0.64164052  0.54588676  0.14842855  1
  O  O16  1  0.09985211  0.08721085  0.85904536  1
  O  O17  1  0.59985211  0.91278915  0.14095464  1
  O  O18  1  0.21827641  0.39895145  0.09669132  1
  O  O19  1  0.71827641  0.60104855  0.90330868  1
  O  O20  1  0.39390943  0.53793083  0.38928960  1
  O  O21  1  0.89390943  0.46206917  0.61071040  1
  O  O22  1  0.13242242  0.79500884  0.34041348  1
  O  O23  1  0.63242242  0.20499116  0.65958652  1
  O  O24  1  0.16128067  0.75426693  0.60283234  1
  O  O25  1  0.66128067  0.24573307  0.39716766  1
  O  O26  1  0.82391603  0.77023177  0.41463674  1
  O  O27  1  0.32391603  0.22976823  0.58536326  1
