# generated using pymatgen
data_Li2Co2P2O9
_symmetry_space_group_name_H-M   'P 1'
_cell_length_a   4.83737582
_cell_length_b   7.16730585
_cell_length_c   7.70477270
_cell_angle_alpha   100.31545496
_cell_angle_beta   114.78430387
_cell_angle_gamma   103.62247483
_symmetry_Int_Tables_number   1
_chemical_formula_structural   Li2Co2P2O9
_chemical_formula_sum   'Li2 Co2 P2 O9'
_cell_volume   223.71751924
_cell_formula_units_Z   1
loop_
 _symmetry_equiv_pos_site_id
 _symmetry_equiv_pos_as_xyz
  1  'x, y, z'
loop_
 _atom_site_type_symbol
 _atom_site_label
 _atom_site_symmetry_multiplicity
 _atom_site_fract_x
 _atom_site_fract_y
 _atom_site_fract_z
 _atom_site_occupancy
  Li  Li0  1  0.14886992  0.86827125  0.48941526  1
  Li  Li1  1  0.85113008  0.13172875  0.51058474  1
  Co  Co2  1  0.20039171  0.24174126  0.00046072  1
  Co  Co3  1  0.79960829  0.75825874  -0.00046072  1
  P  P4  1  0.43772506  0.69200426  0.25317167  1
  P  P5  1  0.56227494  0.30799574  0.74682833  1
  O  O6  1  0.11310886  0.71800521  0.23755671  1
  O  O7  1  0.52872462  0.25017382  0.92399256  1
  O  O8  1  0.28119399  0.16794112  0.54161123  1
  O  O9  1  0.00000000  0.00000000  0.00000000  1
  O  O10  1  0.40583621  0.46577633  0.22922118  1
  O  O11  1  0.59416379  0.53422367  0.77077882  1
  O  O12  1  0.71880601  0.83205888  0.45838877  1
  O  O13  1  0.47127538  0.74982618  0.07600744  1
  O  O14  1  0.88689114  0.28199479  0.76244329  1
