# generated using pymatgen
data_Li2FeSi4O11
_symmetry_space_group_name_H-M   'P 1'
_cell_length_a   7.74994352
_cell_length_b   8.48354560
_cell_length_c   8.48354560
_cell_angle_alpha   102.04223442
_cell_angle_beta   117.17844160
_cell_angle_gamma   62.82155840
_symmetry_Int_Tables_number   1
_chemical_formula_structural   Li2FeSi4O11
_chemical_formula_sum   'Li4 Fe2 Si8 O22'
_cell_volume   441.39911643
_cell_formula_units_Z   2
loop_
 _symmetry_equiv_pos_site_id
 _symmetry_equiv_pos_as_xyz
  1  'x, y, z'
loop_
 _atom_site_type_symbol
 _atom_site_label
 _atom_site_symmetry_multiplicity
 _atom_site_fract_x
 _atom_site_fract_y
 _atom_site_fract_z
 _atom_site_occupancy
  Li  Li0  1  0.62221470  0.03515832  0.27958771  1
  Li  Li1  1  0.65737301  0.72041229  0.03515832  1
  Li  Li2  1  0.34262699  0.27958771  0.96484168  1
  Li  Li3  1  0.37778530  0.96484168  0.72041229  1
  Fe  Fe4  1  0.24084707  0.00000000  0.00000000  1
  Fe  Fe5  1  0.75915293  0.00000000  0.00000000  1
  Si  Si6  1  0.17765592  0.32315530  0.28634231  1
  Si  Si7  1  0.78553109  0.32315530  0.28634231  1
  Si  Si8  1  0.89131361  0.28634231  0.67684470  1
  Si  Si9  1  0.49918878  0.28634231  0.67684470  1
  Si  Si10  1  0.10868639  0.71365769  0.32315530  1
  Si  Si11  1  0.50081122  0.71365769  0.32315530  1
  Si  Si12  1  0.82234408  0.67684470  0.71365769  1
  Si  Si13  1  0.21446891  0.67684470  0.71365769  1
  O  O14  1  0.00000000  0.00000000  0.00000000  1
  O  O15  1  0.50000000  0.00000000  0.00000000  1
  O  O16  1  0.21878423  0.23961065  0.11086259  1
  O  O17  1  0.65246871  0.23961065  0.11086259  1
  O  O18  1  0.03494011  0.25328242  0.32316365  1
  O  O19  1  0.40833723  0.26758713  0.45972721  1
  O  O20  1  0.78380185  0.26758713  0.45972721  1
  O  O21  1  0.05138998  0.54027279  0.26758713  1
  O  O22  1  0.67592535  0.54027279  0.26758713  1
  O  O23  1  0.10792064  0.11086259  0.76038935  1
  O  O24  1  0.54160612  0.11086259  0.76038935  1
  O  O25  1  0.28822254  0.67683735  0.25328242  1
  O  O26  1  0.71177746  0.32316365  0.74671758  1
  O  O27  1  0.45839388  0.88913741  0.23961065  1
  O  O28  1  0.89207936  0.88913741  0.23961065  1
  O  O29  1  0.32407465  0.45972721  0.73241287  1
  O  O30  1  0.94861002  0.45972721  0.73241287  1
  O  O31  1  0.59166277  0.73241287  0.54027279  1
  O  O32  1  0.21619815  0.73241287  0.54027279  1
  O  O33  1  0.96505989  0.74671758  0.67683735  1
  O  O34  1  0.34753129  0.76038935  0.88913741  1
  O  O35  1  0.78121577  0.76038935  0.88913741  1
