# generated using pymatgen
data_Li3Cr4P2O8F9
_symmetry_space_group_name_H-M   'P 1'
_cell_length_a   6.94415849
_cell_length_b   14.37120969
_cell_length_c   7.16433872
_cell_angle_alpha   90.00000000
_cell_angle_beta   103.54969164
_cell_angle_gamma   90.00000000
_symmetry_Int_Tables_number   1
_chemical_formula_structural   Li3Cr4P2O8F9
_chemical_formula_sum   'Li6 Cr8 P4 O16 F18'
_cell_volume   695.07229236
_cell_formula_units_Z   2
loop_
 _symmetry_equiv_pos_site_id
 _symmetry_equiv_pos_as_xyz
  1  'x, y, z'
loop_
 _atom_site_type_symbol
 _atom_site_label
 _atom_site_symmetry_multiplicity
 _atom_site_fract_x
 _atom_site_fract_y
 _atom_site_fract_z
 _atom_site_occupancy
  Li  Li0  1  0.96747582  0.25000000  0.44617533  1
  Li  Li1  1  0.21542415  0.49510291  0.67598364  1
  Li  Li2  1  0.21542415  0.00489709  0.67598364  1
  Li  Li3  1  0.78457585  0.50489709  0.32401636  1
  Li  Li4  1  0.78457585  0.99510291  0.32401636  1
  Li  Li5  1  0.03252418  0.75000000  0.55382467  1
  Cr  Cr6  1  0.03712338  0.25000000  0.06679985  1
  Cr  Cr7  1  0.47484046  0.75000000  0.93175627  1
  Cr  Cr8  1  0.31014048  0.61872454  0.31278185  1
  Cr  Cr9  1  0.31014048  0.88127546  0.31278185  1
  Cr  Cr10  1  0.68985952  0.11872454  0.68721815  1
  Cr  Cr11  1  0.68985952  0.38127546  0.68721815  1
  Cr  Cr12  1  0.52515954  0.25000000  0.06824373  1
  Cr  Cr13  1  0.96287662  0.75000000  0.93320015  1
  P  P14  1  0.33258409  0.10082293  0.31385273  1
  P  P15  1  0.33258409  0.39917707  0.31385273  1
  P  P16  1  0.66741591  0.89917707  0.68614727  1
  P  P17  1  0.66741591  0.60082293  0.68614727  1
  O  O18  1  0.13898665  0.15907329  0.27481282  1
  O  O19  1  0.13898665  0.34092671  0.27481282  1
  O  O20  1  0.28334839  0.49343195  0.21121298  1
  O  O21  1  0.28334839  0.00656805  0.21121298  1
  O  O22  1  0.50083706  0.64764016  0.76071461  1
  O  O23  1  0.50083706  0.85235984  0.76071461  1
  O  O24  1  0.40727509  0.08809773  0.53576266  1
  O  O25  1  0.40727509  0.41190227  0.53576266  1
  O  O26  1  0.59272491  0.91190227  0.46423734  1
  O  O27  1  0.59272491  0.58809773  0.46423734  1
  O  O28  1  0.49916294  0.14764016  0.23928539  1
  O  O29  1  0.49916294  0.35235984  0.23928539  1
  O  O30  1  0.71665161  0.50656805  0.78878702  1
  O  O31  1  0.71665161  0.99343195  0.78878702  1
  O  O32  1  0.86101335  0.65907329  0.72518718  1
  O  O33  1  0.86101335  0.84092671  0.72518718  1
  F  F34  1  0.19094358  0.75000000  0.81613576  1
  F  F35  1  0.25099322  0.25000000  0.93982705  1
  F  F36  1  0.13559602  0.58668914  0.48489002  1
  F  F37  1  0.13559602  0.91331086  0.48489002  1
  F  F38  1  0.06193365  0.65099644  0.12216022  1
  F  F39  1  0.06193365  0.84900356  0.12216022  1
  F  F40  1  0.29711542  0.75000000  0.40735261  1
  F  F41  1  0.55154463  0.15285878  0.88405515  1
  F  F42  1  0.55154463  0.34714122  0.88405515  1
  F  F43  1  0.44845537  0.65285878  0.11594485  1
  F  F44  1  0.44845537  0.84714122  0.11594485  1
  F  F45  1  0.70288458  0.25000000  0.59264739  1
  F  F46  1  0.93806635  0.15099644  0.87783978  1
  F  F47  1  0.93806635  0.34900356  0.87783978  1
  F  F48  1  0.86440398  0.08668914  0.51510998  1
  F  F49  1  0.86440398  0.41331086  0.51510998  1
  F  F50  1  0.74900678  0.75000000  0.06017295  1
  F  F51  1  0.80905642  0.25000000  0.18386424  1
