# generated using pymatgen
data_Li3Co2(CO3)4
_symmetry_space_group_name_H-M   'P 1'
_cell_length_a   7.03480123
_cell_length_b   9.71895515
_cell_length_c   9.00887902
_cell_angle_alpha   90.00000000
_cell_angle_beta   116.75317904
_cell_angle_gamma   90.00000000
_symmetry_Int_Tables_number   1
_chemical_formula_structural   Li3Co2(CO3)4
_chemical_formula_sum   'Li6 Co4 C8 O24'
_cell_volume   550.01082233
_cell_formula_units_Z   2
loop_
 _symmetry_equiv_pos_site_id
 _symmetry_equiv_pos_as_xyz
  1  'x, y, z'
loop_
 _atom_site_type_symbol
 _atom_site_label
 _atom_site_symmetry_multiplicity
 _atom_site_fract_x
 _atom_site_fract_y
 _atom_site_fract_z
 _atom_site_occupancy
  Li  Li0  1  0.34735015  0.60497103  0.84948442  1
  Li  Li1  1  0.13593041  0.18075354  0.06598037  1
  Li  Li2  1  0.34550731  0.88472676  0.34324430  1
  Li  Li3  1  0.65264985  0.10497103  0.65051558  1
  Li  Li4  1  0.65449269  0.38472676  0.15675570  1
  Li  Li5  1  0.86406959  0.68075354  0.43401963  1
  Co  Co6  1  0.48028189  0.13995631  0.92511184  1
  Co  Co7  1  0.51971711  0.63995631  0.57488816  1
  Co  Co8  1  0.49252998  0.36840413  0.44614675  1
  Co  Co9  1  0.50747002  0.86840413  0.05385325  1
  C  C10  1  0.08664862  0.98490437  0.85247897  1
  C  C11  1  0.09488795  0.51980776  0.36935906  1
  C  C12  1  0.51728139  0.38466572  0.77591755  1
  C  C13  1  0.48271861  0.88466572  0.72408245  1
  C  C14  1  0.51622869  0.11421506  0.27734710  1
  C  C15  1  0.48377131  0.61421506  0.22265290  1
  C  C16  1  0.91335138  0.48490437  0.64752103  1
  C  C17  1  0.90511205  0.01980776  0.13064094  1
  O  O18  1  0.18065081  0.10556835  0.87616806  1
  O  O19  1  0.20663191  0.87835137  0.93340667  1
  O  O20  1  0.10856379  0.47208227  0.73605246  1
  O  O21  1  0.19961945  0.41153955  0.35679756  1
  O  O22  1  0.19561094  0.62732388  0.45250968  1
  O  O23  1  0.10805913  0.01844188  0.19975970  1
  O  O24  1  0.52360273  0.34413702  0.91496179  1
  O  O25  1  0.47284458  0.01465361  0.74681294  1
  O  O26  1  0.49841890  0.79427234  0.83539316  1
  O  O27  1  0.50158110  0.29427234  0.66460684  1
  O  O28  1  0.52715542  0.51465361  0.75318706  1
  O  O29  1  0.47639727  0.84413702  0.58503821  1
  O  O30  1  0.51881530  0.16459860  0.41318376  1
  O  O31  1  0.47109197  0.48260775  0.23443074  1
  O  O32  1  0.50931717  0.69885370  0.34075810  1
  O  O33  1  0.49068283  0.19885370  0.15924190  1
  O  O34  1  0.52890803  0.98260775  0.26556926  1
  O  O35  1  0.48118470  0.66459860  0.08681624  1
  O  O36  1  0.89143621  0.97208227  0.76394754  1
  O  O37  1  0.79336809  0.37835137  0.56659333  1
  O  O38  1  0.81934919  0.60556835  0.62383194  1
  O  O39  1  0.89194087  0.51844188  0.30024030  1
  O  O40  1  0.80438906  0.12732388  0.04749032  1
  O  O41  1  0.80038055  0.91153955  0.14320244  1
