# generated using pymatgen
data_V(TeO3)4
_symmetry_space_group_name_H-M   'P 1'
_cell_length_a   5.85785707
_cell_length_b   11.80896720
_cell_length_c   10.80837931
_cell_angle_alpha   25.82069630
_cell_angle_beta   47.53147929
_cell_angle_gamma   52.99170110
_symmetry_Int_Tables_number   1
_chemical_formula_structural   V(TeO3)4
_chemical_formula_sum   'V1 Te4 O12'
_cell_volume   240.17791982
_cell_formula_units_Z   1
loop_
 _symmetry_equiv_pos_site_id
 _symmetry_equiv_pos_as_xyz
  1  'x, y, z'
loop_
 _atom_site_type_symbol
 _atom_site_label
 _atom_site_symmetry_multiplicity
 _atom_site_fract_x
 _atom_site_fract_y
 _atom_site_fract_z
 _atom_site_occupancy
  V  V0  1  0.34169542  0.01332766  0.27953854  1
  Te  Te1  1  0.99186465  0.97467830  0.99661998  1
  Te  Te2  1  0.97443101  0.51660530  0.98334088  1
  Te  Te3  1  0.49963862  0.96830084  0.55610616  1
  Te  Te4  1  0.47574815  0.50605598  0.44848943  1
  O  O5  1  0.34230629  0.31877758  0.08238469  1
  O  O6  1  0.24865508  0.12875235  0.61231947  1
  O  O7  1  0.10807574  0.29263223  0.72969440  1
  O  O8  1  0.90383490  0.19920397  0.22174634  1
  O  O9  1  0.35762003  0.82051021  0.09560660  1
  O  O10  1  0.76320363  0.37833020  0.34244804  1
  O  O11  1  0.16394339  0.69991206  0.58960198  1
  O  O12  1  0.58244670  0.12971407  0.94337432  1
  O  O13  1  0.11777480  0.83039431  0.70357489  1
  O  O14  1  0.89551577  0.68674922  0.21133910  1
  O  O15  1  0.71658994  0.88245647  0.32880642  1
  O  O16  1  0.57595588  0.65359826  0.93430977  1
