# generated using pymatgen
data_LiCoSiO4
_symmetry_space_group_name_H-M   'P 1'
_cell_length_a   10.67554998
_cell_length_b   10.67555033
_cell_length_c   12.00870591
_cell_angle_alpha   90.00000000
_cell_angle_beta   90.00000000
_cell_angle_gamma   119.99999891
_symmetry_Int_Tables_number   1
_chemical_formula_structural   LiCoSiO4
_chemical_formula_sum   'Li12 Co12 Si12 O48'
_cell_volume   1185.24293793
_cell_formula_units_Z   12
loop_
 _symmetry_equiv_pos_site_id
 _symmetry_equiv_pos_as_xyz
  1  'x, y, z'
loop_
 _atom_site_type_symbol
 _atom_site_label
 _atom_site_symmetry_multiplicity
 _atom_site_fract_x
 _atom_site_fract_y
 _atom_site_fract_z
 _atom_site_occupancy
  Li  Li0  1  0.00000000  0.50000000  0.00894503  1
  Li  Li1  1  0.00000000  0.50000000  0.65772197  1
  Li  Li2  1  0.00000000  0.50000000  0.33333300  1
  Li  Li3  1  0.00000000  0.00000000  0.16666700  1
  Li  Li4  1  0.00000000  0.00000000  0.50000000  1
  Li  Li5  1  0.00000000  0.00000000  0.83333300  1
  Li  Li6  1  0.50000000  0.50000000  0.34227803  1
  Li  Li7  1  0.50000000  0.50000000  0.66666700  1
  Li  Li8  1  0.50000000  0.50000000  0.99105497  1
  Li  Li9  1  0.50000000  0.00000000  0.32438797  1
  Li  Li10  1  0.50000000  0.00000000  0.00000000  1
  Li  Li11  1  0.50000000  0.00000000  0.67561203  1
  Co  Co12  1  0.00000000  0.74741890  0.83333300  1
  Co  Co13  1  1.00000000  0.25258110  0.83333300  1
  Co  Co14  1  0.25032386  0.74967714  0.16666700  1
  Co  Co15  1  0.25032386  0.50064673  0.50000000  1
  Co  Co16  1  0.49935327  0.74967714  0.83333300  1
  Co  Co17  1  0.25258110  0.25258110  0.16666700  1
  Co  Co18  1  0.25258110  0.00000000  0.50000000  1
  Co  Co19  1  0.74741890  0.74741890  0.16666700  1
  Co  Co20  1  0.50064673  0.25032386  0.83333300  1
  Co  Co21  1  0.74967714  0.49935327  0.50000000  1
  Co  Co22  1  0.74967714  0.25032386  0.16666700  1
  Co  Co23  1  0.74741890  0.00000000  0.50000000  1
  Si  Si24  1  1.00000000  0.75431905  0.33333300  1
  Si  Si25  1  0.24798539  0.75201461  0.66666700  1
  Si  Si26  1  0.00000000  0.24568095  0.33333300  1
  Si  Si27  1  0.24798539  0.49596979  0.00000000  1
  Si  Si28  1  0.24568095  0.24568095  0.66666700  1
  Si  Si29  1  0.50403021  0.75201461  0.33333300  1
  Si  Si30  1  0.24568095  0.00000000  0.00000000  1
  Si  Si31  1  0.49596979  0.24798539  0.33333300  1
  Si  Si32  1  0.75431905  0.75431905  0.66666700  1
  Si  Si33  1  0.75201461  0.50403021  0.00000000  1
  Si  Si34  1  0.75201461  0.24798539  0.66666700  1
  Si  Si35  1  0.75431905  0.00000000  0.00000000  1
  O  O36  1  0.07915423  0.88723664  0.42300392  1
  O  O37  1  0.11276336  0.92084577  0.91033008  1
  O  O38  1  0.09512975  0.69430780  0.73457965  1
  O  O39  1  0.10551414  0.70534726  0.26893996  1
  O  O40  1  0.29465274  0.89448586  0.06439304  1
  O  O41  1  0.30569220  0.90487025  0.59875435  1
  O  O42  1  0.19715429  0.61040306  0.58641877  1
  O  O43  1  0.09512975  0.40082095  0.93208735  1
  O  O44  1  0.19715429  0.58675123  0.08024723  1
  O  O45  1  0.10551414  0.40016588  0.39772604  1
  O  O46  1  0.07915423  0.19191759  0.24366308  1
  O  O47  1  0.38959694  0.80284571  0.74691423  1
  O  O48  1  0.41324877  0.80284571  0.25308577  1
  O  O49  1  0.11276336  0.19191759  0.75633692  1
  O  O50  1  0.29465274  0.40016588  0.60227396  1
  O  O51  1  0.38959694  0.58675123  0.91975277  1
  O  O52  1  0.30569220  0.40082095  0.06791265  1
  O  O53  1  0.41324877  0.61040306  0.41358123  1
  O  O54  1  0.19191759  0.11276336  0.57699608  1
  O  O55  1  0.19191759  0.07915423  0.08966992  1
  O  O56  1  0.59917905  0.90487025  0.40124565  1
  O  O57  1  0.59983412  0.89448586  0.93560696  1
  O  O58  1  0.59983412  0.70534726  0.73106004  1
  O  O59  1  0.40082095  0.30569220  0.26542035  1
  O  O60  1  0.59917905  0.69430780  0.26542035  1
  O  O61  1  0.40016588  0.29465274  0.73106004  1
  O  O62  1  0.40016588  0.10551414  0.93560696  1
  O  O63  1  0.40082095  0.09512975  0.40124565  1
  O  O64  1  0.80808241  0.92084577  0.08966992  1
  O  O65  1  0.80808241  0.88723664  0.57699608  1
  O  O66  1  0.58675123  0.38959694  0.41358123  1
  O  O67  1  0.69430780  0.59917905  0.06791265  1
  O  O68  1  0.61040306  0.41324877  0.91975277  1
  O  O69  1  0.70534726  0.59983412  0.60227396  1
  O  O70  1  0.88723664  0.80808241  0.75633692  1
  O  O71  1  0.58675123  0.19715429  0.25308577  1
  O  O72  1  0.61040306  0.19715429  0.74691423  1
  O  O73  1  0.92084577  0.80808241  0.24366308  1
  O  O74  1  0.89448586  0.59983412  0.39772604  1
  O  O75  1  0.80284571  0.41324877  0.08024723  1
  O  O76  1  0.90487025  0.59917905  0.93208735  1
  O  O77  1  0.80284571  0.38959694  0.58641877  1
  O  O78  1  0.69430780  0.09512975  0.59875435  1
  O  O79  1  0.70534726  0.10551414  0.06439304  1
  O  O80  1  0.89448586  0.29465274  0.26893996  1
  O  O81  1  0.90487025  0.30569220  0.73457965  1
  O  O82  1  0.88723664  0.07915423  0.91033008  1
  O  O83  1  0.92084577  0.11276336  0.42300392  1
