# generated using pymatgen
data_Li5Mn4P4O16F
_symmetry_space_group_name_H-M   'P 1'
_cell_length_a   5.28003310
_cell_length_b   8.32109493
_cell_length_c   8.32109493
_cell_angle_alpha   95.77711414
_cell_angle_beta   108.49777735
_cell_angle_gamma   71.50222265
_symmetry_Int_Tables_number   1
_chemical_formula_structural   Li5Mn4P4O16F
_chemical_formula_sum   'Li5 Mn4 P4 O16 F1'
_cell_volume   328.79260362
_cell_formula_units_Z   1
loop_
 _symmetry_equiv_pos_site_id
 _symmetry_equiv_pos_as_xyz
  1  'x, y, z'
loop_
 _atom_site_type_symbol
 _atom_site_label
 _atom_site_symmetry_multiplicity
 _atom_site_fract_x
 _atom_site_fract_y
 _atom_site_fract_z
 _atom_site_occupancy
  Li  Li0  1  0.50000000  0.00000000  0.00000000  1
  Li  Li1  1  0.98914663  0.45476902  0.32930770  1
  Li  Li2  1  0.55608435  0.32930770  0.54523098  1
  Li  Li3  1  0.34016107  0.67069230  0.45476902  1
  Li  Li4  1  0.11460795  0.54523098  0.67069230  1
  Mn  Mn5  1  0.11872445  0.04784495  0.28392576  1
  Mn  Mn6  1  0.16520131  0.71607424  0.04784495  1
  Mn  Mn7  1  0.83343060  0.28392576  0.95215505  1
  Mn  Mn8  1  0.88264364  0.95215505  0.71607424  1
  P  P9  1  0.43967011  0.34537462  0.16483108  1
  P  P10  1  0.21495527  0.16483108  0.65462538  1
  P  P11  1  0.72516097  0.83516892  0.34537462  1
  P  P12  1  0.62021365  0.65462538  0.83516892  1
  O  O13  1  0.30137693  0.19994154  0.12904570  1
  O  O14  1  0.76893850  0.27273630  0.20420659  1
  O  O15  1  0.66875249  0.99489941  0.45652387  1
  O  O16  1  0.78777138  0.54347613  0.99489941  1
  O  O17  1  0.37412746  0.44927414  0.31952910  1
  O  O18  1  0.17659840  0.31952910  0.55072586  1
  O  O19  1  0.49868154  0.12904570  0.80005846  1
  O  O20  1  0.95832419  0.20420659  0.72726370  1
  O  O21  1  0.43526809  0.79579341  0.27273630  1
  O  O22  1  0.82766878  0.87095430  0.19994154  1
  O  O23  1  0.94540065  0.68047090  0.44927414  1
  O  O24  1  0.50387249  0.55072586  0.68047090  1
  O  O25  1  0.33634810  0.45652387  0.00510059  1
  O  O26  1  0.20712803  0.00510059  0.54347613  1
  O  O27  1  0.83746822  0.72726370  0.79579341  1
  O  O28  1  0.37227276  0.80005846  0.87095430  1
  F  F29  1  0.00000000  0.00000000  0.00000000  1
