# generated using pymatgen
data_LiFeSiO4
_symmetry_space_group_name_H-M   'P 1'
_cell_length_a   10.35446383
_cell_length_b   4.77948670
_cell_length_c   6.22272745
_cell_angle_alpha   90.00000000
_cell_angle_beta   90.00000000
_cell_angle_gamma   90.00000000
_symmetry_Int_Tables_number   1
_chemical_formula_structural   LiFeSiO4
_chemical_formula_sum   'Li4 Fe4 Si4 O16'
_cell_volume   307.95669668
_cell_formula_units_Z   4
loop_
 _symmetry_equiv_pos_site_id
 _symmetry_equiv_pos_as_xyz
  1  'x, y, z'
loop_
 _atom_site_type_symbol
 _atom_site_label
 _atom_site_symmetry_multiplicity
 _atom_site_fract_x
 _atom_site_fract_y
 _atom_site_fract_z
 _atom_site_occupancy
  Li  Li0  1  0.03381712  0.98144285  0.03243237  1
  Li  Li1  1  0.46618288  0.01855715  0.53243237  1
  Li  Li2  1  0.53381712  0.51855715  0.96756763  1
  Li  Li3  1  0.96618288  0.48144285  0.46756763  1
  Fe  Fe4  1  0.24459641  0.49807981  0.76911863  1
  Fe  Fe5  1  0.25540359  0.50192019  0.26911863  1
  Fe  Fe6  1  0.74459641  0.00192019  0.23088137  1
  Fe  Fe7  1  0.75540359  0.99807981  0.73088137  1
  Si  Si8  1  0.16086765  0.91724313  0.51846242  1
  Si  Si9  1  0.33913235  0.08275687  0.01846242  1
  Si  Si10  1  0.66086765  0.58275687  0.48153758  1
  Si  Si11  1  0.83913235  0.41724313  0.98153758  1
  O  O12  1  0.10274819  0.78069750  0.74143858  1
  O  O13  1  0.10014652  0.77132084  0.30124229  1
  O  O14  1  0.16757530  0.26078197  0.51542511  1
  O  O15  1  0.19142948  0.24700076  0.01849741  1
  O  O16  1  0.30857052  0.75299924  0.51849741  1
  O  O17  1  0.33242470  0.73921803  0.01542511  1
  O  O18  1  0.39985348  0.22867916  0.80124229  1
  O  O19  1  0.39725181  0.21930250  0.24143858  1
  O  O20  1  0.60274819  0.71930250  0.25856142  1
  O  O21  1  0.60014652  0.72867916  0.69875771  1
  O  O22  1  0.66757530  0.23921803  0.48457489  1
  O  O23  1  0.69142948  0.25299924  0.98150259  1
  O  O24  1  0.80857052  0.74700076  0.48150259  1
  O  O25  1  0.83242470  0.76078197  0.98457489  1
  O  O26  1  0.89985348  0.27132084  0.19875771  1
  O  O27  1  0.89725181  0.28069750  0.75856142  1
