# generated using pymatgen
data_Li4VF7
_symmetry_space_group_name_H-M   'P 1'
_cell_length_a   5.98537051
_cell_length_b   5.98537051
_cell_length_c   5.98537066
_cell_angle_alpha   119.99999913
_cell_angle_beta   119.99999913
_cell_angle_gamma   90.00000000
_symmetry_Int_Tables_number   1
_chemical_formula_structural   Li4VF7
_chemical_formula_sum   'Li4 V1 F7'
_cell_volume   151.62057621
_cell_formula_units_Z   1
loop_
 _symmetry_equiv_pos_site_id
 _symmetry_equiv_pos_as_xyz
  1  'x, y, z'
loop_
 _atom_site_type_symbol
 _atom_site_label
 _atom_site_symmetry_multiplicity
 _atom_site_fract_x
 _atom_site_fract_y
 _atom_site_fract_z
 _atom_site_occupancy
  Li  Li0  1  0.12182176  0.37394092  0.74788184  1
  Li  Li1  1  0.62605908  0.37394092  0.74788184  1
  Li  Li2  1  0.62605908  0.37394092  0.25211816  1
  Li  Li3  1  0.62605908  0.87817824  0.25211816  1
  V  V4  1  0.00000000  0.00000000  0.00000000  1
  F  F5  1  0.23630976  0.23630976  0.47261852  1
  F  F6  1  0.23630976  0.23630976  0.00000000  1
  F  F7  1  0.23630976  0.76369024  0.00000000  1
  F  F8  1  0.76369024  0.76369024  0.52738148  1
  F  F9  1  0.75000000  0.25000000  0.50000000  1
  F  F10  1  0.76369024  0.23630976  0.00000000  1
  F  F11  1  0.76369024  0.76369024  0.00000000  1
