# generated using pymatgen
data_Li5Fe4P4O16F
_symmetry_space_group_name_H-M   'P 1'
_cell_length_a   5.34386779
_cell_length_b   8.30638036
_cell_length_c   8.30638036
_cell_angle_alpha   95.93920695
_cell_angle_beta   108.76409901
_cell_angle_gamma   71.23590099
_symmetry_Int_Tables_number   1
_chemical_formula_structural   Li5Fe4P4O16F
_chemical_formula_sum   'Li5 Fe4 P4 O16 F1'
_cell_volume   330.55415444
_cell_formula_units_Z   1
loop_
 _symmetry_equiv_pos_site_id
 _symmetry_equiv_pos_as_xyz
  1  'x, y, z'
loop_
 _atom_site_type_symbol
 _atom_site_label
 _atom_site_symmetry_multiplicity
 _atom_site_fract_x
 _atom_site_fract_y
 _atom_site_fract_z
 _atom_site_occupancy
  Li  Li0  1  0.50000000  0.00000000  0.00000000  1
  Li  Li1  1  0.99619688  0.44775592  0.32882758  1
  Li  Li2  1  0.55604720  0.32882758  0.55224408  1
  Li  Li3  1  0.33263070  0.67117242  0.44775592  1
  Li  Li4  1  0.11512522  0.55224408  0.67117242  1
  Fe  Fe5  1  0.08451856  0.04233483  0.27916312  1
  Fe  Fe6  1  0.19464456  0.72083688  0.04233483  1
  Fe  Fe7  1  0.87314661  0.27916312  0.95766517  1
  Fe  Fe8  1  0.84769027  0.95766517  0.72083688  1
  P  P9  1  0.44078437  0.34814057  0.16155535  1
  P  P10  1  0.21107506  0.16155535  0.65185943  1
  P  P11  1  0.72077098  0.83844465  0.34814057  1
  P  P12  1  0.62736959  0.65185943  0.83844465  1
  O  O13  1  0.30133821  0.20413393  0.12135938  1
  O  O14  1  0.76616677  0.27114716  0.19175952  1
  O  O15  1  0.68342593  0.99129480  0.46889992  1
  O  O16  1  0.78547500  0.53110008  0.99129480  1
  O  O17  1  0.38897912  0.44326345  0.32390139  1
  O  O18  1  0.16775743  0.32390139  0.55673655  1
  O  O19  1  0.49452886  0.12135938  0.79586607  1
  O  O20  1  0.96268607  0.19175952  0.72885284  1
  O  O21  1  0.42559275  0.80824048  0.27114716  1
  O  O22  1  0.82002117  0.87864062  0.20413393  1
  O  O23  1  0.93492327  0.67609861  0.44326345  1
  O  O24  1  0.50834018  0.55673655  0.67609861  1
  O  O25  1  0.32528027  0.46889992  0.00870520  1
  O  O26  1  0.20581981  0.00870520  0.53110008  1
  O  O27  1  0.84555542  0.72885284  0.80824048  1
  O  O28  1  0.38411275  0.79586607  0.87864062  1
  F  F29  1  0.00000000  0.00000000  0.00000000  1
