# generated using pymatgen
data_LiFeSiO4
_symmetry_space_group_name_H-M   'P 1'
_cell_length_a   7.84712391
_cell_length_b   9.15944051
_cell_length_c   4.98397986
_cell_angle_alpha   90.00000000
_cell_angle_beta   90.00000000
_cell_angle_gamma   90.00000000
_symmetry_Int_Tables_number   1
_chemical_formula_structural   LiFeSiO4
_chemical_formula_sum   'Li4 Fe4 Si4 O16'
_cell_volume   358.22487134
_cell_formula_units_Z   4
loop_
 _symmetry_equiv_pos_site_id
 _symmetry_equiv_pos_as_xyz
  1  'x, y, z'
loop_
 _atom_site_type_symbol
 _atom_site_label
 _atom_site_symmetry_multiplicity
 _atom_site_fract_x
 _atom_site_fract_y
 _atom_site_fract_z
 _atom_site_occupancy
  Li  Li0  1  0.04771512  0.61349771  0.94698455  1
  Li  Li1  1  0.45228488  0.11349771  0.44698455  1
  Li  Li2  1  0.54771512  0.88650229  0.94698455  1
  Li  Li3  1  0.95228488  0.38650229  0.44698455  1
  Fe  Fe4  1  0.17740754  0.02190660  0.00583328  1
  Fe  Fe5  1  0.32259246  0.52190660  0.50583328  1
  Fe  Fe6  1  0.67740754  0.47809340  0.00583328  1
  Fe  Fe7  1  0.82259246  0.97809340  0.50583328  1
  Si  Si8  1  0.22648186  0.86136635  0.55696168  1
  Si  Si9  1  0.27351814  0.36136635  0.05696168  1
  Si  Si10  1  0.72648186  0.63863365  0.55696168  1
  Si  Si11  1  0.77351814  0.13863365  0.05696168  1
  O  O12  1  0.05056510  0.94378279  0.66862916  1
  O  O13  1  0.13690617  0.46573600  0.22267099  1
  O  O14  1  0.25362008  0.86722549  0.23292017  1
  O  O15  1  0.21820930  0.69097812  0.65800018  1
  O  O16  1  0.28179070  0.19097812  0.15800018  1
  O  O17  1  0.24637992  0.36722549  0.73292017  1
  O  O18  1  0.36309383  0.96573600  0.72267099  1
  O  O19  1  0.44943490  0.44378279  0.16862916  1
  O  O20  1  0.55056510  0.55621721  0.66862916  1
  O  O21  1  0.63690617  0.03426400  0.22267099  1
  O  O22  1  0.75362008  0.63277451  0.23292017  1
  O  O23  1  0.71820930  0.80902188  0.65800018  1
  O  O24  1  0.78179070  0.30902188  0.15800018  1
  O  O25  1  0.74637992  0.13277451  0.73292017  1
  O  O26  1  0.86309383  0.53426400  0.72267099  1
  O  O27  1  0.94943490  0.05621721  0.16862916  1
