# generated using pymatgen
data_Li(FeO2)3
_symmetry_space_group_name_H-M   'P 1'
_cell_length_a   8.84623943
_cell_length_b   5.40844301
_cell_length_c   5.40863487
_cell_angle_alpha   62.43369964
_cell_angle_beta   99.45084619
_cell_angle_gamma   80.54854356
_symmetry_Int_Tables_number   1
_chemical_formula_structural   Li(FeO2)3
_chemical_formula_sum   'Li2 Fe6 O12'
_cell_volume   217.57784114
_cell_formula_units_Z   2
loop_
 _symmetry_equiv_pos_site_id
 _symmetry_equiv_pos_as_xyz
  1  'x, y, z'
loop_
 _atom_site_type_symbol
 _atom_site_label
 _atom_site_symmetry_multiplicity
 _atom_site_fract_x
 _atom_site_fract_y
 _atom_site_fract_z
 _atom_site_occupancy
  Li  Li0  1  0.33326636  0.58344259  0.91673772  1
  Li  Li1  1  0.83340086  0.33324738  0.66663181  1
  Fe  Fe2  1  0.99549098  0.75224150  0.74772999  1
  Fe  Fe3  1  0.17118818  0.16441558  0.83560216  1
  Fe  Fe4  1  0.33330528  0.08333312  0.41665624  1
  Fe  Fe5  1  0.49553917  0.50221053  0.49780368  1
  Fe  Fe6  1  0.67113817  0.41443707  0.08555680  1
  Fe  Fe7  1  0.83334828  0.83333345  0.16665786  1
  O  O8  1  0.99463303  0.96923191  0.94615467  1
  O  O9  1  0.99465307  0.53616193  0.54840969  1
  O  O10  1  0.17203721  0.38051907  0.03490734  1
  O  O11  1  0.33335298  0.30243195  0.63586097  1
  O  O12  1  0.17202724  0.94747977  0.63713320  1
  O  O13  1  0.33334395  0.86416022  0.19752202  1
  O  O14  1  0.49456686  0.30389638  0.28073060  1
  O  O15  1  0.49455569  0.70155991  0.71384831  1
  O  O16  1  0.67211365  0.21513273  0.86945848  1
  O  O17  1  0.67212217  0.61274937  0.30264695  1
  O  O18  1  0.83329219  0.05240682  0.38583501  1
  O  O19  1  0.83328967  0.61427370  0.94745052  1
