# generated using pymatgen
data_Fe2O3F
_symmetry_space_group_name_H-M   'P 1'
_cell_length_a   4.73208530
_cell_length_b   18.80903047
_cell_length_c   3.00681629
_cell_angle_alpha   90.00000000
_cell_angle_beta   90.00000000
_cell_angle_gamma   91.92792575
_symmetry_Int_Tables_number   1
_chemical_formula_structural   Fe2O3F
_chemical_formula_sum   'Fe8 O12 F4'
_cell_volume   267.47300803
_cell_formula_units_Z   4
loop_
 _symmetry_equiv_pos_site_id
 _symmetry_equiv_pos_as_xyz
  1  'x, y, z'
loop_
 _atom_site_type_symbol
 _atom_site_label
 _atom_site_symmetry_multiplicity
 _atom_site_fract_x
 _atom_site_fract_y
 _atom_site_fract_z
 _atom_site_occupancy
  Fe  Fe0  1  0.99062112  0.74369553  0.00000000  1
  Fe  Fe1  1  0.95676065  0.99842451  0.00000000  1
  Fe  Fe2  1  0.06653531  0.24527709  0.00000000  1
  Fe  Fe3  1  0.02252590  0.49595799  0.00000000  1
  Fe  Fe4  1  0.54437414  0.13128571  0.50000000  1
  Fe  Fe5  1  0.43895573  0.87969083  0.50000000  1
  Fe  Fe6  1  0.50234837  0.37906579  0.50000000  1
  Fe  Fe7  1  0.47469137  0.62914288  0.50000000  1
  O  O8  1  0.24393507  0.19766415  0.50000000  1
  O  O9  1  0.20564713  0.45003042  0.50000000  1
  O  O10  1  0.17993955  0.70180919  0.50000000  1
  O  O11  1  0.13668273  0.95343227  0.50000000  1
  O  O12  1  0.30438676  0.57644948  0.00000000  1
  O  O13  1  0.27585458  0.82788042  0.00000000  1
  O  O14  1  0.33913159  0.32481664  0.00000000  1
  O  O15  1  0.70788595  0.42289842  0.00000000  1
  O  O16  1  0.63383073  0.92455836  0.00000000  1
  O  O17  1  0.73444739  0.17406866  0.00000000  1
  O  O18  1  0.68153622  0.67368531  0.00000000  1
  O  O19  1  0.80457329  0.05081936  0.50000000  1
  F  F20  1  0.31763422  0.07592317  0.00000000  1
  F  F21  1  0.78025151  0.79907759  0.50000000  1
  F  F22  1  0.85060261  0.29595787  0.50000000  1
  F  F23  1  0.80684807  0.54838738  0.50000000  1
