# generated using pymatgen
data_Li4CoO4
_symmetry_space_group_name_H-M   'P 1'
_cell_length_a   9.21117074
_cell_length_b   5.25848506
_cell_length_c   15.98984374
_cell_angle_alpha   90.00000000
_cell_angle_beta   91.97330776
_cell_angle_gamma   90.00000000
_symmetry_Int_Tables_number   1
_chemical_formula_structural   Li4CoO4
_chemical_formula_sum   'Li32 Co8 O32'
_cell_volume   774.03762827
_cell_formula_units_Z   8
loop_
 _symmetry_equiv_pos_site_id
 _symmetry_equiv_pos_as_xyz
  1  'x, y, z'
loop_
 _atom_site_type_symbol
 _atom_site_label
 _atom_site_symmetry_multiplicity
 _atom_site_fract_x
 _atom_site_fract_y
 _atom_site_fract_z
 _atom_site_occupancy
  Li  Li0  1  0.15204218  0.34540767  0.35143602  1
  Li  Li1  1  0.15204218  0.15459233  0.85143602  1
  Li  Li2  1  0.19365953  0.60822301  0.16162301  1
  Li  Li3  1  0.19365953  0.89177699  0.66162301  1
  Li  Li4  1  0.24871647  0.94988723  0.28469759  1
  Li  Li5  1  0.24871647  0.55011277  0.78469759  1
  Li  Li6  1  0.27973764  0.05383792  0.48349657  1
  Li  Li7  1  0.27973764  0.44616208  0.98349657  1
  Li  Li8  1  0.38727349  0.36544116  0.24285277  1
  Li  Li9  1  0.38727349  0.13455884  0.74285277  1
  Li  Li10  1  0.35990418  0.62705739  0.41299252  1
  Li  Li11  1  0.35990418  0.87294261  0.91299252  1
  Li  Li12  1  0.54707075  0.06653678  0.05468269  1
  Li  Li13  1  0.54707075  0.43346322  0.55468269  1
  Li  Li14  1  0.58206938  0.60465342  0.74601324  1
  Li  Li15  1  0.58206938  0.89534658  0.24601324  1
  Li  Li16  1  0.67654821  0.61249046  0.00248260  1
  Li  Li17  1  0.67654821  0.88750954  0.50248260  1
  Li  Li18  1  0.68236987  0.38307402  0.17535613  1
  Li  Li19  1  0.68236987  0.11692598  0.67535613  1
  Li  Li20  1  0.70120125  0.55848734  0.35987648  1
  Li  Li21  1  0.70120125  0.94151266  0.85987648  1
  Li  Li22  1  0.80606506  0.08657823  0.35131463  1
  Li  Li23  1  0.80606506  0.41342177  0.85131463  1
  Li  Li24  1  0.83911117  0.89765374  0.17096774  1
  Li  Li25  1  0.83911117  0.60234626  0.67096774  1
  Li  Li26  1  0.85725785  0.10947302  0.99452833  1
  Li  Li27  1  0.85725785  0.39052698  0.49452833  1
  Li  Li28  1  0.94530862  0.04783193  0.74171159  1
  Li  Li29  1  0.94530862  0.45216807  0.24171159  1
  Li  Li30  1  0.98102078  0.91699236  0.55192788  1
  Li  Li31  1  0.98102078  0.58300764  0.05192788  1
  Co  Co32  1  0.06502975  0.16032079  0.13591855  1
  Co  Co33  1  0.06502975  0.33967921  0.63591855  1
  Co  Co34  1  0.46453120  0.65128231  0.12075920  1
  Co  Co35  1  0.46453120  0.84871769  0.62075920  1
  Co  Co36  1  0.53631083  0.15019729  0.38350274  1
  Co  Co37  1  0.53631083  0.34980271  0.88350274  1
  Co  Co38  1  0.96883061  0.80698219  0.87671336  1
  Co  Co39  1  0.96883061  0.69301781  0.37671336  1
  O  O40  1  0.03802995  0.82298334  0.13487115  1
  O  O41  1  0.03802995  0.67701666  0.63487115  1
  O  O42  1  0.15973394  0.21430326  0.72955229  1
  O  O43  1  0.15973394  0.28569674  0.22955229  1
  O  O44  1  0.15918146  0.74477171  0.37010141  1
  O  O45  1  0.15918146  0.75522829  0.87010141  1
  O  O46  1  0.12979774  0.32748725  0.04926627  1
  O  O47  1  0.12979774  0.17251275  0.54926627  1
  O  O48  1  0.38602048  0.74455314  0.52497800  1
  O  O49  1  0.38602048  0.75544686  0.02497800  1
  O  O50  1  0.34881535  0.25194436  0.88102662  1
  O  O51  1  0.34881535  0.24805564  0.38102662  1
  O  O52  1  0.37518401  0.74494670  0.21569944  1
  O  O53  1  0.37518401  0.75505330  0.71569944  1
  O  O54  1  0.48129163  0.31313822  0.13039767  1
  O  O55  1  0.48129163  0.18686178  0.63039767  1
  O  O56  1  0.55477504  0.81153379  0.37952502  1
  O  O57  1  0.55477504  0.68846621  0.87952502  1
  O  O58  1  0.62737903  0.24233484  0.79002399  1
  O  O59  1  0.62737903  0.25766516  0.29002399  1
  O  O60  1  0.65128634  0.77648771  0.12625174  1
  O  O61  1  0.65128634  0.72351229  0.62625174  1
  O  O62  1  0.65640133  0.23284665  0.96673042  1
  O  O63  1  0.65640133  0.26715335  0.46673042  1
  O  O64  1  0.86306156  0.78171821  0.46466691  1
  O  O65  1  0.86306156  0.71828179  0.96466691  1
  O  O66  1  0.87381441  0.22519382  0.64067030  1
  O  O67  1  0.87381441  0.27480618  0.14067030  1
  O  O68  1  0.84808352  0.72408639  0.78733279  1
  O  O69  1  0.84808352  0.77591361  0.28733279  1
  O  O70  1  0.94451139  0.15181740  0.87322834  1
  O  O71  1  0.94451139  0.34818260  0.37322834  1
