# generated using pymatgen
data_Fe4O5F3
_symmetry_space_group_name_H-M   'P 1'
_cell_length_a   4.76638530
_cell_length_b   4.76638530
_cell_length_c   12.09777193
_cell_angle_alpha   90.00000000
_cell_angle_beta   90.00000000
_cell_angle_gamma   95.43837137
_symmetry_Int_Tables_number   1
_chemical_formula_structural   Fe4O5F3
_chemical_formula_sum   'Fe8 O10 F6'
_cell_volume   273.60522761
_cell_formula_units_Z   2
loop_
 _symmetry_equiv_pos_site_id
 _symmetry_equiv_pos_as_xyz
  1  'x, y, z'
loop_
 _atom_site_type_symbol
 _atom_site_label
 _atom_site_symmetry_multiplicity
 _atom_site_fract_x
 _atom_site_fract_y
 _atom_site_fract_z
 _atom_site_occupancy
  Fe  Fe0  1  0.99129987  0.00870013  0.00336947  1
  Fe  Fe1  1  0.99129987  0.00870013  0.24663053  1
  Fe  Fe2  1  0.00870013  0.99129987  0.50336947  1
  Fe  Fe3  1  0.00870013  0.99129987  0.74663053  1
  Fe  Fe4  1  0.53197715  0.46802285  0.12500000  1
  Fe  Fe5  1  0.46802285  0.53197715  0.62500000  1
  Fe  Fe6  1  0.50000000  0.50000000  0.87500000  1
  Fe  Fe7  1  0.50000000  0.50000000  0.37500000  1
  O  O8  1  0.18570619  0.81429381  0.62500000  1
  O  O9  1  0.31003897  0.30140025  0.99390083  1
  O  O10  1  0.31003897  0.30140025  0.25609917  1
  O  O11  1  0.30140025  0.31003897  0.49390083  1
  O  O12  1  0.30140025  0.31003897  0.75609917  1
  O  O13  1  0.69859975  0.68996103  0.99390083  1
  O  O14  1  0.69859975  0.68996103  0.25609917  1
  O  O15  1  0.68996103  0.69859975  0.49390083  1
  O  O16  1  0.68996103  0.69859975  0.75609917  1
  O  O17  1  0.81429381  0.18570619  0.12500000  1
  F  F18  1  0.19578860  0.80421140  0.12500000  1
  F  F19  1  0.19051488  0.80948512  0.37340338  1
  F  F20  1  0.19051488  0.80948512  0.87659662  1
  F  F21  1  0.80948512  0.19051488  0.37659662  1
  F  F22  1  0.80421140  0.19578860  0.62500000  1
  F  F23  1  0.80948512  0.19051488  0.87340338  1
