# generated using pymatgen
data_Fe4O3F5
_symmetry_space_group_name_H-M   'P 1'
_cell_length_a   4.79999392
_cell_length_b   5.70109395
_cell_length_c   5.70109395
_cell_angle_alpha   114.38111687
_cell_angle_beta   93.61258157
_cell_angle_gamma   86.38741843
_symmetry_Int_Tables_number   1
_chemical_formula_structural   Fe4O3F5
_chemical_formula_sum   'Fe4 O3 F5'
_cell_volume   141.69862756
_cell_formula_units_Z   1
loop_
 _symmetry_equiv_pos_site_id
 _symmetry_equiv_pos_as_xyz
  1  'x, y, z'
loop_
 _atom_site_type_symbol
 _atom_site_label
 _atom_site_symmetry_multiplicity
 _atom_site_fract_x
 _atom_site_fract_y
 _atom_site_fract_z
 _atom_site_occupancy
  Fe  Fe0  1  0.51001186  0.00574097  0.51591719  1
  Fe  Fe1  1  0.51001186  0.48408281  0.99425903  1
  Fe  Fe2  1  0.99686406  0.50094868  0.49905132  1
  Fe  Fe3  1  0.99234114  0.00482873  0.99517127  1
  O  O4  1  0.68911841  0.15107712  0.84892288  1
  O  O5  1  0.69769682  0.65374608  0.34625392  1
  O  O6  1  0.29664895  0.35000670  0.64999330  1
  F  F7  1  0.79966774  0.64004395  0.84250916  1
  F  F8  1  0.79966774  0.15749084  0.35995605  1
  F  F9  1  0.30500562  0.85016145  0.14983855  1
  F  F10  1  0.20148240  0.36251585  0.16064418  1
  F  F11  1  0.20148240  0.83935582  0.63748415  1
