# generated using pymatgen
data_Li4Co3Cu3(WO8)2
_symmetry_space_group_name_H-M   'P 1'
_cell_length_a   5.90675266
_cell_length_b   5.76977508
_cell_length_c   9.59259758
_cell_angle_alpha   90.03060521
_cell_angle_beta   86.30938725
_cell_angle_gamma   119.32664652
_symmetry_Int_Tables_number   1
_chemical_formula_structural   Li4Co3Cu3(WO8)2
_chemical_formula_sum   'Li4 Co3 Cu3 W2 O16'
_cell_volume   284.25241211
_cell_formula_units_Z   1
loop_
 _symmetry_equiv_pos_site_id
 _symmetry_equiv_pos_as_xyz
  1  'x, y, z'
loop_
 _atom_site_type_symbol
 _atom_site_label
 _atom_site_symmetry_multiplicity
 _atom_site_fract_x
 _atom_site_fract_y
 _atom_site_fract_z
 _atom_site_occupancy
  Li  Li0  1  0.34209259  0.67063367  0.90476499  1
  Li  Li1  1  0.99045802  0.99484260  0.99014564  1
  Li  Li2  1  0.98753493  0.99403064  0.48848879  1
  Li  Li3  1  0.68758477  0.34394356  0.40956110  1
  Co  Co4  1  0.65898987  0.82945820  0.21650115  1
  Co  Co5  1  0.82620695  0.65965063  0.71320800  1
  Co  Co6  1  0.82639068  0.16687651  0.71332735  1
  Cu  Cu7  1  0.16220105  0.82442465  0.21372930  1
  Cu  Cu8  1  0.16212467  0.33754009  0.21373355  1
  Cu  Cu9  1  0.33331900  0.16634135  0.71450945  1
  W  W10  1  0.35349095  0.67701447  0.49244266  1
  W  W11  1  0.66088258  0.32973714  0.98519540  1
  O  O12  1  0.15963566  0.82546514  0.58674503  1
  O  O13  1  0.05881108  0.53049476  0.35708869  1
  O  O14  1  0.34859930  0.67422357  0.12339730  1
  O  O15  1  0.98305502  0.99129413  0.29496189  1
  O  O16  1  0.98312806  0.99187367  0.80116356  1
  O  O17  1  0.15836367  0.33558131  0.58651312  1
  O  O18  1  0.52380208  0.97570937  0.35631092  1
  O  O19  1  0.52410626  0.54886589  0.35687364  1
  O  O20  1  0.32071040  0.15987627  0.07530720  1
  O  O21  1  0.65766787  0.82844158  0.60824647  1
  O  O22  1  0.53312785  0.49528785  0.84374859  1
  O  O23  1  0.53383834  0.03695847  0.84444062  1
  O  O24  1  0.67625268  0.33783945  0.61759858  1
  O  O25  1  0.79560289  0.64617639  0.08501081  1
  O  O26  1  0.95664054  0.47905531  0.82970674  1
  O  O27  1  0.79538126  0.14866532  0.08511846  1
