# generated using pymatgen
data_CuH2CBrN2
_symmetry_space_group_name_H-M   'P 1'
_cell_length_a   3.94423459
_cell_length_b   8.62056067
_cell_length_c   13.42307962
_cell_angle_alpha   90.00000000
_cell_angle_beta   90.00000000
_cell_angle_gamma   90.00000000
_symmetry_Int_Tables_number   1
_chemical_formula_structural   CuH2CBrN2
_chemical_formula_sum   'Cu4 H8 C4 Br4 N8'
_cell_volume   456.40502398
_cell_formula_units_Z   4
loop_
 _symmetry_equiv_pos_site_id
 _symmetry_equiv_pos_as_xyz
  1  'x, y, z'
loop_
 _atom_site_type_symbol
 _atom_site_label
 _atom_site_symmetry_multiplicity
 _atom_site_fract_x
 _atom_site_fract_y
 _atom_site_fract_z
 _atom_site_occupancy
  Cu  Cu0  1  0.75000000  0.38340843  0.05311054  1
  Cu  Cu1  1  0.75000000  0.88340843  0.44688946  1
  Cu  Cu2  1  0.25000000  0.61659157  0.94688946  1
  Cu  Cu3  1  0.25000000  0.11659157  0.55311054  1
  H  H4  1  0.75000000  0.86608603  0.21415829  1
  H  H5  1  0.75000000  0.36608603  0.28584171  1
  H  H6  1  0.25000000  0.13391397  0.78584171  1
  H  H7  1  0.25000000  0.63391397  0.71415829  1
  H  H8  1  0.75000000  0.80673293  0.08979593  1
  H  H9  1  0.75000000  0.30673293  0.41020407  1
  H  H10  1  0.25000000  0.19326707  0.91020407  1
  H  H11  1  0.25000000  0.69326707  0.58979593  1
  C  C12  1  0.75000000  0.03978727  0.11276806  1
  C  C13  1  0.75000000  0.53978727  0.38723194  1
  C  C14  1  0.25000000  0.96021273  0.88723194  1
  C  C15  1  0.25000000  0.46021273  0.61276806  1
  Br  Br16  1  0.75000000  0.46700337  0.87310892  1
  Br  Br17  1  0.75000000  0.96700337  0.62689108  1
  Br  Br18  1  0.25000000  0.53299663  0.12689108  1
  Br  Br19  1  0.25000000  0.03299663  0.37310892  1
  N  N20  1  0.75000000  0.17047367  0.08756521  1
  N  N21  1  0.75000000  0.67047367  0.41243479  1
  N  N22  1  0.25000000  0.82952633  0.91243479  1
  N  N23  1  0.25000000  0.32952633  0.58756521  1
  N  N24  1  0.75000000  0.89443281  0.14060967  1
  N  N25  1  0.75000000  0.39443281  0.35939033  1
  N  N26  1  0.25000000  0.10556719  0.85939033  1
  N  N27  1  0.25000000  0.60556719  0.64060967  1
