# generated using pymatgen
data_Mn3(O2F)2
_symmetry_space_group_name_H-M   'P 1'
_cell_length_a   4.63269982
_cell_length_b   7.61019305
_cell_length_c   5.56274762
_cell_angle_alpha   93.71931788
_cell_angle_beta   91.83208854
_cell_angle_gamma   88.20234750
_symmetry_Int_Tables_number   1
_chemical_formula_structural   Mn3(O2F)2
_chemical_formula_sum   'Mn6 O8 F4'
_cell_volume   195.52127794
_cell_formula_units_Z   2
loop_
 _symmetry_equiv_pos_site_id
 _symmetry_equiv_pos_as_xyz
  1  'x, y, z'
loop_
 _atom_site_type_symbol
 _atom_site_label
 _atom_site_symmetry_multiplicity
 _atom_site_fract_x
 _atom_site_fract_y
 _atom_site_fract_z
 _atom_site_occupancy
  Mn  Mn0  1  0.50526399  0.98835763  0.50440160  1
  Mn  Mn1  1  0.49638757  0.66912931  0.16848556  1
  Mn  Mn2  1  0.52605056  0.34393943  0.82864791  1
  Mn  Mn3  1  0.01422957  0.67010262  0.66558841  1
  Mn  Mn4  1  0.95341140  0.32766269  0.33817123  1
  Mn  Mn5  1  0.00688754  0.00477716  0.99768187  1
  O  O6  1  0.81090226  0.43517190  0.62620728  1
  O  O7  1  0.79995538  0.10464632  0.29484587  1
  O  O8  1  0.68994876  0.10407579  0.79377338  1
  O  O9  1  0.69185343  0.76555478  0.46769072  1
  O  O10  1  0.69909058  0.43983020  0.13340863  1
  O  O11  1  0.31349168  0.56644861  0.86958209  1
  O  O12  1  0.30233318  0.89673295  0.21159264  1
  O  O13  1  0.19656588  0.89905605  0.70576154  1
  F  F14  1  0.80638134  0.76747181  0.96839893  1
  F  F15  1  0.29665473  0.22612995  0.52594023  1
  F  F16  1  0.18868508  0.54331211  0.36009186  1
  F  F17  1  0.20190707  0.24760070  0.03973023  1
