# generated using pymatgen
data_LiCoPO4F
_symmetry_space_group_name_H-M   'P 1'
_cell_length_a   5.11787883
_cell_length_b   13.31976672
_cell_length_c   11.28037481
_cell_angle_alpha   90.00000000
_cell_angle_beta   90.33201900
_cell_angle_gamma   90.00000000
_symmetry_Int_Tables_number   1
_chemical_formula_structural   LiCoPO4F
_chemical_formula_sum   'Li8 Co8 P8 O32 F8'
_cell_volume   768.95841995
_cell_formula_units_Z   8
loop_
 _symmetry_equiv_pos_site_id
 _symmetry_equiv_pos_as_xyz
  1  'x, y, z'
loop_
 _atom_site_type_symbol
 _atom_site_label
 _atom_site_symmetry_multiplicity
 _atom_site_fract_x
 _atom_site_fract_y
 _atom_site_fract_z
 _atom_site_occupancy
  Li  Li0  1  0.21182759  0.22987472  0.17985878  1
  Li  Li1  1  0.21182759  0.77012528  0.67985878  1
  Li  Li2  1  0.67240859  0.24280318  0.81437903  1
  Li  Li3  1  0.67240859  0.75719682  0.31437903  1
  Li  Li4  1  0.78505355  0.64265696  0.10574466  1
  Li  Li5  1  0.78505355  0.35734304  0.60574466  1
  Li  Li6  1  0.79086527  0.77605890  0.81380452  1
  Li  Li7  1  0.79086527  0.22394110  0.31380452  1
  Co  Co8  1  0.21891574  0.51969768  0.16935681  1
  Co  Co9  1  0.21891574  0.48030232  0.66935681  1
  Co  Co10  1  0.28391101  0.98136308  0.67088666  1
  Co  Co11  1  0.28391101  0.01863692  0.17088666  1
  Co  Co12  1  0.71609603  0.98488458  0.83072150  1
  Co  Co13  1  0.71609603  0.01511542  0.33072150  1
  Co  Co14  1  0.78690870  0.52397551  0.33798366  1
  Co  Co15  1  0.78690870  0.47602449  0.83798366  1
  P  P16  1  0.20627400  0.12311658  0.90813731  1
  P  P17  1  0.20627400  0.87688342  0.40813731  1
  P  P18  1  0.28938204  0.38096316  0.40454758  1
  P  P19  1  0.28938204  0.61903684  0.90454758  1
  P  P20  1  0.70503479  0.37963783  0.09738040  1
  P  P21  1  0.70503479  0.62036217  0.59738040  1
  P  P22  1  0.80681779  0.11794057  0.59124227  1
  P  P23  1  0.80681779  0.88205943  0.09124227  1
  O  O24  1  0.10101193  0.09247546  0.60961680  1
  O  O25  1  0.10101193  0.90752454  0.10961680  1
  O  O26  1  0.15004997  0.47152894  0.33931526  1
  O  O27  1  0.15004997  0.52847106  0.83931526  1
  O  O28  1  0.19779692  0.28250370  0.35370198  1
  O  O29  1  0.19779692  0.71749630  0.85370198  1
  O  O30  1  0.20453941  0.60721213  0.03704791  1
  O  O31  1  0.20453941  0.39278787  0.53704791  1
  O  O32  1  0.23273530  0.11177507  0.04545260  1
  O  O33  1  0.23273530  0.88822493  0.54545260  1
  O  O34  1  0.31899929  0.22161115  0.87016176  1
  O  O35  1  0.31899929  0.77838885  0.37016176  1
  O  O36  1  0.35544643  0.96785060  0.34846084  1
  O  O37  1  0.35544643  0.03214940  0.84846084  1
  O  O38  1  0.40936667  0.39586875  0.12617183  1
  O  O39  1  0.40936667  0.60413125  0.62617183  1
  O  O40  1  0.59209936  0.59975386  0.89585665  1
  O  O41  1  0.59209936  0.40024614  0.39585665  1
  O  O42  1  0.64862774  0.03433880  0.65789482  1
  O  O43  1  0.64862774  0.96566120  0.15789482  1
  O  O44  1  0.73806124  0.22067877  0.63752986  1
  O  O45  1  0.73806124  0.77932123  0.13752986  1
  O  O46  1  0.73898452  0.11027131  0.45661911  1
  O  O47  1  0.73898452  0.88972869  0.95661911  1
  O  O48  1  0.73840313  0.38493711  0.95905837  1
  O  O49  1  0.73840313  0.61506289  0.45905837  1
  O  O50  1  0.81524269  0.28375336  0.14735641  1
  O  O51  1  0.81524269  0.71624664  0.64735641  1
  O  O52  1  0.85217420  0.47423157  0.14755231  1
  O  O53  1  0.85217420  0.52576843  0.64755231  1
  O  O54  1  0.91002946  0.10798641  0.87269991  1
  O  O55  1  0.91002946  0.89201359  0.37269991  1
  F  F56  1  0.00152914  0.09241844  0.25458788  1
  F  F57  1  0.99321047  0.62900675  0.25060898  1
  F  F58  1  0.99321047  0.37099325  0.75060898  1
  F  F59  1  0.00152914  0.90758156  0.75458788  1
  F  F60  1  0.51486499  0.58937830  0.23923833  1
  F  F61  1  0.50300604  0.13127794  0.24834019  1
  F  F62  1  0.51486499  0.41062170  0.73923833  1
  F  F63  1  0.50300604  0.86872206  0.74834019  1
