# generated using pymatgen
data_Mn6O7F5
_symmetry_space_group_name_H-M   'P 1'
_cell_length_a   4.56826635
_cell_length_b   5.64294292
_cell_length_c   15.31514704
_cell_angle_alpha   89.73849876
_cell_angle_beta   90.14085218
_cell_angle_gamma   90.82725735
_symmetry_Int_Tables_number   1
_chemical_formula_structural   Mn6O7F5
_chemical_formula_sum   'Mn12 O14 F10'
_cell_volume   394.75460885
_cell_formula_units_Z   2
loop_
 _symmetry_equiv_pos_site_id
 _symmetry_equiv_pos_as_xyz
  1  'x, y, z'
loop_
 _atom_site_type_symbol
 _atom_site_label
 _atom_site_symmetry_multiplicity
 _atom_site_fract_x
 _atom_site_fract_y
 _atom_site_fract_z
 _atom_site_occupancy
  Mn  Mn0  1  0.00446639  0.15541798  0.40760791  1
  Mn  Mn1  1  0.02082351  0.83565424  0.24965216  1
  Mn  Mn2  1  0.01721051  0.17728612  0.07621668  1
  Mn  Mn3  1  0.02734530  0.15775292  0.74339069  1
  Mn  Mn4  1  0.00215026  0.84655612  0.57531927  1
  Mn  Mn5  1  0.01214854  0.84651900  0.90940458  1
  Mn  Mn6  1  0.51223357  0.35063615  0.59127830  1
  Mn  Mn7  1  0.49699272  0.34596767  0.91699796  1
  Mn  Mn8  1  0.49632314  0.36502763  0.25691692  1
  Mn  Mn9  1  0.52452047  0.62226320  0.09055455  1
  Mn  Mn10  1  0.49433983  0.64825339  0.42058402  1
  Mn  Mn11  1  0.50356033  0.63878777  0.75947900  1
  O  O12  1  0.22756509  0.11456719  0.30203802  1
  O  O13  1  0.22030975  0.11770541  0.63484420  1
  O  O14  1  0.21934651  0.11137395  0.96619353  1
  O  O15  1  0.21261562  0.88632657  0.46646180  1
  O  O16  1  0.23662793  0.88638843  0.80192896  1
  O  O17  1  0.28808743  0.39776960  0.14719845  1
  O  O18  1  0.27278223  0.60121183  0.31209242  1
  O  O19  1  0.27726918  0.39743461  0.81101309  1
  O  O20  1  0.72271033  0.37620864  0.02533302  1
  O  O21  1  0.74006235  0.60811727  0.19796335  1
  O  O22  1  0.71888362  0.38445575  0.36238188  1
  O  O23  1  0.71452753  0.61880994  0.53013281  1
  O  O24  1  0.71999466  0.62062373  0.86379070  1
  O  O25  1  0.73123725  0.39109087  0.69750988  1
  F  F26  1  0.24687401  0.89275748  0.13295117  1
  F  F27  1  0.25194695  0.38213655  0.48676767  1
  F  F28  1  0.26221162  0.62189689  0.65256660  1
  F  F29  1  0.25804272  0.61722441  0.98676871  1
  F  F30  1  0.76606241  0.11654914  0.19254232  1
  F  F31  1  0.75542334  0.12086394  0.51470450  1
  F  F32  1  0.74946042  0.88689239  0.35348825  1
  F  F33  1  0.76463216  0.86554065  0.02719224  1
  F  F34  1  0.77579563  0.11935935  0.84788439  1
  F  F35  1  0.75541770  0.87457322  0.68884698  1
