# generated using pymatgen
data_LiV4(PO4)3
_symmetry_space_group_name_H-M   'P 1'
_cell_length_a   6.52351164
_cell_length_b   14.41937371
_cell_length_c   10.03811418
_cell_angle_alpha   90.00000000
_cell_angle_beta   90.00000000
_cell_angle_gamma   90.00000000
_symmetry_Int_Tables_number   1
_chemical_formula_structural   LiV4(PO4)3
_chemical_formula_sum   'Li4 V16 P12 O48'
_cell_volume   944.23473091
_cell_formula_units_Z   4
loop_
 _symmetry_equiv_pos_site_id
 _symmetry_equiv_pos_as_xyz
  1  'x, y, z'
loop_
 _atom_site_type_symbol
 _atom_site_label
 _atom_site_symmetry_multiplicity
 _atom_site_fract_x
 _atom_site_fract_y
 _atom_site_fract_z
 _atom_site_occupancy
  Li  Li0  1  0.05541018  0.25000000  0.73995724  1
  Li  Li1  1  0.44458982  0.75000000  0.23995724  1
  Li  Li2  1  0.55541018  0.25000000  0.76004276  1
  Li  Li3  1  0.94458982  0.75000000  0.26004276  1
  V  V4  1  0.14986514  0.59809408  0.45183481  1
  V  V5  1  0.14986514  0.90190592  0.45183481  1
  V  V6  1  0.15339964  0.60934565  0.84688257  1
  V  V7  1  0.15339964  0.89065435  0.84688257  1
  V  V8  1  0.34660036  0.10934565  0.34688257  1
  V  V9  1  0.34660036  0.39065435  0.34688257  1
  V  V10  1  0.35013486  0.09809408  0.95183481  1
  V  V11  1  0.35013486  0.40190592  0.95183481  1
  V  V12  1  0.64986514  0.59809408  0.04816519  1
  V  V13  1  0.64986514  0.90190592  0.04816519  1
  V  V14  1  0.65339964  0.60934565  0.65311743  1
  V  V15  1  0.65339964  0.89065435  0.65311743  1
  V  V16  1  0.84660036  0.10934565  0.15311743  1
  V  V17  1  0.84660036  0.39065435  0.15311743  1
  V  V18  1  0.85013486  0.40190592  0.54816519  1
  V  V19  1  0.85013486  0.09809408  0.54816519  1
  P  P20  1  0.99395137  0.25000000  0.40392880  1
  P  P21  1  0.14654168  0.57469582  0.13085406  1
  P  P22  1  0.14654168  0.92530418  0.13085406  1
  P  P23  1  0.35345832  0.07469682  0.63085406  1
  P  P24  1  0.35345832  0.42530318  0.63085406  1
  P  P25  1  0.50604863  0.75000000  0.90392880  1
  P  P26  1  0.49395137  0.25000000  0.09607120  1
  P  P27  1  0.64654168  0.57469582  0.36914594  1
  P  P28  1  0.64654168  0.92530418  0.36914594  1
  P  P29  1  0.85345832  0.42530318  0.86914594  1
  P  P30  1  0.85345832  0.07469682  0.86914594  1
  P  P31  1  0.00604863  0.75000000  0.59607120  1
  O  O32  1  0.02384025  0.11452899  0.96289737  1
  O  O33  1  0.02384025  0.38547101  0.96289737  1
  O  O34  1  0.06338755  0.75000000  0.44502466  1
  O  O35  1  0.09826259  0.65886733  0.65189613  1
  O  O36  1  0.09826259  0.84113267  0.65189613  1
  O  O37  1  0.08311961  0.01374091  0.20753231  1
  O  O38  1  0.08311961  0.48625809  0.20753231  1
  O  O39  1  0.17773271  0.05156537  0.52493538  1
  O  O40  1  0.17773271  0.44843463  0.52493538  1
  O  O41  1  0.21746854  0.64614235  0.23464311  1
  O  O42  1  0.21746854  0.85385765  0.23464311  1
  O  O43  1  0.22723372  0.25000000  0.38176876  1
  O  O44  1  0.27276628  0.75000000  0.88176876  1
  O  O45  1  0.28253146  0.35385765  0.73464311  1
  O  O46  1  0.28253146  0.14614235  0.73464311  1
  O  O47  1  0.32226729  0.55156537  0.02493538  1
  O  O48  1  0.32226729  0.94843463  0.02493538  1
  O  O49  1  0.41688039  0.51374191  0.70753231  1
  O  O50  1  0.41688039  0.98625809  0.70753231  1
  O  O51  1  0.40173741  0.15886733  0.15189613  1
  O  O52  1  0.40173741  0.34113267  0.15189613  1
  O  O53  1  0.43661245  0.25000000  0.94502466  1
  O  O54  1  0.47615975  0.61452899  0.46289737  1
  O  O55  1  0.47615975  0.88547101  0.46289737  1
  O  O56  1  0.52384025  0.11452899  0.53710263  1
  O  O57  1  0.52384025  0.38547101  0.53710263  1
  O  O58  1  0.56338755  0.75000000  0.05497534  1
  O  O59  1  0.59826259  0.65886733  0.84810387  1
  O  O60  1  0.59826259  0.84113267  0.84810387  1
  O  O61  1  0.58311961  0.01374091  0.29246769  1
  O  O62  1  0.58311961  0.48625809  0.29246769  1
  O  O63  1  0.67773271  0.44843463  0.97506462  1
  O  O64  1  0.67773271  0.05156537  0.97506462  1
  O  O65  1  0.71746854  0.64614235  0.26535689  1
  O  O66  1  0.71746854  0.85385765  0.26535689  1
  O  O67  1  0.72723372  0.25000000  0.11823124  1
  O  O68  1  0.77276628  0.75000000  0.61823124  1
  O  O69  1  0.78253146  0.14614235  0.76535689  1
  O  O70  1  0.78253146  0.35385765  0.76535689  1
  O  O71  1  0.82226729  0.55156537  0.47506462  1
  O  O72  1  0.82226729  0.94843463  0.47506462  1
  O  O73  1  0.91688039  0.51374191  0.79246769  1
  O  O74  1  0.91688039  0.98625809  0.79246769  1
  O  O75  1  0.90173741  0.15886733  0.34810387  1
  O  O76  1  0.90173741  0.34113267  0.34810387  1
  O  O77  1  0.93661245  0.25000000  0.55497534  1
  O  O78  1  0.97615975  0.61452899  0.03710263  1
  O  O79  1  0.97615975  0.88547101  0.03710263  1
