# generated using pymatgen
data_LiCoSiO4
_symmetry_space_group_name_H-M   'P 1'
_cell_length_a   5.33734269
_cell_length_b   5.33734320
_cell_length_c   12.14970586
_cell_angle_alpha   90.00000000
_cell_angle_beta   90.00000000
_cell_angle_gamma   119.99999678
_symmetry_Int_Tables_number   1
_chemical_formula_structural   LiCoSiO4
_chemical_formula_sum   'Li3 Co3 Si3 O12'
_cell_volume   299.74132817
_cell_formula_units_Z   3
loop_
 _symmetry_equiv_pos_site_id
 _symmetry_equiv_pos_as_xyz
  1  'x, y, z'
loop_
 _atom_site_type_symbol
 _atom_site_label
 _atom_site_symmetry_multiplicity
 _atom_site_fract_x
 _atom_site_fract_y
 _atom_site_fract_z
 _atom_site_occupancy
  Li  Li0  1  0.00000000  0.00000000  0.00000000  1
  Li  Li1  1  0.00000000  0.00000000  0.33333300  1
  Li  Li2  1  0.00000000  0.00000000  0.66666700  1
  Co  Co3  1  0.00000000  0.50000000  0.83333300  1
  Co  Co4  1  0.50000000  0.50000000  0.16666700  1
  Co  Co5  1  0.50000000  0.00000000  0.50000000  1
  Si  Si6  1  0.00000000  0.50000000  0.33333300  1
  Si  Si7  1  0.50000000  0.50000000  0.66666700  1
  Si  Si8  1  0.50000000  0.00000000  0.00000000  1
  O  O9  1  0.18762675  0.79395506  0.40711989  1
  O  O10  1  0.20604494  0.81237325  0.92621311  1
  O  O11  1  0.18762675  0.39367169  0.25954711  1
  O  O12  1  0.20604494  0.39367169  0.74045289  1
  O  O13  1  0.60632831  0.81237325  0.07378689  1
  O  O14  1  0.60632831  0.79395506  0.59288011  1
  O  O15  1  0.39367169  0.20604494  0.59288011  1
  O  O16  1  0.39367169  0.18762675  0.07378689  1
  O  O17  1  0.79395506  0.60632831  0.74045289  1
  O  O18  1  0.81237325  0.60632831  0.25954711  1
  O  O19  1  0.79395506  0.18762675  0.92621311  1
  O  O20  1  0.81237325  0.20604494  0.40711989  1
