# generated using pymatgen
data_LiFe(CO3)2
_symmetry_space_group_name_H-M   'P 1'
_cell_length_a   8.30347556
_cell_length_b   6.16410464
_cell_length_c   5.59061292
_cell_angle_alpha   63.03656225
_cell_angle_beta   106.33269687
_cell_angle_gamma   97.32673906
_symmetry_Int_Tables_number   1
_chemical_formula_structural   LiFe(CO3)2
_chemical_formula_sum   'Li2 Fe2 C4 O12'
_cell_volume   244.74955429
_cell_formula_units_Z   2
loop_
 _symmetry_equiv_pos_site_id
 _symmetry_equiv_pos_as_xyz
  1  'x, y, z'
loop_
 _atom_site_type_symbol
 _atom_site_label
 _atom_site_symmetry_multiplicity
 _atom_site_fract_x
 _atom_site_fract_y
 _atom_site_fract_z
 _atom_site_occupancy
  Li  Li0  1  0.65595614  0.07754537  0.45455572  1
  Li  Li1  1  0.15595301  0.42256315  0.28222731  1
  Fe  Fe2  1  0.50001512  0.51677854  0.82944235  1
  Fe  Fe3  1  0.00000171  0.98319292  0.09610222  1
  C  C4  1  0.78968097  0.58266673  0.05232705  1
  C  C5  1  0.70523661  0.09727891  0.00295613  1
  C  C6  1  0.28968561  0.91726987  0.38478051  1
  C  C7  1  0.20511348  0.40275205  0.85048286  1
  O  O8  1  0.94253953  0.63533369  0.15510241  1
  O  O9  1  0.74059644  0.61051557  0.79791257  1
  O  O10  1  0.75833370  0.07209322  0.81995855  1
  O  O11  1  0.81391487  0.04389937  0.24277598  1
  O  O12  1  0.55641179  0.16855253  0.95855464  1
  O  O13  1  0.67705359  0.50319902  0.19416848  1
  O  O14  1  0.44257087  0.86448543  0.54014803  1
  O  O15  1  0.25833487  0.42795319  0.64216785  1
  O  O16  1  0.17712082  0.99667128  0.44729123  1
  O  O17  1  0.24055211  0.88947899  0.15814427  1
  O  O18  1  0.31393089  0.45627668  0.03680344  1
  O  O19  1  0.05649984  0.33149350  0.87735339  1
