# generated using pymatgen
data_LiMnPO4
_symmetry_space_group_name_H-M   'P 1'
_cell_length_a   7.58116829
_cell_length_b   9.98620375
_cell_length_c   5.77372762
_cell_angle_alpha   103.98845464
_cell_angle_beta   96.99863789
_cell_angle_gamma   59.19075094
_symmetry_Int_Tables_number   1
_chemical_formula_structural   LiMnPO4
_chemical_formula_sum   'Li4 Mn4 P4 O16'
_cell_volume   364.29118726
_cell_formula_units_Z   4
loop_
 _symmetry_equiv_pos_site_id
 _symmetry_equiv_pos_as_xyz
  1  'x, y, z'
loop_
 _atom_site_type_symbol
 _atom_site_label
 _atom_site_symmetry_multiplicity
 _atom_site_fract_x
 _atom_site_fract_y
 _atom_site_fract_z
 _atom_site_occupancy
  Li  Li0  1  0.08069340  0.74071482  0.98686727  1
  Li  Li1  1  0.43247444  0.95789043  0.80084419  1
  Li  Li2  1  0.56752556  0.04210957  0.19915581  1
  Li  Li3  1  0.91930660  0.25928518  0.01313273  1
  Mn  Mn4  1  0.11763922  0.32331218  0.60497273  1
  Mn  Mn5  1  0.29020972  0.73342690  0.47308651  1
  Mn  Mn6  1  0.70979028  0.26657310  0.52691349  1
  Mn  Mn7  1  0.88236078  0.67668782  0.39502727  1
  P  P8  1  0.26884688  0.40277361  0.16883460  1
  P  P9  1  0.18001001  0.03300733  0.28908843  1
  P  P10  1  0.81998999  0.96699267  0.71091157  1
  P  P11  1  0.73115312  0.59722639  0.83116540  1
  O  O12  1  0.26148033  0.06094376  0.54839889  1
  O  O13  1  0.09343440  0.39767609  0.27786125  1
  O  O14  1  0.29385162  0.33865574  0.89947324  1
  O  O15  1  0.04685252  0.82254711  0.70509842  1
  O  O16  1  0.30386772  0.04251552  0.10806808  1
  O  O17  1  0.19500500  0.58804949  0.22503833  1
  O  O18  1  0.17879407  0.87374829  0.22734856  1
  O  O19  1  0.52850209  0.68906101  0.69933583  1
  O  O20  1  0.47149791  0.31093899  0.30066417  1
  O  O21  1  0.82120593  0.12625171  0.77265144  1
  O  O22  1  0.80499500  0.41195051  0.77496167  1
  O  O23  1  0.69613228  0.95748448  0.89193192  1
  O  O24  1  0.95314748  0.17745289  0.29490158  1
  O  O25  1  0.70614838  0.66134426  0.10052676  1
  O  O26  1  0.90656560  0.60232391  0.72213875  1
  O  O27  1  0.73851967  0.93905624  0.45160111  1
