# generated using pymatgen
data_Li3P3WO11
_symmetry_space_group_name_H-M   'P 1'
_cell_length_a   8.15485615
_cell_length_b   8.22695025
_cell_length_c   6.41301031
_cell_angle_alpha   96.16533814
_cell_angle_beta   99.47426445
_cell_angle_gamma   109.12297450
_symmetry_Int_Tables_number   1
_chemical_formula_structural   Li3P3WO11
_chemical_formula_sum   'Li6 P6 W2 O22'
_cell_volume   394.90625303
_cell_formula_units_Z   2
loop_
 _symmetry_equiv_pos_site_id
 _symmetry_equiv_pos_as_xyz
  1  'x, y, z'
loop_
 _atom_site_type_symbol
 _atom_site_label
 _atom_site_symmetry_multiplicity
 _atom_site_fract_x
 _atom_site_fract_y
 _atom_site_fract_z
 _atom_site_occupancy
  Li  Li0  1  0.99112722  0.82436481  0.61581393  1
  Li  Li1  1  0.17873330  0.57394141  0.40984046  1
  Li  Li2  1  0.47388783  0.96203278  0.71168429  1
  Li  Li3  1  0.52611217  0.03796722  0.28831571  1
  Li  Li4  1  0.82126670  0.42605859  0.59015954  1
  Li  Li5  1  0.00887278  0.17563519  0.38418607  1
  P  P6  1  0.22892564  0.61884746  0.88217369  1
  P  P7  1  0.11438586  0.85974754  0.14041409  1
  P  P8  1  0.41428540  0.28818912  0.62124546  1
  P  P9  1  0.58571460  0.71181088  0.37875454  1
  P  P10  1  0.88561414  0.14025246  0.85958591  1
  P  P11  1  0.77107436  0.38115254  0.11782631  1
  W  W12  1  0.68075548  0.72524256  0.90602647  1
  W  W13  1  0.31924452  0.27475844  0.09397353  1
  O  O14  1  0.09275992  0.61748054  0.68631695  1
  O  O15  1  0.07698123  0.87311711  0.36031730  1
  O  O16  1  0.21969635  0.43753093  0.91486731  1
  O  O17  1  0.17253812  0.68961727  0.09915206  1
  O  O18  1  0.41522322  0.74507193  0.87753951  1
  O  O19  1  0.03837448  0.16840264  0.05468130  1
  O  O20  1  0.27143843  0.29361295  0.42577777  1
  O  O21  1  0.31564301  0.17365612  0.77341804  1
  O  O22  1  0.45811044  0.79474583  0.45657543  1
  O  O23  1  0.51633408  0.47451069  0.74703842  1
  O  O24  1  0.71887169  0.98874734  0.88433235  1
  O  O25  1  0.28112831  0.01125266  0.11566765  1
  O  O26  1  0.48366592  0.52548931  0.25296158  1
  O  O27  1  0.54188956  0.20525417  0.54342457  1
  O  O28  1  0.68435699  0.82634388  0.22658196  1
  O  O29  1  0.72856157  0.70638705  0.57422223  1
  O  O30  1  0.96162552  0.83159736  0.94531870  1
  O  O31  1  0.58477678  0.25492807  0.12246049  1
  O  O32  1  0.82746188  0.31038173  0.90084794  1
  O  O33  1  0.78030365  0.56246907  0.08513269  1
  O  O34  1  0.92301877  0.12688289  0.63968270  1
  O  O35  1  0.90724008  0.38251946  0.31368305  1
