# generated using pymatgen
data_LiMn(PO3)3
_symmetry_space_group_name_H-M   'P 1'
_cell_length_a   5.27263334
_cell_length_b   12.20590025
_cell_length_c   12.80900426
_cell_angle_alpha   90.00000000
_cell_angle_beta   90.00000000
_cell_angle_gamma   90.00000000
_symmetry_Int_Tables_number   1
_chemical_formula_structural   LiMn(PO3)3
_chemical_formula_sum   'Li4 Mn4 P12 O36'
_cell_volume   824.35211781
_cell_formula_units_Z   4
loop_
 _symmetry_equiv_pos_site_id
 _symmetry_equiv_pos_as_xyz
  1  'x, y, z'
loop_
 _atom_site_type_symbol
 _atom_site_label
 _atom_site_symmetry_multiplicity
 _atom_site_fract_x
 _atom_site_fract_y
 _atom_site_fract_z
 _atom_site_occupancy
  Li  Li0  1  0.05683560  0.11144175  0.25000000  1
  Li  Li1  1  0.05683560  0.38855825  0.75000000  1
  Li  Li2  1  0.94316440  0.61144175  0.25000000  1
  Li  Li3  1  0.94316440  0.88855825  0.75000000  1
  Mn  Mn4  1  0.00000000  0.00000000  0.00000000  1
  Mn  Mn5  1  0.00000000  0.50000000  0.00000000  1
  Mn  Mn6  1  0.00000000  0.00000000  0.50000000  1
  Mn  Mn7  1  0.00000000  0.50000000  0.50000000  1
  P  P8  1  0.23958056  0.75000000  0.00000000  1
  P  P9  1  0.23958056  0.75000000  0.50000000  1
  P  P10  1  0.49581805  0.08177484  0.63605016  1
  P  P11  1  0.49581805  0.41822516  0.13605016  1
  P  P12  1  0.49581805  0.08177484  0.86394984  1
  P  P13  1  0.49581805  0.41822516  0.36394984  1
  P  P14  1  0.50418195  0.58177484  0.63605016  1
  P  P15  1  0.50418195  0.91822516  0.36394984  1
  P  P16  1  0.50418195  0.91822516  0.13605016  1
  P  P17  1  0.50418195  0.58177484  0.86394984  1
  P  P18  1  0.76041944  0.25000000  0.00000000  1
  P  P19  1  0.76041944  0.25000000  0.50000000  1
  O  O20  1  0.09668157  0.66595563  0.06309852  1
  O  O21  1  0.09668157  0.66595563  0.43690148  1
  O  O22  1  0.09668157  0.83404437  0.56309852  1
  O  O23  1  0.09668157  0.83404437  0.93690148  1
  O  O24  1  0.21661644  0.44001767  0.13000085  1
  O  O25  1  0.21661644  0.05998233  0.63000085  1
  O  O26  1  0.21661644  0.44001767  0.36999915  1
  O  O27  1  0.21661644  0.05998233  0.86999915  1
  O  O28  1  0.32006739  0.00898892  0.10950271  1
  O  O29  1  0.32006739  0.00898892  0.39049729  1
  O  O30  1  0.32006739  0.49101108  0.89049729  1
  O  O31  1  0.32006739  0.49101108  0.60950271  1
  O  O32  1  0.43520275  0.87208466  0.25000000  1
  O  O33  1  0.43520275  0.62791534  0.75000000  1
  O  O34  1  0.44501471  0.69235729  0.57436395  1
  O  O35  1  0.44501471  0.80764271  0.07436395  1
  O  O36  1  0.44501471  0.69235729  0.92563605  1
  O  O37  1  0.44501471  0.80764271  0.42563605  1
  O  O38  1  0.55498529  0.19235729  0.57436395  1
  O  O39  1  0.55498529  0.30764271  0.07436395  1
  O  O40  1  0.55498529  0.30764271  0.42563605  1
  O  O41  1  0.55498529  0.19235729  0.92563605  1
  O  O42  1  0.56479725  0.12791534  0.75000000  1
  O  O43  1  0.56479725  0.37208466  0.25000000  1
  O  O44  1  0.67993261  0.50898892  0.39049729  1
  O  O45  1  0.67993261  0.99101108  0.60950271  1
  O  O46  1  0.67993261  0.50898892  0.10950271  1
  O  O47  1  0.67993261  0.99101108  0.89049729  1
  O  O48  1  0.78338356  0.55998233  0.86999915  1
  O  O49  1  0.78338356  0.55998233  0.63000085  1
  O  O50  1  0.78338356  0.94001767  0.36999915  1
  O  O51  1  0.78338356  0.94001767  0.13000085  1
  O  O52  1  0.90331843  0.16595563  0.43690148  1
  O  O53  1  0.90331843  0.33404437  0.56309852  1
  O  O54  1  0.90331843  0.16595563  0.06309852  1
  O  O55  1  0.90331843  0.33404437  0.93690148  1
