# generated using pymatgen
data_LiV(CO3)2
_symmetry_space_group_name_H-M   'P 1'
_cell_length_a   6.28833080
_cell_length_b   7.85133971
_cell_length_c   5.18098748
_cell_angle_alpha   90.00000000
_cell_angle_beta   68.72289223
_cell_angle_gamma   90.00000000
_symmetry_Int_Tables_number   1
_chemical_formula_structural   LiV(CO3)2
_chemical_formula_sum   'Li2 V2 C4 O12'
_cell_volume   238.35886629
_cell_formula_units_Z   2
loop_
 _symmetry_equiv_pos_site_id
 _symmetry_equiv_pos_as_xyz
  1  'x, y, z'
loop_
 _atom_site_type_symbol
 _atom_site_label
 _atom_site_symmetry_multiplicity
 _atom_site_fract_x
 _atom_site_fract_y
 _atom_site_fract_z
 _atom_site_occupancy
  Li  Li0  1  0.67059057  0.05832404  0.70464809  1
  Li  Li1  1  0.82940943  0.55832404  0.79535191  1
  V  V2  1  0.02031748  0.99867052  0.00046935  1
  V  V3  1  0.47968252  0.49867052  0.49953065  1
  C  C4  1  0.12053980  0.26584657  0.75113531  1
  C  C5  1  0.37946020  0.76584657  0.74886469  1
  C  C6  1  0.63792551  0.23715572  0.22647232  1
  C  C7  1  0.86207449  0.73715572  0.27352768  1
  O  O8  1  0.12484372  0.24880858  0.99595755  1
  O  O9  1  0.06596601  0.13177809  0.63998899  1
  O  O10  1  0.16177658  0.41291860  0.62256225  1
  O  O11  1  0.33822342  0.91291860  0.87743775  1
  O  O12  1  0.43403399  0.63177809  0.86001101  1
  O  O13  1  0.37515628  0.74880858  0.50404245  1
  O  O14  1  0.59819581  0.24198914  0.49009469  1
  O  O15  1  0.61017125  0.38156382  0.11649500  1
  O  O16  1  0.69500577  0.09882191  0.08370012  1
  O  O17  1  0.80499423  0.59882191  0.41629988  1
  O  O18  1  0.88982875  0.88156382  0.38350500  1
  O  O19  1  0.90180419  0.74198914  0.00990531  1
