# generated using pymatgen
data_Cd2(GeO3)3
_symmetry_space_group_name_H-M   'P 1'
_cell_length_a   7.20101910
_cell_length_b   7.65797222
_cell_length_c   8.02539057
_cell_angle_alpha   104.13534671
_cell_angle_beta   114.22006060
_cell_angle_gamma   97.03576470
_symmetry_Int_Tables_number   1
_chemical_formula_structural   Cd2(GeO3)3
_chemical_formula_sum   'Cd4 Ge6 O18'
_cell_volume   378.77552160
_cell_formula_units_Z   2
loop_
 _symmetry_equiv_pos_site_id
 _symmetry_equiv_pos_as_xyz
  1  'x, y, z'
loop_
 _atom_site_type_symbol
 _atom_site_label
 _atom_site_symmetry_multiplicity
 _atom_site_fract_x
 _atom_site_fract_y
 _atom_site_fract_z
 _atom_site_occupancy
  Cd  Cd0  1  0.89278455  0.23037402  0.10502381  1
  Cd  Cd1  1  0.10721545  0.76962598  0.89497619  1
  Cd  Cd2  1  0.81234527  0.62613584  0.38700301  1
  Cd  Cd3  1  0.18765473  0.37386416  0.61299699  1
  Ge  Ge4  1  0.63181777  0.73574351  0.95264540  1
  Ge  Ge5  1  0.36818223  0.26425649  0.04735460  1
  Ge  Ge6  1  0.31651986  0.05353601  0.35032617  1
  Ge  Ge7  1  0.68348014  0.94646399  0.64967383  1
  Ge  Ge8  1  0.71930038  0.37802738  0.68911061  1
  Ge  Ge9  1  0.28069962  0.62197262  0.31088939  1
  O  O10  1  0.18916133  0.79554078  0.20613858  1
  O  O11  1  0.81083867  0.20445922  0.79386142  1
  O  O12  1  0.45253503  0.31403923  0.50460744  1
  O  O13  1  0.54746497  0.68596077  0.49539256  1
  O  O14  1  0.74925370  0.55098697  0.89961905  1
  O  O15  1  0.25074630  0.44901303  0.10038095  1
  O  O16  1  0.73449790  0.92105540  0.89065665  1
  O  O17  1  0.26550210  0.07894460  0.10934335  1
  O  O18  1  0.40829333  0.98686006  0.58064211  1
  O  O19  1  0.59170667  0.01313994  0.41935789  1
  O  O20  1  0.07127958  0.11461091  0.34285581  1
  O  O21  1  0.92872042  0.88538909  0.65714419  1
  O  O22  1  0.09101558  0.51523282  0.36640821  1
  O  O23  1  0.90898442  0.48476718  0.63359179  1
  O  O24  1  0.73876822  0.82023158  0.20854671  1
  O  O25  1  0.26123178  0.17976842  0.79145329  1
  O  O26  1  0.35783405  0.66187185  0.83331344  1
  O  O27  1  0.64216595  0.33812815  0.16668656  1
