# generated using pymatgen
data_Li2Mn3NiO8
_symmetry_space_group_name_H-M   'P 1'
_cell_length_a   5.93003521
_cell_length_b   5.82899585
_cell_length_c   5.81439936
_cell_angle_alpha   59.91305979
_cell_angle_beta   61.08745143
_cell_angle_gamma   89.99582251
_symmetry_Int_Tables_number   1
_chemical_formula_structural   Li2Mn3NiO8
_chemical_formula_sum   'Li2 Mn3 Ni1 O8'
_cell_volume   144.22749213
_cell_formula_units_Z   1
loop_
 _symmetry_equiv_pos_site_id
 _symmetry_equiv_pos_as_xyz
  1  'x, y, z'
loop_
 _atom_site_type_symbol
 _atom_site_label
 _atom_site_symmetry_multiplicity
 _atom_site_fract_x
 _atom_site_fract_y
 _atom_site_fract_z
 _atom_site_occupancy
  Li  Li0  1  0.50000000  0.00000000  0.00000100  1
  Li  Li1  1  0.50000000  0.50000100  0.99999900  1
  Mn  Mn2  1  0.00000000  0.00000100  0.50000000  1
  Mn  Mn3  1  0.00000000  0.50000000  0.00000100  1
  Mn  Mn4  1  0.00000000  0.49999900  0.50000000  1
  Ni  Ni5  1  0.00000000  0.00000000  0.00000000  1
  O  O6  1  0.21308548  0.24440403  0.03865161  1
  O  O7  1  0.21302741  0.71693437  0.03869679  1
  O  O8  1  0.20586197  0.24552634  0.50892175  1
  O  O9  1  0.20610359  0.73613796  0.52766984  1
  O  O10  1  0.79389741  0.26386104  0.47233016  1
  O  O11  1  0.79413803  0.75447366  0.49107825  1
  O  O12  1  0.78697159  0.28306563  0.96130421  1
  O  O13  1  0.78691452  0.75559697  0.96134739  1
