# generated using pymatgen
data_LiV2(PO4)3
_symmetry_space_group_name_H-M   'P 1'
_cell_length_a   8.74363035
_cell_length_b   8.86734535
_cell_length_c   12.17461614
_cell_angle_alpha   90.00000000
_cell_angle_beta   90.00000000
_cell_angle_gamma   90.00000000
_symmetry_Int_Tables_number   1
_chemical_formula_structural   LiV2(PO4)3
_chemical_formula_sum   'Li4 V8 P12 O48'
_cell_volume   943.93195561
_cell_formula_units_Z   4
loop_
 _symmetry_equiv_pos_site_id
 _symmetry_equiv_pos_as_xyz
  1  'x, y, z'
loop_
 _atom_site_type_symbol
 _atom_site_label
 _atom_site_symmetry_multiplicity
 _atom_site_fract_x
 _atom_site_fract_y
 _atom_site_fract_z
 _atom_site_occupancy
  Li  Li0  1  0.18026104  0.68627754  0.25000000  1
  Li  Li1  1  0.18026104  0.81372246  0.75000000  1
  Li  Li2  1  0.81973896  0.18627754  0.25000000  1
  Li  Li3  1  0.81973896  0.31372246  0.75000000  1
  V  V4  1  0.24634619  0.02403123  0.10441375  1
  V  V5  1  0.24634619  0.02403123  0.39558625  1
  V  V6  1  0.24634619  0.47596877  0.60441375  1
  V  V7  1  0.24634619  0.47596877  0.89558625  1
  V  V8  1  0.75365381  0.97596877  0.89558625  1
  V  V9  1  0.75365381  0.52403123  0.10441375  1
  V  V10  1  0.75365381  0.52403123  0.39558625  1
  V  V11  1  0.75365381  0.97596877  0.60441375  1
  P  P12  1  0.02964862  0.75000000  0.00000000  1
  P  P13  1  0.02964862  0.75000000  0.50000000  1
  P  P14  1  0.39840400  0.37310254  0.12913701  1
  P  P15  1  0.39840400  0.12689746  0.62913701  1
  P  P16  1  0.39840400  0.12689746  0.87086299  1
  P  P17  1  0.39840400  0.37310254  0.37086299  1
  P  P18  1  0.60159600  0.62689746  0.87086299  1
  P  P19  1  0.60159600  0.62689746  0.62913701  1
  P  P20  1  0.60159600  0.87310254  0.12913701  1
  P  P21  1  0.60159600  0.87310254  0.37086299  1
  P  P22  1  0.97035138  0.25000000  0.00000000  1
  P  P23  1  0.97035138  0.25000000  0.50000000  1
  O  O24  1  0.06467012  0.14303424  0.42667938  1
  O  O25  1  0.06467012  0.35696576  0.57332062  1
  O  O26  1  0.06467012  0.14303424  0.07332062  1
  O  O27  1  0.06467012  0.35696576  0.92667938  1
  O  O28  1  0.13035478  0.83452899  0.41457268  1
  O  O29  1  0.13035478  0.83452899  0.08542732  1
  O  O30  1  0.13035478  0.66547101  0.91457268  1
  O  O31  1  0.13035478  0.66547101  0.58542732  1
  O  O32  1  0.21130626  0.01537350  0.25000000  1
  O  O33  1  0.21130626  0.48462650  0.75000000  1
  O  O34  1  0.29387141  0.03065146  0.55797734  1
  O  O35  1  0.29387141  0.46934854  0.05797734  1
  O  O36  1  0.29387141  0.46934854  0.44202266  1
  O  O37  1  0.29387141  0.03065146  0.94202266  1
  O  O38  1  0.34411442  0.06676861  0.75000000  1
  O  O39  1  0.34411442  0.43323139  0.25000000  1
  O  O40  1  0.37172849  0.20440456  0.37750120  1
  O  O41  1  0.37172849  0.29559544  0.62249880  1
  O  O42  1  0.37172849  0.29559544  0.87750120  1
  O  O43  1  0.37172849  0.20440456  0.12249880  1
  O  O44  1  0.43048648  0.60068455  0.61925186  1
  O  O45  1  0.43048648  0.89931545  0.11925186  1
  O  O46  1  0.43048648  0.89931545  0.38074814  1
  O  O47  1  0.43048648  0.60068455  0.88074814  1
  O  O48  1  0.56951352  0.10068455  0.88074814  1
  O  O49  1  0.56951352  0.39931545  0.38074814  1
  O  O50  1  0.56951352  0.39931545  0.11925186  1
  O  O51  1  0.56951352  0.10068455  0.61925186  1
  O  O52  1  0.62827151  0.70440456  0.12249880  1
  O  O53  1  0.62827151  0.70440456  0.37750120  1
  O  O54  1  0.62827151  0.79559544  0.87750120  1
  O  O55  1  0.62827151  0.79559544  0.62249880  1
  O  O56  1  0.65588558  0.56676861  0.75000000  1
  O  O57  1  0.65588558  0.93323139  0.25000000  1
  O  O58  1  0.70612859  0.53065146  0.55797734  1
  O  O59  1  0.70612859  0.53065146  0.94202266  1
  O  O60  1  0.70612859  0.96934854  0.05797734  1
  O  O61  1  0.70612859  0.96934854  0.44202266  1
  O  O62  1  0.78869374  0.51537350  0.25000000  1
  O  O63  1  0.78869374  0.98462650  0.75000000  1
  O  O64  1  0.86964522  0.16547101  0.58542732  1
  O  O65  1  0.86964522  0.33452899  0.08542732  1
  O  O66  1  0.86964522  0.33452899  0.41457268  1
  O  O67  1  0.86964522  0.16547101  0.91457268  1
  O  O68  1  0.93532988  0.85696576  0.92667938  1
  O  O69  1  0.93532988  0.64303424  0.07332062  1
  O  O70  1  0.93532988  0.64303424  0.42667938  1
  O  O71  1  0.93532988  0.85696576  0.57332062  1
