# generated using pymatgen
data_V(CO3)2
_symmetry_space_group_name_H-M   'P 1'
_cell_length_a   4.85360986
_cell_length_b   6.07232856
_cell_length_c   4.85360992
_cell_angle_alpha   66.44372056
_cell_angle_beta   119.99999676
_cell_angle_gamma   113.55629118
_symmetry_Int_Tables_number   1
_chemical_formula_structural   V(CO3)2
_chemical_formula_sum   'V1 C2 O6'
_cell_volume   109.90414384
_cell_formula_units_Z   1
loop_
 _symmetry_equiv_pos_site_id
 _symmetry_equiv_pos_as_xyz
  1  'x, y, z'
loop_
 _atom_site_type_symbol
 _atom_site_label
 _atom_site_symmetry_multiplicity
 _atom_site_fract_x
 _atom_site_fract_y
 _atom_site_fract_z
 _atom_site_occupancy
  V  V0  1  0.50000000  0.50000000  0.50000000  1
  C  C1  1  0.23420051  0.70260053  0.76579949  1
  C  C2  1  0.76579949  0.29739947  0.23420051  1
  O  O3  1  0.05848069  0.29370997  0.30541546  1
  O  O4  1  0.45935526  0.70629003  0.05848069  1
  O  O5  1  0.30541546  0.70629003  0.54064474  1
  O  O6  1  0.69458454  0.29370997  0.45935526  1
  O  O7  1  0.54064474  0.29370997  0.94151931  1
  O  O8  1  0.94151931  0.70629003  0.69458454  1
