# generated using pymatgen
data_Li4Ti3Fe3(CuO8)2
_symmetry_space_group_name_H-M   'P 1'
_cell_length_a   5.93756065
_cell_length_b   5.90061606
_cell_length_c   9.61446644
_cell_angle_alpha   89.98279189
_cell_angle_beta   90.83865155
_cell_angle_gamma   119.74574665
_symmetry_Int_Tables_number   1
_chemical_formula_structural   Li4Ti3Fe3(CuO8)2
_chemical_formula_sum   'Li4 Ti3 Fe3 Cu2 O16'
_cell_volume   292.42044093
_cell_formula_units_Z   1
loop_
 _symmetry_equiv_pos_site_id
 _symmetry_equiv_pos_as_xyz
  1  'x, y, z'
loop_
 _atom_site_type_symbol
 _atom_site_label
 _atom_site_symmetry_multiplicity
 _atom_site_fract_x
 _atom_site_fract_y
 _atom_site_fract_z
 _atom_site_occupancy
  Li  Li0  1  0.33506469  0.66592382  0.89601627  1
  Li  Li1  1  0.99347757  0.99805553  0.99494067  1
  Li  Li2  1  0.99759001  0.99822393  0.49573932  1
  Li  Li3  1  0.66540232  0.33252877  0.39703098  1
  Ti  Ti4  1  0.16841393  0.82932107  0.21143212  1
  Ti  Ti5  1  0.17311715  0.33823638  0.21313703  1
  Ti  Ti6  1  0.34208304  0.17351949  0.71358461  1
  Fe  Fe7  1  0.66300385  0.83313002  0.21225180  1
  Fe  Fe8  1  0.83312871  0.66295544  0.71146177  1
  Fe  Fe9  1  0.83055771  0.16845496  0.71188793  1
  Cu  Cu10  1  0.33432149  0.66939795  0.48669630  1
  Cu  Cu11  1  0.67449258  0.33572940  0.98547187  1
  O  O12  1  0.17127072  0.83966301  0.60283139  1
  O  O13  1  0.03729863  0.51993775  0.33451474  1
  O  O14  1  0.32161823  0.66010926  0.10226856  1
  O  O15  1  0.00500811  0.00277661  0.31028545  1
  O  O16  1  0.00545126  0.00109892  0.80889887  1
  O  O17  1  0.16986368  0.33218401  0.60321129  1
  O  O18  1  0.47287589  0.95835823  0.33975456  1
  O  O19  1  0.47315148  0.51574157  0.34011019  1
  O  O20  1  0.32683525  0.16300876  0.10632087  1
  O  O21  1  0.67198424  0.83643693  0.60173673  1
  O  O22  1  0.51644101  0.47404901  0.84145600  1
  O  O23  1  0.51848878  0.04077126  0.84033673  1
  O  O24  1  0.65769511  0.33038306  0.60190796  1
  O  O25  1  0.84075867  0.67231213  0.10261415  1
  O  O26  1  0.96014515  0.47923786  0.83849290  1
  O  O27  1  0.84046172  0.16875687  0.10344594  1
