# generated using pymatgen
data_Li6Mn17O40
_symmetry_space_group_name_H-M   'P 1'
_cell_length_a   5.81958381
_cell_length_b   5.83587824
_cell_length_c   24.05141713
_cell_angle_alpha   83.33216093
_cell_angle_beta   90.00000000
_cell_angle_gamma   60.09231949
_symmetry_Int_Tables_number   1
_chemical_formula_structural   Li6Mn17O40
_chemical_formula_sum   'Li6 Mn17 O40'
_cell_volume   701.68316054
_cell_formula_units_Z   1
loop_
 _symmetry_equiv_pos_site_id
 _symmetry_equiv_pos_as_xyz
  1  'x, y, z'
loop_
 _atom_site_type_symbol
 _atom_site_label
 _atom_site_symmetry_multiplicity
 _atom_site_fract_x
 _atom_site_fract_y
 _atom_site_fract_z
 _atom_site_occupancy
  Li  Li0  1  0.22353343  0.55293313  0.17264132  1
  Li  Li1  1  0.02550682  0.94898736  0.57244302  1
  Li  Li2  1  0.77270142  0.45459715  0.82589989  1
  Li  Li3  1  0.82670375  0.34659149  0.97469976  1
  Li  Li4  1  0.62498134  0.75003832  0.37582674  1
  Li  Li5  1  0.57629472  0.84741056  0.22688468  1
  Mn  Mn6  1  0.09642983  0.29723868  0.29906503  1
  Mn  Mn7  1  0.19589088  0.10162250  0.10094692  1
  Mn  Mn8  1  0.00152944  0.50014808  0.49965142  1
  Mn  Mn9  1  0.30038625  0.39922749  0.40107395  1
  Mn  Mn10  1  0.09655343  0.80689313  0.29916743  1
  Mn  Mn11  1  0.10029024  0.79941851  0.80138541  1
  Mn  Mn12  1  0.49962606  0.00074688  0.00033664  1
  Mn  Mn13  1  0.49832248  0.50014808  0.49965142  1
  Mn  Mn14  1  0.39979946  0.70036791  0.69983826  1
  Mn  Mn15  1  0.30074549  0.89980355  0.90036794  1
  Mn  Mn16  1  0.60633149  0.29723868  0.29906503  1
  Mn  Mn17  1  0.70248663  0.10162250  0.10094692  1
  Mn  Mn18  1  0.69905008  0.60189984  0.59823922  1
  Mn  Mn19  1  0.89983642  0.20032815  0.69986967  1
  Mn  Mn20  1  0.70189683  0.59620535  0.10085594  1
  Mn  Mn21  1  0.79945095  0.89980355  0.90036794  1
  Mn  Mn22  1  0.89983263  0.70036791  0.69983826  1
  O  O23  1  0.01139068  0.41683676  0.65401197  1
  O  O24  1  0.03832612  0.39826085  0.13983431  1
  O  O25  1  0.23744655  0.00084601  0.26049649  1
  O  O26  1  0.18713639  0.14726832  0.95273877  1
  O  O27  1  0.13696095  0.25060475  0.44757791  1
  O  O28  1  0.25318688  0.49362523  0.25773048  1
  O  O29  1  0.13640762  0.72718476  0.94033745  1
  O  O30  1  0.05305627  0.89388747  0.65781912  1
  O  O31  1  0.22763927  0.54472246  0.74684541  1
  O  O32  1  0.46486235  0.07027531  0.85979851  1
  O  O33  1  0.33701546  0.32597008  0.54000954  1
  O  O34  1  0.42993562  0.14012875  0.34809806  1
  O  O35  1  0.37245038  0.25510025  0.05262518  1
  O  O36  1  0.16860586  0.66278829  0.45325571  1
  O  O37  1  0.03701420  0.92597159  0.14004791  1
  O  O38  1  0.42896692  0.58354584  0.34737272  1
  O  O39  1  0.22783656  0.98355302  0.74593161  1
  O  O40  1  0.41091822  0.65305444  0.84720720  1
  O  O41  1  0.66559429  0.14726832  0.95273877  1
  O  O42  1  0.61243430  0.25060475  0.44757791  1
  O  O43  1  0.56341303  0.39826085  0.13983431  1
  O  O44  1  0.76170744  0.00084601  0.26049649  1
  O  O45  1  0.38880281  0.74744124  0.55278699  1
  O  O46  1  0.57177256  0.41683676  0.65401197  1
  O  O47  1  0.37330498  0.81788006  0.05345716  1
  O  O48  1  0.63468667  0.73062665  0.94678274  1
  O  O49  1  0.83326066  0.33347968  0.54733561  1
  O  O50  1  0.76267607  0.47464687  0.26014928  1
  O  O51  1  0.85291024  0.29417853  0.05782862  1
  O  O52  1  0.57195290  0.85609521  0.65308809  1
  O  O53  1  0.74650261  0.50699478  0.74187906  1
  O  O54  1  0.66841651  0.66316698  0.45737159  1
  O  O55  1  0.54686864  0.90626271  0.14281422  1
  O  O56  1  0.96565220  0.06869660  0.85300888  1
  O  O57  1  0.94642281  0.10715438  0.34149852  1
  O  O58  1  0.80881395  0.81788006  0.05345716  1
  O  O59  1  0.86375595  0.74744124  0.55278699  1
  O  O60  1  0.93602733  0.65305444  0.84720720  1
  O  O61  1  0.78861043  0.98355302  0.74593161  1
  O  O62  1  0.98748724  0.58354584  0.34737272  1
