# generated using pymatgen
data_Li10V5Cr3O16
_symmetry_space_group_name_H-M   'P 1'
_cell_length_a   6.03252121
_cell_length_b   6.03982837
_cell_length_c   9.91802572
_cell_angle_alpha   89.38731180
_cell_angle_beta   90.49075463
_cell_angle_gamma   120.50794401
_symmetry_Int_Tables_number   1
_chemical_formula_structural   Li10V5Cr3O16
_chemical_formula_sum   'Li10 V5 Cr3 O16'
_cell_volume   311.31918867
_cell_formula_units_Z   1
loop_
 _symmetry_equiv_pos_site_id
 _symmetry_equiv_pos_as_xyz
  1  'x, y, z'
loop_
 _atom_site_type_symbol
 _atom_site_label
 _atom_site_symmetry_multiplicity
 _atom_site_fract_x
 _atom_site_fract_y
 _atom_site_fract_z
 _atom_site_occupancy
  Li  Li0  1  0.80294435  0.19747046  0.45802216  1
  Li  Li1  1  0.99425261  0.00439149  0.52772286  1
  Li  Li2  1  0.39193949  0.19051529  0.45297791  1
  Li  Li3  1  0.66892817  0.33357893  0.23946754  1
  Li  Li4  1  0.80809368  0.60627734  0.45401414  1
  Li  Li5  1  0.19223080  0.39375621  0.95732592  1
  Li  Li6  1  0.60624030  0.80528295  0.95661849  1
  Li  Li7  1  0.32899029  0.66969545  0.73874203  1
  Li  Li8  1  0.19690370  0.80118613  0.95547905  1
  Li  Li9  1  0.00235428  0.99982166  0.02706619  1
  V  V10  1  0.82753027  0.66406411  0.72874169  1
  V  V11  1  0.66597068  0.33408485  0.98688178  1
  V  V12  1  0.33260900  0.16936766  0.72796123  1
  V  V13  1  0.33032950  0.66890910  0.48587057  1
  V  V14  1  0.17054870  0.83056877  0.22920110  1
  Cr  Cr15  1  0.82900295  0.16842063  0.72746513  1
  Cr  Cr16  1  0.16911952  0.33363013  0.22744807  1
  Cr  Cr17  1  0.66749022  0.83210219  0.22718746  1
  O  O18  1  0.84370717  0.15882799  0.10906561  1
  O  O19  1  0.50623412  0.01368354  0.84535584  1
  O  O20  1  0.32175150  0.15846142  0.11358131  1
  O  O21  1  0.99587931  0.00412408  0.84090487  1
  O  O22  1  0.66482767  0.32925465  0.60905689  1
  O  O23  1  0.98464578  0.49275857  0.84397061  1
  O  O24  1  0.50269517  0.49225661  0.84515925  1
  O  O25  1  0.15462746  0.32316487  0.61143539  1
  O  O26  1  0.84334445  0.68005280  0.11286328  1
  O  O27  1  0.49210606  0.50857904  0.34594576  1
  O  O28  1  0.67517930  0.84019993  0.61312524  1
  O  O29  1  0.01295758  0.50103995  0.34292071  1
  O  O30  1  0.33848610  0.66252941  0.11091537  1
  O  O31  1  0.49963090  0.98715965  0.34286008  1
  O  O32  1  0.15440930  0.84358525  0.60901191  1
  O  O33  1  0.99900862  0.00117888  0.34043556  1
