# generated using pymatgen
data_Na3LiMnBPO7
_symmetry_space_group_name_H-M   'P 1'
_cell_length_a   5.27888998
_cell_length_b   6.90662948
_cell_length_c   9.50343172
_cell_angle_alpha   90.00000000
_cell_angle_beta   92.32177678
_cell_angle_gamma   90.00000000
_symmetry_Int_Tables_number   1
_chemical_formula_structural   Na3LiMnBPO7
_chemical_formula_sum   'Na6 Li2 Mn2 B2 P2 O14'
_cell_volume   346.20437793
_cell_formula_units_Z   2
loop_
 _symmetry_equiv_pos_site_id
 _symmetry_equiv_pos_as_xyz
  1  'x, y, z'
loop_
 _atom_site_type_symbol
 _atom_site_label
 _atom_site_symmetry_multiplicity
 _atom_site_fract_x
 _atom_site_fract_y
 _atom_site_fract_z
 _atom_site_occupancy
  Na  Na0  1  0.75422656  0.25000000  0.92830863  1
  Na  Na1  1  0.23470201  0.98683936  0.77947176  1
  Na  Na2  1  0.23470201  0.51316064  0.77947176  1
  Na  Na3  1  0.76529799  0.48683936  0.22052824  1
  Na  Na4  1  0.76529799  0.01316064  0.22052824  1
  Na  Na5  1  0.24577344  0.75000000  0.07169137  1
  Li  Li6  1  0.00000400  0.00000100  0.50000000  1
  Li  Li7  1  0.00000400  0.49999900  0.50000000  1
  Mn  Mn8  1  0.72972446  0.75000000  0.67839343  1
  Mn  Mn9  1  0.27027554  0.25000000  0.32160657  1
  B  B10  1  0.73030900  0.75000000  0.94329332  1
  B  B11  1  0.26969100  0.25000000  0.05670668  1
  P  P12  1  0.68613186  0.25000000  0.57895178  1
  P  P13  1  0.31386814  0.75000000  0.42104822  1
  O  O14  1  0.28664485  0.25000000  0.91374167  1
  O  O15  1  0.95976186  0.75000000  0.87382913  1
  O  O16  1  0.51112163  0.75000000  0.85351566  1
  O  O17  1  0.78173606  0.06723857  0.66236767  1
  O  O18  1  0.78173606  0.43276143  0.66236767  1
  O  O19  1  0.16973990  0.75000000  0.56420308  1
  O  O20  1  0.39580898  0.25000000  0.55063402  1
  O  O21  1  0.60419102  0.75000000  0.44936598  1
  O  O22  1  0.83026010  0.25000000  0.43579692  1
  O  O23  1  0.21826394  0.56723857  0.33763233  1
  O  O24  1  0.21826394  0.93276143  0.33763233  1
  O  O25  1  0.48887837  0.25000000  0.14648434  1
  O  O26  1  0.04023814  0.25000000  0.12617087  1
  O  O27  1  0.71335515  0.75000000  0.08625833  1
