# generated using pymatgen
data_Li4NbTe2WO12
_symmetry_space_group_name_H-M   'P 1'
_cell_length_a   5.70154203
_cell_length_b   11.54447012
_cell_length_c   10.27569242
_cell_angle_alpha   27.04740274
_cell_angle_beta   49.67592496
_cell_angle_gamma   54.65967185
_symmetry_Int_Tables_number   1
_chemical_formula_structural   Li4NbTe2WO12
_chemical_formula_sum   'Li4 Nb1 Te2 W1 O12'
_cell_volume   234.47773228
_cell_formula_units_Z   1
loop_
 _symmetry_equiv_pos_site_id
 _symmetry_equiv_pos_as_xyz
  1  'x, y, z'
loop_
 _atom_site_type_symbol
 _atom_site_label
 _atom_site_symmetry_multiplicity
 _atom_site_fract_x
 _atom_site_fract_y
 _atom_site_fract_z
 _atom_site_occupancy
  Li  Li0  1  0.27922457  0.99943240  0.29656922  1
  Li  Li1  1  0.30507922  0.50073682  0.28756296  1
  Li  Li2  1  0.78908332  0.00444636  0.77619124  1
  Li  Li3  1  0.78094362  0.49259805  0.79977572  1
  Nb  Nb4  1  0.99659437  0.50054638  0.01169403  1
  Te  Te5  1  0.49333495  0.01133274  0.50470840  1
  Te  Te6  1  0.51817953  0.49933016  0.51966495  1
  W  W7  1  0.00117139  0.99845921  0.01072716  1
  O  O8  1  0.37242092  0.30578100  0.12348882  1
  O  O9  1  0.20664590  0.13769360  0.61355153  1
  O  O10  1  0.06227307  0.31012731  0.75108382  1
  O  O11  1  0.87506235  0.20336858  0.21566394  1
  O  O12  1  0.37455451  0.84850813  0.05806230  1
  O  O13  1  0.73797956  0.35521284  0.36975778  1
  O  O14  1  0.25905950  0.62636356  0.62306043  1
  O  O15  1  0.61530801  0.15650586  0.89966820  1
  O  O16  1  0.11847901  0.81633925  0.73894581  1
  O  O17  1  0.89292467  0.69259641  0.23323785  1
  O  O18  1  0.76635239  0.85560844  0.37026131  1
  O  O19  1  0.62653114  0.68501289  0.86752353  1
