# generated using pymatgen
data_LiMnP2O7
_symmetry_space_group_name_H-M   'P 1'
_cell_length_a   8.14196458
_cell_length_b   6.16358589
_cell_length_c   5.95664904
_cell_angle_alpha   107.55498559
_cell_angle_beta   101.06280765
_cell_angle_gamma   98.38682360
_symmetry_Int_Tables_number   1
_chemical_formula_structural   LiMnP2O7
_chemical_formula_sum   'Li2 Mn2 P4 O14'
_cell_volume   272.99844917
_cell_formula_units_Z   2
loop_
 _symmetry_equiv_pos_site_id
 _symmetry_equiv_pos_as_xyz
  1  'x, y, z'
loop_
 _atom_site_type_symbol
 _atom_site_label
 _atom_site_symmetry_multiplicity
 _atom_site_fract_x
 _atom_site_fract_y
 _atom_site_fract_z
 _atom_site_occupancy
  Li  Li0  1  0.00000000  0.00000000  0.00000000  1
  Li  Li1  1  0.50000000  0.00000000  0.00000000  1
  Mn  Mn2  1  0.22519293  0.68106084  0.36603735  1
  Mn  Mn3  1  0.77480707  0.31893916  0.63396265  1
  P  P4  1  0.20941886  0.53372491  0.82209130  1
  P  P5  1  0.32142648  0.22863159  0.44470136  1
  P  P6  1  0.67857352  0.77136841  0.55529864  1
  P  P7  1  0.79058114  0.46627509  0.17790870  1
  O  O8  1  0.05036205  0.36540152  0.80266801  1
  O  O9  1  0.18276086  0.70754400  0.68389631  1
  O  O10  1  0.20263776  0.99876705  0.41206303  1
  O  O11  1  0.21418979  0.34261707  0.28547087  1
  O  O12  1  0.34915436  0.39072570  0.72418298  1
  O  O13  1  0.31031472  0.68936397  0.08300408  1
  O  O14  1  0.50579244  0.79248248  0.60810819  1
  O  O15  1  0.49420756  0.20751752  0.39189181  1
  O  O16  1  0.68968528  0.31063603  0.91699592  1
  O  O17  1  0.65084564  0.60927430  0.27581702  1
  O  O18  1  0.78581021  0.65738293  0.71452913  1
  O  O19  1  0.79736224  0.00123295  0.58793697  1
  O  O20  1  0.81723914  0.29245600  0.31610369  1
  O  O21  1  0.94963795  0.63459848  0.19733199  1
