# generated using pymatgen
data_Co6O5F7
_symmetry_space_group_name_H-M   'P 1'
_cell_length_a   4.70044758
_cell_length_b   4.70044758
_cell_length_c   8.94692391
_cell_angle_alpha   90.00000000
_cell_angle_beta   90.00000000
_cell_angle_gamma   96.76355635
_symmetry_Int_Tables_number   1
_chemical_formula_structural   Co6O5F7
_chemical_formula_sum   'Co6 O5 F7'
_cell_volume   196.29949583
_cell_formula_units_Z   1
loop_
 _symmetry_equiv_pos_site_id
 _symmetry_equiv_pos_as_xyz
  1  'x, y, z'
loop_
 _atom_site_type_symbol
 _atom_site_label
 _atom_site_symmetry_multiplicity
 _atom_site_fract_x
 _atom_site_fract_y
 _atom_site_fract_z
 _atom_site_occupancy
  Co  Co0  1  0.99620332  0.99620332  0.99982266  1
  Co  Co1  1  0.99620332  0.99620332  0.33351134  1
  Co  Co2  1  0.02336028  0.02336028  0.66666700  1
  Co  Co3  1  0.49476678  0.49476678  0.16666700  1
  Co  Co4  1  0.49717826  0.49717826  0.83860034  1
  Co  Co5  1  0.49717826  0.49717826  0.49473266  1
  O  O6  1  0.29841603  0.29841603  0.33056595  1
  O  O7  1  0.29841603  0.29841603  0.00276705  1
  O  O8  1  0.32132464  0.32132464  0.66666700  1
  O  O9  1  0.68987966  0.68987966  0.00252661  1
  O  O10  1  0.68987966  0.68987966  0.33080739  1
  F  F11  1  0.18831599  0.80195126  0.16666700  1
  F  F12  1  0.19748485  0.80489085  0.83531904  1
  F  F13  1  0.19748485  0.80489085  0.49801396  1
  F  F14  1  0.70217510  0.70217510  0.66666700  1
  F  F15  1  0.80195126  0.18831599  0.16666700  1
  F  F16  1  0.80489085  0.19748485  0.83531904  1
  F  F17  1  0.80489085  0.19748485  0.49801396  1
