# generated using pymatgen
data_LiMnOF2
_symmetry_space_group_name_H-M   'P 1'
_cell_length_a   5.25280202
_cell_length_b   8.90124221
_cell_length_c   9.55367183
_cell_angle_alpha   94.38722221
_cell_angle_beta   90.00000000
_cell_angle_gamma   90.00000000
_symmetry_Int_Tables_number   1
_chemical_formula_structural   LiMnOF2
_chemical_formula_sum   'Li8 Mn8 O8 F16'
_cell_volume   445.38701198
_cell_formula_units_Z   8
loop_
 _symmetry_equiv_pos_site_id
 _symmetry_equiv_pos_as_xyz
  1  'x, y, z'
loop_
 _atom_site_type_symbol
 _atom_site_label
 _atom_site_symmetry_multiplicity
 _atom_site_fract_x
 _atom_site_fract_y
 _atom_site_fract_z
 _atom_site_occupancy
  Li  Li0  1  0.16955221  0.17314164  0.99740654  1
  Li  Li1  1  0.15744403  0.83856480  0.78736473  1
  Li  Li2  1  0.34255597  0.33856480  0.28736473  1
  Li  Li3  1  0.33044779  0.67314164  0.49740654  1
  Li  Li4  1  0.66606178  0.35372791  0.99496820  1
  Li  Li5  1  0.65794448  0.65801506  0.80027453  1
  Li  Li6  1  0.84205552  0.15801506  0.30027453  1
  Li  Li7  1  0.83393822  0.85372791  0.49496820  1
  Mn  Mn8  1  0.16867520  0.48380338  0.80985541  1
  Mn  Mn9  1  0.21087256  0.14648192  0.57766940  1
  Mn  Mn10  1  0.28912744  0.64648192  0.07766940  1
  Mn  Mn11  1  0.33132480  0.98380338  0.30985541  1
  Mn  Mn12  1  0.64967960  0.01657074  0.80264368  1
  Mn  Mn13  1  0.64773500  0.33221261  0.56794937  1
  Mn  Mn14  1  0.85226500  0.83221261  0.06794937  1
  Mn  Mn15  1  0.85032040  0.51657074  0.30264368  1
  O  O16  1  0.06361212  0.01069838  0.43435280  1
  O  O17  1  0.01845650  0.68410675  0.93999665  1
  O  O18  1  0.15332685  0.82652759  0.17560941  1
  O  O19  1  0.14145302  0.49648331  0.20287927  1
  O  O20  1  0.35854698  0.99648331  0.70287927  1
  O  O21  1  0.34667315  0.32652759  0.67560941  1
  O  O22  1  0.48154350  0.18410675  0.43999665  1
  O  O23  1  0.43638788  0.51069838  0.93435280  1
  F  F24  1  0.00033758  0.33940567  0.92390984  1
  F  F25  1  0.17931580  0.15007070  0.19885244  1
  F  F26  1  0.32068420  0.65007070  0.69885244  1
  F  F27  1  0.49966242  0.83940567  0.42390984  1
  F  F28  1  0.51220393  0.16646237  0.93998695  1
  F  F29  1  0.53904045  0.50708460  0.42742921  1
  F  F30  1  0.55048481  0.82854996  0.93981166  1
  F  F31  1  0.63626422  0.66161104  0.17266540  1
  F  F32  1  0.68215995  0.34019789  0.19616104  1
  F  F33  1  0.66032956  0.98628167  0.19899546  1
  F  F34  1  0.83967044  0.48628167  0.69899546  1
  F  F35  1  0.81784005  0.84019789  0.69616104  1
  F  F36  1  0.86373578  0.16161104  0.67266540  1
  F  F37  1  0.94951519  0.32854996  0.43981166  1
  F  F38  1  0.96095955  0.00708460  0.92742921  1
  F  F39  1  0.98779607  0.66646237  0.43998695  1
