# generated using pymatgen
data_Li2Mn(SiO3)2
_symmetry_space_group_name_H-M   'P 1'
_cell_length_a   10.27872644
_cell_length_b   10.14167949
_cell_length_c   7.20112367
_cell_angle_alpha   90.00000000
_cell_angle_beta   90.00000000
_cell_angle_gamma   90.00000000
_symmetry_Int_Tables_number   1
_chemical_formula_structural   Li2Mn(SiO3)2
_chemical_formula_sum   'Li12 Mn6 Si12 O36'
_cell_volume   750.67068901
_cell_formula_units_Z   6
loop_
 _symmetry_equiv_pos_site_id
 _symmetry_equiv_pos_as_xyz
  1  'x, y, z'
loop_
 _atom_site_type_symbol
 _atom_site_label
 _atom_site_symmetry_multiplicity
 _atom_site_fract_x
 _atom_site_fract_y
 _atom_site_fract_z
 _atom_site_occupancy
  Li  Li0  1  0.00000000  0.49553034  0.49792404  1
  Li  Li1  1  0.00000000  0.73998499  0.72549493  1
  Li  Li2  1  0.21030919  0.45099043  0.29295955  1
  Li  Li3  1  0.22703929  0.50821945  0.74948273  1
  Li  Li4  1  0.27296071  0.00821945  0.25051727  1
  Li  Li5  1  0.28969081  0.95099043  0.70704045  1
  Li  Li6  1  0.50000000  0.23998499  0.27450507  1
  Li  Li7  1  0.50000000  0.99553034  0.50207596  1
  Li  Li8  1  0.71030919  0.95099043  0.70704045  1
  Li  Li9  1  0.72703929  0.00821945  0.25051727  1
  Li  Li10  1  0.77296071  0.50821945  0.74948273  1
  Li  Li11  1  0.78969081  0.45099043  0.29295955  1
  Mn  Mn12  1  0.00000000  0.00489399  0.98268985  1
  Mn  Mn13  1  0.00000000  0.24191287  0.24968877  1
  Mn  Mn14  1  0.00000000  0.25563094  0.73555145  1
  Mn  Mn15  1  0.50000000  0.50489399  0.01731015  1
  Mn  Mn16  1  0.50000000  0.75563094  0.26444855  1
  Mn  Mn17  1  0.50000000  0.74191287  0.75031123  1
  Si  Si18  1  0.00000000  0.53437523  0.99306881  1
  Si  Si19  1  0.00000000  0.95997389  0.50848866  1
  Si  Si20  1  0.22661158  0.75423883  0.02165803  1
  Si  Si21  1  0.22310583  0.74500787  0.46893846  1
  Si  Si22  1  0.27689417  0.24500787  0.53106154  1
  Si  Si23  1  0.27338842  0.25423883  0.97834197  1
  Si  Si24  1  0.50000000  0.45997389  0.49151134  1
  Si  Si25  1  0.50000000  0.03437523  0.00693119  1
  Si  Si26  1  0.72661158  0.25423883  0.97834197  1
  Si  Si27  1  0.72310583  0.24500787  0.53106154  1
  Si  Si28  1  0.77689417  0.74500787  0.46893846  1
  Si  Si29  1  0.77338842  0.75423883  0.02165803  1
  O  O30  1  0.00000000  0.01862265  0.30000685  1
  O  O31  1  0.00000000  0.46678433  0.19514963  1
  O  O32  1  0.00000000  0.06170206  0.68250688  1
  O  O33  1  0.00000000  0.44769216  0.80252833  1
  O  O34  1  0.12132959  0.85602145  0.55709987  1
  O  O35  1  0.12666027  0.63363645  0.95519046  1
  O  O36  1  0.12867351  0.19879287  0.02105539  1
  O  O37  1  0.13486758  0.29592043  0.46186008  1
  O  O38  1  0.17522459  0.59792548  0.51966068  1
  O  O39  1  0.17903364  0.89182439  0.93009427  1
  O  O40  1  0.21790772  0.77987061  0.24643984  1
  O  O41  1  0.28209228  0.27987061  0.75356016  1
  O  O42  1  0.32096636  0.39182439  0.06990573  1
  O  O43  1  0.32477541  0.09792548  0.48033932  1
  O  O44  1  0.36513242  0.79592043  0.53813992  1
  O  O45  1  0.37132649  0.69879287  0.97894461  1
  O  O46  1  0.37333973  0.13363645  0.04480954  1
  O  O47  1  0.37867041  0.35602145  0.44290013  1
  O  O48  1  0.50000000  0.51862265  0.69999315  1
  O  O49  1  0.50000000  0.56170206  0.31749312  1
  O  O50  1  0.50000000  0.96678433  0.80485037  1
  O  O51  1  0.50000000  0.94769216  0.19747167  1
  O  O52  1  0.62132959  0.35602145  0.44290013  1
  O  O53  1  0.62666027  0.13363645  0.04480954  1
  O  O54  1  0.62867351  0.69879287  0.97894461  1
  O  O55  1  0.63486758  0.79592043  0.53813992  1
  O  O56  1  0.67522459  0.09792548  0.48033932  1
  O  O57  1  0.67903364  0.39182439  0.06990573  1
  O  O58  1  0.71790772  0.27987061  0.75356016  1
  O  O59  1  0.78209228  0.77987061  0.24643984  1
  O  O60  1  0.82096636  0.89182439  0.93009427  1
  O  O61  1  0.82477541  0.59792548  0.51966068  1
  O  O62  1  0.86513242  0.29592043  0.46186008  1
  O  O63  1  0.87132649  0.19879287  0.02105539  1
  O  O64  1  0.87333973  0.63363645  0.95519046  1
  O  O65  1  0.87867041  0.85602145  0.55709987  1
