# generated using pymatgen
data_ZnHNO4
_symmetry_space_group_name_H-M   'P 1'
_cell_length_a   5.72003720
_cell_length_b   7.73862754
_cell_length_c   9.13081989
_cell_angle_alpha   90.00000000
_cell_angle_beta   90.00000000
_cell_angle_gamma   90.00000000
_symmetry_Int_Tables_number   1
_chemical_formula_structural   ZnHNO4
_chemical_formula_sum   'Zn4 H4 N4 O16'
_cell_volume   404.17791014
_cell_formula_units_Z   4
loop_
 _symmetry_equiv_pos_site_id
 _symmetry_equiv_pos_as_xyz
  1  'x, y, z'
loop_
 _atom_site_type_symbol
 _atom_site_label
 _atom_site_symmetry_multiplicity
 _atom_site_fract_x
 _atom_site_fract_y
 _atom_site_fract_z
 _atom_site_occupancy
  Zn  Zn0  1  0.14964520  0.69680736  0.63951008  1
  Zn  Zn1  1  0.64964520  0.30319264  0.36048992  1
  Zn  Zn2  1  0.64964520  0.19680736  0.86048992  1
  Zn  Zn3  1  0.14964520  0.80319264  0.13951008  1
  H  H4  1  0.89504469  0.93121416  0.60049143  1
  H  H5  1  0.39504469  0.06878584  0.39950857  1
  H  H6  1  0.39504469  0.43121416  0.89950857  1
  H  H7  1  0.89504469  0.56878584  0.10049143  1
  N  N8  1  0.41845331  0.64102502  0.37802660  1
  N  N9  1  0.91845331  0.35897498  0.62197340  1
  N  N10  1  0.91845331  0.14102502  0.12197340  1
  N  N11  1  0.41845331  0.85897498  0.87802660  1
  O  O12  1  0.41923363  0.59733263  0.51240631  1
  O  O13  1  0.91923363  0.40266737  0.48759369  1
  O  O14  1  0.91923363  0.09733263  0.98759369  1
  O  O15  1  0.41923363  0.90266737  0.01240631  1
  O  O16  1  0.30895098  0.77723535  0.33947936  1
  O  O17  1  0.80895098  0.22276465  0.66052064  1
  O  O18  1  0.80895098  0.27723535  0.16052064  1
  O  O19  1  0.30895098  0.72276465  0.83947936  1
  O  O20  1  0.52386452  0.55043290  0.28448988  1
  O  O21  1  0.02386452  0.44956710  0.71551012  1
  O  O22  1  0.02386452  0.05043290  0.21551012  1
  O  O23  1  0.52386452  0.94956710  0.78448988  1
  O  O24  1  0.90240767  0.81445112  0.56111454  1
  O  O25  1  0.40240767  0.18554888  0.43888546  1
  O  O26  1  0.40240767  0.31445112  0.93888546  1
  O  O27  1  0.90240767  0.68554888  0.06111454  1
