# generated using pymatgen
data_Li3Fe8(BO3)8
_symmetry_space_group_name_H-M   'P 1'
_cell_length_a   5.23573568
_cell_length_b   9.10743621
_cell_length_c   10.18203339
_cell_angle_alpha   90.41216501
_cell_angle_beta   90.75744003
_cell_angle_gamma   89.58683398
_symmetry_Int_Tables_number   1
_chemical_formula_structural   Li3Fe8(BO3)8
_chemical_formula_sum   'Li3 Fe8 B8 O24'
_cell_volume   485.45411038
_cell_formula_units_Z   1
loop_
 _symmetry_equiv_pos_site_id
 _symmetry_equiv_pos_as_xyz
  1  'x, y, z'
loop_
 _atom_site_type_symbol
 _atom_site_label
 _atom_site_symmetry_multiplicity
 _atom_site_fract_x
 _atom_site_fract_y
 _atom_site_fract_z
 _atom_site_occupancy
  Li  Li0  1  0.85157353  0.82104362  0.66336530  1
  Li  Li1  1  0.81302214  0.83024297  0.15967370  1
  Li  Li2  1  0.66983515  0.66530865  0.39889233  1
  Fe  Fe3  1  0.83834243  0.16985502  0.62922351  1
  Fe  Fe4  1  0.81703097  0.49446003  0.12561236  1
  Fe  Fe5  1  0.67006612  0.00789383  0.87799543  1
  Fe  Fe6  1  0.66723883  0.33063079  0.37434274  1
  Fe  Fe7  1  0.34569490  0.65058726  0.63043250  1
  Fe  Fe8  1  0.33032175  0.00367136  0.13014873  1
  Fe  Fe9  1  0.16958870  0.84603004  0.38459907  1
  Fe  Fe10  1  0.16976840  0.50193811  0.88300784  1
  B  B11  1  0.84842772  0.50150327  0.62250605  1
  B  B12  1  0.83717639  0.16316570  0.13152427  1
  B  B13  1  0.65903630  0.00139139  0.37692321  1
  B  B14  1  0.66460301  0.33468157  0.87606093  1
  B  B15  1  0.32787547  0.99564745  0.63365158  1
  B  B16  1  0.32149288  0.67734496  0.12545322  1
  B  B17  1  0.17244189  0.50351155  0.37521291  1
  B  B18  1  0.18018938  0.83350645  0.87623415  1
  O  O19  1  0.90677528  0.50099050  0.34472168  1
  O  O20  1  0.92182774  0.85898344  0.85731602  1
  O  O21  1  0.77788710  0.20260221  0.82736400  1
  O  O22  1  0.75991097  0.12862640  0.43453328  1
  O  O23  1  0.79355087  0.87201238  0.36984596  1
  O  O24  1  0.82479556  0.44200483  0.92374723  1
  O  O25  1  0.72015984  0.63250211  0.60199102  1
  O  O26  1  0.69432831  0.04050285  0.08148988  1
  O  O27  1  0.74247262  0.36913918  0.57550371  1
  O  O28  1  0.70743675  0.28237939  0.18250607  1
  O  O29  1  0.57947949  0.67399140  0.14400319  1
  O  O30  1  0.59403961  0.99526176  0.67074137  1
  O  O31  1  0.41662501  0.00799786  0.32180943  1
  O  O32  1  0.40948442  0.34845153  0.87654427  1
  O  O33  1  0.29148962  0.70269661  0.84080788  1
  O  O34  1  0.28252447  0.63544656  0.41622545  1
  O  O35  1  0.32005868  0.38038952  0.36774573  1
  O  O36  1  0.33247307  0.94673894  0.92857022  1
  O  O37  1  0.17890234  0.56115836  0.07679227  1
  O  O38  1  0.18664128  0.12085361  0.63897249  1
  O  O39  1  0.21786301  0.86452864  0.59393559  1
  O  O40  1  0.18314663  0.80756958  0.16040795  1
  O  O41  1  0.09325702  0.15490157  0.12622040  1
  O  O42  1  0.08228335  0.49774577  0.68474505  1
