# generated using pymatgen
data_Li4Si2O7
_symmetry_space_group_name_H-M   'P 1'
_cell_length_a   5.40331046
_cell_length_b   7.78827855
_cell_length_c   7.78827855
_cell_angle_alpha   90.00000000
_cell_angle_beta   90.00000000
_cell_angle_gamma   90.00000000
_symmetry_Int_Tables_number   1
_chemical_formula_structural   Li4Si2O7
_chemical_formula_sum   'Li8 Si4 O14'
_cell_volume   327.75013048
_cell_formula_units_Z   2
loop_
 _symmetry_equiv_pos_site_id
 _symmetry_equiv_pos_as_xyz
  1  'x, y, z'
loop_
 _atom_site_type_symbol
 _atom_site_label
 _atom_site_symmetry_multiplicity
 _atom_site_fract_x
 _atom_site_fract_y
 _atom_site_fract_z
 _atom_site_occupancy
  Li  Li0  1  0.68408334  0.34436006  0.43205153  1
  Li  Li1  1  0.31591666  0.15563994  0.93205153  1
  Li  Li2  1  0.68408334  0.65563994  0.56794847  1
  Li  Li3  1  0.31591666  0.84436006  0.06794847  1
  Li  Li4  1  0.31591666  0.56794847  0.34436006  1
  Li  Li5  1  0.68408334  0.93205153  0.84436006  1
  Li  Li6  1  0.31591666  0.43205153  0.65563994  1
  Li  Li7  1  0.68408334  0.06794847  0.15563994  1
  Si  Si8  1  0.18390022  0.14733886  0.35266114  1
  Si  Si9  1  0.81609978  0.35266114  0.85266114  1
  Si  Si10  1  0.18390022  0.85266114  0.64733886  1
  Si  Si11  1  0.81609978  0.64733886  0.14733886  1
  O  O12  1  0.24285291  0.00000000  0.50000000  1
  O  O13  1  0.75714709  0.50000000  0.00000000  1
  O  O14  1  0.88539693  0.16735105  0.33264895  1
  O  O15  1  0.11460307  0.33264895  0.83264895  1
  O  O16  1  0.88539693  0.83264895  0.66735105  1
  O  O17  1  0.11460307  0.66735105  0.16735105  1
  O  O18  1  0.30952482  0.32639108  0.41813566  1
  O  O19  1  0.69047518  0.17360892  0.91813566  1
  O  O20  1  0.30952482  0.67360892  0.58186434  1
  O  O21  1  0.69047518  0.82639108  0.08186434  1
  O  O22  1  0.69047518  0.58186434  0.32639108  1
  O  O23  1  0.30952482  0.91813566  0.82639108  1
  O  O24  1  0.69047518  0.41813566  0.67360892  1
  O  O25  1  0.30952482  0.08186434  0.17360892  1
