# generated using pymatgen
data_Mn6O7F5
_symmetry_space_group_name_H-M   'P 1'
_cell_length_a   4.60828730
_cell_length_b   5.63867781
_cell_length_c   15.30231984
_cell_angle_alpha   89.75537567
_cell_angle_beta   89.56758902
_cell_angle_gamma   88.87044581
_symmetry_Int_Tables_number   1
_chemical_formula_structural   Mn6O7F5
_chemical_formula_sum   'Mn12 O14 F10'
_cell_volume   397.53341845
_cell_formula_units_Z   2
loop_
 _symmetry_equiv_pos_site_id
 _symmetry_equiv_pos_as_xyz
  1  'x, y, z'
loop_
 _atom_site_type_symbol
 _atom_site_label
 _atom_site_symmetry_multiplicity
 _atom_site_fract_x
 _atom_site_fract_y
 _atom_site_fract_z
 _atom_site_occupancy
  Mn  Mn0  1  0.02695941  0.16727215  0.41282000  1
  Mn  Mn1  1  0.99692506  0.84516071  0.24153892  1
  Mn  Mn2  1  0.00628298  0.15588433  0.07456215  1
  Mn  Mn3  1  0.01624786  0.16550972  0.74866507  1
  Mn  Mn4  1  0.03934703  0.85135685  0.58264662  1
  Mn  Mn5  1  0.04847320  0.84449863  0.91171259  1
  Mn  Mn6  1  0.48525132  0.34814250  0.58978199  1
  Mn  Mn7  1  0.48538557  0.35518354  0.92423095  1
  Mn  Mn8  1  0.50781353  0.34622850  0.25778726  1
  Mn  Mn9  1  0.50043328  0.65162393  0.08653810  1
  Mn  Mn10  1  0.49418462  0.64414065  0.42208317  1
  Mn  Mn11  1  0.48572012  0.63030234  0.75051497  1
  O  O12  1  0.21862793  0.10968168  0.30176226  1
  O  O13  1  0.22128799  0.11413043  0.63818304  1
  O  O14  1  0.23452168  0.11720569  0.96788016  1
  O  O15  1  0.21735278  0.88699484  0.13228031  1
  O  O16  1  0.23151016  0.89256653  0.47117564  1
  O  O17  1  0.23839813  0.88186366  0.80275578  1
  O  O18  1  0.28323274  0.39872805  0.48230745  1
  O  O19  1  0.27705236  0.60902518  0.64474192  1
  O  O20  1  0.27909511  0.39556906  0.81329372  1
  O  O21  1  0.27641750  0.61119128  0.97694596  1
  O  O22  1  0.72004608  0.38160140  0.02696295  1
  O  O23  1  0.71413420  0.61623261  0.19607645  1
  O  O24  1  0.72687570  0.38594489  0.36408419  1
  O  O25  1  0.71865958  0.37966866  0.69486527  1
  F  F26  1  0.25536683  0.38005519  0.15169174  1
  F  F27  1  0.23683959  0.61041462  0.31208821  1
  F  F28  1  0.76034655  0.62045602  0.53466938  1
  F  F29  1  0.74030363  0.62011857  0.85758633  1
  F  F30  1  0.75100289  0.11570007  0.17989730  1
  F  F31  1  0.76023455  0.12282363  0.52652362  1
  F  F32  1  0.74914402  0.87717700  0.35733067  1
  F  F33  1  0.77400108  0.87314546  0.01168652  1
  F  F34  1  0.76449988  0.12337904  0.86000880  1
  F  F35  1  0.75802607  0.87102157  0.69232053  1
