# generated using pymatgen
data_Li3Fe10O7F9
_symmetry_space_group_name_H-M   'P 1'
_cell_length_a   6.10324036
_cell_length_b   6.20469473
_cell_length_c   10.82204277
_cell_angle_alpha   71.36699526
_cell_angle_beta   89.38601957
_cell_angle_gamma   61.71900526
_symmetry_Int_Tables_number   1
_chemical_formula_structural   Li3Fe10O7F9
_chemical_formula_sum   'Li3 Fe10 O7 F9'
_cell_volume   337.08878686
_cell_formula_units_Z   1
loop_
 _symmetry_equiv_pos_site_id
 _symmetry_equiv_pos_as_xyz
  1  'x, y, z'
loop_
 _atom_site_type_symbol
 _atom_site_label
 _atom_site_symmetry_multiplicity
 _atom_site_fract_x
 _atom_site_fract_y
 _atom_site_fract_z
 _atom_site_occupancy
  Li  Li0  1  0.78634603  0.44307470  0.43058338  1
  Li  Li1  1  0.20778366  0.55980513  0.57419003  1
  Li  Li2  1  0.99762071  0.00519421  0.99554734  1
  Fe  Fe3  1  0.74615234  0.02178559  0.24928224  1
  Fe  Fe4  1  0.73388632  0.48616555  0.75582826  1
  Fe  Fe5  1  0.74627615  0.99728604  0.75465949  1
  Fe  Fe6  1  0.50057996  0.49101914  0.98890142  1
  Fe  Fe7  1  0.24319141  0.01610457  0.25213154  1
  Fe  Fe8  1  0.26015802  0.49922821  0.25000330  1
  Fe  Fe9  1  0.50010923  0.99674326  0.50186188  1
  Fe  Fe10  1  0.51058456  0.01330155  0.98953676  1
  Fe  Fe11  1  0.00255199  0.49647865  -0.00059192  1
  Fe  Fe12  1  0.25117369  0.97919674  0.74827911  1
  O  O13  1  0.58521639  0.82997766  0.36673608  1
  O  O14  1  0.63234999  0.73614333  0.88463992  1
  O  O15  1  0.89636262  0.22510779  0.12221010  1
  O  O16  1  0.64906019  0.22979232  0.88150067  1
  O  O17  1  0.11778546  0.76392224  0.88125529  1
  O  O18  1  0.36128357  0.27408887  0.12002387  1
  O  O19  1  0.40897993  0.17246499  0.63254105  1
  F  F20  1  0.89910209  0.74907316  0.12716955  1
  F  F21  1  0.87605638  0.71045337  0.63893914  1
  F  F22  1  0.87110899  0.25800921  0.62851212  1
  F  F23  1  0.60722633  0.29285817  0.36684231  1
  F  F24  1  0.37418383  0.72912307  0.62556463  1
  F  F25  1  0.37101632  0.77319488  0.11577514  1
  F  F26  1  0.12552955  0.73862978  0.36872510  1
  F  F27  1  0.11272647  0.27751378  0.36915942  1
  F  F28  1  0.12558882  0.23427203  0.88019077  1
