# generated using pymatgen
data_Mn6O5F7
_symmetry_space_group_name_H-M   'P 1'
_cell_length_a   4.73206486
_cell_length_b   5.72297090
_cell_length_c   15.57541006
_cell_angle_alpha   90.05413389
_cell_angle_beta   89.34129290
_cell_angle_gamma   88.39128426
_symmetry_Int_Tables_number   1
_chemical_formula_structural   Mn6O5F7
_chemical_formula_sum   'Mn12 O10 F14'
_cell_volume   421.61053709
_cell_formula_units_Z   2
loop_
 _symmetry_equiv_pos_site_id
 _symmetry_equiv_pos_as_xyz
  1  'x, y, z'
loop_
 _atom_site_type_symbol
 _atom_site_label
 _atom_site_symmetry_multiplicity
 _atom_site_fract_x
 _atom_site_fract_y
 _atom_site_fract_z
 _atom_site_occupancy
  Mn  Mn0  1  0.99479858  0.15063225  0.40996320  1
  Mn  Mn1  1  0.02289767  0.85673307  0.24339583  1
  Mn  Mn2  1  0.01642681  0.18194809  0.08622857  1
  Mn  Mn3  1  0.05285086  0.15427586  0.74936128  1
  Mn  Mn4  1  0.03953036  0.84319422  0.58199561  1
  Mn  Mn5  1  0.00323749  0.84079569  0.91328698  1
  Mn  Mn6  1  0.48388078  0.33746690  0.58900921  1
  Mn  Mn7  1  0.51086712  0.34974601  0.91888476  1
  Mn  Mn8  1  0.48218287  0.33560753  0.25587723  1
  Mn  Mn9  1  0.49363384  0.64352010  0.08932899  1
  Mn  Mn10  1  0.49637416  0.65330403  0.41814906  1
  Mn  Mn11  1  0.47112795  0.64866806  0.74886483  1
  O  O12  1  0.20915867  0.10448314  0.30192261  1
  O  O13  1  0.23042393  0.10985687  0.64031685  1
  O  O14  1  0.22148798  0.89107050  0.13632241  1
  O  O15  1  0.22595963  0.89224070  0.46795512  1
  O  O16  1  0.23013382  0.88300402  0.80128980  1
  O  O17  1  0.28418747  0.40095826  0.14922464  1
  O  O18  1  0.28608171  0.60581372  0.64422909  1
  O  O19  1  0.29731030  0.38470832  0.80901029  1
  O  O20  1  0.72281857  0.39275909  0.02697625  1
  O  O21  1  0.69976622  0.37051072  0.36210471  1
  F  F22  1  0.23297445  0.11354749  0.97023590  1
  F  F23  1  0.25290540  0.60779124  0.31088086  1
  F  F24  1  0.24715316  0.39883178  0.47612222  1
  F  F25  1  0.25784969  0.60455317  0.97362275  1
  F  F26  1  0.75223606  0.62176629  0.20086193  1
  F  F27  1  0.73606622  0.60912644  0.53096515  1
  F  F28  1  0.71232467  0.63315495  0.85514942  1
  F  F29  1  0.76057353  0.38384793  0.70007115  1
  F  F30  1  0.74734928  0.12089954  0.19080379  1
  F  F31  1  0.76137213  0.11544485  0.52452827  1
  F  F32  1  0.76198124  0.86801293  0.34966235  1
  F  F33  1  0.74622910  0.88103991  0.02549805  1
  F  F34  1  0.79090474  0.13418601  0.85574215  1
  F  F35  1  0.76493956  0.87649931  0.69215670  1
