# generated using pymatgen
data_Li7V4O11F
_symmetry_space_group_name_H-M   'P 1'
_cell_length_a   5.03006905
_cell_length_b   5.07154088
_cell_length_c   10.26836781
_cell_angle_alpha   77.50448825
_cell_angle_beta   102.93471673
_cell_angle_gamma   63.98697058
_symmetry_Int_Tables_number   1
_chemical_formula_structural   Li7V4O11F
_chemical_formula_sum   'Li7 V4 O11 F1'
_cell_volume   214.13400367
_cell_formula_units_Z   1
loop_
 _symmetry_equiv_pos_site_id
 _symmetry_equiv_pos_as_xyz
  1  'x, y, z'
loop_
 _atom_site_type_symbol
 _atom_site_label
 _atom_site_symmetry_multiplicity
 _atom_site_fract_x
 _atom_site_fract_y
 _atom_site_fract_z
 _atom_site_occupancy
  Li  Li0  1  0.26457063  0.25849197  0.87656505  1
  Li  Li1  1  0.57405410  0.59116318  0.87868073  1
  Li  Li2  1  0.40775574  0.43662783  0.62931881  1
  Li  Li3  1  0.74880241  0.73340387  0.62361685  1
  Li  Li4  1  0.23898670  0.26199702  0.37392608  1
  Li  Li5  1  0.41722562  0.43907223  0.13809644  1
  Li  Li6  1  0.74178442  0.73361387  0.12498965  1
  V  V7  1  0.93153399  0.89078865  0.87920197  1
  V  V8  1  0.09931433  0.09931505  0.62910757  1
  V  V9  1  0.91173491  0.88946548  0.36683750  1
  V  V10  1  0.09607461  0.07654644  0.12908525  1
  O  O11  1  0.14808095  0.70349581  0.75568540  1
  O  O12  1  0.25008533  0.88324087  0.50794870  1
  O  O13  1  0.00743936  0.49956895  0.50235778  1
  O  O14  1  0.72978190  0.14265851  0.99037533  1
  O  O15  1  0.13504446  0.70186308  0.25607354  1
  O  O16  1  0.50015239  0.00271389  0.74855625  1
  O  O17  1  0.85853712  0.28563510  0.73565744  1
  O  O18  1  0.30889889  0.85266367  0.00619238  1
  O  O19  1  0.00709342  0.51044616  0.99463760  1
  O  O20  1  0.49957621  0.01616536  0.24702006  1
  O  O21  1  0.87207921  0.27762629  0.23747716  1
  F  F22  1  0.67459331  0.13663470  0.49359347  1
