# generated using pymatgen
data_Co2OF3
_symmetry_space_group_name_H-M   'P 1'
_cell_length_a   4.67669460
_cell_length_b   4.67669460
_cell_length_c   6.12752935
_cell_angle_alpha   90.00000000
_cell_angle_beta   90.00000000
_cell_angle_gamma   92.69467765
_symmetry_Int_Tables_number   1
_chemical_formula_structural   Co2OF3
_chemical_formula_sum   'Co4 O2 F6'
_cell_volume   133.86989778
_cell_formula_units_Z   2
loop_
 _symmetry_equiv_pos_site_id
 _symmetry_equiv_pos_as_xyz
  1  'x, y, z'
loop_
 _atom_site_type_symbol
 _atom_site_label
 _atom_site_symmetry_multiplicity
 _atom_site_fract_x
 _atom_site_fract_y
 _atom_site_fract_z
 _atom_site_occupancy
  Co  Co0  1  0.96690193  0.96690193  0.00000000  1
  Co  Co1  1  0.03309807  0.03309807  0.50000000  1
  Co  Co2  1  0.50000000  0.50000000  0.25000000  1
  Co  Co3  1  0.50000000  0.50000000  0.75000000  1
  O  O4  1  0.33028653  0.33028653  0.50000000  1
  O  O5  1  0.66971347  0.66971347  0.00000000  1
  F  F6  1  0.20202254  0.79797746  0.25000000  1
  F  F7  1  0.20202254  0.79797746  0.75000000  1
  F  F8  1  0.28471225  0.28471225  0.00000000  1
  F  F9  1  0.71528775  0.71528775  0.50000000  1
  F  F10  1  0.79797746  0.20202254  0.25000000  1
  F  F11  1  0.79797746  0.20202254  0.75000000  1
