# generated using pymatgen
data_Cs2PrO3
_symmetry_space_group_name_H-M   'P 1'
_cell_length_a   6.72970882
_cell_length_b   7.11015505
_cell_length_c   7.11015504
_cell_angle_alpha   113.44294312
_cell_angle_beta   90.00000000
_cell_angle_gamma   90.00000000
_symmetry_Int_Tables_number   1
_chemical_formula_structural   Cs2PrO3
_chemical_formula_sum   'Cs4 Pr2 O6'
_cell_volume   312.13322209
_cell_formula_units_Z   2
loop_
 _symmetry_equiv_pos_site_id
 _symmetry_equiv_pos_as_xyz
  1  'x, y, z'
loop_
 _atom_site_type_symbol
 _atom_site_label
 _atom_site_symmetry_multiplicity
 _atom_site_fract_x
 _atom_site_fract_y
 _atom_site_fract_z
 _atom_site_occupancy
  O  O0  1  0.64712315  0.62832614  0.62832614  1
  O  O1  1  0.14712315  0.37167386  0.37167386  1
  O  O2  1  0.99900476  0.85092069  0.09861025  1
  O  O3  1  0.49900476  0.14907931  0.90138975  1
  O  O4  1  0.99900476  0.09861025  0.85092069  1
  O  O5  1  0.49900476  0.90138975  0.14907931  1
  Cs  Cs6  1  0.77671257  0.19830496  0.52512703  1
  Cs  Cs7  1  0.77671257  0.52512703  0.19830496  1
  Cs  Cs8  1  0.27671257  0.80169504  0.47487297  1
  Cs  Cs9  1  0.27671257  0.47487297  0.80169504  1
  Pr  Pr10  1  0.23344219  0.09657111  0.09657111  1
  Pr  Pr11  1  0.73344219  0.90342889  0.90342889  1
