# generated using pymatgen
data_LiCo2OF3
_symmetry_space_group_name_H-M   'P 1'
_cell_length_a   5.98559937
_cell_length_b   5.98696724
_cell_length_c   5.16427811
_cell_angle_alpha   90.00856800
_cell_angle_beta   90.00000000
_cell_angle_gamma   60.00756309
_symmetry_Int_Tables_number   1
_chemical_formula_structural   LiCo2OF3
_chemical_formula_sum   'Li2 Co4 O2 F6'
_cell_volume   160.28314943
_cell_formula_units_Z   2
loop_
 _symmetry_equiv_pos_site_id
 _symmetry_equiv_pos_as_xyz
  1  'x, y, z'
loop_
 _atom_site_type_symbol
 _atom_site_label
 _atom_site_symmetry_multiplicity
 _atom_site_fract_x
 _atom_site_fract_y
 _atom_site_fract_z
 _atom_site_occupancy
  Li  Li0  1  0.66666995  0.66666010  0.02603323  1
  Li  Li1  1  0.33333005  0.33333990  0.97396677  1
  Co  Co2  1  0.50000000  0.50000000  0.50000000  1
  Co  Co3  1  0.00000000  0.50000000  0.50000000  1
  Co  Co4  1  0.50000000  0.00000000  0.50000000  1
  Co  Co5  1  0.00000000  0.00000000  0.00000000  1
  O  O6  1  0.66660805  0.66678389  0.66729646  1
  O  O7  1  0.33339195  0.33321611  0.33270354  1
  F  F8  1  0.82879901  0.82870615  0.21963417  1
  F  F9  1  0.34249584  0.82870615  0.21963417  1
  F  F10  1  0.17127359  0.65745181  0.78009579  1
  F  F11  1  0.82872641  0.34254819  0.21990421  1
  F  F12  1  0.65750416  0.17129385  0.78036583  1
  F  F13  1  0.17120099  0.17129385  0.78036583  1
