# generated using pymatgen
data_InFe11O16
_symmetry_space_group_name_H-M   'P 1'
_cell_length_a   6.10916985
_cell_length_b   10.51338446
_cell_length_c   10.51338446
_cell_angle_alpha   71.42184556
_cell_angle_beta   90.00000000
_cell_angle_gamma   90.00000000
_symmetry_Int_Tables_number   1
_chemical_formula_structural   InFe11O16
_chemical_formula_sum   'In2 Fe22 O32'
_cell_volume   640.06666927
_cell_formula_units_Z   2
loop_
 _symmetry_equiv_pos_site_id
 _symmetry_equiv_pos_as_xyz
  1  'x, y, z'
loop_
 _atom_site_type_symbol
 _atom_site_label
 _atom_site_symmetry_multiplicity
 _atom_site_fract_x
 _atom_site_fract_y
 _atom_site_fract_z
 _atom_site_occupancy
  In  In0  1  0.25000000  0.93689363  0.93689363  1
  In  In1  1  0.75000000  0.56310637  0.56310637  1
  Fe  Fe2  1  0.50000000  0.75000000  0.75000000  1
  Fe  Fe3  1  0.00000000  0.75000000  0.75000000  1
  Fe  Fe4  1  0.75000000  0.43745852  0.93737234  1
  Fe  Fe5  1  0.75000000  0.93737234  0.43745852  1
  Fe  Fe6  1  0.25000000  0.49809555  0.75145424  1
  Fe  Fe7  1  0.25000000  0.75145424  0.49809555  1
  Fe  Fe8  1  0.50000000  0.25000000  0.75000000  1
  Fe  Fe9  1  0.00000000  0.75000000  0.25000000  1
  Fe  Fe10  1  0.00000000  0.25000000  0.75000000  1
  Fe  Fe11  1  0.50000000  0.75000000  0.25000000  1
  Fe  Fe12  1  0.25000000  0.43587074  0.43587074  1
  Fe  Fe13  1  0.75000000  0.24454714  0.49757744  1
  Fe  Fe14  1  0.75000000  0.49757744  0.24454714  1
  Fe  Fe15  1  0.75000000  0.00190445  0.74854576  1
  Fe  Fe16  1  0.75000000  0.74854576  0.00190445  1
  Fe  Fe17  1  0.25000000  0.56262766  0.06254148  1
  Fe  Fe18  1  0.25000000  0.06254148  0.56262766  1
  Fe  Fe19  1  0.00000000  0.25000000  0.25000000  1
  Fe  Fe20  1  0.50000000  0.25000000  0.25000000  1
  Fe  Fe21  1  0.25000000  0.00242256  0.25545286  1
  Fe  Fe22  1  0.25000000  0.25545286  0.00242256  1
  Fe  Fe23  1  0.75000000  0.06412926  0.06412926  1
  O  O24  1  0.51731487  0.86512962  0.86512962  1
  O  O25  1  0.98268513  0.86512962  0.86512962  1
  O  O26  1  0.75000000  0.63154728  0.86485836  1
  O  O27  1  0.75000000  0.86485836  0.63154728  1
  O  O28  1  0.25000000  0.63514164  0.86845272  1
  O  O29  1  0.25000000  0.86845272  0.63514164  1
  O  O30  1  0.48268513  0.63487038  0.63487038  1
  O  O31  1  0.01731487  0.63487038  0.63487038  1
  O  O32  1  0.49104776  0.36887209  0.87594544  1
  O  O33  1  0.00895224  0.87594544  0.36887209  1
  O  O34  1  0.49104776  0.87594544  0.36887209  1
  O  O35  1  0.00895224  0.36887209  0.87594544  1
  O  O36  1  0.25000000  0.14613005  0.87298169  1
  O  O37  1  0.25000000  0.37401112  0.62911903  1
  O  O38  1  0.25000000  0.62911903  0.37401112  1
  O  O39  1  0.25000000  0.87298169  0.14613005  1
  O  O40  1  0.75000000  0.35386995  0.62701831  1
  O  O41  1  0.75000000  0.12598888  0.87088097  1
  O  O42  1  0.75000000  0.62701831  0.35386995  1
  O  O43  1  0.75000000  0.87088097  0.12598888  1
  O  O44  1  0.99104776  0.13112791  0.62405456  1
  O  O45  1  0.99104776  0.62405456  0.13112791  1
  O  O46  1  0.50895224  0.13112791  0.62405456  1
  O  O47  1  0.50895224  0.62405456  0.13112791  1
  O  O48  1  0.52012534  0.37141811  0.37141811  1
  O  O49  1  0.97987466  0.37141811  0.37141811  1
  O  O50  1  0.75000000  0.37806490  0.13034682  1
  O  O51  1  0.75000000  0.13034682  0.37806490  1
  O  O52  1  0.25000000  0.12193510  0.36965318  1
  O  O53  1  0.25000000  0.36965318  0.12193510  1
  O  O54  1  0.47987466  0.12858189  0.12858189  1
  O  O55  1  0.02012534  0.12858189  0.12858189  1
