# generated using pymatgen
data_Li3VOF6
_symmetry_space_group_name_H-M   'P 1'
_cell_length_a   5.20370976
_cell_length_b   5.21601012
_cell_length_c   16.12737524
_cell_angle_alpha   90.00000000
_cell_angle_beta   90.00000000
_cell_angle_gamma   90.00000000
_symmetry_Int_Tables_number   1
_chemical_formula_structural   Li3VOF6
_chemical_formula_sum   'Li12 V4 O4 F24'
_cell_volume   437.73893986
_cell_formula_units_Z   4
loop_
 _symmetry_equiv_pos_site_id
 _symmetry_equiv_pos_as_xyz
  1  'x, y, z'
loop_
 _atom_site_type_symbol
 _atom_site_label
 _atom_site_symmetry_multiplicity
 _atom_site_fract_x
 _atom_site_fract_y
 _atom_site_fract_z
 _atom_site_occupancy
  Li  Li0  1  0.20078339  0.49151846  0.99959352  1
  Li  Li1  1  0.23301595  0.99136866  0.87640829  1
  Li  Li2  1  0.23506696  0.46859454  0.25534645  1
  Li  Li3  1  0.26493304  0.53140546  0.75534645  1
  Li  Li4  1  0.26698405  0.00863134  0.37640829  1
  Li  Li5  1  0.29921661  0.50848154  0.49959352  1
  Li  Li6  1  0.70078339  0.00848154  0.00040648  1
  Li  Li7  1  0.73301595  0.50863134  0.12359171  1
  Li  Li8  1  0.73506696  0.03140546  0.74465355  1
  Li  Li9  1  0.76493304  0.96859454  0.24465355  1
  Li  Li10  1  0.76698405  0.49136866  0.62359171  1
  Li  Li11  1  0.79921661  0.99151846  0.50040648  1
  V  V12  1  0.24545686  0.00416537  0.62443333  1
  V  V13  1  0.25454314  0.99583463  0.12443333  1
  V  V14  1  0.74545686  0.49583463  0.37556667  1
  V  V15  1  0.75454314  0.50416537  0.87556667  1
  O  O16  1  0.01371706  0.33979173  0.39089761  1
  O  O17  1  0.48628294  0.66020827  0.89089761  1
  O  O18  1  0.51371706  0.16020827  0.60910239  1
  O  O19  1  0.98628294  0.83979173  0.10910239  1
  F  F20  1  0.04297440  0.26169684  0.55669485  1
  F  F21  1  0.09620507  0.33144903  0.86234567  1
  F  F22  1  0.08075540  0.24163776  0.69947772  1
  F  F23  1  0.12455099  0.34253201  0.12327577  1
  F  F24  1  0.13622305  0.08645401  0.24109696  1
  F  F25  1  0.21333203  0.87852147  0.50895359  1
  F  F26  1  0.28666797  0.12147853  0.00895359  1
  F  F27  1  0.36377695  0.91354599  0.74109696  1
  F  F28  1  0.37544901  0.65746799  0.62327577  1
  F  F29  1  0.41924460  0.75836224  0.19947772  1
  F  F30  1  0.40379493  0.66855097  0.36234567  1
  F  F31  1  0.45702560  0.73830316  0.05669485  1
  F  F32  1  0.54297440  0.23830316  0.44330415  1
  F  F33  1  0.59620507  0.16855097  0.13765433  1
  F  F34  1  0.58075540  0.25836224  0.30052228  1
  F  F35  1  0.62455099  0.15746799  0.87672423  1
  F  F36  1  0.63622305  0.41354599  0.75890304  1
  F  F37  1  0.71333203  0.62147853  0.49104641  1
  F  F38  1  0.78666797  0.37852147  0.99104641  1
  F  F39  1  0.86377695  0.58645401  0.25890304  1
  F  F40  1  0.87544901  0.84253201  0.37672423  1
  F  F41  1  0.91924460  0.74163776  0.80052228  1
  F  F42  1  0.90379493  0.83144903  0.63765433  1
  F  F43  1  0.95702560  0.76169684  0.94330515  1
