# generated using pymatgen
data_Li2Co(CO3)2
_symmetry_space_group_name_H-M   'P 1'
_cell_length_a   8.62444114
_cell_length_b   6.12267903
_cell_length_c   5.34976563
_cell_angle_alpha   64.09494752
_cell_angle_beta   71.93164294
_cell_angle_gamma   82.21250674
_symmetry_Int_Tables_number   1
_chemical_formula_structural   Li2Co(CO3)2
_chemical_formula_sum   'Li4 Co2 C4 O12'
_cell_volume   241.57684642
_cell_formula_units_Z   2
loop_
 _symmetry_equiv_pos_site_id
 _symmetry_equiv_pos_as_xyz
  1  'x, y, z'
loop_
 _atom_site_type_symbol
 _atom_site_label
 _atom_site_symmetry_multiplicity
 _atom_site_fract_x
 _atom_site_fract_y
 _atom_site_fract_z
 _atom_site_occupancy
  Li  Li0  1  0.63705655  0.87432058  0.58033458  1
  Li  Li1  1  0.13705655  0.62567942  0.70465516  1
  Li  Li2  1  0.86294345  0.37432058  0.46739113  1
  Li  Li3  1  0.36294345  0.12567942  0.09171170  1
  Co  Co4  1  0.50000000  0.50000000  0.25491179  1
  Co  Co5  1  0.00000000  0.00000000  0.00491179  1
  C  C6  1  0.70996375  0.91823080  0.97602551  1
  C  C7  1  0.20996375  0.58176920  0.14425632  1
  C  C8  1  0.79003625  0.41823080  0.93598926  1
  C  C9  1  0.29003625  0.08176920  0.60422006  1
  O  O10  1  0.80599608  0.97705045  0.71864592  1
  O  O11  1  0.76284734  0.91433947  0.18140205  1
  O  O12  1  0.55711536  0.86200370  0.03292601  1
  O  O13  1  0.05711536  0.63799630  0.14492971  1
  O  O14  1  0.26284734  0.58566053  0.34574152  1
  O  O15  1  0.30599608  0.52294955  0.94569637  1
  O  O16  1  0.69400392  0.47705045  0.77464200  1
  O  O17  1  0.73715266  0.41433947  0.19424939  1
  O  O18  1  0.94288464  0.36200370  0.84004136  1
  O  O19  1  0.44288464  0.13799630  0.45204507  1
  O  O20  1  0.23715266  0.08566053  0.85858885  1
  O  O21  1  0.19400392  0.02294955  0.50169244  1
