# generated using pymatgen
data_Li5Mn2Cu5O12
_symmetry_space_group_name_H-M   'P 1'
_cell_length_a   5.04979280
_cell_length_b   5.04979232
_cell_length_c   9.62414019
_cell_angle_alpha   88.89238945
_cell_angle_beta   91.10761147
_cell_angle_gamma   65.89822599
_symmetry_Int_Tables_number   1
_chemical_formula_structural   Li5Mn2Cu5O12
_chemical_formula_sum   'Li5 Mn2 Cu5 O12'
_cell_volume   223.88264879
_cell_formula_units_Z   1
loop_
 _symmetry_equiv_pos_site_id
 _symmetry_equiv_pos_as_xyz
  1  'x, y, z'
loop_
 _atom_site_type_symbol
 _atom_site_label
 _atom_site_symmetry_multiplicity
 _atom_site_fract_x
 _atom_site_fract_y
 _atom_site_fract_z
 _atom_site_occupancy
  Li  Li0  1  0.16197336  0.66989200  0.50630743  1
  Li  Li1  1  0.32519329  0.84927359  0.99358234  1
  Li  Li2  1  0.66989200  0.16197336  0.99369257  1
  Li  Li3  1  0.84927359  0.32519329  0.50641766  1
  Li  Li4  1  0.91547494  0.91547494  0.75000000  1
  Mn  Mn5  1  0.24614095  0.24614095  0.75000000  1
  Mn  Mn6  1  0.74805515  0.74805515  0.25000000  1
  Cu  Cu7  1  0.08032881  0.08032881  0.25000000  1
  Cu  Cu8  1  0.99669657  0.50849811  0.99711991  1
  Cu  Cu9  1  0.50849811  0.99669657  0.50288009  1
  Cu  Cu10  1  0.41738611  0.41738611  0.25000000  1
  Cu  Cu11  1  0.58479304  0.58479304  0.75000000  1
  O  O12  1  0.99124103  0.20502633  0.88335636  1
  O  O13  1  0.20502633  0.99124103  0.61664364  1
  O  O14  1  0.07666038  0.42176042  0.34652018  1
  O  O15  1  0.42176042  0.07666038  0.15347982  1
  O  O16  1  0.30714248  0.51792226  0.87305834  1
  O  O17  1  0.51792226  0.30714248  0.62694166  1
  O  O18  1  0.48865984  0.69044300  0.37711998  1
  O  O19  1  0.69044300  0.48865984  0.12288002  1
  O  O20  1  0.56726987  0.91862080  0.84621298  1
  O  O21  1  0.91862080  0.56726987  0.65378702  1
  O  O22  1  0.80847731  0.00307037  0.37983797  1
  O  O23  1  0.00307037  0.80847731  0.12016203  1
