# generated using pymatgen
data_V2Fe3Te(PO4)6
_symmetry_space_group_name_H-M   'P 1'
_cell_length_a   8.60597582
_cell_length_b   8.74366357
_cell_length_c   8.74366296
_cell_angle_alpha   60.00000019
_cell_angle_beta   59.46932376
_cell_angle_gamma   59.46932344
_symmetry_Int_Tables_number   1
_chemical_formula_structural   V2Fe3Te(PO4)6
_chemical_formula_sum   'V2 Fe3 Te1 P6 O24'
_cell_volume   461.46784720
_cell_formula_units_Z   1
loop_
 _symmetry_equiv_pos_site_id
 _symmetry_equiv_pos_as_xyz
  1  'x, y, z'
loop_
 _atom_site_type_symbol
 _atom_site_label
 _atom_site_symmetry_multiplicity
 _atom_site_fract_x
 _atom_site_fract_y
 _atom_site_fract_z
 _atom_site_occupancy
  V  V0  1  0.00652955  0.99782315  0.99782315  1
  V  V1  1  0.49607941  0.50130653  0.50130653  1
  Fe  Fe2  1  0.05919882  0.64693406  0.64693406  1
  Fe  Fe3  1  0.44001500  0.85332800  0.85332800  1
  Fe  Fe4  1  0.93526952  0.35491016  0.35491016  1
  Te  Te5  1  0.55649468  0.14783511  0.14783511  1
  P  P6  1  0.24269316  0.25259912  0.55728247  1
  P  P7  1  0.24269316  0.94742525  0.25259912  1
  P  P8  1  0.24269316  0.55728247  0.94742525  1
  P  P9  1  0.75169361  0.46000910  0.04611165  1
  P  P10  1  0.75169361  0.04611165  0.74218664  1
  P  P11  1  0.75169361  0.74218664  0.46000910  1
  O  O12  1  0.07351112  0.11003837  0.31599575  1
  O  O13  1  0.07351112  0.50045376  0.11003837  1
  O  O14  1  0.07351112  0.31599575  0.50045376  1
  O  O15  1  0.22096716  0.09359381  0.75130459  1
  O  O16  1  0.43559067  0.17978740  0.40889311  1
  O  O17  1  0.26815756  0.40905591  0.57109580  1
  O  O18  1  0.22096716  0.93413343  0.09359381  1
  O  O19  1  0.26815756  0.75169072  0.40905591  1
  O  O20  1  0.56900102  0.60717033  0.00279055  1
  O  O21  1  0.26815756  0.57109580  0.75169072  1
  O  O22  1  0.78762488  0.25772001  0.05664765  1
  O  O23  1  0.56900102  0.00279055  0.82103809  1
  O  O24  1  0.43559067  0.97572883  0.17978740  1
  O  O25  1  0.22096716  0.75130459  0.93413343  1
  O  O26  1  0.72233248  0.43968182  0.24675603  1
  O  O27  1  0.43559067  0.40889311  0.97572883  1
  O  O28  1  0.72233248  0.24675603  0.59122967  1
  O  O29  1  0.78762488  0.05664765  0.89800746  1
  O  O30  1  0.72233248  0.59122967  0.43968182  1
  O  O31  1  0.56900102  0.82103809  0.60717033  1
  O  O32  1  0.78762488  0.89800746  0.25772001  1
  O  O33  1  0.93056635  0.66809261  0.50575632  1
  O  O34  1  0.93056635  0.50575632  0.89558472  1
  O  O35  1  0.93056635  0.89558472  0.66809261  1
