# generated using pymatgen
data_Li10Mn3Cr5O16
_symmetry_space_group_name_H-M   'P 1'
_cell_length_a   5.99742714
_cell_length_b   6.05624966
_cell_length_c   9.86964584
_cell_angle_alpha   90.84023041
_cell_angle_beta   90.30407761
_cell_angle_gamma   119.88534060
_symmetry_Int_Tables_number   1
_chemical_formula_structural   Li10Mn3Cr5O16
_chemical_formula_sum   'Li10 Mn3 Cr5 O16'
_cell_volume   310.74839461
_cell_formula_units_Z   1
loop_
 _symmetry_equiv_pos_site_id
 _symmetry_equiv_pos_as_xyz
  1  'x, y, z'
loop_
 _atom_site_type_symbol
 _atom_site_label
 _atom_site_symmetry_multiplicity
 _atom_site_fract_x
 _atom_site_fract_y
 _atom_site_fract_z
 _atom_site_occupancy
  Li  Li0  1  0.38009843  0.20254003  0.94303297  1
  Li  Li1  1  0.32592038  0.66999461  0.22575306  1
  Li  Li2  1  0.19000500  0.80893679  0.44202454  1
  Li  Li3  1  0.66349097  0.33292230  0.72530111  1
  Li  Li4  1  0.19733888  0.40639862  0.44645548  1
  Li  Li5  1  0.78037542  0.19802758  0.95026475  1
  Li  Li6  1  0.61751021  0.82450083  0.44002157  1
  Li  Li7  1  0.79930497  0.60974542  0.94483927  1
  Li  Li8  1  0.01479376  0.02934802  0.51336416  1
  Li  Li9  1  0.99682720  0.01524449  0.00995142  1
  Mn  Mn10  1  0.17097601  0.84355032  0.71130721  1
  Mn  Mn11  1  0.83090345  0.68130039  0.21184312  1
  Mn  Mn12  1  0.66872711  0.84559232  0.71307809  1
  Cr  Cr13  1  0.17343767  0.35520867  0.71414639  1
  Cr  Cr14  1  0.67775741  0.35756172  0.46959484  1
  Cr  Cr15  1  0.32990959  0.68272604  0.97116482  1
  Cr  Cr16  1  0.33607513  0.18432087  0.21355267  1
  Cr  Cr17  1  0.82966380  0.18523928  0.21331717  1
  O  O18  1  0.34930990  0.20670882  0.59097486  1
  O  O19  1  0.16295735  0.34446723  0.09761539  1
  O  O20  1  0.51084356  0.03962151  0.33560992  1
  O  O21  1  0.01164160  0.50147404  0.84362018  1
  O  O22  1  0.84628685  0.19609434  0.58871698  1
  O  O23  1  0.17214819  0.85813796  0.08672269  1
  O  O24  1  0.50164035  0.49544784  0.34178267  1
  O  O25  1  0.65383958  0.33059683  0.09671624  1
  O  O26  1  0.31793381  0.67660359  0.59809786  1
  O  O27  1  0.47923893  0.51447995  0.84478155  1
  O  O28  1  0.98061148  0.49223914  0.33958957  1
  O  O29  1  0.47010275  0.98219064  0.84119283  1
  O  O30  1  0.66569870  0.86450141  0.08439666  1
  O  O31  1  0.85882380  0.69444745  0.58183248  1
  O  O32  1  0.00755625  0.03472217  0.32408402  1
  O  O33  1  0.02790849  0.02294578  0.81883747  1
