# generated using pymatgen
data_Li3Ni3O3F5
_symmetry_space_group_name_H-M   'P 1'
_cell_length_a   5.88633053
_cell_length_b   5.97773641
_cell_length_c   5.70660894
_cell_angle_alpha   118.50111015
_cell_angle_beta   89.98505278
_cell_angle_gamma   60.35393990
_symmetry_Int_Tables_number   1
_chemical_formula_structural   Li3Ni3O3F5
_chemical_formula_sum   'Li3 Ni3 O3 F5'
_cell_volume   145.83948669
_cell_formula_units_Z   1
loop_
 _symmetry_equiv_pos_site_id
 _symmetry_equiv_pos_as_xyz
  1  'x, y, z'
loop_
 _atom_site_type_symbol
 _atom_site_label
 _atom_site_symmetry_multiplicity
 _atom_site_fract_x
 _atom_site_fract_y
 _atom_site_fract_z
 _atom_site_occupancy
  Li  Li0  1  0.36663844  0.76694233  0.38346030  1
  Li  Li1  1  0.75493116  0.47951889  0.73977210  1
  Li  Li2  1  0.01132152  0.01288079  0.00640682  1
  Ni  Ni3  1  0.87327333  0.74900877  0.37449393  1
  Ni  Ni4  1  0.36843858  0.25003508  0.37840831  1
  Ni  Ni5  1  0.36846038  0.24996936  0.87164164  1
  O  O6  1  0.13932706  0.28946402  0.14480238  1
  O  O7  1  0.59893415  0.21165782  0.60580289  1
  O  O8  1  0.16623043  0.23505817  0.61762069  1
  F  F9  1  0.61584499  0.75768969  0.62406090  1
  F  F10  1  0.61589485  0.75771855  0.13362163  1
  F  F11  1  0.13701567  0.73997683  0.12922951  1
  F  F12  1  0.13692621  0.73992359  0.61068813  1
  F  F13  1  0.59676325  0.26015609  0.12998979  1
