# generated using pymatgen
data_H6PbC3S2IN
_symmetry_space_group_name_H-M   'P 1'
_cell_length_a   8.46671780
_cell_length_b   10.83105224
_cell_length_c   11.81294319
_cell_angle_alpha   116.28487184
_cell_angle_beta   90.00000000
_cell_angle_gamma   90.00000000
_symmetry_Int_Tables_number   1
_chemical_formula_structural   H6PbC3S2IN
_chemical_formula_sum   'H24 Pb4 C12 S8 I4 N4'
_cell_volume   971.27950656
_cell_formula_units_Z   4
loop_
 _symmetry_equiv_pos_site_id
 _symmetry_equiv_pos_as_xyz
  1  'x, y, z'
loop_
 _atom_site_type_symbol
 _atom_site_label
 _atom_site_symmetry_multiplicity
 _atom_site_fract_x
 _atom_site_fract_y
 _atom_site_fract_z
 _atom_site_occupancy
  H  H0  1  0.06965980  0.14835882  0.98281507  1
  H  H1  1  0.56965980  0.85164118  0.51718493  1
  H  H2  1  0.93034020  0.85164118  0.01718493  1
  H  H3  1  0.43034020  0.14835882  0.48281507  1
  H  H4  1  0.07915372  0.97017322  0.86880264  1
  H  H5  1  0.57915372  0.02982678  0.63119736  1
  H  H6  1  0.92084628  0.02982678  0.13119736  1
  H  H7  1  0.42084628  0.97017322  0.36880264  1
  H  H8  1  0.24720827  0.07953215  0.89571367  1
  H  H9  1  0.74720827  0.92046785  0.60428633  1
  H  H10  1  0.75279173  0.92046785  0.10428633  1
  H  H11  1  0.25279173  0.07953215  0.39571367  1
  H  H12  1  0.07821322  0.05300884  0.59829421  1
  H  H13  1  0.57821322  0.94699116  0.90170579  1
  H  H14  1  0.92178678  0.94699116  0.40170579  1
  H  H15  1  0.42178678  0.05300884  0.09829421  1
  H  H16  1  0.25237667  0.02279226  0.66737676  1
  H  H17  1  0.75237667  0.97720774  0.83262324  1
  H  H18  1  0.74762333  0.97720774  0.33262324  1
  H  H19  1  0.24762333  0.02279226  0.16737676  1
  H  H20  1  0.08383145  0.91406753  0.64271944  1
  H  H21  1  0.58383145  0.08593247  0.85728056  1
  H  H22  1  0.91616855  0.08593247  0.35728056  1
  H  H23  1  0.41616855  0.91406753  0.14271944  1
  Pb  Pb24  1  0.76615741  0.49318941  0.87862356  1
  Pb  Pb25  1  0.26615741  0.50681059  0.62137644  1
  Pb  Pb26  1  0.23384259  0.50681059  0.12137644  1
  Pb  Pb27  1  0.73384259  0.49318941  0.37862356  1
  C  C28  1  0.97706419  0.22425330  0.81607002  1
  C  C29  1  0.47706419  0.77574670  0.68392998  1
  C  C30  1  0.02293581  0.77574670  0.18392998  1
  C  C31  1  0.52293581  0.22425330  0.31607002  1
  C  C32  1  0.11750660  0.07562055  0.89146124  1
  C  C33  1  0.61750660  0.92437945  0.60853876  1
  C  C34  1  0.88249340  0.92437945  0.10853876  1
  C  C35  1  0.38249340  0.07562055  0.39146124  1
  C  C36  1  0.12265933  0.01984560  0.66730007  1
  C  C37  1  0.62265933  0.98015440  0.83269993  1
  C  C38  1  0.87734067  0.98015440  0.33269993  1
  C  C39  1  0.37734067  0.01984560  0.16730007  1
  S  S40  1  0.91070019  0.32600108  0.96895689  1
  S  S41  1  0.41070019  0.67399892  0.53104311  1
  S  S42  1  0.08929981  0.67399892  0.03104311  1
  S  S43  1  0.58929981  0.32600108  0.46895689  1
  S  S44  1  0.92626924  0.26721310  0.69691345  1
  S  S45  1  0.42626924  0.73278690  0.80308655  1
  S  S46  1  0.07373076  0.73278690  0.30308655  1
  S  S47  1  0.57373076  0.26721310  0.19691345  1
  I  I48  1  0.57378734  0.65352380  0.18150341  1
  I  I49  1  0.07378734  0.34647620  0.31849659  1
  I  I50  1  0.42621266  0.34647620  0.81849659  1
  I  I51  1  0.92621266  0.65352380  0.68150341  1
  N  N52  1  0.06464977  0.11242007  0.79279231  1
  N  N53  1  0.56464977  0.88757993  0.70720769  1
  N  N54  1  0.93535023  0.88757993  0.20720769  1
  N  N55  1  0.43535023  0.11242007  0.29279231  1
