# generated using pymatgen
data_Li4Ti2Si4O13
_symmetry_space_group_name_H-M   'P 1'
_cell_length_a   13.81293832
_cell_length_b   5.07568332
_cell_length_c   14.20419889
_cell_angle_alpha   90.00000000
_cell_angle_beta   90.00000000
_cell_angle_gamma   90.00000000
_symmetry_Int_Tables_number   1
_chemical_formula_structural   Li4Ti2Si4O13
_chemical_formula_sum   'Li16 Ti8 Si16 O52'
_cell_volume   995.85781356
_cell_formula_units_Z   4
loop_
 _symmetry_equiv_pos_site_id
 _symmetry_equiv_pos_as_xyz
  1  'x, y, z'
loop_
 _atom_site_type_symbol
 _atom_site_label
 _atom_site_symmetry_multiplicity
 _atom_site_fract_x
 _atom_site_fract_y
 _atom_site_fract_z
 _atom_site_occupancy
  Li  Li0  1  0.04037665  0.17859195  0.22219993  1
  Li  Li1  1  0.10830346  0.66813713  0.92178022  1
  Li  Li2  1  0.13401561  0.65534819  0.10874764  1
  Li  Li3  1  0.21172519  0.25002828  0.83720518  1
  Li  Li4  1  0.28827481  0.75002828  0.33720518  1
  Li  Li5  1  0.36598439  0.15534819  0.60874764  1
  Li  Li6  1  0.39169654  0.16813713  0.42178022  1
  Li  Li7  1  0.45962335  0.67859195  0.72219993  1
  Li  Li8  1  0.54037665  0.32140805  0.22219993  1
  Li  Li9  1  0.60830346  0.83186287  0.92178022  1
  Li  Li10  1  0.63401561  0.84465181  0.10874764  1
  Li  Li11  1  0.71172519  0.24997172  0.83720518  1
  Li  Li12  1  0.78827481  0.74997172  0.33720518  1
  Li  Li13  1  0.86598439  0.34465181  0.60874764  1
  Li  Li14  1  0.89169654  0.33186287  0.42178022  1
  Li  Li15  1  0.95962335  0.82140805  0.72219993  1
  Ti  Ti16  1  0.08247369  0.35049254  0.62418426  1
  Ti  Ti17  1  0.16898570  0.18656437  0.42423908  1
  Ti  Ti18  1  0.33101430  0.68656437  0.92423908  1
  Ti  Ti19  1  0.41752631  0.85049254  0.12418426  1
  Ti  Ti20  1  0.58247369  0.14950746  0.62418426  1
  Ti  Ti21  1  0.66898570  0.31343563  0.42423908  1
  Ti  Ti22  1  0.83101430  0.81343563  0.92423908  1
  Ti  Ti23  1  0.91752631  0.64950746  0.12418426  1
  Si  Si24  1  0.02176424  0.16155662  0.99944853  1
  Si  Si25  1  0.06153553  0.68961002  0.31649882  1
  Si  Si26  1  0.18947567  0.84556620  0.72927461  1
  Si  Si27  1  0.22505562  0.18153929  0.04784186  1
  Si  Si28  1  0.27494438  0.68153929  0.54784186  1
  Si  Si29  1  0.31052433  0.34556620  0.22927461  1
  Si  Si30  1  0.43846447  0.18961002  0.81649882  1
  Si  Si31  1  0.47823576  0.66155662  0.49944853  1
  Si  Si32  1  0.52176424  0.33844338  0.99944853  1
  Si  Si33  1  0.56153553  0.81038998  0.31649882  1
  Si  Si34  1  0.68947567  0.65443380  0.72927461  1
  Si  Si35  1  0.72505562  0.31846071  0.04784186  1
  Si  Si36  1  0.77494438  0.81846071  0.54784186  1
  Si  Si37  1  0.81052433  0.15443380  0.22927461  1
  Si  Si38  1  0.93846447  0.31038998  0.81649882  1
  Si  Si39  1  0.97823576  0.83844338  0.49944853  1
  O  O40  1  0.02376569  0.43994953  0.05417252  1
  O  O41  1  0.03565038  0.76885391  0.20750086  1
  O  O42  1  0.03321455  0.21611812  0.88472246  1
  O  O43  1  0.06466798  0.04766729  0.52100288  1
  O  O44  1  0.07430096  0.37503343  0.33758966  1
  O  O45  1  0.09351750  0.67423466  0.70593478  1
  O  O46  1  0.12489658  -0.00006993  0.02616888  1
  O  O47  1  0.15589336  0.86065570  0.34685117  1
  O  O48  1  0.17693783  0.15883124  0.70359995  1
  O  O49  1  0.18477144  0.48532884  0.52590992  1
  O  O50  1  0.21642156  0.24626241  0.16187144  1
  O  O51  1  0.21551374  0.82296634  0.84152878  1
  O  O52  1  0.21770955  0.45524591  0.98858657  1
  O  O53  1  0.28229045  0.95524591  0.48858657  1
  O  O54  1  0.28448626  0.32296634  0.34152878  1
  O  O55  1  0.28357844  0.74626241  0.66187144  1
  O  O56  1  0.31522856  0.98532884  0.02590992  1
  O  O57  1  0.32306217  0.65883124  0.20359995  1
  O  O58  1  0.34410664  0.36065570  0.84685117  1
  O  O59  1  0.37510342  0.49993007  0.52616888  1
  O  O60  1  0.40648250  0.17423466  0.20593478  1
  O  O61  1  0.42569904  0.87503343  0.83758966  1
  O  O62  1  0.43533202  0.54766729  0.02100288  1
  O  O63  1  0.46678545  0.71611812  0.38472246  1
  O  O64  1  0.46434962  0.26885391  0.70750086  1
  O  O65  1  0.47623431  0.93994953  0.55417252  1
  O  O66  1  0.52376569  0.06005047  0.05417252  1
  O  O67  1  0.53565038  0.73114609  0.20750086  1
  O  O68  1  0.53321455  0.28388188  0.88472246  1
  O  O69  1  0.56466798  0.45233271  0.52100288  1
  O  O70  1  0.57430096  0.12496657  0.33758966  1
  O  O71  1  0.59351750  0.82576534  0.70593478  1
  O  O72  1  0.62489658  0.50006993  0.02616888  1
  O  O73  1  0.65589336  0.63934430  0.34685117  1
  O  O74  1  0.67693783  0.34116876  0.70359995  1
  O  O75  1  0.68477144  0.01467116  0.52590992  1
  O  O76  1  0.71642156  0.25373759  0.16187144  1
  O  O77  1  0.71551374  0.67703366  0.84152878  1
  O  O78  1  0.71770955  0.04475409  0.98858657  1
  O  O79  1  0.78229045  0.54475409  0.48858657  1
  O  O80  1  0.78448626  0.17703366  0.34152878  1
  O  O81  1  0.78357844  0.75373759  0.66187144  1
  O  O82  1  0.81522856  0.51467116  0.02590992  1
  O  O83  1  0.82306217  0.84116876  0.20359995  1
  O  O84  1  0.84410664  0.13934430  0.84685117  1
  O  O85  1  0.87510342  0.00006993  0.52616888  1
  O  O86  1  0.90648250  0.32576534  0.20593478  1
  O  O87  1  0.92569904  0.62496657  0.83758966  1
  O  O88  1  0.93533202  0.95233271  0.02100288  1
  O  O89  1  0.96678545  0.78388188  0.38472246  1
  O  O90  1  0.96434962  0.23114609  0.70750086  1
  O  O91  1  0.97623431  0.56005047  0.55417252  1
