# generated using pymatgen
data_LiCo2OF3
_symmetry_space_group_name_H-M   'P 1'
_cell_length_a   5.19325660
_cell_length_b   10.29134671
_cell_length_c   5.99905186
_cell_angle_alpha   90.12749357
_cell_angle_beta   90.01111136
_cell_angle_gamma   89.88373959
_symmetry_Int_Tables_number   1
_chemical_formula_structural   LiCo2OF3
_chemical_formula_sum   'Li4 Co8 O4 F12'
_cell_volume   320.62149199
_cell_formula_units_Z   4
loop_
 _symmetry_equiv_pos_site_id
 _symmetry_equiv_pos_as_xyz
  1  'x, y, z'
loop_
 _atom_site_type_symbol
 _atom_site_label
 _atom_site_symmetry_multiplicity
 _atom_site_fract_x
 _atom_site_fract_y
 _atom_site_fract_z
 _atom_site_occupancy
  Li  Li0  1  0.02499177  0.58965119  0.24998950  1
  Li  Li1  1  0.47475176  0.08980268  0.25006570  1
  Li  Li2  1  0.52527066  0.91045889  0.74998076  1
  Li  Li3  1  0.97501662  0.41019256  0.75004933  1
  Co  Co4  1  -0.00023058  0.99996755  0.00026544  1
  Co  Co5  1  -0.00015113  0.00011454  0.49965331  1
  Co  Co6  1  0.99765258  0.74484282  0.74957608  1
  Co  Co7  1  0.50201499  0.24457879  0.74960349  1
  Co  Co8  1  0.49991172  0.50010031  0.50004863  1
  Co  Co9  1  0.50013096  0.49998746  0.99993389  1
  Co  Co10  1  0.49805675  0.75530564  0.25060884  1
  Co  Co11  1  0.00228518  0.25516576  0.25082241  1
  O  O12  1  0.16822664  0.91560090  0.74967496  1
  O  O13  1  0.33220155  0.41582079  0.74970160  1
  O  O14  1  0.66757324  0.58403565  0.25023429  1
  O  O15  1  0.83246955  0.08432062  0.25018109  1
  F  F16  1  0.20852423  0.42494547  0.25098830  1
  F  F17  1  0.22905945  0.66641141  0.01165601  1
  F  F18  1  0.22771331  0.66736870  0.48808792  1
  F  F19  1  0.27170129  0.16685841  0.01196068  1
  F  F20  1  0.27231091  0.16697969  0.48884244  1
  F  F21  1  0.29091529  0.92523009  0.25032722  1
  F  F22  1  0.70911301  0.07478730  0.74959661  1
  F  F23  1  0.72817775  0.83313495  0.98811320  1
  F  F24  1  0.72788552  0.83278641  0.51186031  1
  F  F25  1  0.77228978  0.33270150  0.51159242  1
  F  F26  1  0.77049202  0.33363364  0.98763153  1
  F  F27  1  0.79164518  0.57521625  0.74895405  1
