# generated using pymatgen
data_LiV5F11
_symmetry_space_group_name_H-M   'P 1'
_cell_length_a   8.53715309
_cell_length_b   14.44447086
_cell_length_c   8.22760070
_cell_angle_alpha   90.00000000
_cell_angle_beta   99.37503470
_cell_angle_gamma   90.00000000
_symmetry_Int_Tables_number   1
_chemical_formula_structural   LiV5F11
_chemical_formula_sum   'Li4 V20 F44'
_cell_volume   1001.03221696
_cell_formula_units_Z   4
loop_
 _symmetry_equiv_pos_site_id
 _symmetry_equiv_pos_as_xyz
  1  'x, y, z'
loop_
 _atom_site_type_symbol
 _atom_site_label
 _atom_site_symmetry_multiplicity
 _atom_site_fract_x
 _atom_site_fract_y
 _atom_site_fract_z
 _atom_site_occupancy
  Li  Li0  1  0.11057049  0.56406986  0.36889228  1
  Li  Li1  1  0.38942951  0.06406986  0.13110772  1
  Li  Li2  1  0.61057049  0.93593014  0.86889228  1
  Li  Li3  1  0.88942951  0.43593014  0.63110772  1
  V  V4  1  0.04787858  0.67199379  0.77539880  1
  V  V5  1  0.07360947  0.17532806  0.57940387  1
  V  V6  1  0.19552319  0.32478584  0.95770257  1
  V  V7  1  0.22800904  0.99574541  0.76419962  1
  V  V8  1  0.16025746  0.83685248  0.14401980  1
  V  V9  1  0.27199096  0.49574541  0.73580038  1
  V  V10  1  0.30447681  0.82478584  0.54229743  1
  V  V11  1  0.42639053  0.67532806  0.92059613  1
  V  V12  1  0.33974254  0.33685248  0.35598020  1
  V  V13  1  0.45212142  0.17199379  0.72460120  1
  V  V14  1  0.54787858  0.82800621  0.27539880  1
  V  V15  1  0.66025746  0.66314752  0.64401980  1
  V  V16  1  0.57360947  0.32467194  0.07940387  1
  V  V17  1  0.69552319  0.17521416  0.45770257  1
  V  V18  1  0.72800904  0.50425459  0.26419962  1
  V  V19  1  0.83974254  0.16314752  0.85598020  1
  V  V20  1  0.77199096  0.00425459  0.23580038  1
  V  V21  1  0.80447681  0.67521416  0.04229743  1
  V  V22  1  0.92639053  0.82467194  0.42059613  1
  V  V23  1  0.95212142  0.32800621  0.22460120  1
  F  F24  1  0.03398408  0.09037023  0.77818981  1
  F  F25  1  0.07276404  0.41666530  0.78378711  1
  F  F26  1  0.00042212  0.24736745  0.01970839  1
  F  F27  1  0.10176987  0.90129520  0.58312291  1
  F  F28  1  0.10303399  0.58280007  0.59095599  1
  F  F29  1  0.20992595  0.94118798  0.99145233  1
  F  F30  1  0.13178593  0.25880877  0.38878407  1
  F  F31  1  0.22553654  0.59131318  0.92587554  1
  F  F32  1  0.13260027  0.75293539  0.36158307  1
  F  F33  1  0.24315023  0.24653253  0.75366059  1
  F  F34  1  0.25684977  0.74653253  0.74633941  1
  F  F35  1  0.15924419  0.39883134  0.17504272  1
  F  F36  1  0.27446346  0.09131318  0.57412446  1
  F  F37  1  0.29007405  0.44118798  0.50854767  1
  F  F38  1  0.39696601  0.08280007  0.90904401  1
  F  F39  1  0.39823013  0.40129520  0.91687709  1
  F  F40  1  0.34075581  0.89883134  0.32495728  1
  F  F41  1  0.42723596  0.91666530  0.71621289  1
  F  F42  1  0.46601592  0.59037023  0.72181019  1
  F  F43  1  0.36739973  0.25293539  0.13841693  1
  F  F44  1  0.36821407  0.75880877  0.11121593  1
  F  F45  1  0.49957788  0.74736745  0.48029161  1
  F  F46  1  0.50042212  0.25263255  0.51970839  1
  F  F47  1  0.63178593  0.24119123  0.88878407  1
  F  F48  1  0.63260027  0.74706461  0.86158307  1
  F  F49  1  0.53398408  0.40962977  0.27818981  1
  F  F50  1  0.57276404  0.08333470  0.28378711  1
  F  F51  1  0.65924419  0.10116866  0.67504272  1
  F  F52  1  0.60176987  0.59870480  0.08312291  1
  F  F53  1  0.60303399  0.91719993  0.09095599  1
  F  F54  1  0.70992595  0.55881202  0.49145233  1
  F  F55  1  0.72553654  0.90868682  0.42587554  1
  F  F56  1  0.84075581  0.60116866  0.82495728  1
  F  F57  1  0.74315023  0.25346747  0.25366059  1
  F  F58  1  0.75684977  0.75346747  0.24633941  1
  F  F59  1  0.86739973  0.24706461  0.63841693  1
  F  F60  1  0.77446346  0.40868682  0.07412446  1
  F  F61  1  0.86821407  0.74119123  0.61121593  1
  F  F62  1  0.79007405  0.05881202  0.00854767  1
  F  F63  1  0.89696601  0.41719993  0.40904401  1
  F  F64  1  0.89823013  0.09870480  0.41687709  1
  F  F65  1  0.99957788  0.75263255  0.98029161  1
  F  F66  1  0.92723596  0.58333470  0.21621289  1
  F  F67  1  0.96601592  0.90962977  0.22181019  1
