# generated using pymatgen
data_VO2F
_symmetry_space_group_name_H-M   'P 1'
_cell_length_a   5.05350848
_cell_length_b   12.99684392
_cell_length_c   5.06155096
_cell_angle_alpha   87.85422681
_cell_angle_beta   117.89737773
_cell_angle_gamma   91.86717179
_symmetry_Int_Tables_number   1
_chemical_formula_structural   VO2F
_chemical_formula_sum   'V6 O12 F6'
_cell_volume   293.55827746
_cell_formula_units_Z   6
loop_
 _symmetry_equiv_pos_site_id
 _symmetry_equiv_pos_as_xyz
  1  'x, y, z'
loop_
 _atom_site_type_symbol
 _atom_site_label
 _atom_site_symmetry_multiplicity
 _atom_site_fract_x
 _atom_site_fract_y
 _atom_site_fract_z
 _atom_site_occupancy
  V  V0  1  0.92780734  0.49771176  0.95903104  1
  V  V1  1  0.04436732  0.99874000  0.03676761  1
  V  V2  1  0.66666700  0.83333300  0.33333300  1
  V  V3  1  0.28896568  0.66792600  0.62989939  1
  V  V4  1  0.66666700  0.33333300  0.33333300  1
  V  V5  1  0.40552666  0.16895524  0.70763496  1
  O  O6  1  0.00560427  0.75117502  0.40864406  1
  O  O7  1  0.32772973  0.91549198  0.25802294  1
  O  O8  1  0.59660961  0.24896066  0.00756571  1
  O  O9  1  0.74817948  0.91474159  0.08906094  1
  O  O10  1  0.09772393  0.58422011  0.75040932  1
  O  O11  1  0.41263821  0.25238792  0.41250567  1
  O  O12  1  0.58515352  0.75192541  0.57760506  1
  O  O13  1  0.92069479  0.41427908  0.25416133  1
  O  O14  1  0.23561007  0.08244689  0.91625668  1
  O  O15  1  0.73672439  0.41770634  0.65910029  1
  O  O16  1  0.66291804  0.08381125  0.74976212  1
  O  O17  1  0.67041496  0.58285575  0.91690488  1
  F  F18  1  0.40418302  0.74924055  0.00011909  1
  F  F19  1  0.34348408  0.41719084  0.07304899  1
  F  F20  1  0.06745829  0.08283564  0.33965521  1
  F  F21  1  0.26587571  0.58383136  0.32701079  1
  F  F22  1  0.98984892  0.24947616  0.59361801  1
  F  F23  1  0.92914998  0.91742645  0.66654791  1
