# generated using pymatgen
data_LiVOF3
_symmetry_space_group_name_H-M   'P 1'
_cell_length_a   7.16896814
_cell_length_b   7.76419786
_cell_length_c   5.28868350
_cell_angle_alpha   90.00000000
_cell_angle_beta   90.00000000
_cell_angle_gamma   90.00000000
_symmetry_Int_Tables_number   1
_chemical_formula_structural   LiVOF3
_chemical_formula_sum   'Li4 V4 O4 F12'
_cell_volume   294.37493063
_cell_formula_units_Z   4
loop_
 _symmetry_equiv_pos_site_id
 _symmetry_equiv_pos_as_xyz
  1  'x, y, z'
loop_
 _atom_site_type_symbol
 _atom_site_label
 _atom_site_symmetry_multiplicity
 _atom_site_fract_x
 _atom_site_fract_y
 _atom_site_fract_z
 _atom_site_occupancy
  Li  Li0  1  0.19111221  0.15388044  0.43676547  1
  Li  Li1  1  0.30888779  0.65388044  0.43676547  1
  Li  Li2  1  0.69111221  0.15388044  0.56323453  1
  Li  Li3  1  0.80888779  0.65388044  0.56323453  1
  V  V4  1  0.00811566  0.96191538  0.96561628  1
  V  V5  1  0.49188434  0.46191538  0.96561628  1
  V  V6  1  0.50811566  0.96191538  0.03438372  1
  V  V7  1  0.99188434  0.46191538  0.03438372  1
  O  O8  1  0.03430301  0.26167143  0.12920864  1
  O  O9  1  0.46569699  0.76167143  0.12920864  1
  O  O10  1  0.53430301  0.26167143  0.87079136  1
  O  O11  1  0.96569699  0.76167143  0.87079136  1
  F  F12  1  0.04963984  0.60136412  0.32423989  1
  F  F13  1  0.11730842  0.93667421  0.28949871  1
  F  F14  1  0.23247290  0.50449442  0.85127126  1
  F  F15  1  0.26752710  0.00449442  0.85127126  1
  F  F16  1  0.38269158  0.43667421  0.28949871  1
  F  F17  1  0.45036016  0.10136412  0.32423989  1
  F  F18  1  0.54963984  0.60136412  0.67576011  1
  F  F19  1  0.61730842  0.93667421  0.71050129  1
  F  F20  1  0.73247290  0.50449442  0.14872874  1
  F  F21  1  0.76752710  0.00449442  0.14872874  1
  F  F22  1  0.88269158  0.43667421  0.71050129  1
  F  F23  1  0.95036016  0.10136412  0.67576011  1
