# generated using pymatgen
data_Mn3F8
_symmetry_space_group_name_H-M   'P 1'
_cell_length_a   6.47675065
_cell_length_b   6.47675005
_cell_length_c   9.28370523
_cell_angle_alpha   89.65661725
_cell_angle_beta   90.34338846
_cell_angle_gamma   59.64532868
_symmetry_Int_Tables_number   1
_chemical_formula_structural   Mn3F8
_chemical_formula_sum   'Mn6 F16'
_cell_volume   336.02493322
_cell_formula_units_Z   2
loop_
 _symmetry_equiv_pos_site_id
 _symmetry_equiv_pos_as_xyz
  1  'x, y, z'
loop_
 _atom_site_type_symbol
 _atom_site_label
 _atom_site_symmetry_multiplicity
 _atom_site_fract_x
 _atom_site_fract_y
 _atom_site_fract_z
 _atom_site_occupancy
  Mn  Mn0  1  0.16663049  0.16676029  0.75200883  1
  Mn  Mn1  1  0.16705872  0.66616415  0.75163947  1
  Mn  Mn2  1  0.33383585  0.83294128  0.25163947  1
  Mn  Mn3  1  0.66610263  0.16657172  0.75275458  1
  Mn  Mn4  1  0.83342828  0.33389737  0.25275458  1
  Mn  Mn5  1  0.83323971  0.83336951  0.25200883  1
  F  F6  1  0.01491898  0.99737985  0.37073482  1
  F  F7  1  0.00262015  0.98508102  0.87073482  1
  F  F8  1  0.17314827  0.12069173  0.15041124  1
  F  F9  1  0.04807264  0.46533761  0.85113408  1
  F  F10  1  0.13244086  0.71360027  0.15367911  1
  F  F11  1  0.45779065  0.03924789  0.85181629  1
  F  F12  1  0.33091992  0.34846008  0.63233920  1
  F  F13  1  0.45331762  0.50647664  0.85423197  1
  F  F14  1  0.70569872  0.12516128  0.15181840  1
  F  F15  1  0.28639973  0.86755914  0.65367911  1
  F  F16  1  0.49352336  0.54668238  0.35423197  1
  F  F17  1  0.65153992  0.66908008  0.13233920  1
  F  F18  1  0.53466239  0.95192736  0.35113408  1
  F  F19  1  0.87483872  0.29430128  0.65181840  1
  F  F20  1  0.96075211  0.54220935  0.35181629  1
  F  F21  1  0.87930827  0.82685173  0.65041124  1
