# generated using pymatgen
data_Li3V4O11F
_symmetry_space_group_name_H-M   'P 1'
_cell_length_a   4.98162172
_cell_length_b   5.08934334
_cell_length_c   10.33022674
_cell_angle_alpha   76.00218138
_cell_angle_beta   108.28730397
_cell_angle_gamma   69.31368488
_symmetry_Int_Tables_number   1
_chemical_formula_structural   Li3V4O11F
_chemical_formula_sum   'Li3 V4 O11 F1'
_cell_volume   213.51580079
_cell_formula_units_Z   1
loop_
 _symmetry_equiv_pos_site_id
 _symmetry_equiv_pos_as_xyz
  1  'x, y, z'
loop_
 _atom_site_type_symbol
 _atom_site_label
 _atom_site_symmetry_multiplicity
 _atom_site_fract_x
 _atom_site_fract_y
 _atom_site_fract_z
 _atom_site_occupancy
  Li  Li0  1  0.29084724  0.28316843  0.88069100  1
  Li  Li1  1  0.70829038  0.73971369  0.60696896  1
  Li  Li2  1  0.74231459  0.70071128  0.12794159  1
  V  V3  1  0.10574968  0.12561376  0.61568937  1
  V  V4  1  0.07986458  0.13276536  0.11685737  1
  V  V5  1  0.93185424  0.95052522  0.86150003  1
  V  V6  1  0.92402121  0.88662050  0.35826931  1
  O  O7  1  0.98525203  0.50094028  0.50816650  1
  O  O8  1  0.09504311  0.72847613  0.77403495  1
  O  O9  1  0.00899778  0.48104643  0.01122538  1
  O  O10  1  0.75011969  0.08770646  0.99163539  1
  O  O11  1  0.12908743  0.69199568  0.28317840  1
  O  O12  1  0.24234043  0.89684205  0.51721945  1
  O  O13  1  0.52150159  0.96925537  0.24977544  1
  O  O14  1  0.48472522  0.01413430  0.75100765  1
  O  O15  1  0.87408890  0.28793540  0.73136398  1
  O  O16  1  0.28058568  0.89620395  0.00909108  1
  O  O17  1  0.88507137  0.25067643  0.23050551  1
  F  F18  1  0.70826285  0.11086328  0.49496464  1
