# generated using pymatgen
data_LiVF4
_symmetry_space_group_name_H-M   'P 1'
_cell_length_a   7.55590772
_cell_length_b   7.69373281
_cell_length_c   10.60456437
_cell_angle_alpha   89.99816701
_cell_angle_beta   89.99622611
_cell_angle_gamma   90.16474401
_symmetry_Int_Tables_number   1
_chemical_formula_structural   LiVF4
_chemical_formula_sum   'Li8 V8 F32'
_cell_volume   616.47402375
_cell_formula_units_Z   8
loop_
 _symmetry_equiv_pos_site_id
 _symmetry_equiv_pos_as_xyz
  1  'x, y, z'
loop_
 _atom_site_type_symbol
 _atom_site_label
 _atom_site_symmetry_multiplicity
 _atom_site_fract_x
 _atom_site_fract_y
 _atom_site_fract_z
 _atom_site_occupancy
  Li  Li0  1  -0.00008785  0.26530436  0.23383415  1
  Li  Li1  1  0.99933343  0.04682496  0.74328133  1
  Li  Li2  1  0.99935071  0.85097549  0.24250490  1
  Li  Li3  1  0.99978734  0.58948747  0.73803431  1
  Li  Li4  1  0.49989649  0.08956517  0.26202591  1
  Li  Li5  1  0.49938968  0.35098824  0.75746184  1
  Li  Li6  1  0.49940350  0.54670577  0.25672879  1
  Li  Li7  1  0.49988518  0.76525035  0.76629968  1
  V  V8  1  0.24756424  0.49225874  0.99587863  1
  V  V9  1  0.25026253  0.73801853  0.49596184  1
  V  V10  1  0.24976761  0.23797620  0.50412553  1
  V  V11  1  0.25254110  0.99219817  0.00386192  1
  V  V12  1  0.74752693  0.99221544  0.00402005  1
  V  V13  1  0.75023680  0.23802288  0.50405718  1
  V  V14  1  0.74976323  0.73796221  0.49592917  1
  V  V15  1  0.75250104  0.49222919  0.99602805  1
  F  F16  1  0.99995512  0.20288425  0.42910411  1
  F  F17  1  0.00008335  0.02946435  0.93161441  1
  F  F18  1  0.00011301  0.78584743  0.42284734  1
  F  F19  1  0.99998695  0.47302765  0.91533730  1
  F  F20  1  0.16763340  0.75764563  0.66503319  1
  F  F21  1  0.17128009  0.43695742  0.16019516  1
  F  F22  1  0.17141241  0.02161881  0.17526686  1
  F  F23  1  0.17959206  0.20075846  0.67444699  1
  F  F24  1  0.19372759  0.48678051  0.51329397  1
  F  F25  1  0.19524417  0.74024386  0.02412776  1
  F  F26  1  0.30484828  0.24058276  0.97578259  1
  F  F27  1  0.30646183  0.98711263  0.48666024  1
  F  F28  1  0.32068187  0.70100306  0.32557228  1
  F  F29  1  0.32884457  0.52220356  0.82464886  1
  F  F30  1  0.32898046  0.93719761  0.83985103  1
  F  F31  1  0.33260772  0.25805795  0.33485519  1
  F  F32  1  0.50012236  0.28582430  0.57715669  1
  F  F33  1  0.50007724  0.52948426  0.06839133  1
  F  F34  1  0.49997627  0.97304006  0.08464523  1
  F  F35  1  0.49995068  0.70287038  0.57087047  1
  F  F36  1  0.66766712  0.25776442  0.33493029  1
  F  F37  1  0.67130138  0.93696713  0.83986460  1
  F  F38  1  0.67143100  0.52170334  0.82473810  1
  F  F39  1  0.67954337  0.70079400  0.32555086  1
  F  F40  1  0.69360982  0.98682062  0.48669268  1
  F  F41  1  0.69530245  0.24025364  0.97587653  1
  F  F42  1  0.80482166  0.74057925  0.02423325  1
  F  F43  1  0.80648896  0.48708489  0.51332020  1
  F  F44  1  0.82066370  0.20104526  0.67441300  1
  F  F45  1  0.82879555  0.02218020  0.17539523  1
  F  F46  1  0.82904398  0.43723841  0.16015403  1
  F  F47  1  0.83262963  0.75808072  0.66509691  1
