# generated using pymatgen
data_Li2V2OF5
_symmetry_space_group_name_H-M   'P 1'
_cell_length_a   5.34156401
_cell_length_b   5.61415307
_cell_length_c   5.22106602
_cell_angle_alpha   117.64074159
_cell_angle_beta   58.84814078
_cell_angle_gamma   118.30075039
_symmetry_Int_Tables_number   1
_chemical_formula_structural   Li2V2OF5
_chemical_formula_sum   'Li2 V2 O1 F5'
_cell_volume   112.90024397
_cell_formula_units_Z   1
loop_
 _symmetry_equiv_pos_site_id
 _symmetry_equiv_pos_as_xyz
  1  'x, y, z'
loop_
 _atom_site_type_symbol
 _atom_site_label
 _atom_site_symmetry_multiplicity
 _atom_site_fract_x
 _atom_site_fract_y
 _atom_site_fract_z
 _atom_site_occupancy
  Li  Li0  1  0.34614700  0.11072619  0.36982146  1
  Li  Li1  1  0.89072033  0.58424700  0.85312179  1
  V  V2  1  0.14535812  0.44701196  0.16837360  1
  V  V3  1  0.67094792  0.97348749  0.63783524  1
  O  O4  1  0.03386883  0.24048815  0.43516254  1
  F  F5  1  0.55826560  0.71613642  0.24410492  1
  F  F6  1  0.26762367  0.73464021  0.93138464  1
  F  F7  1  0.74895665  0.23662873  0.05639836  1
  F  F8  1  0.40578969  0.21731467  0.75276021  1
  F  F9  1  0.93232019  0.73932018  0.55103624  1
