# generated using pymatgen
data_MnF4
_symmetry_space_group_name_H-M   'P 1'
_cell_length_a   2.96138482
_cell_length_b   9.30868909
_cell_length_c   4.80763026
_cell_angle_alpha   90.00000000
_cell_angle_beta   89.61278282
_cell_angle_gamma   90.00000000
_symmetry_Int_Tables_number   1
_chemical_formula_structural   MnF4
_chemical_formula_sum   'Mn2 F8'
_cell_volume   132.52704478
_cell_formula_units_Z   2
loop_
 _symmetry_equiv_pos_site_id
 _symmetry_equiv_pos_as_xyz
  1  'x, y, z'
loop_
 _atom_site_type_symbol
 _atom_site_label
 _atom_site_symmetry_multiplicity
 _atom_site_fract_x
 _atom_site_fract_y
 _atom_site_fract_z
 _atom_site_occupancy
  Mn  Mn0  1  0.00000000  0.00000000  0.00000000  1
  Mn  Mn1  1  0.00000000  0.50000000  0.50000000  1
  F  F2  1  0.99807334  0.15452005  0.21403577  1
  F  F3  1  0.99807334  0.34547995  0.71403577  1
  F  F4  1  0.49764540  0.92573064  0.20860402  1
  F  F5  1  0.50235460  0.42573064  0.29139598  1
  F  F6  1  0.49764540  0.57426936  0.70860402  1
  F  F7  1  0.50235460  0.07426936  0.79139598  1
  F  F8  1  0.00192666  0.65452005  0.28596423  1
  F  F9  1  0.00192666  0.84547995  0.78596423  1
