# generated using pymatgen
data_V2OF7
_symmetry_space_group_name_H-M   'P 1'
_cell_length_a   6.03280131
_cell_length_b   5.84342740
_cell_length_c   5.87963651
_cell_angle_alpha   63.79797103
_cell_angle_beta   58.61196987
_cell_angle_gamma   59.24133936
_symmetry_Int_Tables_number   1
_chemical_formula_structural   V2OF7
_chemical_formula_sum   'V2 O1 F7'
_cell_volume   147.64956444
_cell_formula_units_Z   1
loop_
 _symmetry_equiv_pos_site_id
 _symmetry_equiv_pos_as_xyz
  1  'x, y, z'
loop_
 _atom_site_type_symbol
 _atom_site_label
 _atom_site_symmetry_multiplicity
 _atom_site_fract_x
 _atom_site_fract_y
 _atom_site_fract_z
 _atom_site_occupancy
  V  V0  1  0.48461887  0.98173744  0.51867191  1
  V  V1  1  0.53846872  0.46436030  0.03515726  1
  O  O2  1  0.72015582  0.26830448  0.22822931  1
  F  F3  1  0.30092572  0.24812530  0.24982879  1
  F  F4  1  0.28715918  0.23091804  0.71360609  1
  F  F5  1  0.26791251  0.72566659  0.21132741  1
  F  F6  1  0.27411629  0.76734124  0.73804905  1
  F  F7  1  0.70473502  0.29310923  0.77029489  1
  F  F8  1  0.73068799  0.78297947  0.27254765  1
  F  F9  1  0.69842988  0.73865392  0.76332464  1
