# generated using pymatgen
data_Li7Mn11O24
_symmetry_space_group_name_H-M   'P 1'
_cell_length_a   5.93543123
_cell_length_b   5.93543123
_cell_length_c   15.69225436
_cell_angle_alpha   78.78286111
_cell_angle_beta   80.59284634
_cell_angle_gamma   121.78850931
_symmetry_Int_Tables_number   1
_chemical_formula_structural   Li7Mn11O24
_chemical_formula_sum   'Li7 Mn11 O24'
_cell_volume   436.85356916
_cell_formula_units_Z   1
loop_
 _symmetry_equiv_pos_site_id
 _symmetry_equiv_pos_as_xyz
  1  'x, y, z'
loop_
 _atom_site_type_symbol
 _atom_site_label
 _atom_site_symmetry_multiplicity
 _atom_site_fract_x
 _atom_site_fract_y
 _atom_site_fract_z
 _atom_site_occupancy
  Li  Li0  1  0.87692896  0.00218618  0.31044243  1
  Li  Li1  1  0.12307104  0.33114682  0.02289057  1
  Li  Li2  1  0.00000000  0.16666700  0.16666700  1
  Li  Li3  1  0.88659638  0.36881947  0.62229257  1
  Li  Li4  1  0.12925640  0.63985622  0.36544419  1
  Li  Li5  1  0.87074360  0.69347678  0.96788981  1
  Li  Li6  1  0.11340362  0.96451453  0.71104043  1
  Mn  Mn7  1  0.49655580  0.98911094  0.00716663  1
  Mn  Mn8  1  0.50000000  0.16666700  0.16666700  1
  Mn  Mn9  1  0.50245534  -0.00006902  0.49880634  1
  Mn  Mn10  1  0.50344420  0.34422206  0.32616737  1
  Mn  Mn11  1  0.00501910  0.99508505  0.49979228  1
  Mn  Mn12  1  0.00000000  0.66666700  0.16666700  1
  Mn  Mn13  1  0.50532939  0.49539533  0.49979228  1
  Mn  Mn14  1  0.49754466  0.33340202  0.83452666  1
  Mn  Mn15  1  0.50000000  0.66666700  0.66666700  1
  Mn  Mn16  1  0.99498090  0.33824795  0.83354072  1
  Mn  Mn17  1  0.49467061  0.83793767  0.83354072  1
  O  O18  1  0.72165687  0.10475004  0.08158668  1
  O  O19  1  0.25715016  0.06744048  0.08770468  1
  O  O20  1  0.74284984  0.26589252  0.24562832  1
  O  O21  1  0.74543839  0.55568295  0.09943883  1
  O  O22  1  0.27834213  0.22858296  0.25174732  1
  O  O23  1  0.76792340  0.71816323  0.25174732  1
  O  O24  1  0.75223908  0.05041837  0.57540910  1
  O  O25  1  0.70572126  0.39616798  0.42258263  1
  O  O26  1  0.23207660  0.61516977  0.08158668  1
  O  O27  1  0.26834200  0.39395297  0.41885202  1
  O  O28  1  0.25456161  0.77765005  0.23389417  1
  O  O29  1  0.24889755  0.10476410  0.57316968  1
  O  O30  1  0.74976461  0.88689101  0.43167169  1
  O  O31  1  0.75589760  0.59996350  0.57206945  1
  O  O32  1  0.75110245  0.22856990  0.76016432  1
  O  O33  1  0.74133424  0.38422051  0.91075037  1
  O  O34  1  0.29876344  0.59694173  0.57540910  1
  O  O35  1  0.70123656  0.73639127  0.75792390  1
  O  O36  1  0.24776092  0.28291563  0.75792390  1
  O  O37  1  0.25866576  0.94911349  0.42258263  1
  O  O38  1  0.24410240  0.73336950  0.76126355  1
  O  O39  1  0.25023539  0.44644199  0.90166131  1
  O  O40  1  0.73165800  0.93938003  0.91448098  1
  O  O41  1  0.29427874  0.93716502  0.91075037  1
