# generated using pymatgen
data_CrCo3O8
_symmetry_space_group_name_H-M   'P 1'
_cell_length_a   5.86843051
_cell_length_b   5.73942259
_cell_length_c   5.73942250
_cell_angle_alpha   60.00000021
_cell_angle_beta   60.72457695
_cell_angle_gamma   90.00000543
_symmetry_Int_Tables_number   1
_chemical_formula_structural   CrCo3O8
_chemical_formula_sum   'Cr1 Co3 O8'
_cell_volume   138.17004779
_cell_formula_units_Z   1
loop_
 _symmetry_equiv_pos_site_id
 _symmetry_equiv_pos_as_xyz
  1  'x, y, z'
loop_
 _atom_site_type_symbol
 _atom_site_label
 _atom_site_symmetry_multiplicity
 _atom_site_fract_x
 _atom_site_fract_y
 _atom_site_fract_z
 _atom_site_occupancy
  Cr  Cr0  1  0.00000000  0.00000000  0.00000000  1
  Co  Co1  1  0.00000000  0.00000000  0.50000000  1
  Co  Co2  1  0.00000000  0.50000000  0.00000000  1
  Co  Co3  1  0.00000000  0.50000000  0.50000000  1
  O  O4  1  0.19571931  0.23554308  0.03982377  1
  O  O5  1  0.19571931  0.23554308  0.52891284  1
  O  O6  1  0.19571931  0.72463215  0.03982377  1
  O  O7  1  0.19559474  0.73186525  0.53626950  1
  O  O8  1  0.80440526  0.26813475  0.46373050  1
  O  O9  1  0.80428069  0.27536785  0.96017623  1
  O  O10  1  0.80428069  0.76445692  0.47108716  1
  O  O11  1  0.80428069  0.76445692  0.96017623  1
