# generated using pymatgen
data_Li2Cu2Si4O11
_symmetry_space_group_name_H-M   'P 1'
_cell_length_a   8.56061521
_cell_length_b   7.67723188
_cell_length_c   7.10131132
_cell_angle_alpha   109.85187591
_cell_angle_beta   102.84718530
_cell_angle_gamma   96.96163324
_symmetry_Int_Tables_number   1
_chemical_formula_structural   Li2Cu2Si4O11
_chemical_formula_sum   'Li4 Cu4 Si8 O22'
_cell_volume   418.02425071
_cell_formula_units_Z   2
loop_
 _symmetry_equiv_pos_site_id
 _symmetry_equiv_pos_as_xyz
  1  'x, y, z'
loop_
 _atom_site_type_symbol
 _atom_site_label
 _atom_site_symmetry_multiplicity
 _atom_site_fract_x
 _atom_site_fract_y
 _atom_site_fract_z
 _atom_site_occupancy
  Li  Li0  1  0.20015789  0.80253004  0.61192256  1
  Li  Li1  1  0.16093804  0.74207800  0.14849426  1
  Li  Li2  1  0.83906196  0.25792200  0.85150574  1
  Li  Li3  1  0.79984211  0.19746996  0.38807744  1
  Cu  Cu4  1  0.39044041  0.61420357  0.87728679  1
  Cu  Cu5  1  0.39986141  0.61121131  0.36754840  1
  Cu  Cu6  1  0.60013859  0.38878869  0.63245160  1
  Cu  Cu7  1  0.60955959  0.38579643  0.12271321  1
  Si  Si8  1  0.03184023  0.39047656  0.24202456  1
  Si  Si9  1  0.23312717  0.21567803  0.95621782  1
  Si  Si10  1  0.22140795  0.21682038  0.52143712  1
  Si  Si11  1  0.59582618  0.97948759  0.77699998  1
  Si  Si12  1  0.40417382  0.02051241  0.22300002  1
  Si  Si13  1  0.77859205  0.78317962  0.47856288  1
  Si  Si14  1  0.76687283  0.78432197  0.04378218  1
  Si  Si15  1  0.96815977  0.60952344  0.75797544  1
  O  O16  1  0.15672276  0.60265304  0.82096977  1
  O  O17  1  0.05549195  0.26597213  0.39649990  1
  O  O18  1  0.16122031  0.59357438  0.32889988  1
  O  O19  1  0.06258035  0.25181883  0.01941677  1
  O  O20  1  0.17833078  0.14465073  0.70018527  1
  O  O21  1  0.26791861  0.03083994  0.36332481  1
  O  O22  1  0.43518969  0.81008111  0.65130034  1
  O  O23  1  0.36951119  0.40141120  0.60378932  1
  O  O24  1  0.42512750  0.80362394  0.15977132  1
  O  O25  1  0.29418479  0.03852128  0.00651966  1
  O  O26  1  0.37550725  0.40659556  0.08332810  1
  O  O27  1  0.62449275  0.59340444  0.91667190  1
  O  O28  1  0.70581521  0.96147872  0.99348034  1
  O  O29  1  0.57487250  0.19637606  0.84022868  1
  O  O30  1  0.63048881  0.59858880  0.39621068  1
  O  O31  1  0.56481031  0.18991889  0.34869966  1
  O  O32  1  0.73208139  0.96916006  0.63667519  1
  O  O33  1  0.82166922  0.85534927  0.29981473  1
  O  O34  1  0.93741965  0.74818117  0.98058323  1
  O  O35  1  0.83877969  0.40642562  0.67110012  1
  O  O36  1  0.94450805  0.73402787  0.60350010  1
  O  O37  1  0.84327624  0.39734696  0.17903023  1
