# generated using pymatgen
data_K4Fe2O7
_symmetry_space_group_name_H-M   'P 1'
_cell_length_a   23.84153886
_cell_length_b   6.05834372
_cell_length_c   10.50878637
_cell_angle_alpha   90.00000000
_cell_angle_beta   90.00000000
_cell_angle_gamma   90.00000000
_symmetry_Int_Tables_number   1
_chemical_formula_structural   K4Fe2O7
_chemical_formula_sum   'K24 Fe12 O42'
_cell_volume   1517.89159626
_cell_formula_units_Z   6
loop_
 _symmetry_equiv_pos_site_id
 _symmetry_equiv_pos_as_xyz
  1  'x, y, z'
loop_
 _atom_site_type_symbol
 _atom_site_label
 _atom_site_symmetry_multiplicity
 _atom_site_fract_x
 _atom_site_fract_y
 _atom_site_fract_z
 _atom_site_occupancy
  K  K0  1  0.00532579  0.75000000  0.29580844  1
  K  K1  1  0.05164555  0.25000000  0.08944038  1
  K  K2  1  0.10308587  0.75000000  0.58436665  1
  K  K3  1  0.16472642  0.25000000  0.78632214  1
  K  K4  1  0.17046818  0.75000000  0.21008991  1
  K  K5  1  0.23085692  0.25000000  0.41906105  1
  K  K6  1  0.27376663  0.75000000  0.92094310  1
  K  K7  1  0.32822578  0.25000000  0.70778954  1
  K  K8  1  0.33453994  0.75000000  0.28947019  1
  K  K9  1  0.38788440  0.25000000  0.08345776  1
  K  K10  1  0.45312110  0.75000000  0.58122657  1
  K  K11  1  0.49639023  0.25000000  0.79049403  1
  K  K12  1  0.50532579  0.75000000  0.20419156  1
  K  K13  1  0.55164555  0.25000000  0.41055962  1
  K  K14  1  0.60308587  0.75000000  0.91563335  1
  K  K15  1  0.66472642  0.25000000  0.71367786  1
  K  K16  1  0.67046818  0.75000000  0.28991009  1
  K  K17  1  0.73085692  0.25000000  0.08093895  1
  K  K18  1  0.77376663  0.75000000  0.57905690  1
  K  K19  1  0.82822578  0.25000000  0.79221046  1
  K  K20  1  0.83453994  0.75000000  0.21052981  1
  K  K21  1  0.88788440  0.25000000  0.41654224  1
  K  K22  1  0.95312110  0.75000000  0.91877343  1
  K  K23  1  0.99639023  0.25000000  0.70950597  1
  Fe  Fe24  1  0.09183297  0.25000000  0.41680973  1
  Fe  Fe25  1  0.09040407  0.75000000  0.92472861  1
  Fe  Fe26  1  0.25791032  0.25000000  0.07702762  1
  Fe  Fe27  1  0.24110870  0.75000000  0.57703860  1
  Fe  Fe28  1  0.41061299  0.25000000  0.42160210  1
  Fe  Fe29  1  0.42325027  0.75000000  0.92242605  1
  Fe  Fe30  1  0.59183297  0.25000000  0.08319027  1
  Fe  Fe31  1  0.59040407  0.75000000  0.57527139  1
  Fe  Fe32  1  0.75791032  0.25000000  0.42297238  1
  Fe  Fe33  1  0.74110870  0.75000000  0.92296140  1
  Fe  Fe34  1  0.91061299  0.25000000  0.07839790  1
  Fe  Fe35  1  0.92325027  0.75000000  0.57757395  1
  O  O36  1  0.06457497  0.52508148  0.85402653  1
  O  O37  1  0.06457497  0.97491852  0.85402653  1
  O  O38  1  0.06686049  0.75000000  0.07430944  1
  O  O39  1  0.09294061  0.25000000  0.57610649  1
  O  O40  1  0.09394730  0.48667475  0.33596131  1
  O  O41  1  0.09394730  0.01332525  0.33596131  1
  O  O42  1  0.15916066  0.75000000  0.92110820  1
  O  O43  1  0.23937522  0.98973479  0.65472475  1
  O  O44  1  0.23937522  0.51026521  0.65472475  1
  O  O45  1  0.23785079  0.75000000  0.41845977  1
  O  O46  1  0.26282055  0.25000000  0.91867302  1
  O  O47  1  0.26187336  0.01098289  0.15496618  1
  O  O48  1  0.26187336  0.48901711  0.15496618  1
  O  O49  1  0.34182853  0.25000000  0.41761464  1
  O  O50  1  0.39926468  0.52421934  0.84999839  1
  O  O51  1  0.39926468  0.97578066  0.84999839  1
  O  O52  1  0.40139588  0.75000000  0.07348953  1
  O  O53  1  0.43339220  0.25000000  0.57218060  1
  O  O54  1  0.43578699  0.02552585  0.34878732  1
  O  O55  1  0.43578699  0.47447415  0.34878732  1
  O  O56  1  0.49251209  0.75000000  0.91968128  1
  O  O57  1  0.56457497  0.52508148  0.64597347  1
  O  O58  1  0.56457497  0.97491852  0.64597347  1
  O  O59  1  0.56686049  0.75000000  0.42569056  1
  O  O60  1  0.59294061  0.25000000  0.92389351  1
  O  O61  1  0.59394730  0.01332525  0.16403869  1
  O  O62  1  0.59394730  0.48667475  0.16403869  1
  O  O63  1  0.65915966  0.75000000  0.57889180  1
  O  O64  1  0.73937522  0.51026521  0.84527525  1
  O  O65  1  0.73937522  0.98973479  0.84527525  1
  O  O66  1  0.73785079  0.75000000  0.08154023  1
  O  O67  1  0.76282055  0.25000000  0.58132698  1
  O  O68  1  0.76187336  0.01098289  0.34503382  1
  O  O69  1  0.76187336  0.48901711  0.34503382  1
  O  O70  1  0.84182853  0.25000000  0.08238536  1
  O  O71  1  0.89926468  0.52421934  0.65000161  1
  O  O72  1  0.89926468  0.97578066  0.65000161  1
  O  O73  1  0.90139588  0.75000000  0.42651047  1
  O  O74  1  0.93339220  0.25000000  0.92781940  1
  O  O75  1  0.93578699  0.02552585  0.15121268  1
  O  O76  1  0.93578699  0.47447415  0.15121268  1
  O  O77  1  0.99251209  0.75000000  0.58031872  1
