# generated using pymatgen
data_LiMnPO4
_symmetry_space_group_name_H-M   'P 1'
_cell_length_a   5.09864118
_cell_length_b   5.09864118
_cell_length_c   6.40963665
_cell_angle_alpha   90.00000000
_cell_angle_beta   90.00000000
_cell_angle_gamma   67.11806987
_symmetry_Int_Tables_number   1
_chemical_formula_structural   LiMnPO4
_chemical_formula_sum   'Li2 Mn2 P2 O8'
_cell_volume   153.51371821
_cell_formula_units_Z   2
loop_
 _symmetry_equiv_pos_site_id
 _symmetry_equiv_pos_as_xyz
  1  'x, y, z'
loop_
 _atom_site_type_symbol
 _atom_site_label
 _atom_site_symmetry_multiplicity
 _atom_site_fract_x
 _atom_site_fract_y
 _atom_site_fract_z
 _atom_site_occupancy
  Li  Li0  1  0.50000000  0.50000000  0.00000000  1
  Li  Li1  1  0.50000000  0.50000000  0.50000000  1
  Mn  Mn2  1  0.18053683  0.18053683  0.25000000  1
  Mn  Mn3  1  0.81946317  0.81946317  0.75000000  1
  P  P4  1  0.14858034  0.14858034  0.75000000  1
  P  P5  1  0.85141966  0.85141966  0.25000000  1
  O  O6  1  0.18457216  0.74035399  0.25000000  1
  O  O7  1  0.25964601  0.81542784  0.75000000  1
  O  O8  1  0.25719139  0.25719139  0.55627898  1
  O  O9  1  0.25719139  0.25719139  0.94372102  1
  O  O10  1  0.74280861  0.74280861  0.05627898  1
  O  O11  1  0.74280861  0.74280861  0.44372102  1
  O  O12  1  0.74035399  0.18457216  0.25000000  1
  O  O13  1  0.81542784  0.25964601  0.75000000  1
