# generated using pymatgen
data_B3H7C2S
_symmetry_space_group_name_H-M   'P 1'
_cell_length_a   8.52329869
_cell_length_b   8.52329869
_cell_length_c   13.69538774
_cell_angle_alpha   102.79520529
_cell_angle_beta   102.79520529
_cell_angle_gamma   108.11420249
_symmetry_Int_Tables_number   1
_chemical_formula_structural   B3H7C2S
_chemical_formula_sum   'B18 H42 C12 S6'
_cell_volume   875.72473615
_cell_formula_units_Z   6
loop_
 _symmetry_equiv_pos_site_id
 _symmetry_equiv_pos_as_xyz
  1  'x, y, z'
loop_
 _atom_site_type_symbol
 _atom_site_label
 _atom_site_symmetry_multiplicity
 _atom_site_fract_x
 _atom_site_fract_y
 _atom_site_fract_z
 _atom_site_occupancy
  B  B0  1  0.53824115  0.45392509  0.34511635  1
  B  B1  1  0.45392509  0.53824115  0.84511635  1
  B  B2  1  0.50549979  0.27308894  0.24093625  1
  B  B3  1  0.27308894  0.50549979  0.74093625  1
  B  B4  1  0.32662894  0.32324576  0.25693249  1
  B  B5  1  0.32324576  0.32662894  0.75693249  1
  B  B6  1  0.39222275  0.55093015  0.30059350  1
  B  B7  1  0.55093015  0.39222275  0.80059350  1
  B  B8  1  0.60966628  0.64404528  0.30793385  1
  B  B9  1  0.64404528  0.60966628  0.80793385  1
  B  B10  1  0.68312629  0.46763266  0.26776358  1
  B  B11  1  0.46763266  0.68312629  0.76776358  1
  B  B12  1  0.55513263  0.34435012  0.13330940  1
  B  B13  1  0.34435012  0.55513263  0.63330940  1
  B  B14  1  0.63350853  0.58493281  0.18165721  1
  B  B15  1  0.58493281  0.63350853  0.68165721  1
  B  B16  1  0.44547563  0.62656850  0.19732982  1
  B  B17  1  0.62656850  0.44547563  0.69732982  1
  H  H18  1  0.93410945  0.42906073  0.95261741  1
  H  H19  1  0.42906073  0.93410945  0.45261741  1
  H  H20  1  0.15176937  0.58696477  0.00582289  1
  H  H21  1  0.58696477  0.15176937  0.50582289  1
  H  H22  1  0.11093387  0.36450082  0.93885283  1
  H  H23  1  0.36450082  0.11093387  0.43885283  1
  H  H24  1  0.19701909  0.85270924  0.91553179  1
  H  H25  1  0.85270924  0.19701909  0.41553179  1
  H  H26  1  0.35903394  0.05191682  0.92351173  1
  H  H27  1  0.05191682  0.35903394  0.42351173  1
  H  H28  1  0.39758482  0.94295125  0.01961494  1
  H  H29  1  0.94295125  0.39758482  0.51961494  1
  H  H30  1  0.11132248  0.90735385  0.23396170  1
  H  H31  1  0.90735385  0.11132248  0.73396170  1
  H  H32  1  0.99169768  0.89430434  0.32780630  1
  H  H33  1  0.89430434  0.99169768  0.82780630  1
  H  H34  1  0.04826206  0.71414971  0.27161948  1
  H  H35  1  0.71414971  0.04826206  0.77161948  1
  H  H36  1  0.88542516  0.01038727  0.12971218  1
  H  H37  1  0.01038727  0.88542516  0.62971218  1
  H  H38  1  0.66039751  0.87467065  0.06588909  1
  H  H39  1  0.87467065  0.66039751  0.56588909  1
  H  H40  1  0.73853995  0.97278234  0.20705779  1
  H  H41  1  0.97278234  0.73853995  0.70705779  1
  H  H42  1  0.57963804  0.45372554  0.43424560  1
  H  H43  1  0.45372554  0.57963804  0.93424560  1
  H  H44  1  0.51578478  0.13938861  0.24818883  1
  H  H45  1  0.13938861  0.51578478  0.74818883  1
  H  H46  1  0.20680489  0.22881176  0.27371598  1
  H  H47  1  0.22881176  0.20680489  0.77371598  1
  H  H48  1  0.31450497  0.60862946  0.35159393  1
  H  H49  1  0.60862946  0.31450497  0.85159393  1
  H  H50  1  0.70931363  0.78119918  0.37004226  1
  H  H51  1  0.78119918  0.70931363  0.87004226  1
  H  H52  1  0.82743365  0.47533191  0.30367812  1
  H  H53  1  0.47533191  0.82743365  0.80367812  1
  H  H54  1  0.61044205  0.26297504  0.07716684  1
  H  H55  1  0.26297504  0.61044205  0.57716684  1
  H  H56  1  0.40871187  0.74507150  0.18125504  1
  H  H57  1  0.74507150  0.40871187  0.68125504  1
  H  H58  1  0.52989759  0.47741377  0.09281808  1
  H  H59  1  0.47741377  0.52989759  0.59281808  1
  C  C60  1  0.06966641  0.45043541  0.99068643  1
  C  C61  1  0.45043541  0.06966641  0.49068643  1
  C  C62  1  0.29978453  0.97460167  0.96967252  1
  C  C63  1  0.97460167  0.29978453  0.46967252  1
  C  C64  1  0.01167564  0.82184519  0.25796562  1
  C  C65  1  0.82184519  0.01167564  0.75796562  1
  C  C66  1  0.77030352  0.91678757  0.13759135  1
  C  C67  1  0.91678757  0.77030352  0.63759135  1
  C  C68  1  0.29653911  0.43502972  0.16766057  1
  C  C69  1  0.43502972  0.29653911  0.66766057  1
  C  C70  1  0.35515844  0.27512022  0.13515283  1
  C  C71  1  0.27512022  0.35515844  0.63515283  1
  S  S72  1  0.07272741  0.39935652  0.11213829  1
  S  S73  1  0.39935652  0.07272741  0.61213829  1
  S  S74  1  0.18616680  0.07689009  0.04261477  1
  S  S75  1  0.07689009  0.18616680  0.54261477  1
  S  S76  1  0.81862081  0.72758424  0.14530235  1
  S  S77  1  0.72758424  0.81862081  0.64530235  1
