# generated using pymatgen
data_Ba6CaI14
_symmetry_space_group_name_H-M   'P 1'
_cell_length_a   15.97622704
_cell_length_b   15.97622704
_cell_length_c   8.47072361
_cell_angle_alpha   90.00000000
_cell_angle_beta   90.00000000
_cell_angle_gamma   98.41038541
_symmetry_Int_Tables_number   1
_chemical_formula_structural   Ba6CaI14
_chemical_formula_sum   'Ba12 Ca2 I28'
_cell_volume   2138.81484893
_cell_formula_units_Z   2
loop_
 _symmetry_equiv_pos_site_id
 _symmetry_equiv_pos_as_xyz
  1  'x, y, z'
loop_
 _atom_site_type_symbol
 _atom_site_label
 _atom_site_symmetry_multiplicity
 _atom_site_fract_x
 _atom_site_fract_y
 _atom_site_fract_z
 _atom_site_occupancy
  Ba  Ba0  1  0.05172791  0.75298371  0.31183683  1
  Ba  Ba1  1  0.24701629  0.94827209  0.68816317  1
  Ba  Ba2  1  0.25298371  0.55172791  0.18816317  1
  Ba  Ba3  1  0.44827209  0.74701629  0.81183683  1
  Ba  Ba4  1  0.69299708  0.69299708  0.26036461  1
  Ba  Ba5  1  0.19299708  0.19299708  0.23963539  1
  Ba  Ba6  1  0.30700292  0.30700292  0.73963539  1
  Ba  Ba7  1  0.80700292  0.80700292  0.76036461  1
  Ba  Ba8  1  0.74701629  0.44827209  0.81183683  1
  Ba  Ba9  1  0.55172791  0.25298371  0.18816317  1
  Ba  Ba10  1  0.75298371  0.05172791  0.31183683  1
  Ba  Ba11  1  0.94827209  0.24701629  0.68816317  1
  Ca  Ca12  1  0.00000000  0.00000000  0.00000000  1
  Ca  Ca13  1  0.50000000  0.50000000  0.50000000  1
  I  I14  1  0.14945464  0.96602351  0.22895074  1
  I  I15  1  0.03397649  0.85054536  0.77104926  1
  I  I16  1  0.25415530  0.74584470  0.00000000  1
  I  I17  1  0.45091978  0.95091978  0.75000000  1
  I  I18  1  0.04908022  0.54908022  0.25000000  1
  I  I19  1  0.24584470  0.75415530  0.50000000  1
  I  I20  1  0.16081545  0.36273763  0.00474342  1
  I  I21  1  0.13726237  0.33918455  0.50474342  1
  I  I22  1  0.63726237  0.83918455  0.99525658  1
  I  I23  1  0.66081545  0.86273763  0.49525658  1
  I  I24  1  0.46602351  0.64945464  0.27104926  1
  I  I25  1  0.35054536  0.53397649  0.72895074  1
  I  I26  1  0.12222705  0.12222705  0.79553251  1
  I  I27  1  0.37777295  0.37777295  0.29553251  1
  I  I28  1  0.62222705  0.62222705  0.70446749  1
  I  I29  1  0.87777295  0.87777295  0.20446749  1
  I  I30  1  0.53397649  0.35054536  0.72895074  1
  I  I31  1  0.64945464  0.46602351  0.27104926  1
  I  I32  1  0.83918455  0.63726237  0.99525658  1
  I  I33  1  0.33918455  0.13726237  0.50474342  1
  I  I34  1  0.36273763  0.16081545  0.00474342  1
  I  I35  1  0.86273763  0.66081545  0.49525658  1
  I  I36  1  0.75415530  0.24584470  0.50000000  1
  I  I37  1  0.54908022  0.04908022  0.25000000  1
  I  I38  1  0.95091978  0.45091978  0.75000000  1
  I  I39  1  0.74584470  0.25415530  0.00000000  1
  I  I40  1  0.96602351  0.14945464  0.22895074  1
  I  I41  1  0.85054536  0.03397649  0.77104926  1
