# generated using pymatgen
data_Li2Ni4OF8
_symmetry_space_group_name_H-M   'P 1'
_cell_length_a   5.15724918
_cell_length_b   5.11588738
_cell_length_c   14.05720074
_cell_angle_alpha   90.03339396
_cell_angle_beta   90.40106480
_cell_angle_gamma   119.74140560
_symmetry_Int_Tables_number   1
_chemical_formula_structural   Li2Ni4OF8
_chemical_formula_sum   'Li4 Ni8 O2 F16'
_cell_volume   322.01713031
_cell_formula_units_Z   2
loop_
 _symmetry_equiv_pos_site_id
 _symmetry_equiv_pos_as_xyz
  1  'x, y, z'
loop_
 _atom_site_type_symbol
 _atom_site_label
 _atom_site_symmetry_multiplicity
 _atom_site_fract_x
 _atom_site_fract_y
 _atom_site_fract_z
 _atom_site_occupancy
  Li  Li0  1  0.00261487  0.99718748  0.15358430  1
  Li  Li1  1  0.01960189  0.02142669  0.35493034  1
  Li  Li2  1  0.00324614  0.00528603  0.65391494  1
  Li  Li3  1  0.01640575  0.99344829  0.85443685  1
  Ni  Ni4  1  0.34080334  0.65340256  0.31944474  1
  Ni  Ni5  1  0.32393347  0.66919049  0.01236572  1
  Ni  Ni6  1  0.33822195  0.68415930  0.81967241  1
  Ni  Ni7  1  0.32726547  0.65414728  0.51215629  1
  Ni  Ni8  1  0.66524571  0.32922855  0.18134330  1
  Ni  Ni9  1  0.64709091  0.30531850  0.97568897  1
  Ni  Ni10  1  0.66557260  0.33526705  0.68102928  1
  Ni  Ni11  1  0.65045120  0.34140975  0.47547868  1
  O  O12  1  0.32845068  0.95211425  0.91823087  1
  O  O13  1  0.33201493  0.37621823  0.41789426  1
  F  F14  1  0.99716577  0.68865649  0.74728681  1
  F  F15  1  0.02529134  0.67713239  0.41693164  1
  F  F16  1  0.99946274  0.30948111  0.24681416  1
  F  F17  1  0.02164506  0.34439229  0.91634795  1
  F  F18  1  0.31729532  0.32405639  0.74733882  1
  F  F19  1  0.35653280  0.33341546  0.08433841  1
  F  F20  1  0.64391636  0.98481126  0.41502051  1
  F  F21  1  0.31806789  0.99167200  0.24748254  1
  F  F22  1  0.35914503  0.02336793  0.58380093  1
  F  F23  1  0.64062516  0.65591733  0.91545048  1
  F  F24  1  0.69590076  0.68682107  0.24792240  1
  F  F25  1  0.66975620  0.64625679  0.58542433  1
  F  F26  1  0.95862757  0.62757397  0.08252762  1
  F  F27  1  0.66584548  0.01969672  0.08598733  1
  F  F28  1  0.69158324  0.00530780  0.74732937  1
  F  F29  1  0.96274338  0.33134555  0.58312672  1
