# generated using pymatgen
data_Na2Co6O7
_symmetry_space_group_name_H-M   'P 1'
_cell_length_a   10.87697643
_cell_length_b   10.83470840
_cell_length_c   3.24817091
_cell_angle_alpha   90.01436465
_cell_angle_beta   90.00011922
_cell_angle_gamma   89.99552825
_symmetry_Int_Tables_number   1
_chemical_formula_structural   Na2Co6O7
_chemical_formula_sum   'Na4 Co12 O14'
_cell_volume   382.79325090
_cell_formula_units_Z   2
loop_
 _symmetry_equiv_pos_site_id
 _symmetry_equiv_pos_as_xyz
  1  'x, y, z'
loop_
 _atom_site_type_symbol
 _atom_site_label
 _atom_site_symmetry_multiplicity
 _atom_site_fract_x
 _atom_site_fract_y
 _atom_site_fract_z
 _atom_site_occupancy
  Na  Na0  1  0.13924439  0.86125931  0.98478812  1
  Na  Na1  1  0.36015840  0.36118391  0.48466901  1
  Na  Na2  1  0.63996536  0.63888375  0.48462005  1
  Na  Na3  1  0.86042821  0.13883475  0.98448836  1
  Co  Co4  1  0.08826978  0.34547333  0.98815939  1
  Co  Co5  1  0.11771199  0.12169270  0.49727680  1
  Co  Co6  1  0.15433229  0.58791744  0.48830030  1
  Co  Co7  1  0.34566020  0.08775821  0.98834354  1
  Co  Co8  1  0.38257620  0.62172938  0.99673356  1
  Co  Co9  1  0.41148664  0.84527607  0.48799867  1
  Co  Co10  1  0.58836865  0.15470382  0.48801528  1
  Co  Co11  1  0.61772835  0.37845224  0.99718111  1
  Co  Co12  1  0.65436939  0.91218783  0.98821526  1
  Co  Co13  1  0.84570266  0.41202606  0.48831800  1
  Co  Co14  1  0.88162514  0.87872779  0.49775842  1
  Co  Co15  1  0.91198098  0.65444741  0.98810066  1
  O  O16  1  -0.00016518  0.00002582  0.63596745  1
  O  O17  1  0.01043187  0.69662940  0.48808195  1
  O  O18  1  0.19607402  0.48895825  0.98853899  1
  O  O19  1  0.19737511  0.19559274  0.00298142  1
  O  O20  1  0.30260119  0.69554487  0.50339601  1
  O  O21  1  0.30398541  0.98896601  0.48855935  1
  O  O22  1  0.48959556  0.19662200  0.98803785  1
  O  O23  1  0.50010383  0.50003444  0.13800859  1
  O  O24  1  0.51048044  0.80330679  0.98796245  1
  O  O25  1  0.69605748  0.01100310  0.48851540  1
  O  O26  1  0.69738977  0.30435481  0.50352659  1
  O  O27  1  0.80285225  0.80426225  0.00277888  1
  O  O28  1  0.80395258  0.51094772  0.98868882  1
  O  O29  1  0.98965704  0.30319780  0.48808973  1
