# generated using pymatgen
data_LiNiPO4
_symmetry_space_group_name_H-M   'P 1'
_cell_length_a   8.48745547
_cell_length_b   7.69323179
_cell_length_c   15.25424460
_cell_angle_alpha   90.00000000
_cell_angle_beta   91.39115666
_cell_angle_gamma   90.00000000
_symmetry_Int_Tables_number   1
_chemical_formula_structural   LiNiPO4
_chemical_formula_sum   'Li12 Ni12 P12 O48'
_cell_volume   995.74699571
_cell_formula_units_Z   12
loop_
 _symmetry_equiv_pos_site_id
 _symmetry_equiv_pos_as_xyz
  1  'x, y, z'
loop_
 _atom_site_type_symbol
 _atom_site_label
 _atom_site_symmetry_multiplicity
 _atom_site_fract_x
 _atom_site_fract_y
 _atom_site_fract_z
 _atom_site_occupancy
  Li  Li0  1  0.21330942  0.98334245  0.93691434  1
  Li  Li1  1  0.22142353  0.03194495  0.58577468  1
  Li  Li2  1  0.25783856  0.86505793  0.24362302  1
  Li  Li3  1  0.24216144  0.36505793  0.25637698  1
  Li  Li4  1  0.27857647  0.53194495  0.91422532  1
  Li  Li5  1  0.28669058  0.48334245  0.56308566  1
  Li  Li6  1  0.71330942  0.51665755  0.43691434  1
  Li  Li7  1  0.72142353  0.46805505  0.08577468  1
  Li  Li8  1  0.75783856  0.63494207  0.74362302  1
  Li  Li9  1  0.74216144  0.13494207  0.75637698  1
  Li  Li10  1  0.77857647  0.96805505  0.41422532  1
  Li  Li11  1  0.78669058  0.01665755  0.06308566  1
  Ni  Ni12  1  0.05227222  0.66975272  0.40166614  1
  Ni  Ni13  1  0.08585236  0.82784852  0.75677025  1
  Ni  Ni14  1  0.08028698  0.66671076  0.08115573  1
  Ni  Ni15  1  0.41971302  0.16671076  0.41884427  1
  Ni  Ni16  1  0.41414764  0.32784852  0.74322975  1
  Ni  Ni17  1  0.44772778  0.16975272  0.09833386  1
  Ni  Ni18  1  0.55227222  0.83024728  0.90166614  1
  Ni  Ni19  1  0.58585236  0.67215148  0.25677025  1
  Ni  Ni20  1  0.58028698  0.83328924  0.58115573  1
  Ni  Ni21  1  0.91971302  0.33328924  0.91884427  1
  Ni  Ni22  1  0.91414764  0.17215148  0.24322975  1
  Ni  Ni23  1  0.94772778  0.33024728  0.59833386  1
  P  P24  1  0.05903116  0.26070305  0.41281215  1
  P  P25  1  0.08709662  0.22382470  0.76876544  1
  P  P26  1  0.10387960  0.26645634  0.07530496  1
  P  P27  1  0.39612040  0.76645634  0.42469504  1
  P  P28  1  0.41290338  0.72382470  0.73123456  1
  P  P29  1  0.44096884  0.76070305  0.08718785  1
  P  P30  1  0.55903116  0.23929695  0.91281215  1
  P  P31  1  0.58709662  0.27617530  0.26876544  1
  P  P32  1  0.60387960  0.23354366  0.57530496  1
  P  P33  1  0.89612040  0.73354366  0.92469504  1
  P  P34  1  0.91290338  0.77617530  0.23123456  1
  P  P35  1  0.94096884  0.73929695  0.58718785  1
  O  O36  1  0.03362312  0.56804931  0.60436403  1
  O  O37  1  0.03709114  0.88856152  0.63181201  1
  O  O38  1  0.05880771  0.78426040  0.96643943  1
  O  O39  1  0.09225187  0.05059884  0.82082512  1
  O  O40  1  0.10401879  0.37196680  0.83701501  1
  O  O41  1  0.07428589  0.75959116  0.28128151  1
  O  O42  1  0.08400802  0.22514072  0.51181031  1
  O  O43  1  0.08511595  0.28094684  0.17604613  1
  O  O44  1  0.15956146  0.44384001  0.03820774  1
  O  O45  1  0.21512825  0.22888352  0.69759677  1
  O  O46  1  0.22337028  0.27214369  0.37052882  1
  O  O47  1  0.22995881  0.13111173  0.05022038  1
  O  O48  1  0.27004119  0.63111173  0.44977962  1
  O  O49  1  0.27662972  0.77214369  0.12947118  1
  O  O50  1  0.28487175  0.72888352  0.80240323  1
  O  O51  1  0.34043854  0.94384001  0.46179226  1
  O  O52  1  0.41488405  0.78094684  0.32395387  1
  O  O53  1  0.41599198  0.72514072  0.98818969  1
  O  O54  1  0.39598121  0.87196680  0.66298499  1
  O  O55  1  0.42571411  0.25959116  0.21871849  1
  O  O56  1  0.40774813  0.55059884  0.67917488  1
  O  O57  1  0.44119229  0.28426040  0.53356057  1
  O  O58  1  0.46290886  0.38856152  0.86818799  1
  O  O59  1  0.46637688  0.06804931  0.89563597  1
  O  O60  1  0.53362312  0.93195069  0.10436403  1
  O  O61  1  0.53709114  0.61143848  0.13181201  1
  O  O62  1  0.55880771  0.71573960  0.46643943  1
  O  O63  1  0.59225187  0.44940116  0.32082512  1
  O  O64  1  0.57428589  0.74040884  0.78128151  1
  O  O65  1  0.60401879  0.12803320  0.33701501  1
  O  O66  1  0.58400802  0.27485928  0.01181031  1
  O  O67  1  0.58511595  0.21905316  0.67604613  1
  O  O68  1  0.65956146  0.05615999  0.53820774  1
  O  O69  1  0.71512825  0.27111648  0.19759677  1
  O  O70  1  0.72337028  0.22785631  0.87052882  1
  O  O71  1  0.72995881  0.36888827  0.55022038  1
  O  O72  1  0.77004119  0.86888827  0.94977962  1
  O  O73  1  0.77662972  0.72785631  0.62947118  1
  O  O74  1  0.78487175  0.77111648  0.30240323  1
  O  O75  1  0.84043854  0.55615999  0.96179226  1
  O  O76  1  0.91488405  0.71905316  0.82395387  1
  O  O77  1  0.91599198  0.77485928  0.48818969  1
  O  O78  1  0.92571411  0.24040884  0.71871849  1
  O  O79  1  0.89598121  0.62803320  0.16298499  1
  O  O80  1  0.90774813  0.94940116  0.17917488  1
  O  O81  1  0.94119229  0.21573960  0.03356057  1
  O  O82  1  0.96290886  0.11143848  0.36818799  1
  O  O83  1  0.96637688  0.43195069  0.39563597  1
