# generated using pymatgen
data_Cr2OF2
_symmetry_space_group_name_H-M   'P 1'
_cell_length_a   6.01878657
_cell_length_b   6.46813715
_cell_length_c   6.01987544
_cell_angle_alpha   71.73300143
_cell_angle_beta   71.64798339
_cell_angle_gamma   108.48313778
_symmetry_Int_Tables_number   1
_chemical_formula_structural   Cr2OF2
_chemical_formula_sum   'Cr4 O2 F4'
_cell_volume   187.41711419
_cell_formula_units_Z   2
loop_
 _symmetry_equiv_pos_site_id
 _symmetry_equiv_pos_as_xyz
  1  'x, y, z'
loop_
 _atom_site_type_symbol
 _atom_site_label
 _atom_site_symmetry_multiplicity
 _atom_site_fract_x
 _atom_site_fract_y
 _atom_site_fract_z
 _atom_site_occupancy
  Cr  Cr0  1  0.50545046  0.00126993  0.00069633  1
  Cr  Cr1  1  0.49866374  0.00060322  0.50375434  1
  Cr  Cr2  1  0.50125764  0.50124572  0.50399957  1
  Cr  Cr3  1  0.00230289  0.50160195  0.49850241  1
  O  O4  1  0.62675682  0.25106663  0.62843945  1
  O  O5  1  0.37657259  0.75104725  0.37567356  1
  F  F6  1  0.62125317  0.24774219  0.13190853  1
  F  F7  1  0.87534601  0.74912636  0.37619030  1
  F  F8  1  0.12894701  0.25426988  0.62359227  1
  F  F9  1  0.38274267  0.75312386  0.87338424  1
