# generated using pymatgen
data_LiVSiO4
_symmetry_space_group_name_H-M   'P 1'
_cell_length_a   10.49927645
_cell_length_b   6.86748140
_cell_length_c   5.07263605
_cell_angle_alpha   90.00000000
_cell_angle_beta   90.00000000
_cell_angle_gamma   90.00000000
_symmetry_Int_Tables_number   1
_chemical_formula_structural   LiVSiO4
_chemical_formula_sum   'Li4 V4 Si4 O16'
_cell_volume   365.75524833
_cell_formula_units_Z   4
loop_
 _symmetry_equiv_pos_site_id
 _symmetry_equiv_pos_as_xyz
  1  'x, y, z'
loop_
 _atom_site_type_symbol
 _atom_site_label
 _atom_site_symmetry_multiplicity
 _atom_site_fract_x
 _atom_site_fract_y
 _atom_site_fract_z
 _atom_site_occupancy
  Li  Li0  1  0.14973980  0.50398437  0.24399176  1
  Li  Li1  1  0.35026020  0.00398437  0.74399176  1
  Li  Li2  1  0.64973980  0.99601563  0.24399176  1
  Li  Li3  1  0.85026020  0.49601563  0.74399176  1
  V  V4  1  0.16692024  0.01052838  0.24510482  1
  V  V5  1  0.33307976  0.51052838  0.74510482  1
  V  V6  1  0.66692024  0.48947162  0.24510482  1
  V  V7  1  0.83307976  0.98947162  0.74510482  1
  Si  Si8  1  0.09518271  0.76067365  0.74984150  1
  Si  Si9  1  0.40481729  0.26067365  0.24984150  1
  Si  Si10  1  0.59518271  0.73932635  0.74984150  1
  Si  Si11  1  0.90481729  0.23932635  0.24984150  1
  O  O12  1  0.05863604  0.23583919  0.18914869  1
  O  O13  1  0.12404515  0.76690929  0.06961156  1
  O  O14  1  0.15932714  0.56055864  0.62934513  1
  O  O15  1  0.16877738  0.94999475  0.61880555  1
  O  O16  1  0.33122262  0.44999475  0.11880555  1
  O  O17  1  0.34067286  0.06055864  0.12934513  1
  O  O18  1  0.37595485  0.26690929  0.56961156  1
  O  O19  1  0.44136396  0.73583919  0.68914869  1
  O  O20  1  0.55863604  0.26416081  0.18914869  1
  O  O21  1  0.62404515  0.73309071  0.06961156  1
  O  O22  1  0.65932714  0.93944136  0.62934513  1
  O  O23  1  0.66877738  0.55000525  0.61880555  1
  O  O24  1  0.83122262  0.05000525  0.11880555  1
  O  O25  1  0.84067286  0.43944136  0.12934513  1
  O  O26  1  0.87595485  0.23309071  0.56961156  1
  O  O27  1  0.94136396  0.76416081  0.68914869  1
