# generated using pymatgen
data_Li4Fe3Co2Ni3O16
_symmetry_space_group_name_H-M   'P 1'
_cell_length_a   5.81388383
_cell_length_b   5.83680687
_cell_length_c   9.28840424
_cell_angle_alpha   89.99704926
_cell_angle_beta   89.74789311
_cell_angle_gamma   120.14664093
_symmetry_Int_Tables_number   1
_chemical_formula_structural   Li4Fe3Co2Ni3O16
_chemical_formula_sum   'Li4 Fe3 Co2 Ni3 O16'
_cell_volume   272.56123596
_cell_formula_units_Z   1
loop_
 _symmetry_equiv_pos_site_id
 _symmetry_equiv_pos_as_xyz
  1  'x, y, z'
loop_
 _atom_site_type_symbol
 _atom_site_label
 _atom_site_symmetry_multiplicity
 _atom_site_fract_x
 _atom_site_fract_y
 _atom_site_fract_z
 _atom_site_occupancy
  Li  Li0  1  0.34195780  0.67080795  0.89426496  1
  Li  Li1  1  0.98845362  0.99407305  0.99250328  1
  Li  Li2  1  0.98911253  0.99460461  0.49431258  1
  Li  Li3  1  0.67286090  0.33659975  0.40082310  1
  Fe  Fe4  1  0.17247640  0.83167073  0.21258019  1
  Fe  Fe5  1  0.17260598  0.34081615  0.21254528  1
  Fe  Fe6  1  0.33834490  0.16919583  0.71335138  1
  Co  Co7  1  0.33343360  0.66696409  0.48572253  1
  Co  Co8  1  0.67309056  0.33636055  0.98198654  1
  Ni  Ni9  1  0.65568937  0.82803964  0.21086814  1
  Ni  Ni10  1  0.82960588  0.65768418  0.71257304  1
  Ni  Ni11  1  0.82965693  0.17200329  0.71259236  1
  O  O12  1  0.16585107  0.83136377  0.59780013  1
  O  O13  1  0.04574091  0.52282008  0.34900716  1
  O  O14  1  0.34118131  0.67063959  0.10301331  1
  O  O15  1  0.98446460  0.99220475  0.30149726  1
  O  O16  1  0.98187202  0.99101920  0.79981739  1
  O  O17  1  0.16585525  0.33464026  0.59782849  1
  O  O18  1  0.47867508  0.95906560  0.35096110  1
  O  O19  1  0.47921617  0.52054983  0.35084840  1
  O  O20  1  0.33991381  0.16992334  0.09572989  1
  O  O21  1  0.65174292  0.82615559  0.59573061  1
  O  O22  1  0.52921222  0.48211180  0.84719756  1
  O  O23  1  0.52926857  0.04689206  0.84712337  1
  O  O24  1  0.68054748  0.34031431  0.60946067  1
  O  O25  1  0.83247656  0.65733088  0.09482658  1
  O  O26  1  0.96431970  0.48192777  0.84797567  1
  O  O27  1  0.83237387  0.17452433  0.09489904  1
