# generated using pymatgen
data_Li4VCo3O8
_symmetry_space_group_name_H-M   'P 1'
_cell_length_a   5.57716065
_cell_length_b   6.48596898
_cell_length_c   5.10608045
_cell_angle_alpha   90.24379727
_cell_angle_beta   89.93264245
_cell_angle_gamma   89.76502259
_symmetry_Int_Tables_number   1
_chemical_formula_structural   Li4VCo3O8
_chemical_formula_sum   'Li4 V1 Co3 O8'
_cell_volume   184.70037687
_cell_formula_units_Z   1
loop_
 _symmetry_equiv_pos_site_id
 _symmetry_equiv_pos_as_xyz
  1  'x, y, z'
loop_
 _atom_site_type_symbol
 _atom_site_label
 _atom_site_symmetry_multiplicity
 _atom_site_fract_x
 _atom_site_fract_y
 _atom_site_fract_z
 _atom_site_occupancy
  Li  Li0  1  0.08775178  0.61697763  0.98928064  1
  Li  Li1  1  0.42518232  0.13104976  0.50262305  1
  Li  Li2  1  0.57081786  0.87404253  0.98899036  1
  Li  Li3  1  0.90247845  0.37619850  0.50286589  1
  V  V4  1  0.91891154  0.87493133  0.50181108  1
  Co  Co5  1  0.08674787  0.13739929  0.99207283  1
  Co  Co6  1  0.42427333  0.61741180  0.50416817  1
  Co  Co7  1  0.58282018  0.37238727  0.99609577  1
  O  O8  1  0.06429365  0.09647060  0.38513222  1
  O  O9  1  0.07570255  0.65449470  0.39408455  1
  O  O10  1  0.41607722  0.13377091  0.88844600  1
  O  O11  1  0.42271848  0.61416357  0.88321624  1
  O  O12  1  0.57503726  0.37516198  0.36693722  1
  O  O13  1  0.61977879  0.86874028  0.39255922  1
  O  O14  1  0.90494779  0.37667644  0.89280540  1
  O  O15  1  0.92245993  0.88012441  0.84531136  1
