# generated using pymatgen
data_Ni(PO3)3
_symmetry_space_group_name_H-M   'P 1'
_cell_length_a   6.96507493
_cell_length_b   7.35158178
_cell_length_c   7.00855951
_cell_angle_alpha   103.15980132
_cell_angle_beta   95.52542708
_cell_angle_gamma   85.10444257
_symmetry_Int_Tables_number   1
_chemical_formula_structural   Ni(PO3)3
_chemical_formula_sum   'Ni2 P6 O18'
_cell_volume   347.07516901
_cell_formula_units_Z   2
loop_
 _symmetry_equiv_pos_site_id
 _symmetry_equiv_pos_as_xyz
  1  'x, y, z'
loop_
 _atom_site_type_symbol
 _atom_site_label
 _atom_site_symmetry_multiplicity
 _atom_site_fract_x
 _atom_site_fract_y
 _atom_site_fract_z
 _atom_site_occupancy
  Ni  Ni0  1  0.15589287  0.14491852  0.43365273  1
  Ni  Ni1  1  0.84410713  0.85508148  0.56634727  1
  P  P2  1  0.14150605  0.54886802  0.74759395  1
  P  P3  1  0.28859208  0.76661623  0.13932320  1
  P  P4  1  0.36151827  0.78171446  0.55451534  1
  P  P5  1  0.63848173  0.21828554  0.44548466  1
  P  P6  1  0.71140792  0.23338377  0.86067680  1
  P  P7  1  0.85849395  0.45113198  0.25240605  1
  O  O8  1  0.04033548  0.33653402  0.28893879  1
  O  O9  1  0.14559536  0.33955357  0.69075374  1
  O  O10  1  0.14657694  0.93626322  0.18087362  1
  O  O11  1  0.20110166  0.93578937  0.58688091  1
  O  O12  1  0.20205723  0.59362388  0.98358808  1
  O  O13  1  0.32217361  0.61732968  0.65973902  1
  O  O14  1  0.33262967  0.67098862  0.32272932  1
  O  O15  1  0.43254077  0.17615415  0.39632661  1
  O  O16  1  0.53051925  0.17386848  0.92872067  1
  O  O17  1  0.46948075  0.82613152  0.07127933  1
  O  O18  1  0.56745923  0.82384585  0.60367339  1
  O  O19  1  0.66737033  0.32901138  0.67727068  1
  O  O20  1  0.67782639  0.38267032  0.34026098  1
  O  O21  1  0.79794277  0.40637612  0.01641192  1
  O  O22  1  0.79889834  0.06421063  0.41311909  1
  O  O23  1  0.85342306  0.06373678  0.81912638  1
  O  O24  1  0.85440464  0.66044543  0.30924626  1
  O  O25  1  0.95966452  0.66346598  0.71106121  1
