# generated using pymatgen
data_Li4MnO2F3
_symmetry_space_group_name_H-M   'P 1'
_cell_length_a   5.10701127
_cell_length_b   7.76686240
_cell_length_c   5.26303429
_cell_angle_alpha   105.30311331
_cell_angle_beta   97.18992774
_cell_angle_gamma   109.80264884
_symmetry_Int_Tables_number   1
_chemical_formula_structural   Li4MnO2F3
_chemical_formula_sum   'Li8 Mn2 O4 F6'
_cell_volume   184.07955630
_cell_formula_units_Z   2
loop_
 _symmetry_equiv_pos_site_id
 _symmetry_equiv_pos_as_xyz
  1  'x, y, z'
loop_
 _atom_site_type_symbol
 _atom_site_label
 _atom_site_symmetry_multiplicity
 _atom_site_fract_x
 _atom_site_fract_y
 _atom_site_fract_z
 _atom_site_occupancy
  Li  Li0  1  0.17752920  0.68202634  0.57343448  1
  Li  Li1  1  0.00000000  0.50000000  0.00000000  1
  Li  Li2  1  0.00000000  0.00000000  0.50000000  1
  Li  Li3  1  0.41955263  0.90923158  0.20406094  1
  Li  Li4  1  0.40553143  0.40843066  0.67454552  1
  Li  Li5  1  0.59446857  0.59156934  0.32545448  1
  Li  Li6  1  0.58044737  0.09076842  0.79593906  1
  Li  Li7  1  0.82247080  0.31797366  0.42656552  1
  Mn  Mn8  1  0.18250663  0.20113893  0.10389114  1
  Mn  Mn9  1  0.81749337  0.79886107  0.89610886  1
  O  O10  1  0.18634727  0.96010997  0.86628397  1
  O  O11  1  0.19171169  0.43318942  0.32757641  1
  O  O12  1  0.80828831  0.56681058  0.67242359  1
  O  O13  1  0.81365273  0.03989003  0.13371603  1
  F  F14  1  0.99400877  0.25277012  0.73776543  1
  F  F15  1  0.42423208  0.65885723  0.94956070  1
  F  F16  1  0.58777101  0.84994411  0.53495204  1
  F  F17  1  0.41222899  0.15005589  0.46504796  1
  F  F18  1  0.57576792  0.34114277  0.05043930  1
  F  F19  1  0.00599123  0.74722988  0.26223457  1
