# generated using pymatgen
data_K2Si3SnO10
_symmetry_space_group_name_H-M   'P 1'
_cell_length_a   7.20949667
_cell_length_b   10.17044937
_cell_length_c   13.31534711
_cell_angle_alpha   90.00000000
_cell_angle_beta   90.00000000
_cell_angle_gamma   90.00000000
_symmetry_Int_Tables_number   1
_chemical_formula_structural   K2Si3SnO10
_chemical_formula_sum   'K8 Si12 Sn4 O40'
_cell_volume   976.33212625
_cell_formula_units_Z   4
loop_
 _symmetry_equiv_pos_site_id
 _symmetry_equiv_pos_as_xyz
  1  'x, y, z'
loop_
 _atom_site_type_symbol
 _atom_site_label
 _atom_site_symmetry_multiplicity
 _atom_site_fract_x
 _atom_site_fract_y
 _atom_site_fract_z
 _atom_site_occupancy
  K  K0  1  0.34143804  0.78134948  0.12949982  1
  K  K1  1  0.84143804  0.71865052  0.87050018  1
  K  K2  1  0.65856196  0.28134948  0.37050018  1
  K  K3  1  0.15856196  0.21865052  0.62949982  1
  K  K4  1  0.78254524  0.56678839  0.58179142  1
  K  K5  1  0.28254524  0.93321161  0.41820858  1
  K  K6  1  0.21745476  0.06678839  0.91820858  1
  K  K7  1  0.71745476  0.43321161  0.08179142  1
  Si  Si8  1  0.49315984  0.82145904  0.67522239  1
  Si  Si9  1  0.99315984  0.67854096  0.32477761  1
  Si  Si10  1  0.50684016  0.32145904  0.82477761  1
  Si  Si11  1  0.00684016  0.17854096  0.17522239  1
  Si  Si12  1  0.76554191  0.97106342  0.54888649  1
  Si  Si13  1  0.26554191  0.52893658  0.45111351  1
  Si  Si14  1  0.23445809  0.47106342  0.95111351  1
  Si  Si15  1  0.73445809  0.02893658  0.04888649  1
  Si  Si16  1  0.92231676  0.35901613  0.83186077  1
  Si  Si17  1  0.42231676  0.14098387  0.16813923  1
  Si  Si18  1  0.07768324  0.85901613  0.66813923  1
  Si  Si19  1  0.57768324  0.64098387  0.33186077  1
  Sn  Sn20  1  0.24268806  0.54898401  0.70933760  1
  Sn  Sn21  1  0.74268806  0.95101599  0.29066240  1
  Sn  Sn22  1  0.75731194  0.04898401  0.79066240  1
  Sn  Sn23  1  0.25731194  0.45101599  0.20933760  1
  O  O24  1  0.25279395  0.58903047  0.86645752  1
  O  O25  1  0.75279395  0.91096953  0.13354248  1
  O  O26  1  0.74720605  0.08903047  0.63354248  1
  O  O27  1  0.24720605  0.41096953  0.36645752  1
  O  O28  1  0.46967795  0.66360613  0.68417153  1
  O  O29  1  0.96967795  0.83639387  0.31582847  1
  O  O30  1  0.53032205  0.16360613  0.81582847  1
  O  O31  1  0.03032205  0.33639387  0.18417153  1
  O  O32  1  0.22078547  0.47958873  0.56304858  1
  O  O33  1  0.72078547  0.02041127  0.43695142  1
  O  O34  1  0.77921453  0.97958873  0.93695142  1
  O  O35  1  0.27921453  0.52041127  0.06304858  1
  O  O36  1  0.00521609  0.43930058  0.73656546  1
  O  O37  1  0.50521609  0.06069942  0.26343454  1
  O  O38  1  0.99478391  0.93930058  0.76343454  1
  O  O39  1  0.49478391  0.56069942  0.23656546  1
  O  O40  1  0.40526328  0.38150179  0.72600071  1
  O  O41  1  0.90526328  0.11849821  0.27399929  1
  O  O42  1  0.59473672  0.88150179  0.77399929  1
  O  O43  1  0.09473672  0.61849821  0.22600071  1
  O  O44  1  0.05475549  0.70143194  0.68356354  1
  O  O45  1  0.55475549  0.79856806  0.31643646  1
  O  O46  1  0.94524451  0.20143194  0.81643646  1
  O  O47  1  0.44524451  0.29856806  0.18356354  1
  O  O48  1  0.29738346  0.89919162  0.65017211  1
  O  O49  1  0.79738346  0.60080838  0.34982789  1
  O  O50  1  0.70261654  0.39919162  0.84982789  1
  O  O51  1  0.20261654  0.10080838  0.15017211  1
  O  O52  1  0.97927816  0.91206666  0.56234870  1
  O  O53  1  0.47927816  0.58793334  0.43765130  1
  O  O54  1  0.02072184  0.41206666  0.93765130  1
  O  O55  1  0.52072184  0.08793334  0.06234870  1
  O  O56  1  0.62470429  0.84705123  0.57533426  1
  O  O57  1  0.12470429  0.65294877  0.42466574  1
  O  O58  1  0.37529571  0.34705123  0.92466574  1
  O  O59  1  0.87529571  0.15294877  0.07533426  1
  O  O60  1  0.64169521  0.28972660  0.58419189  1
  O  O61  1  0.14169521  0.21027340  0.41580811  1
  O  O62  1  0.35830479  0.78972660  0.91580811  1
  O  O63  1  0.85830479  0.71027340  0.08419189  1
