# generated using pymatgen
data_Mn5O7F
_symmetry_space_group_name_H-M   'P 1'
_cell_length_a   5.92571290
_cell_length_b   5.92571290
_cell_length_c   5.92571272
_cell_angle_alpha   63.12793565
_cell_angle_beta   116.87206435
_cell_angle_gamma   116.87205949
_symmetry_Int_Tables_number   1
_chemical_formula_structural   Mn5O7F
_chemical_formula_sum   'Mn5 O7 F1'
_cell_volume   157.33883814
_cell_formula_units_Z   1
loop_
 _symmetry_equiv_pos_site_id
 _symmetry_equiv_pos_as_xyz
  1  'x, y, z'
loop_
 _atom_site_type_symbol
 _atom_site_label
 _atom_site_symmetry_multiplicity
 _atom_site_fract_x
 _atom_site_fract_y
 _atom_site_fract_z
 _atom_site_occupancy
  Mn  Mn0  1  0.87509249  0.62987823  0.62987823  1
  Mn  Mn1  1  0.37815382  0.62184618  0.62184618  1
  Mn  Mn2  1  0.98648509  0.01351491  0.01351491  1
  Mn  Mn3  1  0.37012177  0.62987823  0.12490751  1
  Mn  Mn4  1  0.37012177  0.12490751  0.62987823  1
  O  O5  1  0.60464195  0.81310359  0.39535805  1
  O  O6  1  0.57465408  0.85829138  0.85829138  1
  O  O7  1  0.60464195  0.39535805  0.81310359  1
  O  O8  1  0.14170862  0.85829138  0.42534592  1
  O  O9  1  0.12578182  0.87421818  0.87421818  1
  O  O10  1  0.14170862  0.42534592  0.85829138  1
  O  O11  1  0.18689641  0.39535805  0.39535805  1
  F  F12  1  0.62768461  0.37231539  0.37231539  1
