# generated using pymatgen
data_LiMnOF2
_symmetry_space_group_name_H-M   'P 1'
_cell_length_a   5.23015591
_cell_length_b   9.93301676
_cell_length_c   5.14592748
_cell_angle_alpha   107.07216356
_cell_angle_beta   61.80717192
_cell_angle_gamma   91.16829290
_symmetry_Int_Tables_number   1
_chemical_formula_structural   LiMnOF2
_chemical_formula_sum   'Li4 Mn4 O4 F8'
_cell_volume   223.00690695
_cell_formula_units_Z   4
loop_
 _symmetry_equiv_pos_site_id
 _symmetry_equiv_pos_as_xyz
  1  'x, y, z'
loop_
 _atom_site_type_symbol
 _atom_site_label
 _atom_site_symmetry_multiplicity
 _atom_site_fract_x
 _atom_site_fract_y
 _atom_site_fract_z
 _atom_site_occupancy
  Li  Li0  1  0.47690397  0.70602643  0.10374150  1
  Li  Li1  1  0.08495575  0.79467029  0.85672315  1
  Li  Li2  1  0.91504425  0.20532971  0.14327685  1
  Li  Li3  1  0.52309603  0.29397357  0.89625850  1
  Mn  Mn4  1  0.33740908  0.01620217  0.31707083  1
  Mn  Mn5  1  0.15937906  0.48557561  0.64525424  1
  Mn  Mn6  1  0.66259092  0.98379783  0.68292917  1
  Mn  Mn7  1  0.84062094  0.51442439  0.35474576  1
  O  O8  1  0.13939087  0.38268264  0.28615683  1
  O  O9  1  0.59916863  0.11497499  0.06210531  1
  O  O10  1  0.40083137  0.88502501  0.93789469  1
  O  O11  1  0.86060913  0.61731736  0.71384317  1
  F  F12  1  0.15236313  0.61734248  0.02527292  1
  F  F13  1  0.10113051  0.88263719  0.53462511  1
  F  F14  1  0.49211815  0.62466787  0.42499435  1
  F  F15  1  0.29865578  0.12840295  0.72328192  1
  F  F16  1  0.70134422  0.87159705  0.27671808  1
  F  F17  1  0.50788185  0.37533213  0.57500565  1
  F  F18  1  0.89886949  0.11736281  0.46537489  1
  F  F19  1  0.84763687  0.38265752  0.97472708  1
