# generated using pymatgen
data_Li2Mn4O5F3
_symmetry_space_group_name_H-M   'P 1'
_cell_length_a   6.17640941
_cell_length_b   6.17640941
_cell_length_c   10.91657069
_cell_angle_alpha   90.85540502
_cell_angle_beta   74.43535649
_cell_angle_gamma   123.51337596
_symmetry_Int_Tables_number   1
_chemical_formula_structural   Li2Mn4O5F3
_chemical_formula_sum   'Li4 Mn8 O10 F6'
_cell_volume   329.84832899
_cell_formula_units_Z   2
loop_
 _symmetry_equiv_pos_site_id
 _symmetry_equiv_pos_as_xyz
  1  'x, y, z'
loop_
 _atom_site_type_symbol
 _atom_site_label
 _atom_site_symmetry_multiplicity
 _atom_site_fract_x
 _atom_site_fract_y
 _atom_site_fract_z
 _atom_site_occupancy
  Li  Li0  1  0.84346983  0.20822346  0.44807372  1
  Li  Li1  1  0.16731139  0.31539647  0.06011221  1
  Li  Li2  1  0.84370282  0.70845645  0.94807372  1
  Li  Li3  1  0.12449131  0.77257640  0.56011221  1
  Mn  Mn4  1  0.49711742  0.98672126  0.00160047  1
  Mn  Mn5  1  0.49987611  0.24830168  0.24873110  1
  Mn  Mn6  1  0.49417867  0.74624699  0.24644096  1
  Mn  Mn7  1  0.50731105  0.25938037  0.74644096  1
  Mn  Mn8  1  0.51167727  0.50128211  0.50160047  1
  Mn  Mn9  1  0.01102381  0.74241998  0.24176961  1
  Mn  Mn10  1  0.00296622  0.25139179  0.74873110  1
  Mn  Mn11  1  0.51581141  0.74720758  0.74176961  1
  O  O12  1  0.72263393  0.12272461  0.65855183  1
  O  O13  1  0.71872357  0.61881424  0.15855183  1
  O  O14  1  0.73511677  0.40789933  0.35846765  1
  O  O15  1  0.26642799  0.09516964  0.13862881  1
  O  O16  1  0.72718017  0.58130336  0.63126408  1
  O  O17  1  0.28743256  0.64155575  0.13126408  1
  O  O18  1  0.73363302  0.90641558  0.85846765  1
  O  O19  1  0.26620255  0.59494320  0.63862881  1
  O  O20  1  0.27932818  0.37723629  0.84003318  1
  O  O21  1  0.28273153  0.88063865  0.34003318  1
  F  F22  1  0.77812358  0.14302061  0.11982605  1
  F  F23  1  0.23715335  0.10205037  0.61982605  1
  F  F24  1  0.23388475  0.36992204  0.38615027  1
  F  F25  1  0.74392870  0.37996598  0.88615027  1
  F  F26  1  0.72029329  0.88138117  0.37035107  1
  F  F27  1  0.24826776  0.90935664  0.87035107  1
