# generated using pymatgen
data_YMg6Ni
_symmetry_space_group_name_H-M   'P 1'
_cell_length_a   6.76632868
_cell_length_b   5.91270373
_cell_length_c   4.91627906
_cell_angle_alpha   90.00000000
_cell_angle_beta   90.00000000
_cell_angle_gamma   115.90760592
_symmetry_Int_Tables_number   1
_chemical_formula_structural   YMg6Ni
_chemical_formula_sum   'Y1 Mg6 Ni1'
_cell_volume   176.91994650
_cell_formula_units_Z   1
loop_
 _symmetry_equiv_pos_site_id
 _symmetry_equiv_pos_as_xyz
  1  'x, y, z'
loop_
 _atom_site_type_symbol
 _atom_site_label
 _atom_site_symmetry_multiplicity
 _atom_site_fract_x
 _atom_site_fract_y
 _atom_site_fract_z
 _atom_site_occupancy
  Y  Y0  1  0.12120323  0.31060111  0.25000000  1
  Mg  Mg1  1  0.62441211  0.30953409  0.25000000  1
  Mg  Mg2  1  0.62441211  0.81487702  0.25000000  1
  Mg  Mg3  1  0.34053355  0.16418797  0.75000000  1
  Mg  Mg4  1  0.34053355  0.67634658  0.75000000  1
  Mg  Mg5  1  0.80502149  0.15251125  0.75000000  1
  Mg  Mg6  1  0.90845123  0.70422612  0.75000000  1
  Ni  Ni7  1  0.23543272  0.86771586  0.25000000  1
