# generated using pymatgen
data_Ti3N4
_symmetry_space_group_name_H-M   'P 1'
_cell_length_a   4.16084984
_cell_length_b   4.16084984
_cell_length_c   5.13184306
_cell_angle_alpha   66.08410065
_cell_angle_beta   66.08410065
_cell_angle_gamma   90.00000000
_symmetry_Int_Tables_number   1
_chemical_formula_structural   Ti3N4
_chemical_formula_sum   'Ti3 N4'
_cell_volume   72.79453884
_cell_formula_units_Z   1
loop_
 _symmetry_equiv_pos_site_id
 _symmetry_equiv_pos_as_xyz
  1  'x, y, z'
loop_
 _atom_site_type_symbol
 _atom_site_label
 _atom_site_symmetry_multiplicity
 _atom_site_fract_x
 _atom_site_fract_y
 _atom_site_fract_z
 _atom_site_occupancy
  Ti  Ti0  1  0.25000000  0.75000000  0.50000000  1
  Ti  Ti1  1  0.50000000  0.50000000  0.00000000  1
  Ti  Ti2  1  0.75000000  0.25000000  0.50000000  1
  N  N3  1  0.50000000  0.00000000  0.00000000  1
  N  N4  1  0.73934339  0.73934339  0.52131322  1
  N  N5  1  0.00000000  0.50000000  0.00000000  1
  N  N6  1  0.26065661  0.26065661  0.47868678  1
