# generated using pymatgen
data_Li2VSiO4
_symmetry_space_group_name_H-M   'P 1'
_cell_length_a   6.71776563
_cell_length_b   10.59905205
_cell_length_c   4.90940622
_cell_angle_alpha   90.00000000
_cell_angle_beta   90.00000000
_cell_angle_gamma   90.00000000
_symmetry_Int_Tables_number   1
_chemical_formula_structural   Li2VSiO4
_chemical_formula_sum   'Li8 V4 Si4 O16'
_cell_volume   349.55928429
_cell_formula_units_Z   4
loop_
 _symmetry_equiv_pos_site_id
 _symmetry_equiv_pos_as_xyz
  1  'x, y, z'
loop_
 _atom_site_type_symbol
 _atom_site_label
 _atom_site_symmetry_multiplicity
 _atom_site_fract_x
 _atom_site_fract_y
 _atom_site_fract_z
 _atom_site_occupancy
  Li  Li0  1  0.00110181  0.40995007  0.18333631  1
  Li  Li1  1  0.00110181  0.90995007  0.31666369  1
  Li  Li2  1  0.49889819  0.90995007  0.31666369  1
  Li  Li3  1  0.49889819  0.40995007  0.18333631  1
  Li  Li4  1  0.50110181  0.09004993  0.68333731  1
  Li  Li5  1  0.50110181  0.59004993  0.81666269  1
  Li  Li6  1  0.99889819  0.09004993  0.68333731  1
  Li  Li7  1  0.99889819  0.59004993  0.81666269  1
  V  V8  1  0.25000000  0.15301270  0.19438828  1
  V  V9  1  0.25000000  0.65301270  0.30561172  1
  V  V10  1  0.75000000  0.34698730  0.69438828  1
  V  V11  1  0.75000000  0.84698730  0.80561172  1
  Si  Si12  1  0.25000000  0.33576708  0.66863941  1
  Si  Si13  1  0.25000000  0.83576708  0.83136059  1
  Si  Si14  1  0.75000000  0.66423292  0.33136059  1
  Si  Si15  1  0.75000000  0.16423292  0.16863941  1
  O  O16  1  0.04573937  0.40544077  0.77847281  1
  O  O17  1  0.04573937  0.90544077  0.72152719  1
  O  O18  1  0.25000000  0.34211230  0.33157719  1
  O  O19  1  0.25000000  0.68383429  0.74450250  1
  O  O20  1  0.25000000  0.18383429  0.75549750  1
  O  O21  1  0.25000000  0.84211230  0.16842281  1
  O  O22  1  0.45426063  0.90544077  0.72152719  1
  O  O23  1  0.45426063  0.40544077  0.77847281  1
  O  O24  1  0.54573937  0.09455923  0.27847281  1
  O  O25  1  0.54573937  0.59455923  0.22152719  1
  O  O26  1  0.75000000  0.65788770  0.66842281  1
  O  O27  1  0.75000000  0.15788770  0.83157719  1
  O  O28  1  0.75000000  0.31616571  0.25549750  1
  O  O29  1  0.75000000  0.81616571  0.24450250  1
  O  O30  1  0.95426063  0.59455923  0.22152719  1
  O  O31  1  0.95426063  0.09455923  0.27847281  1
