# generated using pymatgen
data_LiNiPO4
_symmetry_space_group_name_H-M   'P 1'
_cell_length_a   5.54984758
_cell_length_b   5.62795499
_cell_length_c   5.77399407
_cell_angle_alpha   59.13784667
_cell_angle_beta   90.00000000
_cell_angle_gamma   119.54195607
_symmetry_Int_Tables_number   1
_chemical_formula_structural   LiNiPO4
_chemical_formula_sum   'Li2 Ni2 P2 O8'
_cell_volume   126.72457878
_cell_formula_units_Z   2
loop_
 _symmetry_equiv_pos_site_id
 _symmetry_equiv_pos_as_xyz
  1  'x, y, z'
loop_
 _atom_site_type_symbol
 _atom_site_label
 _atom_site_symmetry_multiplicity
 _atom_site_fract_x
 _atom_site_fract_y
 _atom_site_fract_z
 _atom_site_occupancy
  Li  Li0  1  0.00000000  0.00000000  0.00000000  1
  Li  Li1  1  0.50000000  0.00000000  0.00000000  1
  Ni  Ni2  1  0.00000000  0.50000000  0.00000000  1
  Ni  Ni3  1  0.00000000  0.50000000  0.50000000  1
  P  P4  1  0.36993771  0.23987443  0.38006229  1
  P  P5  1  0.63006229  0.76012557  0.61993771  1
  O  O6  1  0.26091125  0.02182149  0.26533638  1
  O  O7  1  0.73908875  0.97817851  0.28715887  1
  O  O8  1  0.26033948  0.47918552  0.26040674  1
  O  O9  1  0.71884604  0.47918552  0.26040674  1
  O  O10  1  0.26091125  0.02182149  0.71284113  1
  O  O11  1  0.73908875  0.97817851  0.73466362  1
  O  O12  1  0.28115396  0.52081448  0.73959326  1
  O  O13  1  0.73966052  0.52081448  0.73959326  1
