# generated using pymatgen
data_LiMn2O3F
_symmetry_space_group_name_H-M   'P 1'
_cell_length_a   6.11150069
_cell_length_b   7.93338431
_cell_length_c   7.93338431
_cell_angle_alpha   114.95712870
_cell_angle_beta   112.65467963
_cell_angle_gamma   67.34532037
_symmetry_Int_Tables_number   1
_chemical_formula_structural   LiMn2O3F
_chemical_formula_sum   'Li4 Mn8 O12 F4'
_cell_volume   310.21997464
_cell_formula_units_Z   4
loop_
 _symmetry_equiv_pos_site_id
 _symmetry_equiv_pos_as_xyz
  1  'x, y, z'
loop_
 _atom_site_type_symbol
 _atom_site_label
 _atom_site_symmetry_multiplicity
 _atom_site_fract_x
 _atom_site_fract_y
 _atom_site_fract_z
 _atom_site_occupancy
  Li  Li0  1  0.12729377  0.27120591  0.02579346  1
  Li  Li1  1  0.37270623  0.02579346  0.27120591  1
  Li  Li2  1  0.62111867  0.99070295  0.73293929  1
  Li  Li3  1  0.87888133  0.73293929  0.99070295  1
  Mn  Mn4  1  0.75000000  0.23573229  0.23573229  1
  Mn  Mn5  1  0.49989652  0.49267201  0.99246505  1
  Mn  Mn6  1  0.00010348  0.99246505  0.49267201  1
  Mn  Mn7  1  0.88261373  0.62305240  0.37446464  1
  Mn  Mn8  1  0.36879851  0.62305240  0.37446464  1
  Mn  Mn9  1  0.13120149  0.37446464  0.62305240  1
  Mn  Mn10  1  0.61738627  0.37446464  0.62305240  1
  Mn  Mn11  1  0.25000000  0.76302978  0.76302978  1
  O  O12  1  0.83546891  0.39743691  0.14365163  1
  O  O13  1  0.08925419  0.14365163  0.39743691  1
  O  O14  1  0.41074581  0.39743691  0.14365163  1
  O  O15  1  0.66453109  0.14365163  0.39743691  1
  O  O16  1  0.75000000  0.50300508  0.50300508  1
  O  O17  1  0.48374663  0.25767414  0.72516839  1
  O  O18  1  0.01625337  0.72516839  0.25767414  1
  O  O19  1  0.25000000  0.49195787  0.49195787  1
  O  O20  1  0.33902937  0.85380478  0.60352107  1
  O  O21  1  0.58931308  0.60352107  0.85380478  1
  O  O22  1  0.91068692  0.85380478  0.60352107  1
  O  O23  1  0.16097063  0.60352107  0.85380478  1
  F  F24  1  0.25000000  0.01039662  0.01039662  1
  F  F25  1  0.50008865  0.76147028  0.26164758  1
  F  F26  1  0.99991135  0.26164758  0.76147028  1
  F  F27  1  0.75000000  0.99227543  0.99227543  1
