# generated using pymatgen
data_Mn5SbO12
_symmetry_space_group_name_H-M   'P 1'
_cell_length_a   5.22049804
_cell_length_b   5.22049764
_cell_length_c   9.72361711
_cell_angle_alpha   90.19473212
_cell_angle_beta   90.19473324
_cell_angle_gamma   120.69679161
_symmetry_Int_Tables_number   1
_chemical_formula_structural   Mn5SbO12
_chemical_formula_sum   'Mn5 Sb1 O12'
_cell_volume   227.86610207
_cell_formula_units_Z   1
loop_
 _symmetry_equiv_pos_site_id
 _symmetry_equiv_pos_as_xyz
  1  'x, y, z'
loop_
 _atom_site_type_symbol
 _atom_site_label
 _atom_site_symmetry_multiplicity
 _atom_site_fract_x
 _atom_site_fract_y
 _atom_site_fract_z
 _atom_site_occupancy
  Mn  Mn0  1  0.16677029  0.83322971  0.50000000  1
  Mn  Mn1  1  0.33372551  0.66627449  1.00000000  1
  Mn  Mn2  1  0.50000000  0.50000000  0.50000000  1
  Mn  Mn3  1  0.66627449  0.33372551  0.00000000  1
  Mn  Mn4  1  0.83322971  0.16677029  0.50000000  1
  Sb  Sb5  1  0.00000000  0.00000000  0.00000000  1
  O  O6  1  0.99311880  0.66102489  0.10214367  1
  O  O7  1  0.33897511  0.00688120  0.89785633  1
  O  O8  1  0.16560894  0.49874837  0.40471033  1
  O  O9  1  0.50125163  0.83439106  0.59528967  1
  O  O10  1  0.16741460  0.16741460  0.59549143  1
  O  O11  1  0.33586939  0.33586939  0.10417717  1
  O  O12  1  0.66413061  0.66413061  0.89582283  1
  O  O13  1  0.83258540  0.83258540  0.40450857  1
  O  O14  1  0.49874837  0.16560894  0.40471033  1
  O  O15  1  0.83439106  0.50125163  0.59528967  1
  O  O16  1  0.66102489  0.99311880  0.10214367  1
  O  O17  1  0.00688120  0.33897511  0.89785633  1
