# generated using pymatgen
data_LiVF5
_symmetry_space_group_name_H-M   'P 1'
_cell_length_a   9.04962324
_cell_length_b   6.24420095
_cell_length_c   6.38413251
_cell_angle_alpha   90.00000000
_cell_angle_beta   90.00000000
_cell_angle_gamma   90.00000000
_symmetry_Int_Tables_number   1
_chemical_formula_structural   LiVF5
_chemical_formula_sum   'Li4 V4 F20'
_cell_volume   360.75242778
_cell_formula_units_Z   4
loop_
 _symmetry_equiv_pos_site_id
 _symmetry_equiv_pos_as_xyz
  1  'x, y, z'
loop_
 _atom_site_type_symbol
 _atom_site_label
 _atom_site_symmetry_multiplicity
 _atom_site_fract_x
 _atom_site_fract_y
 _atom_site_fract_z
 _atom_site_occupancy
  Li  Li0  1  0.14821303  0.54350918  0.77899866  1
  Li  Li1  1  0.35178697  0.04350918  0.27899866  1
  Li  Li2  1  0.64821303  0.95649082  0.77899866  1
  Li  Li3  1  0.85178697  0.45649082  0.27899866  1
  V  V4  1  0.00556640  0.07896075  0.00027624  1
  V  V5  1  0.49443360  0.57896075  0.50027624  1
  V  V6  1  0.50556640  0.42103925  0.00027624  1
  V  V7  1  0.99443360  0.92103925  0.50027624  1
  F  F8  1  0.00843106  0.37298405  0.00053041  1
  F  F9  1  0.00358230  0.82875153  0.19208683  1
  F  F10  1  0.04298393  0.82709262  0.80734338  1
  F  F11  1  0.19425299  0.98637288  0.47338791  1
  F  F12  1  0.20948469  0.06575060  0.04117757  1
  F  F13  1  0.29051531  0.56575060  0.54117757  1
  F  F14  1  0.30574701  0.48637288  0.97338791  1
  F  F15  1  0.45701607  0.32709262  0.30734338  1
  F  F16  1  0.49641770  0.32875153  0.69208683  1
  F  F17  1  0.49156894  0.87298405  0.50053041  1
  F  F18  1  0.50843106  0.12701595  0.00053041  1
  F  F19  1  0.50358230  0.67124847  0.19208683  1
  F  F20  1  0.54298393  0.67290738  0.80734338  1
  F  F21  1  0.69425299  0.51362712  0.47338791  1
  F  F22  1  0.70948469  0.43424940  0.04117757  1
  F  F23  1  0.79051531  0.93424940  0.54117757  1
  F  F24  1  0.80574701  0.01362712  0.97338791  1
  F  F25  1  0.95701607  0.17290738  0.30734338  1
  F  F26  1  0.99641770  0.17124847  0.69208683  1
  F  F27  1  0.99156894  0.62701595  0.50053041  1
