# generated using pymatgen
data_CoH10C4(NO2)4
_symmetry_space_group_name_H-M   'P 1'
_cell_length_a   8.38252651
_cell_length_b   10.00781997
_cell_length_c   12.43978004
_cell_angle_alpha   90.00000000
_cell_angle_beta   90.00000000
_cell_angle_gamma   90.00000000
_symmetry_Int_Tables_number   1
_chemical_formula_structural   CoH10C4(NO2)4
_chemical_formula_sum   'Co4 H40 C16 N16 O32'
_cell_volume   1043.58330098
_cell_formula_units_Z   4
loop_
 _symmetry_equiv_pos_site_id
 _symmetry_equiv_pos_as_xyz
  1  'x, y, z'
loop_
 _atom_site_type_symbol
 _atom_site_label
 _atom_site_symmetry_multiplicity
 _atom_site_fract_x
 _atom_site_fract_y
 _atom_site_fract_z
 _atom_site_occupancy
  Co  Co0  1  0.71724294  0.06294741  0.53781058  1
  Co  Co1  1  0.28275706  0.93705259  0.03781058  1
  Co  Co2  1  0.21724294  0.43705259  0.03781058  1
  Co  Co3  1  0.78275706  0.56294741  0.53781058  1
  H  H4  1  0.82478552  0.88926342  0.38986558  1
  H  H5  1  0.17521448  0.11073658  0.88986558  1
  H  H6  1  0.32478552  0.61073658  0.88986558  1
  H  H7  1  0.67521448  0.38926342  0.38986558  1
  H  H8  1  0.89488133  0.84524648  0.51117897  1
  H  H9  1  0.10511867  0.15475352  0.01117897  1
  H  H10  1  0.39488133  0.65475352  0.01117897  1
  H  H11  1  0.60511867  0.34524648  0.51117897  1
  H  H12  1  0.11773631  0.92981379  0.42414775  1
  H  H13  1  0.88226369  0.07018621  0.92414775  1
  H  H14  1  0.61773631  0.57018621  0.92414775  1
  H  H15  1  0.38226369  0.42981379  0.42414775  1
  H  H16  1  0.44579637  0.89785774  0.54168953  1
  H  H17  1  0.55420363  0.10214226  0.04168953  1
  H  H18  1  0.94579637  0.60214226  0.04168953  1
  H  H19  1  0.05420363  0.39785774  0.54168953  1
  H  H20  1  0.54648668  0.88408117  0.65539087  1
  H  H21  1  0.45351332  0.11591883  0.15539087  1
  H  H22  1  0.04648668  0.61591883  0.15539087  1
  H  H23  1  0.95351332  0.38408117  0.65539087  1
  H  H24  1  0.30011571  0.01018542  0.68003975  1
  H  H25  1  0.69988429  0.98981458  0.18003975  1
  H  H26  1  0.80011571  0.48981458  0.18003975  1
  H  H27  1  0.19988429  0.51018542  0.68003975  1
  H  H28  1  0.79010284  0.99279745  0.74964718  1
  H  H29  1  0.20989716  0.00720255  0.24964718  1
  H  H30  1  0.29010284  0.50720255  0.24964718  1
  H  H31  1  0.70989716  0.49279745  0.74964718  1
  H  H32  1  0.94575156  0.97603303  0.68074306  1
  H  H33  1  0.05424844  0.02396697  0.18074306  1
  H  H34  1  0.44575156  0.52396697  0.18074306  1
  H  H35  1  0.55424844  0.47603303  0.68074306  1
  H  H36  1  0.64656269  0.16140953  0.33924314  1
  H  H37  1  0.35343731  0.83859047  0.83924314  1
  H  H38  1  0.14656269  0.33859047  0.83924314  1
  H  H39  1  0.85343731  0.66140953  0.33924314  1
  H  H40  1  0.47965787  0.10867129  0.38647165  1
  H  H41  1  0.52034213  0.89132871  0.88647165  1
  H  H42  1  0.97965787  0.39132871  0.88647165  1
  H  H43  1  0.02034213  0.60867129  0.38647165  1
  C  C44  1  0.02645246  0.12099534  0.45109729  1
  C  C45  1  0.97354754  0.87900466  0.95109729  1
  C  C46  1  0.52645246  0.37900466  0.95109729  1
  C  C47  1  0.47354754  0.62099534  0.45109729  1
  C  C48  1  0.18897803  0.18451703  0.42107897  1
  C  C49  1  0.81102197  0.81548297  0.92107897  1
  C  C50  1  0.68897803  0.31548297  0.92107897  1
  C  C51  1  0.31102197  0.68451703  0.42107897  1
  C  C52  1  0.45242731  0.17274798  0.65188595  1
  C  C53  1  0.54757269  0.82725202  0.15188595  1
  C  C54  1  0.95242731  0.32725202  0.15188595  1
  C  C55  1  0.04757269  0.67274798  0.65188595  1
  C  C56  1  0.33656982  0.27316760  0.70490992  1
  C  C57  1  0.66343018  0.72683240  0.20490992  1
  C  C58  1  0.83656982  0.22683240  0.20490992  1
  C  C59  1  0.16343018  0.77316760  0.70490992  1
  N  N60  1  0.87186286  0.92493702  0.46085378  1
  N  N61  1  0.12813714  0.07506298  0.96085378  1
  N  N62  1  0.37186286  0.57506298  0.96085378  1
  N  N63  1  0.62813714  0.42493702  0.46085378  1
  N  N64  1  0.01825946  0.98876209  0.43781556  1
  N  N65  1  0.98174054  0.01123791  0.93781556  1
  N  N66  1  0.51825946  0.51123791  0.93781556  1
  N  N67  1  0.48174054  0.48876209  0.43781556  1
  N  N68  1  0.51066872  0.95183660  0.59829400  1
  N  N69  1  0.48933128  0.04816340  0.09829400  1
  N  N70  1  0.01066872  0.54816340  0.09829400  1
  N  N71  1  0.98933128  0.45183660  0.59829400  1
  N  N72  1  0.40702918  0.04529485  0.64834488  1
  N  N73  1  0.59297082  0.95470515  0.14834488  1
  N  N74  1  0.90702918  0.45470515  0.14834488  1
  N  N75  1  0.09297082  0.54529485  0.64834488  1
  O  O76  1  0.91103578  0.18935981  0.48549674  1
  O  O77  1  0.08896422  0.81064019  0.98549674  1
  O  O78  1  0.41103578  0.31064019  0.98549674  1
  O  O79  1  0.58896422  0.68935981  0.48549674  1
  O  O80  1  0.21376778  0.30135369  0.45381903  1
  O  O81  1  0.78623222  0.69864631  0.95381903  1
  O  O82  1  0.71376778  0.19864631  0.95381903  1
  O  O83  1  0.28623222  0.80135369  0.45381903  1
  O  O84  1  0.28188958  0.10915150  0.36709444  1
  O  O85  1  0.71811042  0.89084850  0.86709444  1
  O  O86  1  0.78188958  0.39084850  0.86709444  1
  O  O87  1  0.21811042  0.60915150  0.36709444  1
  O  O88  1  0.58339748  0.21230680  0.61350000  1
  O  O89  1  0.41660252  0.78769320  0.11350000  1
  O  O90  1  0.08339748  0.28769320  0.11350000  1
  O  O91  1  0.91660252  0.71230680  0.61350000  1
  O  O92  1  0.36886248  0.39561924  0.69247910  1
  O  O93  1  0.63113752  0.60438076  0.19247910  1
  O  O94  1  0.86886248  0.10438076  0.19247910  1
  O  O95  1  0.13113752  0.89561924  0.69247910  1
  O  O96  1  0.21994707  0.22395994  0.75577655  1
  O  O97  1  0.78005293  0.77604006  0.25577655  1
  O  O98  1  0.71994707  0.27604006  0.25577655  1
  O  O99  1  0.28005293  0.72395994  0.75577655  1
  O  O100  1  0.84203905  0.02469206  0.68305448  1
  O  O101  1  0.15796095  0.97530794  0.18305448  1
  O  O102  1  0.34203905  0.47530794  0.18305448  1
  O  O103  1  0.65796095  0.52469206  0.68305448  1
  O  O104  1  0.59818893  0.09956867  0.39381826  1
  O  O105  1  0.40181107  0.90043133  0.89381826  1
  O  O106  1  0.09818893  0.40043133  0.89381826  1
  O  O107  1  0.90181107  0.59956867  0.39381826  1
