# generated using pymatgen
data_Li2Si2Ni2O7
_symmetry_space_group_name_H-M   'P 1'
_cell_length_a   5.06787033
_cell_length_b   4.86449376
_cell_length_c   13.00887176
_cell_angle_alpha   90.00000000
_cell_angle_beta   90.00000000
_cell_angle_gamma   121.39292217
_symmetry_Int_Tables_number   1
_chemical_formula_structural   Li2Si2Ni2O7
_chemical_formula_sum   'Li4 Si4 Ni4 O14'
_cell_volume   273.75678549
_cell_formula_units_Z   2
loop_
 _symmetry_equiv_pos_site_id
 _symmetry_equiv_pos_as_xyz
  1  'x, y, z'
loop_
 _atom_site_type_symbol
 _atom_site_label
 _atom_site_symmetry_multiplicity
 _atom_site_fract_x
 _atom_site_fract_y
 _atom_site_fract_z
 _atom_site_occupancy
  Li  Li0  1  0.34219574  0.59542883  0.58588546  1
  Li  Li1  1  0.34219574  0.59542883  0.91411454  1
  Li  Li2  1  0.74676691  0.40457117  0.41411454  1
  Li  Li3  1  0.74676691  0.40457117  0.08588546  1
  Si  Si4  1  0.39947245  0.70482827  0.36393966  1
  Si  Si5  1  0.39947245  0.70482827  0.13606034  1
  Si  Si6  1  0.69464418  0.29517173  0.63606034  1
  Si  Si7  1  0.69464418  0.29517173  0.86393966  1
  Ni  Ni8  1  0.03495211  0.00000000  0.00000000  1
  Ni  Ni9  1  0.03495211  0.00000000  0.50000000  1
  Ni  Ni10  1  0.02285931  0.01128628  0.25000000  1
  Ni  Ni11  1  0.01157303  0.98871372  0.75000000  1
  O  O12  1  0.14386269  0.81315681  0.13533221  1
  O  O13  1  0.14386269  0.81315681  0.36466779  1
  O  O14  1  0.36325654  0.51585062  0.25000000  1
  O  O15  1  0.73052769  0.97896399  0.87002635  1
  O  O16  1  0.73052769  0.97896399  0.62997365  1
  O  O17  1  0.36267799  0.44849174  0.05078717  1
  O  O18  1  0.36267799  0.44849174  0.44921283  1
  O  O19  1  0.33070588  0.18684319  0.86466779  1
  O  O20  1  0.33070588  0.18684319  0.63533221  1
  O  O21  1  0.84740592  0.48414938  0.75000000  1
  O  O22  1  0.75156370  0.02103601  0.37002635  1
  O  O23  1  0.75156370  0.02103601  0.12997365  1
  O  O24  1  0.91418725  0.55150826  0.94921283  1
  O  O25  1  0.91418725  0.55150826  0.55078717  1
