# generated using pymatgen
data_Mn5(Si2O7)2
_symmetry_space_group_name_H-M   'P 1'
_cell_length_a   7.69938989
_cell_length_b   8.04760787
_cell_length_c   5.68190686
_cell_angle_alpha   88.59523679
_cell_angle_beta   107.87576661
_cell_angle_gamma   114.57464672
_symmetry_Int_Tables_number   1
_chemical_formula_structural   Mn5(Si2O7)2
_chemical_formula_sum   'Mn5 Si4 O14'
_cell_volume   302.54312473
_cell_formula_units_Z   1
loop_
 _symmetry_equiv_pos_site_id
 _symmetry_equiv_pos_as_xyz
  1  'x, y, z'
loop_
 _atom_site_type_symbol
 _atom_site_label
 _atom_site_symmetry_multiplicity
 _atom_site_fract_x
 _atom_site_fract_y
 _atom_site_fract_z
 _atom_site_occupancy
  Mn  Mn0  1  0.00000000  0.00000000  0.00000000  1
  Mn  Mn1  1  0.39424700  0.80205392  0.08926243  1
  Mn  Mn2  1  0.57974270  0.69209224  0.64364772  1
  Mn  Mn3  1  0.42025730  0.30790776  0.35635228  1
  Mn  Mn4  1  0.60575300  0.19794608  0.91073757  1
  Si  Si5  1  0.22357869  0.85824899  0.49979279  1
  Si  Si6  1  0.21294734  0.38622719  0.77237387  1
  Si  Si7  1  0.78705266  0.61377281  0.22762613  1
  Si  Si8  1  0.77642131  0.14175101  0.50020721  1
  O  O9  1  0.34478137  0.96087535  0.78893008  1
  O  O10  1  0.23233461  0.58325282  0.85995091  1
  O  O11  1  0.01056609  0.27653704  0.52723985  1
  O  O12  1  0.34552249  0.75735734  0.41863001  1
  O  O13  1  0.19115693  0.24863554  0.99687323  1
  O  O14  1  0.40763890  0.41042173  0.68868020  1
  O  O15  1  0.21320287  0.01182724  0.29912431  1
  O  O16  1  0.78679713  0.98817276  0.70087569  1
  O  O17  1  0.59236110  0.58957827  0.31131980  1
  O  O18  1  0.80884307  0.75136446  0.00312677  1
  O  O19  1  0.65447751  0.24264266  0.58136999  1
  O  O20  1  0.98943391  0.72346296  0.47276015  1
  O  O21  1  0.76766539  0.41674718  0.14004909  1
  O  O22  1  0.65521863  0.03912465  0.21106992  1
