# generated using pymatgen
data_Li6VCrP2(CO7)2
_symmetry_space_group_name_H-M   'P 1'
_cell_length_a   8.56425730
_cell_length_b   4.99675421
_cell_length_c   6.53157815
_cell_angle_alpha   90.00000000
_cell_angle_beta   90.00000000
_cell_angle_gamma   85.37058442
_symmetry_Int_Tables_number   1
_chemical_formula_structural   Li6VCrP2(CO7)2
_chemical_formula_sum   'Li6 V1 Cr1 P2 C2 O14'
_cell_volume   278.59713789
_cell_formula_units_Z   1
loop_
 _symmetry_equiv_pos_site_id
 _symmetry_equiv_pos_as_xyz
  1  'x, y, z'
loop_
 _atom_site_type_symbol
 _atom_site_label
 _atom_site_symmetry_multiplicity
 _atom_site_fract_x
 _atom_site_fract_y
 _atom_site_fract_z
 _atom_site_occupancy
  Li  Li0  1  0.09089860  0.76080084  0.25000000  1
  Li  Li1  1  0.27515491  0.24726522  0.02442368  1
  Li  Li2  1  0.27515491  0.24726522  0.47557632  1
  Li  Li3  1  0.72487491  0.75307949  0.52940751  1
  Li  Li4  1  0.72487491  0.75307949  0.97059249  1
  Li  Li5  1  0.90541757  0.24098346  0.75000000  1
  V  V6  1  0.67032373  0.20716929  0.25000000  1
  Cr  Cr7  1  0.33590692  0.78416006  0.75000000  1
  P  P8  1  0.41283486  0.71712809  0.25000000  1
  P  P9  1  0.59052106  0.28109164  0.75000000  1
  C  C10  1  0.03122471  0.70596484  0.75000000  1
  C  C11  1  0.96468948  0.29889631  0.25000000  1
  O  O12  1  0.06461022  0.95286646  0.75000000  1
  O  O13  1  0.11089568  0.35402946  0.25000000  1
  O  O14  1  0.14564001  0.51565279  0.75000000  1
  O  O15  1  0.31130788  0.82430243  0.06354021  1
  O  O16  1  0.31130788  0.82430243  0.43645979  1
  O  O17  1  0.42154195  0.18863076  0.75000000  1
  O  O18  1  0.42900266  0.40424369  0.25000000  1
  O  O19  1  0.57915027  0.59405950  0.75000000  1
  O  O20  1  0.57801700  0.81837586  0.25000000  1
  O  O21  1  0.69039839  0.16970808  0.93390757  1
  O  O22  1  0.69039839  0.16970808  0.56609243  1
  O  O23  1  0.85342475  0.49231872  0.25000000  1
  O  O24  1  0.88729469  0.64098993  0.75000000  1
  O  O25  1  0.92513166  0.05392783  0.25000000  1
