# generated using pymatgen
data_Li3SbS4
_symmetry_space_group_name_H-M   'P 1'
_cell_length_a   7.20251669
_cell_length_b   9.24964773
_cell_length_c   10.06611193
_cell_angle_alpha   90.00000000
_cell_angle_beta   90.00000000
_cell_angle_gamma   90.00000000
_symmetry_Int_Tables_number   1
_chemical_formula_structural   Li3SbS4
_chemical_formula_sum   'Li12 Sb4 S16'
_cell_volume   670.61184736
_cell_formula_units_Z   4
loop_
 _symmetry_equiv_pos_site_id
 _symmetry_equiv_pos_as_xyz
  1  'x, y, z'
loop_
 _atom_site_type_symbol
 _atom_site_label
 _atom_site_symmetry_multiplicity
 _atom_site_fract_x
 _atom_site_fract_y
 _atom_site_fract_z
 _atom_site_occupancy
  Li  Li0  1  0.26394538  0.04830221  0.24521529  1
  Li  Li1  1  0.26394538  0.45169779  0.24521529  1
  Li  Li2  1  0.01213293  0.75000000  0.09578493  1
  Li  Li3  1  0.48786707  0.25000000  0.59578493  1
  Li  Li4  1  0.23605462  0.54830221  0.74521529  1
  Li  Li5  1  0.23605462  0.95169779  0.74521529  1
  Li  Li6  1  0.76394538  0.04830221  0.25478471  1
  Li  Li7  1  0.76394538  0.45169779  0.25478471  1
  Li  Li8  1  0.51213293  0.75000000  0.40421507  1
  Li  Li9  1  0.98786707  0.25000000  0.90421507  1
  Li  Li10  1  0.73605462  0.54830221  0.75478471  1
  Li  Li11  1  0.73605462  0.95169779  0.75478471  1
  Sb  Sb12  1  0.07456618  0.75000000  0.49354405  1
  Sb  Sb13  1  0.42543382  0.25000000  0.99354405  1
  Sb  Sb14  1  0.57456618  0.75000000  0.00645595  1
  Sb  Sb15  1  0.92543382  0.25000000  0.50645595  1
  S  S16  1  0.85225773  0.75000000  0.31934258  1
  S  S17  1  0.21530927  0.05292203  0.98022291  1
  S  S18  1  0.21530927  0.44707797  0.98022291  1
  S  S19  1  0.98169602  0.75000000  0.72020766  1
  S  S20  1  0.51830398  0.25000000  0.22020766  1
  S  S21  1  0.28469073  0.55292203  0.48022291  1
  S  S22  1  0.28469073  0.94707797  0.48022291  1
  S  S23  1  0.64774227  0.25000000  0.81934258  1
  S  S24  1  0.35225773  0.75000000  0.18065742  1
  S  S25  1  0.71530927  0.05292203  0.51977709  1
  S  S26  1  0.71530927  0.44707797  0.51977709  1
  S  S27  1  0.48169602  0.75000000  0.77979234  1
  S  S28  1  0.01830398  0.25000000  0.27979234  1
  S  S29  1  0.78469073  0.94707797  0.01977709  1
  S  S30  1  0.78469073  0.55292203  0.01977709  1
  S  S31  1  0.14774227  0.25000000  0.68065742  1
