# generated using pymatgen
data_Li4Mn2Ni3Sb3O16
_symmetry_space_group_name_H-M   'P 1'
_cell_length_a   6.07565080
_cell_length_b   6.10029293
_cell_length_c   9.69804707
_cell_angle_alpha   89.99566594
_cell_angle_beta   92.47251644
_cell_angle_gamma   120.14691579
_symmetry_Int_Tables_number   1
_chemical_formula_structural   Li4Mn2Ni3Sb3O16
_chemical_formula_sum   'Li4 Mn2 Ni3 Sb3 O16'
_cell_volume   310.43695149
_cell_formula_units_Z   1
loop_
 _symmetry_equiv_pos_site_id
 _symmetry_equiv_pos_as_xyz
  1  'x, y, z'
loop_
 _atom_site_type_symbol
 _atom_site_label
 _atom_site_symmetry_multiplicity
 _atom_site_fract_x
 _atom_site_fract_y
 _atom_site_fract_z
 _atom_site_occupancy
  Li  Li0  1  0.33512638  0.66756522  0.88670666  1
  Li  Li1  1  0.94809321  0.97404840  0.98354360  1
  Li  Li2  1  0.96162081  0.98079973  0.50312963  1
  Li  Li3  1  0.66136921  0.33071260  0.40551854  1
  Mn  Mn4  1  0.34568365  0.67288334  0.50143109  1
  Mn  Mn5  1  0.69894431  0.34946625  0.97416592  1
  Ni  Ni6  1  0.66304699  0.83155435  0.21403597  1
  Ni  Ni7  1  0.83636506  0.66309010  0.71413521  1
  Ni  Ni8  1  0.83621300  0.17316327  0.71418680  1
  Sb  Sb9  1  0.17462311  0.83521563  0.21328614  1
  Sb  Sb10  1  0.17463460  0.33943657  0.21329123  1
  Sb  Sb11  1  0.34086927  0.17049465  0.71240896  1
  O  O12  1  0.17132881  0.84741133  0.59729509  1
  O  O13  1  0.04004169  0.51998138  0.33772091  1
  O  O14  1  0.32167016  0.66090223  0.09952655  1
  O  O15  1  0.01144596  0.00567174  0.31535598  1
  O  O16  1  0.01202174  0.00605114  0.80636582  1
  O  O17  1  0.17142299  0.32407689  0.59729054  1
  O  O18  1  0.48394158  0.97195110  0.33454263  1
  O  O19  1  0.48394505  0.51201947  0.33453396  1
  O  O20  1  0.30562129  0.15286570  0.09817019  1
  O  O21  1  0.65599039  0.82807608  0.60377462  1
  O  O22  1  0.52090765  0.47417604  0.85167268  1
  O  O23  1  0.52074447  0.04671727  0.85170143  1
  O  O24  1  0.65813445  0.32902119  0.60807056  1
  O  O25  1  0.84793582  0.67213306  0.09694804  1
  O  O26  1  0.97031100  0.48507491  0.84207651  1
  O  O27  1  0.84794735  0.17573935  0.09695475  1
