# generated using pymatgen
data_LiV2F7
_symmetry_space_group_name_H-M   'P 1'
_cell_length_a   8.52536369
_cell_length_b   6.92611176
_cell_length_c   5.43364542
_cell_angle_alpha   86.09850651
_cell_angle_beta   103.13599404
_cell_angle_gamma   109.36660578
_symmetry_Int_Tables_number   1
_chemical_formula_structural   LiV2F7
_chemical_formula_sum   'Li2 V4 F14'
_cell_volume   294.75952940
_cell_formula_units_Z   2
loop_
 _symmetry_equiv_pos_site_id
 _symmetry_equiv_pos_as_xyz
  1  'x, y, z'
loop_
 _atom_site_type_symbol
 _atom_site_label
 _atom_site_symmetry_multiplicity
 _atom_site_fract_x
 _atom_site_fract_y
 _atom_site_fract_z
 _atom_site_occupancy
  Li  Li0  1  0.25661614  0.97769465  0.87010853  1
  Li  Li1  1  0.74338386  0.02230535  0.12989147  1
  V  V2  1  0.17925657  0.28174340  0.29343295  1
  V  V3  1  0.32530814  0.51489168  0.81755952  1
  V  V4  1  0.67469186  0.48510832  0.18244048  1
  V  V5  1  0.82074343  0.71825660  0.70656705  1
  F  F6  1  0.04400870  0.81987412  0.66635518  1
  F  F7  1  0.11779511  0.38685169  0.93485574  1
  F  F8  1  0.23654654  0.55256714  0.45537336  1
  F  F9  1  0.37943613  0.78738997  0.91616069  1
  F  F10  1  0.28791847  0.23669339  0.66865764  1
  F  F11  1  0.20751128  0.05277374  0.16748236  1
  F  F12  1  0.42592028  0.43843888  0.19236053  1
  F  F13  1  0.57407972  0.56156112  0.80763947  1
  F  F14  1  0.79248872  0.94722626  0.83251764  1
  F  F15  1  0.71208153  0.76330661  0.33134236  1
  F  F16  1  0.62056387  0.21261003  0.08383931  1
  F  F17  1  0.76345346  0.44743286  0.54462664  1
  F  F18  1  0.88220489  0.61314831  0.06514426  1
  F  F19  1  0.95599130  0.18012588  0.33364482  1
