# generated using pymatgen
data_Si4MoH36C12(NO)2
_symmetry_space_group_name_H-M   'P 1'
_cell_length_a   11.44045692
_cell_length_b   13.90705725
_cell_length_c   19.14880321
_cell_angle_alpha   90.00000000
_cell_angle_beta   90.00000000
_cell_angle_gamma   90.00000000
_symmetry_Int_Tables_number   1
_chemical_formula_structural   Si4MoH36C12(NO)2
_chemical_formula_sum   'Si16 Mo4 H144 C48 N8 O8'
_cell_volume   3046.63374812
_cell_formula_units_Z   4
loop_
 _symmetry_equiv_pos_site_id
 _symmetry_equiv_pos_as_xyz
  1  'x, y, z'
loop_
 _atom_site_type_symbol
 _atom_site_label
 _atom_site_symmetry_multiplicity
 _atom_site_fract_x
 _atom_site_fract_y
 _atom_site_fract_z
 _atom_site_occupancy
  Si  Si0  1  0.70092950  0.94905793  0.40448666  1
  Si  Si1  1  0.20092950  0.55094207  0.09551334  1
  Si  Si2  1  0.29907050  0.05094207  0.90448666  1
  Si  Si3  1  0.79907050  0.44905793  0.59551334  1
  Si  Si4  1  0.29907050  0.05094207  0.59551334  1
  Si  Si5  1  0.79907050  0.44905793  0.90448666  1
  Si  Si6  1  0.70092950  0.94905793  0.09551334  1
  Si  Si7  1  0.20092950  0.55094207  0.40448666  1
  Si  Si8  1  0.09983361  0.89712466  0.25000000  1
  Si  Si9  1  0.59983361  0.60287534  0.25000000  1
  Si  Si10  1  0.90016639  0.10287534  0.75000000  1
  Si  Si11  1  0.40016639  0.39712466  0.75000000  1
  Si  Si12  1  0.07130319  0.12123830  0.25000000  1
  Si  Si13  1  0.57130319  0.37876170  0.25000000  1
  Si  Si14  1  0.92869681  0.87876170  0.75000000  1
  Si  Si15  1  0.42869681  0.62123830  0.75000000  1
  Mo  Mo16  1  0.83946434  0.98190215  0.25000000  1
  Mo  Mo17  1  0.33946434  0.51809785  0.25000000  1
  Mo  Mo18  1  0.16053566  0.01809785  0.75000000  1
  Mo  Mo19  1  0.66053566  0.48190215  0.75000000  1
  H  H20  1  0.49801983  0.99907287  0.42541651  1
  H  H21  1  0.99801983  0.50092713  0.07458349  1
  H  H22  1  0.50198017  0.00092713  0.92541651  1
  H  H23  1  0.00198017  0.49907287  0.57458349  1
  H  H24  1  0.50198017  0.00092713  0.57458349  1
  H  H25  1  0.00198017  0.49907287  0.92541651  1
  H  H26  1  0.49801983  0.99907287  0.07458349  1
  H  H27  1  0.99801983  0.50092713  0.42541651  1
  H  H28  1  0.50076614  0.91865535  0.35326611  1
  H  H29  1  0.00076614  0.58134465  0.14673389  1
  H  H30  1  0.49923386  0.08134465  0.85326611  1
  H  H31  1  0.99923386  0.41865535  0.64673389  1
  H  H32  1  0.49923386  0.08134465  0.64673389  1
  H  H33  1  0.99923386  0.41865535  0.85326611  1
  H  H34  1  0.50076614  0.91865535  0.14673389  1
  H  H35  1  0.00076614  0.58134465  0.35326611  1
  H  H36  1  0.54727260  0.04071263  0.34306787  1
  H  H37  1  0.04727260  0.45928737  0.15693213  1
  H  H38  1  0.45272740  0.95928737  0.84306787  1
  H  H39  1  0.95272740  0.54071263  0.65693213  1
  H  H40  1  0.45272740  0.95928737  0.65693213  1
  H  H41  1  0.95272740  0.54071263  0.84306787  1
  H  H42  1  0.54727260  0.04071263  0.15693213  1
  H  H43  1  0.04727260  0.45928737  0.34306787  1
  H  H44  1  0.70386024  0.07929081  0.49292790  1
  H  H45  1  0.20386024  0.42070919  0.00707210  1
  H  H46  1  0.29613976  0.92070919  0.99292790  1
  H  H47  1  0.79613976  0.57929081  0.50707210  1
  H  H48  1  0.29613976  0.92070919  0.50707210  1
  H  H49  1  0.79613976  0.57929081  0.99292790  1
  H  H50  1  0.70386024  0.07929081  0.00707210  1
  H  H51  1  0.20386024  0.42070919  0.49292790  1
  H  H52  1  0.73376181  0.12147893  0.40753218  1
  H  H53  1  0.23376181  0.37852107  0.09246782  1
  H  H54  1  0.26623819  0.87852107  0.90753218  1
  H  H55  1  0.76623819  0.62147893  0.59246782  1
  H  H56  1  0.26623819  0.87852107  0.59246782  1
  H  H57  1  0.76623819  0.62147893  0.90753218  1
  H  H58  1  0.73376181  0.12147893  0.09246782  1
  H  H59  1  0.23376181  0.37852107  0.40753218  1
  H  H60  1  0.84720198  0.06781672  0.45758439  1
  H  H61  1  0.34720198  0.43218328  0.04241561  1
  H  H62  1  0.15279802  0.93218328  0.95758439  1
  H  H63  1  0.65279802  0.56781672  0.54241561  1
  H  H64  1  0.15279802  0.93218328  0.54241561  1
  H  H65  1  0.65279802  0.56781672  0.95758439  1
  H  H66  1  0.84720198  0.06781672  0.04241561  1
  H  H67  1  0.34720198  0.43218328  0.45758439  1
  H  H68  1  0.64780543  0.86247482  0.51229031  1
  H  H69  1  0.14780543  0.63752518  0.98770969  1
  H  H70  1  0.35219457  0.13752518  0.01229031  1
  H  H71  1  0.85219457  0.36247482  0.48770969  1
  H  H72  1  0.35219457  0.13752518  0.48770969  1
  H  H73  1  0.85219457  0.36247482  0.01229031  1
  H  H74  1  0.64780543  0.86247482  0.98770969  1
  H  H75  1  0.14780543  0.63752518  0.51229031  1
  H  H76  1  0.77976268  0.81197891  0.47932807  1
  H  H77  1  0.27976268  0.68802109  0.02067193  1
  H  H78  1  0.22023732  0.18802109  0.97932807  1
  H  H79  1  0.72023732  0.31197891  0.52067193  1
  H  H80  1  0.22023732  0.18802109  0.52067193  1
  H  H81  1  0.72023732  0.31197891  0.97932807  1
  H  H82  1  0.77976268  0.81197891  0.02067193  1
  H  H83  1  0.27976268  0.68802109  0.47932807  1
  H  H84  1  0.64388187  0.78486398  0.43889711  1
  H  H85  1  0.14388187  0.71513602  0.06110289  1
  H  H86  1  0.35611813  0.21513602  0.93889711  1
  H  H87  1  0.85611813  0.28486398  0.56110289  1
  H  H88  1  0.35611813  0.21513602  0.56110289  1
  H  H89  1  0.85611813  0.28486398  0.93889711  1
  H  H90  1  0.64388187  0.78486398  0.06110289  1
  H  H91  1  0.14388187  0.71513602  0.43889711  1
  H  H92  1  0.05882023  0.72457023  0.25000000  1
  H  H93  1  0.55882023  0.77542977  0.25000000  1
  H  H94  1  0.94117977  0.27542977  0.75000000  1
  H  H95  1  0.44117977  0.22457023  0.75000000  1
  H  H96  1  0.94635225  0.78501828  0.29668981  1
  H  H97  1  0.44635225  0.71498172  0.20331019  1
  H  H98  1  0.05364775  0.21498172  0.79668981  1
  H  H99  1  0.55364775  0.28501828  0.70331019  1
  H  H100  1  0.05364775  0.21498172  0.70331019  1
  H  H101  1  0.55364775  0.28501828  0.79668981  1
  H  H102  1  0.94635225  0.78501828  0.20331019  1
  H  H103  1  0.44635225  0.71498172  0.29668981  1
  H  H104  1  0.24556135  0.82202514  0.32662329  1
  H  H105  1  0.74556135  0.67797486  0.17337671  1
  H  H106  1  0.75443865  0.17797486  0.82662329  1
  H  H107  1  0.25443865  0.32202514  0.67337671  1
  H  H108  1  0.75443865  0.17797486  0.67337671  1
  H  H109  1  0.25443865  0.32202514  0.82662329  1
  H  H110  1  0.24556135  0.82202514  0.17337671  1
  H  H111  1  0.74556135  0.67797486  0.32662329  1
  H  H112  1  0.14255581  0.88748251  0.37769526  1
  H  H113  1  0.64255581  0.61251749  0.12230474  1
  H  H114  1  0.85744419  0.11251749  0.87769526  1
  H  H115  1  0.35744419  0.38748251  0.62230474  1
  H  H116  1  0.85744419  0.11251749  0.62230474  1
  H  H117  1  0.35744419  0.38748251  0.87769526  1
  H  H118  1  0.14255581  0.88748251  0.12230474  1
  H  H119  1  0.64255581  0.61251749  0.37769526  1
  H  H120  1  0.25736655  0.94894593  0.33354577  1
  H  H121  1  0.75736655  0.55105407  0.16645423  1
  H  H122  1  0.74263345  0.05105407  0.83354577  1
  H  H123  1  0.24263345  0.44894593  0.66645423  1
  H  H124  1  0.74263345  0.05105407  0.66645423  1
  H  H125  1  0.24263345  0.44894593  0.83354577  1
  H  H126  1  0.25736655  0.94894593  0.16645423  1
  H  H127  1  0.75736655  0.55105407  0.33354577  1
  H  H128  1  0.26216496  0.19742009  0.25000000  1
  H  H129  1  0.76216496  0.30257991  0.25000000  1
  H  H130  1  0.73783504  0.80257991  0.75000000  1
  H  H131  1  0.23783504  0.69742009  0.75000000  1
  H  H132  1  0.27419613  0.08757449  0.29649311  1
  H  H133  1  0.77419613  0.41242551  0.20350689  1
  H  H134  1  0.72580387  0.91242551  0.79649311  1
  H  H135  1  0.22580387  0.58757449  0.70350689  1
  H  H136  1  0.72580387  0.91242551  0.70350689  1
  H  H137  1  0.22580387  0.58757449  0.79649311  1
  H  H138  1  0.27419613  0.08757449  0.20350689  1
  H  H139  1  0.77419613  0.41242551  0.29649311  1
  H  H140  1  0.06254825  0.26191364  0.32605490  1
  H  H141  1  0.56254825  0.23808636  0.17394510  1
  H  H142  1  0.93745175  0.73808636  0.82605490  1
  H  H143  1  0.43745175  0.76191364  0.67394510  1
  H  H144  1  0.93745175  0.73808636  0.67394510  1
  H  H145  1  0.43745175  0.76191364  0.82605490  1
  H  H146  1  0.06254825  0.26191364  0.17394510  1
  H  H147  1  0.56254825  0.23808636  0.32605490  1
  H  H148  1  0.05327364  0.15558392  0.37788599  1
  H  H149  1  0.55327364  0.34441608  0.12211401  1
  H  H150  1  0.94672636  0.84441608  0.87788599  1
  H  H151  1  0.44672636  0.65558392  0.62211401  1
  H  H152  1  0.94672636  0.84441608  0.62211401  1
  H  H153  1  0.44672636  0.65558392  0.87788599  1
  H  H154  1  0.05327364  0.15558392  0.12211401  1
  H  H155  1  0.55327364  0.34441608  0.37788599  1
  H  H156  1  0.92822268  0.19724616  0.33075606  1
  H  H157  1  0.42822268  0.30275384  0.16924394  1
  H  H158  1  0.07177732  0.80275384  0.83075606  1
  H  H159  1  0.57177732  0.69724616  0.66924394  1
  H  H160  1  0.07177732  0.80275384  0.66924394  1
  H  H161  1  0.57177732  0.69724616  0.83075606  1
  H  H162  1  0.92822268  0.19724616  0.16924394  1
  H  H163  1  0.42822268  0.30275384  0.33075606  1
  C  C164  1  0.54729029  0.97835394  0.37829429  1
  C  C165  1  0.04729029  0.52164606  0.12170571  1
  C  C166  1  0.45270971  0.02164606  0.87829429  1
  C  C167  1  0.95270971  0.47835394  0.62170571  1
  C  C168  1  0.45270971  0.02164606  0.62170571  1
  C  C169  1  0.95270971  0.47835394  0.87829429  1
  C  C170  1  0.54729029  0.97835394  0.12170571  1
  C  C171  1  0.04729029  0.52164606  0.37829429  1
  C  C172  1  0.75382823  0.06381769  0.44506477  1
  C  C173  1  0.25382823  0.43618231  0.05493523  1
  C  C174  1  0.24617177  0.93618231  0.94506477  1
  C  C175  1  0.74617177  0.56381769  0.55493523  1
  C  C176  1  0.24617177  0.93618231  0.55493523  1
  C  C177  1  0.74617177  0.56381769  0.94506477  1
  C  C178  1  0.75382823  0.06381769  0.05493523  1
  C  C179  1  0.25382823  0.43618231  0.44506477  1
  C  C180  1  0.69478564  0.84222282  0.46425829  1
  C  C181  1  0.19478564  0.65777718  0.03574171  1
  C  C182  1  0.30521436  0.15777718  0.96425829  1
  C  C183  1  0.80521436  0.34222282  0.53574171  1
  C  C184  1  0.30521436  0.15777718  0.53574171  1
  C  C185  1  0.80521436  0.34222282  0.96425829  1
  C  C186  1  0.69478564  0.84222282  0.03574171  1
  C  C187  1  0.19478564  0.65777718  0.46425829  1
  C  C188  1  0.00207962  0.78853043  0.25000000  1
  C  C189  1  0.50207962  0.71146957  0.25000000  1
  C  C190  1  0.99792038  0.21146957  0.75000000  1
  C  C191  1  0.49792038  0.28853043  0.75000000  1
  C  C192  1  0.19501809  0.88931202  0.32966553  1
  C  C193  1  0.69501809  0.61068798  0.17033447  1
  C  C194  1  0.80498191  0.11068798  0.82966553  1
  C  C195  1  0.30498191  0.38931202  0.67033447  1
  C  C196  1  0.80498191  0.11068798  0.67033447  1
  C  C197  1  0.30498191  0.38931202  0.82966553  1
  C  C198  1  0.19501809  0.88931202  0.17033447  1
  C  C199  1  0.69501809  0.61068798  0.32966553  1
  C  C200  1  0.23584132  0.12120651  0.25000000  1
  C  C201  1  0.73584132  0.37879349  0.25000000  1
  C  C202  1  0.76415868  0.87879349  0.75000000  1
  C  C203  1  0.26415868  0.62120651  0.75000000  1
  C  C204  1  0.02363227  0.18964106  0.32924284  1
  C  C205  1  0.52363227  0.31035894  0.17075716  1
  C  C206  1  0.97636773  0.81035894  0.82924284  1
  C  C207  1  0.47636773  0.68964106  0.67075716  1
  C  C208  1  0.97636773  0.81035894  0.67075716  1
  C  C209  1  0.47636773  0.68964106  0.82924284  1
  C  C210  1  0.02363227  0.18964106  0.17075716  1
  C  C211  1  0.52363227  0.31035894  0.32924284  1
  N  N212  1  0.78717185  0.09399883  0.25000000  1
  N  N213  1  0.28717185  0.40600117  0.25000000  1
  N  N214  1  0.21282815  0.90600117  0.75000000  1
  N  N215  1  0.71282815  0.59399883  0.75000000  1
  N  N216  1  0.01138477  0.00232198  0.25000000  1
  N  N217  1  0.51138477  0.49767802  0.25000000  1
  N  N218  1  0.98861523  0.99767802  0.75000000  1
  N  N219  1  0.48861523  0.50232198  0.75000000  1
  O  O220  1  0.78323520  0.92040241  0.33435204  1
  O  O221  1  0.28323520  0.57959759  0.16564796  1
  O  O222  1  0.21676480  0.07959759  0.83435204  1
  O  O223  1  0.71676480  0.42040241  0.66564796  1
  O  O224  1  0.21676480  0.07959759  0.66564796  1
  O  O225  1  0.71676480  0.42040241  0.83435204  1
  O  O226  1  0.78323520  0.92040241  0.16564796  1
  O  O227  1  0.28323520  0.57959759  0.33435204  1
