# generated using pymatgen
data_Li3NiPCO7
_symmetry_space_group_name_H-M   'P 1'
_cell_length_a   9.41734183
_cell_length_b   9.69346148
_cell_length_c   6.30363973
_cell_angle_alpha   90.00000000
_cell_angle_beta   90.00000000
_cell_angle_gamma   65.26640437
_symmetry_Int_Tables_number   1
_chemical_formula_structural   Li3NiPCO7
_chemical_formula_sum   'Li12 Ni4 P4 C4 O28'
_cell_volume   522.64912984
_cell_formula_units_Z   4
loop_
 _symmetry_equiv_pos_site_id
 _symmetry_equiv_pos_as_xyz
  1  'x, y, z'
loop_
 _atom_site_type_symbol
 _atom_site_label
 _atom_site_symmetry_multiplicity
 _atom_site_fract_x
 _atom_site_fract_y
 _atom_site_fract_z
 _atom_site_occupancy
  Li  Li0  1  0.89126071  0.44404394  0.75719591  1
  Li  Li1  1  0.89126071  0.94404394  0.74280409  1
  Li  Li2  1  0.71810276  0.26312057  0.49870648  1
  Li  Li3  1  0.71810276  0.76312057  0.00129352  1
  Li  Li4  1  0.64287052  0.06615321  0.24996937  1
  Li  Li5  1  0.64287052  0.56615321  0.25003063  1
  Li  Li6  1  0.35712948  0.43384679  0.74996937  1
  Li  Li7  1  0.35712948  0.93384679  0.75003063  1
  Li  Li8  1  0.28189724  0.23687943  0.99870648  1
  Li  Li9  1  0.28189724  0.73687943  0.50129352  1
  Li  Li10  1  0.10873929  0.05595606  0.25719591  1
  Li  Li11  1  0.10873929  0.55595606  0.24280409  1
  Ni  Ni12  1  0.73252927  0.26068341  0.99494787  1
  Ni  Ni13  1  0.73252927  0.76068341  0.50505213  1
  Ni  Ni14  1  0.26747073  0.23931659  0.49494787  1
  Ni  Ni15  1  0.26747073  0.73931659  0.00505213  1
  P  P16  1  0.59269272  0.06536489  0.73885433  1
  P  P17  1  0.59269272  0.56536489  0.76114567  1
  P  P18  1  0.40730728  0.43463511  0.23885433  1
  P  P19  1  0.40730728  0.93463511  0.26114567  1
  C  C20  1  0.95970391  0.36915194  0.25537881  1
  C  C21  1  0.95970391  0.86915194  0.24462119  1
  C  C22  1  0.04029609  0.13084806  0.75537881  1
  C  C23  1  0.04029609  0.63084806  0.74462119  1
  O  O24  1  0.93514558  0.00810377  0.23266211  1
  O  O25  1  0.93514558  0.50810377  0.26733789  1
  O  O26  1  0.89628052  0.23885719  0.76590315  1
  O  O27  1  0.84599725  0.32796985  0.23413861  1
  O  O28  1  0.89628052  0.73885719  0.73409685  1
  O  O29  1  0.84599725  0.82796985  0.26586139  1
  O  O30  1  0.68257683  0.07593464  0.94105571  1
  O  O31  1  0.69293324  0.07603080  0.55273038  1
  O  O32  1  0.69293324  0.57603080  0.94726962  1
  O  O33  1  0.68257683  0.57593464  0.55894429  1
  O  O34  1  0.57669284  0.31046039  0.24018001  1
  O  O35  1  0.58645495  0.40658604  0.76515547  1
  O  O36  1  0.57669284  0.81046039  0.25981999  1
  O  O37  1  0.58645495  0.90658604  0.73484453  1
  O  O38  1  0.41354505  0.09341396  0.26515547  1
  O  O39  1  0.42330716  0.18953961  0.74018001  1
  O  O40  1  0.41354505  0.59341396  0.23484453  1
  O  O41  1  0.42330716  0.68953961  0.75981999  1
  O  O42  1  0.30706676  0.42396920  0.05273038  1
  O  O43  1  0.31742317  0.42406536  0.44105571  1
  O  O44  1  0.31742317  0.92406536  0.05894429  1
  O  O45  1  0.30706676  0.92396920  0.44726962  1
  O  O46  1  0.15400275  0.17203015  0.73413861  1
  O  O47  1  0.10371948  0.26114281  0.26590315  1
  O  O48  1  0.15400275  0.67203015  0.76586139  1
  O  O49  1  0.10371948  0.76114281  0.23409685  1
  O  O50  1  0.06485442  0.49189623  0.73266211  1
  O  O51  1  0.06485442  0.99189623  0.76733789  1
