# generated using pymatgen
data_Li3NiPCO7
_symmetry_space_group_name_H-M   'P 1'
_cell_length_a   8.60677066
_cell_length_b   9.68807897
_cell_length_c   6.30126099
_cell_angle_alpha   90.00000000
_cell_angle_beta   90.00000000
_cell_angle_gamma   84.09652206
_symmetry_Int_Tables_number   1
_chemical_formula_structural   Li3NiPCO7
_chemical_formula_sum   'Li12 Ni4 P4 C4 O28'
_cell_volume   522.63199337
_cell_formula_units_Z   4
loop_
 _symmetry_equiv_pos_site_id
 _symmetry_equiv_pos_as_xyz
  1  'x, y, z'
loop_
 _atom_site_type_symbol
 _atom_site_label
 _atom_site_symmetry_multiplicity
 _atom_site_fract_x
 _atom_site_fract_y
 _atom_site_fract_z
 _atom_site_occupancy
  Li  Li0  1  0.10847734  0.38891686  0.24207453  1
  Li  Li1  1  0.10847734  0.88891686  0.25792547  1
  Li  Li2  1  0.27871754  0.12163880  0.50169062  1
  Li  Li3  1  0.27871754  0.62163880  0.99830938  1
  Li  Li4  1  0.35582227  0.38711535  0.74765503  1
  Li  Li5  1  0.35582227  0.88711535  0.75234497  1
  Li  Li6  1  0.64417773  0.11288465  0.25234497  1
  Li  Li7  1  0.64417773  0.61288465  0.24765503  1
  Li  Li8  1  0.72128246  0.37836120  0.49830938  1
  Li  Li9  1  0.72128246  0.87836120  0.00169062  1
  Li  Li10  1  0.89152266  0.11108314  0.75792547  1
  Li  Li11  1  0.89152266  0.61108314  0.74207453  1
  Ni  Ni12  1  0.26978047  0.12771392  0.00360950  1
  Ni  Ni13  1  0.26978047  0.62771392  0.49639050  1
  Ni  Ni14  1  0.73021953  0.37228608  0.99639050  1
  Ni  Ni15  1  0.73021953  0.87228608  0.50360950  1
  P  P16  1  0.40708464  0.36150488  0.23908103  1
  P  P17  1  0.40708464  0.86150488  0.26091897  1
  P  P18  1  0.59291536  0.13849512  0.76091897  1
  P  P19  1  0.59291536  0.63849512  0.73908103  1
  C  C20  1  0.04087992  0.34911266  0.75911875  1
  C  C21  1  0.04087992  0.84911266  0.74088125  1
  C  C22  1  0.95912008  0.15088734  0.24088125  1
  C  C23  1  0.95912008  0.65088734  0.25911875  1
  O  O24  1  0.06466442  0.47570919  0.74069560  1
  O  O25  1  0.10304980  0.18670082  0.22632253  1
  O  O26  1  0.06466442  0.97570919  0.75930440  1
  O  O27  1  0.15548510  0.25087100  0.75792382  1
  O  O28  1  0.10304980  0.68670082  0.27367747  1
  O  O29  1  0.15548510  0.75087100  0.74207618  1
  O  O30  1  0.30763294  0.42008454  0.05089480  1
  O  O31  1  0.31627817  0.41837893  0.43969715  1
  O  O32  1  0.31627817  0.91837893  0.06030285  1
  O  O33  1  0.30763294  0.92008454  0.44910520  1
  O  O34  1  0.42389589  0.09808876  0.75938410  1
  O  O35  1  0.41378031  0.19948108  0.23776427  1
  O  O36  1  0.42389589  0.59808876  0.74061590  1
  O  O37  1  0.41378031  0.69948108  0.26223573  1
  O  O38  1  0.58621969  0.30051892  0.76223573  1
  O  O39  1  0.57610411  0.40191124  0.24061590  1
  O  O40  1  0.58621969  0.80051892  0.73776427  1
  O  O41  1  0.57610411  0.90191124  0.25938410  1
  O  O42  1  0.69236706  0.07991546  0.94910520  1
  O  O43  1  0.68372183  0.08162107  0.56030285  1
  O  O44  1  0.69236706  0.57991546  0.55089480  1
  O  O45  1  0.68372183  0.58162107  0.93969715  1
  O  O46  1  0.84451490  0.24912900  0.24207618  1
  O  O47  1  0.89695020  0.31329918  0.77367747  1
  O  O48  1  0.84451490  0.74912900  0.25792382  1
  O  O49  1  0.93533558  0.02429081  0.25930440  1
  O  O50  1  0.89695020  0.81329918  0.72632253  1
  O  O51  1  0.93533558  0.52429081  0.24069560  1
