# generated using pymatgen
data_Li4Mn3Fe3(CoO8)2
_symmetry_space_group_name_H-M   'P 1'
_cell_length_a   5.87983773
_cell_length_b   5.85259341
_cell_length_c   9.38052577
_cell_angle_alpha   89.99960024
_cell_angle_beta   89.07517436
_cell_angle_gamma   119.84427403
_symmetry_Int_Tables_number   1
_chemical_formula_structural   Li4Mn3Fe3(CoO8)2
_chemical_formula_sum   'Li4 Mn3 Fe3 Co2 O16'
_cell_volume   279.94687694
_cell_formula_units_Z   1
loop_
 _symmetry_equiv_pos_site_id
 _symmetry_equiv_pos_as_xyz
  1  'x, y, z'
loop_
 _atom_site_type_symbol
 _atom_site_label
 _atom_site_symmetry_multiplicity
 _atom_site_fract_x
 _atom_site_fract_y
 _atom_site_fract_z
 _atom_site_occupancy
  Li  Li0  1  0.33738261  0.66874356  0.89440704  1
  Li  Li1  1  0.99808411  0.99903470  0.99733786  1
  Li  Li2  1  0.00391033  0.00195710  0.49546606  1
  Li  Li3  1  0.66855688  0.33423112  0.39443901  1
  Mn  Mn4  1  0.65465686  0.82732339  0.21409984  1
  Mn  Mn5  1  0.83084690  0.66190279  0.71295261  1
  Mn  Mn6  1  0.83085925  0.16898896  0.71295247  1
  Fe  Fe7  1  0.16774924  0.82853816  0.21217238  1
  Fe  Fe8  1  0.16774028  0.33924251  0.21216985  1
  Fe  Fe9  1  0.33677898  0.16840804  0.71104638  1
  Co  Co10  1  0.32579644  0.66290431  0.48114930  1
  Co  Co11  1  0.66184610  0.33093720  0.98409830  1
  O  O12  1  0.16120951  0.82805028  0.60004153  1
  O  O13  1  0.04504351  0.52254672  0.34892145  1
  O  O14  1  0.34455641  0.67228654  0.10147624  1
  O  O15  1  0.98615836  0.99310051  0.30697161  1
  O  O16  1  0.98746336  0.99373744  0.80918999  1
  O  O17  1  0.16118668  0.33315454  0.60001520  1
  O  O18  1  0.48447320  0.95616191  0.34494370  1
  O  O19  1  0.48449485  0.52831240  0.34493742  1
  O  O20  1  0.33910069  0.16956058  0.09512628  1
  O  O21  1  0.67529999  0.83767815  0.60320833  1
  O  O22  1  0.52947151  0.48592996  0.84415554  1
  O  O23  1  0.52950239  0.04361168  0.84417285  1
  O  O24  1  0.68197930  0.34101558  0.60543683  1
  O  O25  1  0.82436128  0.66223207  0.09857136  1
  O  O26  1  0.95714449  0.47857759  0.83979802  1
  O  O27  1  0.82434848  0.16213221  0.09858454  1
