# generated using pymatgen
data_Li3Fe3(BO3)4
_symmetry_space_group_name_H-M   'P 1'
_cell_length_a   5.22159022
_cell_length_b   9.06708666
_cell_length_c   9.93658179
_cell_angle_alpha   90.00000000
_cell_angle_beta   92.86257869
_cell_angle_gamma   90.00000000
_symmetry_Int_Tables_number   1
_chemical_formula_structural   Li3Fe3(BO3)4
_chemical_formula_sum   'Li6 Fe6 B8 O24'
_cell_volume   469.85657474
_cell_formula_units_Z   2
loop_
 _symmetry_equiv_pos_site_id
 _symmetry_equiv_pos_as_xyz
  1  'x, y, z'
loop_
 _atom_site_type_symbol
 _atom_site_label
 _atom_site_symmetry_multiplicity
 _atom_site_fract_x
 _atom_site_fract_y
 _atom_site_fract_z
 _atom_site_occupancy
  Li  Li0  1  0.15914447  0.96574383  0.66506442  1
  Li  Li1  1  0.22409634  0.97768830  0.08463672  1
  Li  Li2  1  0.29731760  0.47986421  0.40074477  1
  Li  Li3  1  0.65914447  0.53425617  0.16506442  1
  Li  Li4  1  0.72409634  0.52231170  0.58463672  1
  Li  Li5  1  0.79731760  0.02013579  0.90074477  1
  Fe  Fe6  1  0.16002013  0.32718585  0.13490497  1
  Fe  Fe7  1  0.35219260  0.47050203  0.81591273  1
  Fe  Fe8  1  0.35130369  0.79221066  0.38308135  1
  Fe  Fe9  1  0.66002013  0.17281415  0.63490497  1
  Fe  Fe10  1  0.85130369  0.70778934  0.88308135  1
  Fe  Fe11  1  0.85219260  0.02949797  0.31591273  1
  B  B12  1  0.16973199  0.30252744  0.61413939  1
  B  B13  1  0.15378857  0.65836087  0.13650653  1
  B  B14  1  0.31889450  0.80896834  0.88425645  1
  B  B15  1  0.34825194  0.15051177  0.36753424  1
  B  B16  1  0.65378857  0.84163913  0.63650653  1
  B  B17  1  0.66973199  0.19747256  0.11413939  1
  B  B18  1  0.84825194  0.34948823  0.86753424  1
  B  B19  1  0.81889450  0.69103166  0.38425645  1
  O  O20  1  0.10933569  0.35279384  0.90747710  1
  O  O21  1  0.06731662  0.64952006  0.40273664  1
  O  O22  1  0.11065382  0.90094191  0.89443587  1
  O  O23  1  0.24390388  0.66232119  0.85557792  1
  O  O24  1  0.22232732  0.27901976  0.33242722  1
  O  O25  1  0.21434228  0.01619479  0.35881548  1
  O  O26  1  0.28490574  0.16601635  0.62586995  1
  O  O27  1  0.27284686  0.78553104  0.18370247  1
  O  O28  1  0.33555733  0.42634349  0.62721602  1
  O  O29  1  0.28611499  0.52338098  0.15268664  1
  O  O30  1  0.41042697  0.84055802  0.57486833  1
  O  O31  1  0.41068268  0.17494948  0.09774478  1
  O  O32  1  0.56731662  0.85047994  0.90273664  1
  O  O33  1  0.60933569  0.14720616  0.40747710  1
  O  O34  1  0.72232732  0.22098024  0.83242722  1
  O  O35  1  0.61065382  0.59905809  0.39443587  1
  O  O36  1  0.71434228  0.48380521  0.85881548  1
  O  O37  1  0.74390388  0.83767881  0.35557792  1
  O  O38  1  0.77284686  0.71446896  0.68370247  1
  O  O39  1  0.78490574  0.33398365  0.12586995  1
  O  O40  1  0.78611499  0.97661902  0.65268664  1
  O  O41  1  0.83555733  0.07365651  0.12721602  1
  O  O42  1  0.91068268  0.32505052  0.59774478  1
  O  O43  1  0.91042697  0.65944198  0.07486833  1
