# generated using pymatgen
data_Li8Sb2S
_symmetry_space_group_name_H-M   'P 1'
_cell_length_a   8.10989556
_cell_length_b   9.01813201
_cell_length_c   7.92165217
_cell_angle_alpha   111.30682711
_cell_angle_beta   59.21075390
_cell_angle_gamma   116.72084089
_symmetry_Int_Tables_number   1
_chemical_formula_structural   Li8Sb2S
_chemical_formula_sum   'Li16 Sb4 S2'
_cell_volume   437.80193509
_cell_formula_units_Z   2
loop_
 _symmetry_equiv_pos_site_id
 _symmetry_equiv_pos_as_xyz
  1  'x, y, z'
loop_
 _atom_site_type_symbol
 _atom_site_label
 _atom_site_symmetry_multiplicity
 _atom_site_fract_x
 _atom_site_fract_y
 _atom_site_fract_z
 _atom_site_occupancy
  Li  Li0  1  0.12697050  0.29824561  0.06028191  1
  Li  Li1  1  0.42287273  0.12723508  0.97457479  1
  Li  Li2  1  0.77021244  0.37276492  0.52542521  1
  Li  Li3  1  0.38900679  0.20175439  0.43971809  1
  Li  Li4  1  0.50953592  0.45185318  0.21262425  1
  Li  Li5  1  0.22969401  0.95185318  0.71262425  1
  Li  Li6  1  0.92868490  0.58084012  0.21587039  1
  Li  Li7  1  0.93628483  0.08084012  0.71587039  1
  Li  Li8  1  0.06371517  0.91915988  0.28412961  1
  Li  Li9  1  0.07131510  0.41915988  0.78412961  1
  Li  Li10  1  0.77030599  0.04814682  0.28737575  1
  Li  Li11  1  0.49046408  0.54814682  0.78737575  1
  Li  Li12  1  0.61099321  0.79824561  0.56028191  1
  Li  Li13  1  0.22978756  0.62723508  0.47457479  1
  Li  Li14  1  0.57712727  0.87276492  0.02542521  1
  Li  Li15  1  0.87302950  0.70175439  0.93971809  1
  Sb  Sb16  1  0.74366757  0.24439346  0.09844744  1
  Sb  Sb17  1  0.09772155  0.25560654  0.40155256  1
  Sb  Sb18  1  0.90227845  0.74439346  0.59844744  1
  Sb  Sb19  1  0.25633243  0.75560654  0.90155256  1
  S  S20  1  0.59911615  0.75000000  0.25000000  1
  S  S21  1  0.40088385  0.25000000  0.75000000  1
