# generated using pymatgen
data_Li3Cr(PO4)2
_symmetry_space_group_name_H-M   'P 1'
_cell_length_a   8.46606593
_cell_length_b   10.31204226
_cell_length_c   8.11614136
_cell_angle_alpha   90.03012696
_cell_angle_beta   107.54990604
_cell_angle_gamma   89.75264434
_symmetry_Int_Tables_number   1
_chemical_formula_structural   Li3Cr(PO4)2
_chemical_formula_sum   'Li12 Cr4 P8 O32'
_cell_volume   675.57223215
_cell_formula_units_Z   4
loop_
 _symmetry_equiv_pos_site_id
 _symmetry_equiv_pos_as_xyz
  1  'x, y, z'
loop_
 _atom_site_type_symbol
 _atom_site_label
 _atom_site_symmetry_multiplicity
 _atom_site_fract_x
 _atom_site_fract_y
 _atom_site_fract_z
 _atom_site_occupancy
  Li  Li0  1  0.15791988  0.14824202  0.65214343  1
  Li  Li1  1  0.22973403  0.42986158  0.46340517  1
  Li  Li2  1  0.26914743  0.91580496  0.54102240  1
  Li  Li3  1  0.33083327  0.65668388  0.34525146  1
  Li  Li4  1  0.39296898  0.16746055  0.38318377  1
  Li  Li5  1  0.59758569  0.83849912  0.61534143  1
  Li  Li6  1  0.67481015  0.34162311  0.64144412  1
  Li  Li7  1  0.65308325  0.15354630  0.18109260  1
  Li  Li8  1  0.86727186  0.66185522  0.84064808  1
  Li  Li9  1  0.77932161  0.58334943  0.52411821  1
  Li  Li10  1  0.83243267  0.85119168  0.36391342  1
  Li  Li11  1  0.90285987  0.33610432  0.39506565  1
  Cr  Cr12  1  0.12275205  0.85522850  0.12460732  1
  Cr  Cr13  1  0.37714516  0.35779247  0.87598678  1
  Cr  Cr14  1  0.62260445  0.65305064  0.11478846  1
  Cr  Cr15  1  0.86749167  0.14711165  0.87705039  1
  P  P16  1  0.05080055  0.41158382  0.78242077  1
  P  P17  1  0.02444376  0.08639083  0.27574019  1
  P  P18  1  0.48848399  0.57933248  0.71625688  1
  P  P19  1  0.54503467  0.09095709  0.78742798  1
  P  P20  1  0.44473009  0.91389793  0.21210356  1
  P  P21  1  0.52427554  0.41519326  0.28441652  1
  P  P22  1  0.97518743  0.90680201  0.71413640  1
  P  P23  1  0.94648225  0.59236430  0.22164704  1
  O  O24  1  0.99599861  0.05847047  0.74994939  1
  O  O25  1  0.14331198  0.34936517  0.65741104  1
  O  O26  1  0.19512049  0.41586087  0.95597306  1
  O  O27  1  0.01288145  0.46173028  0.29478170  1
  O  O28  1  0.11390576  0.86438432  0.64696099  1
  O  O29  1  0.04613374  0.12383781  0.09798756  1
  O  O30  1  0.09019888  0.68039695  0.20936622  1
  O  O31  1  0.19016965  0.10456094  0.42157138  1
  O  O32  1  0.33072114  0.59570789  0.56534560  1
  O  O33  1  0.39960144  0.17794784  0.80417476  1
  O  O34  1  0.46089524  0.62515821  0.88913593  1
  O  O35  1  0.39295682  0.35583857  0.35440661  1
  O  O36  1  0.47875638  0.96060116  0.71401817  1
  O  O37  1  0.30070233  0.90873760  0.03892601  1
  O  O38  1  0.36028189  0.84966537  0.34205544  1
  O  O39  1  0.52531789  0.42811634  0.74642785  1
  O  O40  1  0.48710153  0.56434602  0.24277269  1
  O  O41  1  0.64347798  0.15979489  0.67714743  1
  O  O42  1  0.68467943  0.08391848  0.96709147  1
  O  O43  1  0.50549747  0.04996885  0.26712047  1
  O  O44  1  0.63563432  0.64887015  0.67864314  1
  O  O45  1  0.53665988  0.34527014  0.11636527  1
  O  O46  1  0.59129299  0.82792815  0.19741372  1
  O  O47  1  0.69778620  0.40543812  0.42133190  1
  O  O48  1  0.80353507  0.87734006  0.58737210  1
  O  O49  1  0.91185186  0.31812357  0.79694240  1
  O  O50  1  0.97069990  0.83951514  0.88963189  1
  O  O51  1  0.88431247  0.16026143  0.31709746  1
  O  O52  1  0.97129325  0.54138117  0.72046711  1
  O  O53  1  0.81207354  0.58744674  0.03816437  1
  O  O54  1  0.83646058  0.65895929  0.32445553  1
  O  O55  1  0.98718452  0.93508689  0.26002827  1
