# generated using pymatgen
data_Li12VCr3P4(CO7)4
_symmetry_space_group_name_H-M   'P 1'
_cell_length_a   8.60011876
_cell_length_b   10.01045253
_cell_length_c   6.48831294
_cell_angle_alpha   90.00000000
_cell_angle_beta   90.00000000
_cell_angle_gamma   85.45602422
_symmetry_Int_Tables_number   1
_chemical_formula_structural   Li12VCr3P4(CO7)4
_chemical_formula_sum   'Li12 V1 Cr3 P4 C4 O28'
_cell_volume   556.83013725
_cell_formula_units_Z   1
loop_
 _symmetry_equiv_pos_site_id
 _symmetry_equiv_pos_as_xyz
  1  'x, y, z'
loop_
 _atom_site_type_symbol
 _atom_site_label
 _atom_site_symmetry_multiplicity
 _atom_site_fract_x
 _atom_site_fract_y
 _atom_site_fract_z
 _atom_site_occupancy
  Li  Li0  1  0.08978484  0.37936445  0.25000000  1
  Li  Li1  1  0.09166062  0.88016592  0.25000000  1
  Li  Li2  1  0.27385633  0.12352032  0.02544586  1
  Li  Li3  1  0.27385633  0.12352032  0.47455414  1
  Li  Li4  1  0.27485516  0.62379665  0.02484292  1
  Li  Li5  1  0.27485516  0.62379665  0.47515708  1
  Li  Li6  1  0.72600014  0.37697664  0.52827911  1
  Li  Li7  1  0.72600014  0.37697664  0.97172089  1
  Li  Li8  1  0.72530990  0.87573445  0.52678736  1
  Li  Li9  1  0.72530990  0.87573445  0.97321264  1
  Li  Li10  1  0.90761029  0.12082782  0.75000000  1
  Li  Li11  1  0.90581986  0.62066268  0.75000000  1
  V  V12  1  0.67021345  0.60373330  0.25000000  1
  Cr  Cr13  1  0.33515871  0.39274403  0.75000000  1
  Cr  Cr14  1  0.33588860  0.89114590  0.75000000  1
  Cr  Cr15  1  0.66526692  0.10792922  0.25000000  1
  P  P16  1  0.41123675  0.35914268  0.25000000  1
  P  P17  1  0.41320059  0.85720943  0.25000000  1
  P  P18  1  0.58892419  0.14168371  0.75000000  1
  P  P19  1  0.58996814  0.64071472  0.75000000  1
  C  C20  1  0.03129257  0.35290419  0.75000000  1
  C  C21  1  0.03114586  0.85251469  0.75000000  1
  C  C22  1  0.96837996  0.14832023  0.25000000  1
  C  C23  1  0.96478814  0.64953256  0.25000000  1
  O  O24  1  0.06416646  0.47626852  0.75000000  1
  O  O25  1  0.11355015  0.17793137  0.25000000  1
  O  O26  1  0.06503241  0.97615437  0.75000000  1
  O  O27  1  0.14540978  0.25802926  0.75000000  1
  O  O28  1  0.11007658  0.67718501  0.25000000  1
  O  O29  1  0.14452658  0.75736711  0.75000000  1
  O  O30  1  0.31093066  0.41357380  0.06295395  1
  O  O31  1  0.31093066  0.41357380  0.43704605  1
  O  O32  1  0.31207326  0.91155349  0.06361898  1
  O  O33  1  0.31207326  0.91155349  0.43638102  1
  O  O34  1  0.42178906  0.09454054  0.75000000  1
  O  O35  1  0.42318659  0.20364804  0.25000000  1
  O  O36  1  0.42211195  0.59404655  0.75000000  1
  O  O37  1  0.42758904  0.70060771  0.25000000  1
  O  O38  1  0.57934274  0.29729418  0.75000000  1
  O  O39  1  0.57696328  0.40864234  0.25000000  1
  O  O40  1  0.57865002  0.79660460  0.75000000  1
  O  O41  1  0.57861435  0.90580038  0.25000000  1
  O  O42  1  0.68818522  0.08627913  0.93704086  1
  O  O43  1  0.68818522  0.08627913  0.56295914  1
  O  O44  1  0.69025728  0.58496889  0.56567836  1
  O  O45  1  0.69025728  0.58496889  0.93432164  1
  O  O46  1  0.85764946  0.24495442  0.25000000  1
  O  O47  1  0.88827577  0.32023854  0.75000000  1
  O  O48  1  0.85373265  0.74564566  0.25000000  1
  O  O49  1  0.93302205  0.02548089  0.25000000  1
  O  O50  1  0.88783683  0.82088221  0.75000000  1
  O  O51  1  0.92519885  0.52727599  0.25000000  1
