# generated using pymatgen
data_Bi3B7O12
_symmetry_space_group_name_H-M   'P 1'
_cell_length_a   7.04338511
_cell_length_b   9.44259009
_cell_length_c   9.11806317
_cell_angle_alpha   95.36062406
_cell_angle_beta   96.94157604
_cell_angle_gamma   104.26098146
_symmetry_Int_Tables_number   1
_chemical_formula_structural   Bi3B7O12
_chemical_formula_sum   'Bi6 B14 O24'
_cell_volume   578.62340879
_cell_formula_units_Z   2
loop_
 _symmetry_equiv_pos_site_id
 _symmetry_equiv_pos_as_xyz
  1  'x, y, z'
loop_
 _atom_site_type_symbol
 _atom_site_label
 _atom_site_symmetry_multiplicity
 _atom_site_fract_x
 _atom_site_fract_y
 _atom_site_fract_z
 _atom_site_occupancy
  Bi  Bi0  1  0.83601973  0.26288347  0.77342471  1
  Bi  Bi1  1  0.36653804  0.81650661  0.94985091  1
  Bi  Bi2  1  0.49149032  0.99699597  0.66251063  1
  Bi  Bi3  1  0.50850968  0.00300403  0.33748937  1
  Bi  Bi4  1  0.63346196  0.18349339  0.05014909  1
  Bi  Bi5  1  0.16398027  0.73711653  0.22657529  1
  B  B6  1  0.00342776  0.68431109  0.67474241  1
  B  B7  1  0.18644834  0.14201012  0.93531656  1
  B  B8  1  0.08371501  0.09102344  0.19696270  1
  B  B9  1  0.19346499  0.18953808  0.47534601  1
  B  B10  1  0.30099314  0.54505612  0.68949821  1
  B  B11  1  0.35810402  0.47924513  0.29274498  1
  B  B12  1  0.36016497  0.30571705  0.74693948  1
  B  B13  1  0.63983503  0.69428295  0.25306052  1
  B  B14  1  0.64189598  0.52075487  0.70725502  1
  B  B15  1  0.69900686  0.45494388  0.31050179  1
  B  B16  1  0.80653501  0.81046192  0.52465399  1
  B  B17  1  0.91628499  0.90897656  0.80303730  1
  B  B18  1  0.81355166  0.85798988  0.06468344  1
  B  B19  1  0.99657224  0.31568891  0.32525759  1
  O  O20  1  0.05412777  0.81645381  0.79382998  1
  O  O21  1  0.02306593  0.06984804  0.83076889  1
  O  O22  1  0.05804929  0.26942339  0.46815981  1
  O  O23  1  0.15994399  0.43444359  0.28827921  1
  O  O24  1  0.18381856  0.63670948  0.66436979  1
  O  O25  1  0.24368188  0.41170311  0.74288708  1
  O  O26  1  0.34578782  0.23429036  0.88503797  1
  O  O27  1  0.21915781  0.10843529  0.34561674  1
  O  O28  1  0.30580707  0.18698179  0.61185763  1
  O  O29  1  0.42601191  0.61872029  0.24696186  1
  O  O30  1  0.21177999  0.12974762  0.08333889  1
  O  O31  1  0.49983337  0.40595174  0.33628976  1
  O  O32  1  0.50016663  0.59404826  0.66371024  1
  O  O33  1  0.78822001  0.87025238  0.91666111  1
  O  O34  1  0.57398809  0.38127971  0.75303814  1
  O  O35  1  0.69419293  0.81301821  0.38814237  1
  O  O36  1  0.78084219  0.89156471  0.65438326  1
  O  O37  1  0.65421218  0.76570964  0.11496203  1
  O  O38  1  0.75631812  0.58829689  0.25711292  1
  O  O39  1  0.81618144  0.36329052  0.33563021  1
  O  O40  1  0.84005601  0.56555641  0.71172079  1
  O  O41  1  0.94195071  0.73057661  0.53184019  1
  O  O42  1  0.97693407  0.93015196  0.16923111  1
  O  O43  1  0.94587223  0.18354619  0.20617002  1
