# generated using pymatgen
data_Ti3Bi2(PO4)6
_symmetry_space_group_name_H-M   'P 1'
_cell_length_a   8.87179436
_cell_length_b   8.75885313
_cell_length_c   8.75885266
_cell_angle_alpha   60.00000362
_cell_angle_beta   60.42023379
_cell_angle_gamma   60.42023485
_symmetry_Int_Tables_number   1
_chemical_formula_structural   Ti3Bi2(PO4)6
_chemical_formula_sum   'Ti3 Bi2 P6 O24'
_cell_volume   484.30673330
_cell_formula_units_Z   1
loop_
 _symmetry_equiv_pos_site_id
 _symmetry_equiv_pos_as_xyz
  1  'x, y, z'
loop_
 _atom_site_type_symbol
 _atom_site_label
 _atom_site_symmetry_multiplicity
 _atom_site_fract_x
 _atom_site_fract_y
 _atom_site_fract_z
 _atom_site_occupancy
  Ti  Ti0  1  0.05123992  0.64958636  0.64958636  1
  Ti  Ti1  1  0.42171866  0.85942745  0.85942745  1
  Ti  Ti2  1  0.97788541  0.34070486  0.34070486  1
  Bi  Bi3  1  0.93101488  0.02299471  0.02299471  1
  Bi  Bi4  1  0.50802372  0.49732509  0.49732509  1
  P  P5  1  0.26745078  0.24879753  0.54582859  1
  P  P6  1  0.26745078  0.93792411  0.24879753  1
  P  P7  1  0.26745078  0.54582859  0.93792411  1
  P  P8  1  0.74357600  0.47959510  0.04356640  1
  P  P9  1  0.74357600  0.04356640  0.73326149  1
  P  P10  1  0.74357600  0.73326149  0.47959510  1
  O  O11  1  0.10153249  0.11675652  0.29680227  1
  O  O12  1  0.10153249  0.48490772  0.11675652  1
  O  O13  1  0.10153249  0.29680227  0.48490772  1
  O  O14  1  0.24826724  0.07177805  0.72646856  1
  O  O15  1  0.21817396  0.40603681  0.61788489  1
  O  O16  1  0.45053195  0.23284969  0.39910630  1
  O  O17  1  0.24826724  0.95348515  0.07177805  1
  O  O18  1  0.21817396  0.75790434  0.40603681  1
  O  O19  1  0.21817396  0.61788489  0.75790434  1
  O  O20  1  0.56534926  0.63786954  0.01287663  1
  O  O21  1  0.75871731  0.29672433  0.04715213  1
  O  O22  1  0.56534926  0.01287663  0.78390457  1
  O  O23  1  0.45053195  0.91751106  0.23284969  1
  O  O24  1  0.24826724  0.72646856  0.95348515  1
  O  O25  1  0.45053195  0.39910630  0.91751106  1
  O  O26  1  0.74975921  0.45224024  0.23232891  1
  O  O27  1  0.74975921  0.23232891  0.56567264  1
  O  O28  1  0.75871731  0.04715213  0.89740523  1
  O  O29  1  0.56534926  0.78390457  0.63786954  1
  O  O30  1  0.74975921  0.56567264  0.45224024  1
  O  O31  1  0.75871731  0.89740523  0.29672433  1
  O  O32  1  0.91179127  0.65854765  0.53662366  1
  O  O33  1  0.91179127  0.53662366  0.89303741  1
  O  O34  1  0.91179127  0.89303741  0.65854765  1
