# generated using pymatgen
data_BaY2F8
_symmetry_space_group_name_H-M   'P 1'
_cell_length_a   7.79273168
_cell_length_b   7.79273168
_cell_length_c   7.79273168
_cell_angle_alpha   139.25132527
_cell_angle_beta   139.25132527
_cell_angle_gamma   58.99183874
_symmetry_Int_Tables_number   1
_chemical_formula_structural   BaY2F8
_chemical_formula_sum   'Ba1 Y2 F8'
_cell_volume   199.70168826
_cell_formula_units_Z   1
loop_
 _symmetry_equiv_pos_site_id
 _symmetry_equiv_pos_as_xyz
  1  'x, y, z'
loop_
 _atom_site_type_symbol
 _atom_site_label
 _atom_site_symmetry_multiplicity
 _atom_site_fract_x
 _atom_site_fract_y
 _atom_site_fract_z
 _atom_site_occupancy
  Ba  Ba0  1  0.00000000  0.00000000  0.00000000  1
  Y  Y1  1  0.31392979  0.31392979  0.00000000  1
  Y  Y2  1  0.68607021  0.68607021  0.00000000  1
  F  F3  1  0.80809261  0.40232971  0.04675040  1
  F  F4  1  0.40812129  0.38970091  0.41169761  1
  F  F5  1  0.23865779  0.19190739  0.59423710  1
  F  F6  1  0.59767029  0.64442069  0.40576290  1
  F  F7  1  0.00357632  0.59187871  0.98157962  1
  F  F8  1  0.61029909  0.02199670  0.01842038  1
  F  F9  1  0.35557931  0.76134221  0.95324960  1
  F  F10  1  0.97800330  0.99642368  0.58830239  1
