# generated using pymatgen
data_La2Al4O9
_symmetry_space_group_name_H-M   'P 1'
_cell_length_a   7.67060340
_cell_length_b   8.47042164
_cell_length_c   5.72380302
_cell_angle_alpha   90.00000000
_cell_angle_beta   90.00000000
_cell_angle_gamma   90.00000000
_symmetry_Int_Tables_number   1
_chemical_formula_structural   La2Al4O9
_chemical_formula_sum   'La4 Al8 O18'
_cell_volume   371.89405613
_cell_formula_units_Z   2
loop_
 _symmetry_equiv_pos_site_id
 _symmetry_equiv_pos_as_xyz
  1  'x, y, z'
loop_
 _atom_site_type_symbol
 _atom_site_label
 _atom_site_symmetry_multiplicity
 _atom_site_fract_x
 _atom_site_fract_y
 _atom_site_fract_z
 _atom_site_occupancy
  La  La0  1  0.15069360  0.17775159  0.00000000  1
  La  La1  1  0.34930640  0.67775159  0.00000000  1
  La  La2  1  0.65069360  0.32224841  0.00000000  1
  La  La3  1  0.84930640  0.82224841  0.00000000  1
  Al  Al4  1  0.00000000  0.50000000  0.25900102  1
  Al  Al5  1  0.00000000  0.50000000  0.74099898  1
  Al  Al6  1  0.14200406  0.83893918  0.50000000  1
  Al  Al7  1  0.35799594  0.33893918  0.50000000  1
  Al  Al8  1  0.50000000  0.00000000  0.25900102  1
  Al  Al9  1  0.50000000  0.00000000  0.74099898  1
  Al  Al10  1  0.64200406  0.66106082  0.50000000  1
  Al  Al11  1  0.85799594  0.16106082  0.50000000  1
  O  O12  1  0.00000000  0.00000000  0.50000000  1
  O  O13  1  0.10377603  0.71860145  0.75089880  1
  O  O14  1  0.10377603  0.71860145  0.24910120  1
  O  O15  1  0.14738140  0.42703834  0.50000000  1
  O  O16  1  0.15426916  0.44911557  0.00000000  1
  O  O17  1  0.34573084  0.94911557  0.00000000  1
  O  O18  1  0.35261860  0.92703834  0.50000000  1
  O  O19  1  0.39622397  0.21860145  0.24910120  1
  O  O20  1  0.39622397  0.21860145  0.75089880  1
  O  O21  1  0.50000000  0.50000000  0.50000000  1
  O  O22  1  0.60377603  0.78139855  0.24910120  1
  O  O23  1  0.60377603  0.78139855  0.75089880  1
  O  O24  1  0.64738140  0.07296166  0.50000000  1
  O  O25  1  0.65426916  0.05088443  0.00000000  1
  O  O26  1  0.84573084  0.55088443  0.00000000  1
  O  O27  1  0.85261860  0.57296166  0.50000000  1
  O  O28  1  0.89622397  0.28139855  0.24910120  1
  O  O29  1  0.89622397  0.28139855  0.75089880  1
