# generated using pymatgen
data_Li14Co2S9
_symmetry_space_group_name_H-M   'P 1'
_cell_length_a   6.98562148
_cell_length_b   6.98557082
_cell_length_c   9.80189222
_cell_angle_alpha   90.00019799
_cell_angle_beta   89.99977522
_cell_angle_gamma   120.00095809
_symmetry_Int_Tables_number   1
_chemical_formula_structural   Li14Co2S9
_chemical_formula_sum   'Li14 Co2 S9'
_cell_volume   414.23168040
_cell_formula_units_Z   1
loop_
 _symmetry_equiv_pos_site_id
 _symmetry_equiv_pos_as_xyz
  1  'x, y, z'
loop_
 _atom_site_type_symbol
 _atom_site_label
 _atom_site_symmetry_multiplicity
 _atom_site_fract_x
 _atom_site_fract_y
 _atom_site_fract_z
 _atom_site_occupancy
  Li  Li0  1  0.01900142  0.67239405  0.90995569  1
  Li  Li1  1  0.32433618  0.95821755  0.59151198  1
  Li  Li2  1  0.04175538  0.36612920  0.59151291  1
  Li  Li3  1  0.99999410  0.00000993  0.25030915  1
  Li  Li4  1  0.99997637  0.99999074  0.74968769  1
  Li  Li5  1  0.32760073  0.34659734  0.90995408  1
  Li  Li6  1  0.65338490  0.98099867  0.90995711  1
  Li  Li7  1  0.36611685  0.32436504  0.40849065  1
  Li  Li8  1  0.63385150  0.67564122  0.59151223  1
  Li  Li9  1  0.34661035  0.01900722  0.09004490  1
  Li  Li10  1  0.67238950  0.65338270  0.09004228  1
  Li  Li11  1  0.95822389  0.63387609  0.40848920  1
  Li  Li12  1  0.67563439  0.04177837  0.40849225  1
  Li  Li13  1  0.98100212  0.32761761  0.09004861  1
  Co  Co14  1  0.33333883  0.66667732  0.25579796  1
  Co  Co15  1  0.66664811  0.33332478  0.74419527  1
  S  S16  1  0.30841450  0.96347925  0.33758830  1
  S  S17  1  0.03653050  0.34496169  0.33759386  1
  S  S18  1  0.33333943  0.66665864  0.02089929  1
  S  S19  1  -0.00000057  -0.00000262  0.00000015  1
  S  S20  1  0.34492572  0.30841309  0.66240926  1
  S  S21  1  0.65504948  0.69159087  0.33759269  1
  S  S22  1  0.66667744  0.33332874  0.97909519  1
  S  S23  1  0.96344255  0.65503859  0.66240904  1
  S  S24  1  0.69155932  0.03652493  0.66241126  1
