# generated using pymatgen
data_Ho2(SeO3)3
_symmetry_space_group_name_H-M   'P 1'
_cell_length_a   6.82865616
_cell_length_b   8.22098242
_cell_length_c   14.03136137
_cell_angle_alpha   90.00000000
_cell_angle_beta   90.00000000
_cell_angle_gamma   90.00000000
_symmetry_Int_Tables_number   1
_chemical_formula_structural   Ho2(SeO3)3
_chemical_formula_sum   'Ho8 Se12 O36'
_cell_volume   787.69624422
_cell_formula_units_Z   4
loop_
 _symmetry_equiv_pos_site_id
 _symmetry_equiv_pos_as_xyz
  1  'x, y, z'
loop_
 _atom_site_type_symbol
 _atom_site_label
 _atom_site_symmetry_multiplicity
 _atom_site_fract_x
 _atom_site_fract_y
 _atom_site_fract_z
 _atom_site_occupancy
  Ho  Ho0  1  0.17939685  0.20111184  0.56133361  1
  Ho  Ho1  1  0.17939685  0.20111184  0.93866639  1
  Ho  Ho2  1  0.32060315  0.70111184  0.56133361  1
  Ho  Ho3  1  0.32060315  0.70111184  0.93866639  1
  Ho  Ho4  1  0.67939685  0.29888816  0.06133361  1
  Ho  Ho5  1  0.67939685  0.29888816  0.43866639  1
  Ho  Ho6  1  0.82060315  0.79888816  0.06133361  1
  Ho  Ho7  1  0.82060315  0.79888816  0.43866639  1
  Se  Se8  1  0.09361179  0.95506182  0.75000000  1
  Se  Se9  1  0.17667196  0.45263020  0.12580756  1
  Se  Se10  1  0.17667196  0.45263020  0.37419244  1
  Se  Se11  1  0.32332804  0.95263020  0.12580756  1
  Se  Se12  1  0.32332804  0.95263020  0.37419244  1
  Se  Se13  1  0.40638821  0.45506182  0.75000000  1
  Se  Se14  1  0.59361179  0.54493818  0.25000000  1
  Se  Se15  1  0.67667196  0.04736980  0.62580756  1
  Se  Se16  1  0.67667196  0.04736980  0.87419244  1
  Se  Se17  1  0.82332804  0.54736980  0.62580756  1
  Se  Se18  1  0.82332804  0.54736980  0.87419244  1
  Se  Se19  1  0.90638821  0.04493818  0.25000000  1
  O  O20  1  0.02374407  0.29341739  0.09477783  1
  O  O21  1  0.02374407  0.29341739  0.40522217  1
  O  O22  1  0.06603989  0.16244746  0.75000000  1
  O  O23  1  0.09088793  0.62741408  0.07496910  1
  O  O24  1  0.09088793  0.62741408  0.42503090  1
  O  O25  1  0.14497529  0.92686855  0.03828987  1
  O  O26  1  0.14497529  0.92686855  0.46171013  1
  O  O27  1  0.24379093  0.94564857  0.85000229  1
  O  O28  1  0.24379093  0.94564857  0.64999771  1
  O  O29  1  0.25620907  0.44564857  0.85000229  1
  O  O30  1  0.25620907  0.44564857  0.64999771  1
  O  O31  1  0.35502471  0.42686855  0.03828987  1
  O  O32  1  0.35502471  0.42686855  0.46171013  1
  O  O33  1  0.40911207  0.12741408  0.07496910  1
  O  O34  1  0.40911207  0.12741408  0.42503090  1
  O  O35  1  0.43396011  0.66244746  0.75000000  1
  O  O36  1  0.47625593  0.79341739  0.09477783  1
  O  O37  1  0.47625593  0.79341739  0.40522217  1
  O  O38  1  0.52374407  0.20658261  0.59477783  1
  O  O39  1  0.52374407  0.20658261  0.90522217  1
  O  O40  1  0.56603989  0.33755254  0.25000000  1
  O  O41  1  0.59088793  0.87258592  0.57496910  1
  O  O42  1  0.59088793  0.87258592  0.92503090  1
  O  O43  1  0.64497529  0.57313145  0.53828987  1
  O  O44  1  0.64497529  0.57313145  0.96171013  1
  O  O45  1  0.74379093  0.55435143  0.14999771  1
  O  O46  1  0.74379093  0.55435143  0.35000229  1
  O  O47  1  0.75620907  0.05435143  0.14999771  1
  O  O48  1  0.75620907  0.05435143  0.35000229  1
  O  O49  1  0.85502471  0.07313145  0.53828987  1
  O  O50  1  0.85502471  0.07313145  0.96171013  1
  O  O51  1  0.90911207  0.37258592  0.57496910  1
  O  O52  1  0.90911207  0.37258592  0.92503090  1
  O  O53  1  0.93396011  0.83755254  0.25000000  1
  O  O54  1  0.97625593  0.70658261  0.59477783  1
  O  O55  1  0.97625593  0.70658261  0.90522217  1
