# generated using pymatgen
data_Sn2P2O7
_symmetry_space_group_name_H-M   'P 1'
_cell_length_a   9.65681579
_cell_length_b   9.79428560
_cell_length_c   11.91942892
_cell_angle_alpha   65.84402796
_cell_angle_beta   103.08267499
_cell_angle_gamma   90.06027685
_symmetry_Int_Tables_number   1
_chemical_formula_structural   Sn2P2O7
_chemical_formula_sum   'Sn12 P12 O42'
_cell_volume   996.60924512
_cell_formula_units_Z   6
loop_
 _symmetry_equiv_pos_site_id
 _symmetry_equiv_pos_as_xyz
  1  'x, y, z'
loop_
 _atom_site_type_symbol
 _atom_site_label
 _atom_site_symmetry_multiplicity
 _atom_site_fract_x
 _atom_site_fract_y
 _atom_site_fract_z
 _atom_site_occupancy
  Sn  Sn0  1  0.99107421  0.81163151  0.99860804  1
  Sn  Sn1  1  0.83588121  0.84447798  0.67477742  1
  Sn  Sn2  1  0.82434238  0.47635767  0.65669238  1
  Sn  Sn3  1  0.67790163  0.13210643  0.34881266  1
  Sn  Sn4  1  0.66311373  0.52013251  0.33009165  1
  Sn  Sn5  1  0.50966702  0.80400042  0.00319538  1
  Sn  Sn6  1  0.49296400  0.18778205  0.99985321  1
  Sn  Sn7  1  0.33275566  0.47844308  0.67484830  1
  Sn  Sn8  1  0.31893717  0.87091908  0.65180142  1
  Sn  Sn9  1  0.17653007  0.52398715  0.34294601  1
  Sn  Sn10  1  0.16148597  0.15361584  0.32664130  1
  Sn  Sn11  1  0.00460996  0.19148062  0.00284555  1
  P  P12  1  0.97233731  0.25396293  0.52503172  1
  P  P13  1  0.85011238  0.41797496  0.13063293  1
  P  P14  1  0.81915816  0.88674579  0.20194823  1
  P  P15  1  0.67689261  0.08832199  0.79752081  1
  P  P16  1  0.64552170  0.54617434  0.86839002  1
  P  P17  1  0.52866587  0.77747140  0.47494065  1
  P  P18  1  0.47150557  0.22062200  0.52480365  1
  P  P19  1  0.35124737  0.45090247  0.13296525  1
  P  P20  1  0.32186068  0.91194789  0.20330948  1
  P  P21  1  0.17706973  0.11424211  0.79858208  1
  P  P22  1  0.14612996  0.58152390  0.87063752  1
  P  P23  1  0.02691241  0.74945440  0.47400212  1
  O  O24  1  0.95859967  0.28241466  0.16565634  1
  O  O25  1  0.91276785  0.56638316  0.10608699  1
  O  O26  1  0.90470006  0.94892354  0.09865511  1
  O  O27  1  0.94022812  0.78022657  0.33005995  1
  O  O28  1  0.91765979  0.71633159  0.55621497  1
  O  O29  1  0.88986537  0.12200019  0.51876981  1
  O  O30  1  0.87526895  0.39806263  0.49008422  1
  O  O31  1  0.74708441  0.42224592  0.00017159  1
  O  O32  1  0.75899259  0.37920528  0.22969773  1
  O  O33  1  0.75270322  0.00936078  0.22601390  1
  O  O34  1  0.71500901  0.77900054  0.17149932  1
  O  O35  1  0.78274143  0.95128780  0.82894267  1
  O  O36  1  0.74298235  0.23524797  0.77296886  1
  O  O37  1  0.73887531  0.60233113  0.77045193  1
  O  O38  1  0.62460331  0.88690036  0.51073031  1
  O  O39  1  0.61346995  0.64122863  0.48036477  1
  O  O40  1  0.58457183  0.26846273  0.44581347  1
  O  O41  1  0.46080068  0.55166074  0.16622661  1
  O  O42  1  0.55670007  0.10837042  0.66928278  1
  O  O43  1  0.59127943  0.04658542  0.90068497  1
  O  O44  1  0.41084114  0.32477511  0.10912017  1
  O  O45  1  0.58494999  0.67425082  0.89003836  1
  O  O46  1  0.40479991  0.95444447  0.09809338  1
  O  O47  1  0.44593114  0.89036552  0.32975958  1
  O  O48  1  0.53585743  0.44644411  0.83502254  1
  O  O49  1  0.41596725  0.72782998  0.55372255  1
  O  O50  1  0.38959251  0.35887833  0.51788162  1
  O  O51  1  0.37481648  0.11055311  0.49073238  1
  O  O52  1  0.24711519  0.57423971  0.00248594  1
  O  O53  1  0.25935641  0.39373487  0.23201016  1
  O  O54  1  0.25495874  0.76531138  0.22840669  1
  O  O55  1  0.21690395  0.04851291  0.17436516  1
  O  O56  1  0.28133810  0.22083514  0.83092608  1
  O  O57  1  0.24444105  0.99344349  0.77259252  1
  O  O58  1  0.23941642  0.61987727  0.77345886  1
  O  O59  1  0.12658569  0.60853171  0.50777914  1
  O  O60  1  0.10697076  0.88403880  0.47866012  1
  O  O61  1  0.08481967  0.28392727  0.44618853  1
  O  O62  1  0.05611168  0.22117798  0.67015394  1
  O  O63  1  0.09077281  0.05151550  0.90097565  1
  O  O64  1  0.08153214  0.43408623  0.89197643  1
  O  O65  1  0.03730235  0.71694072  0.83564312  1
