# generated using pymatgen
data_CuReO4
_symmetry_space_group_name_H-M   'P 1'
_cell_length_a   9.74705779
_cell_length_b   6.63285120
_cell_length_c   7.85954226
_cell_angle_alpha   94.04548963
_cell_angle_beta   101.49398084
_cell_angle_gamma   104.66059869
_symmetry_Int_Tables_number   1
_chemical_formula_structural   CuReO4
_chemical_formula_sum   'Cu6 Re6 O24'
_cell_volume   477.78520200
_cell_formula_units_Z   6
loop_
 _symmetry_equiv_pos_site_id
 _symmetry_equiv_pos_as_xyz
  1  'x, y, z'
loop_
 _atom_site_type_symbol
 _atom_site_label
 _atom_site_symmetry_multiplicity
 _atom_site_fract_x
 _atom_site_fract_y
 _atom_site_fract_z
 _atom_site_occupancy
  Cu  Cu0  1  0.98470844  0.11663828  0.21068650  1
  Cu  Cu1  1  0.32539477  0.46129846  0.54214981  1
  Cu  Cu2  1  0.44022288  0.73912095  0.21272485  1
  Cu  Cu3  1  0.55977712  0.26087905  0.78727515  1
  Cu  Cu4  1  0.67460523  0.53870154  0.45785019  1
  Cu  Cu5  1  0.01529156  0.88336172  0.78931350  1
  Re  Re6  1  0.10377138  0.40358106  0.87977558  1
  Re  Re7  1  0.23576842  0.94944365  0.45203173  1
  Re  Re8  1  0.34171676  0.22744944  0.13354690  1
  Re  Re9  1  0.65828324  0.77255056  0.86645310  1
  Re  Re10  1  0.76423158  0.05055635  0.54796827  1
  Re  Re11  1  0.89622862  0.59641894  0.12022442  1
  O  O12  1  0.03778182  0.63622455  0.90075249  1
  O  O13  1  0.11536861  0.90587719  0.59425316  1
  O  O14  1  0.05977993  0.78977950  0.24302188  1
  O  O15  1  0.15145056  0.13460115  0.96286129  1
  O  O16  1  0.19922835  0.45322690  0.71349277  1
  O  O17  1  0.19996640  0.19286208  0.33128672  1
  O  O18  1  0.29298717  0.71333857  0.44423239  1
  O  O19  1  0.34679013  0.97826969  0.21792977  1
  O  O20  1  0.26808233  0.49061346  0.07815448  1
  O  O21  1  0.44775378  0.21832115  0.97707103  1
  O  O22  1  0.39171603  0.12987850  0.59125223  1
  O  O23  1  0.52876396  0.57676985  0.69824401  1
  O  O24  1  0.47123604  0.42323015  0.30175599  1
  O  O25  1  0.60828397  0.87012150  0.40874777  1
  O  O26  1  0.55224622  0.78167885  0.02292897  1
  O  O27  1  0.73191767  0.50938654  0.92184552  1
  O  O28  1  0.65320987  0.02173031  0.78207023  1
  O  O29  1  0.70701283  0.28666143  0.55576761  1
  O  O30  1  0.80003360  0.80713792  0.66871328  1
  O  O31  1  0.80077165  0.54677310  0.28650723  1
  O  O32  1  0.84854944  0.86539885  0.03713871  1
  O  O33  1  0.94022007  0.21022050  0.75697812  1
  O  O34  1  0.88463139  0.09412281  0.40574684  1
  O  O35  1  0.96221818  0.36377545  0.09924751  1
