# generated using pymatgen
data_H8Pt(N4O)2
_symmetry_space_group_name_H-M   'P 1'
_cell_length_a   6.63312230
_cell_length_b   8.29164352
_cell_length_c   8.46178679
_cell_angle_alpha   82.92453019
_cell_angle_beta   66.18359646
_cell_angle_gamma   68.11567091
_symmetry_Int_Tables_number   1
_chemical_formula_structural   H8Pt(N4O)2
_chemical_formula_sum   'H16 Pt2 N16 O4'
_cell_volume   394.87677100
_cell_formula_units_Z   2
loop_
 _symmetry_equiv_pos_site_id
 _symmetry_equiv_pos_as_xyz
  1  'x, y, z'
loop_
 _atom_site_type_symbol
 _atom_site_label
 _atom_site_symmetry_multiplicity
 _atom_site_fract_x
 _atom_site_fract_y
 _atom_site_fract_z
 _atom_site_occupancy
  H  H0  1  0.94219252  0.64218007  0.18093979  1
  H  H1  1  0.05780748  0.35781993  0.81906021  1
  H  H2  1  0.81060835  0.64938319  0.39667910  1
  H  H3  1  0.18939165  0.35061681  0.60332090  1
  H  H4  1  0.09812408  0.58881431  0.30935612  1
  H  H5  1  0.90187592  0.41118569  0.69064388  1
  H  H6  1  0.66845820  0.31601461  0.17259410  1
  H  H7  1  0.33154180  0.68398539  0.82740590  1
  H  H8  1  0.52979330  0.48186591  0.32030459  1
  H  H9  1  0.47020670  0.51813409  0.67969541  1
  H  H10  1  0.71446571  0.50577080  0.11588952  1
  H  H11  1  0.28553429  0.49422920  0.88411048  1
  H  H12  1  0.34325218  0.24143038  0.01149985  1
  H  H13  1  0.65674782  0.75856962  0.98850015  1
  H  H14  1  0.70807098  0.25254356  0.56127672  1
  H  H15  1  0.29192902  0.74745644  0.43872328  1
  Pt  Pt16  1  0.97556903  0.32723428  0.28144923  1
  Pt  Pt17  1  0.02443097  0.67276572  0.71855077  1
  N  N18  1  0.97159251  0.08040074  0.28055721  1
  N  N19  1  0.02840749  0.91959926  0.71944279  1
  N  N20  1  0.11564072  0.97588391  0.16455953  1
  N  N21  1  0.88435928  0.02411609  0.83544047  1
  N  N22  1  0.24681786  0.86429029  0.06129962  1
  N  N23  1  0.75318214  0.13570971  0.93870038  1
  N  N24  1  0.27244543  0.23902938  0.34311869  1
  N  N25  1  0.72755457  0.76097062  0.65688131  1
  N  N26  1  0.37590407  0.08221874  0.33673122  1
  N  N27  1  0.62409593  0.91778126  0.66326878  1
  N  N28  1  0.48477604  0.93510584  0.33245002  1
  N  N29  1  0.51522396  0.06489416  0.66754998  1
  N  N30  1  0.95617205  0.58133838  0.29211053  1
  N  N31  1  0.04382795  0.41866162  0.70788947  1
  N  N32  1  0.68524455  0.41911236  0.21546695  1
  N  N33  1  0.31475545  0.58088764  0.78453305  1
  O  O34  1  0.18408905  0.31980313  0.02493152  1
  O  O35  1  0.81591095  0.68019687  0.97506848  1
  O  O36  1  0.75128903  0.35660217  0.53682833  1
  O  O37  1  0.24871097  0.64339783  0.46317167  1
