# generated using pymatgen
data_Li(BiO2)3
_symmetry_space_group_name_H-M   'P 1'
_cell_length_a   9.35148321
_cell_length_b   9.35148321
_cell_length_c   9.35148321
_cell_angle_alpha   109.47122063
_cell_angle_beta   109.47122063
_cell_angle_gamma   109.47122063
_symmetry_Int_Tables_number   1
_chemical_formula_structural   Li(BiO2)3
_chemical_formula_sum   'Li4 Bi12 O24'
_cell_volume   629.53460067
_cell_formula_units_Z   4
loop_
 _symmetry_equiv_pos_site_id
 _symmetry_equiv_pos_as_xyz
  1  'x, y, z'
loop_
 _atom_site_type_symbol
 _atom_site_label
 _atom_site_symmetry_multiplicity
 _atom_site_fract_x
 _atom_site_fract_y
 _atom_site_fract_z
 _atom_site_occupancy
  Li  Li0  1  0.96891294  0.50000000  0.00000000  1
  Li  Li1  1  0.50000000  0.00000000  0.96891294  1
  Li  Li2  1  0.53108706  0.53108706  0.53108706  1
  Li  Li3  1  0.00000000  0.96891294  0.50000000  1
  Bi  Bi4  1  0.96344482  0.25000000  0.21344482  1
  Bi  Bi5  1  0.78687026  0.03687026  0.75000000  1
  Bi  Bi6  1  0.71312974  0.46312974  0.25000000  1
  Bi  Bi7  1  0.75000000  0.28655518  0.53655518  1
  Bi  Bi8  1  0.75000000  0.78687026  0.03687026  1
  Bi  Bi9  1  0.46312974  0.25000000  0.71312974  1
  Bi  Bi10  1  0.53655518  0.75000000  0.28655518  1
  Bi  Bi11  1  0.25000000  0.71312974  0.46312974  1
  Bi  Bi12  1  0.25000000  0.21344482  0.96344482  1
  Bi  Bi13  1  0.21344482  0.96344482  0.25000000  1
  Bi  Bi14  1  0.28655518  0.53655518  0.75000000  1
  Bi  Bi15  1  0.03687026  0.75000000  0.78687026  1
  O  O16  1  0.02611903  0.05719137  0.25960320  1
  O  O17  1  0.73348418  0.03107234  0.47388097  1
  O  O18  1  0.76651582  0.24039680  0.29758816  1
  O  O19  1  0.00516365  0.96728909  0.72446765  1
  O  O20  1  0.49483635  0.21930500  0.96212543  1
  O  O21  1  0.75717857  0.53271091  0.53787457  1
  O  O22  1  0.74282143  0.28069500  0.77553235  1
  O  O23  1  0.44280863  0.46892766  0.20241184  1
  O  O24  1  0.46892766  0.20241184  0.44280863  1
  O  O25  1  0.77553235  0.74282143  0.28069500  1
  O  O26  1  0.72446765  0.00516365  0.96728909  1
  O  O27  1  0.21930500  0.96212543  0.49483635  1
  O  O28  1  0.47388097  0.73348418  0.03107234  1
  O  O29  1  0.20241184  0.44280863  0.46892766  1
  O  O30  1  0.29758816  0.76651582  0.24039680  1
  O  O31  1  0.53271091  0.53787457  0.75717857  1
  O  O32  1  0.53787457  0.75717857  0.53271091  1
  O  O33  1  0.96212543  0.49483635  0.21930500  1
  O  O34  1  0.24039680  0.29758816  0.76651582  1
  O  O35  1  0.25960320  0.02611903  0.05719137  1
  O  O36  1  0.05719137  0.25960320  0.02611903  1
  O  O37  1  0.03107234  0.47388097  0.73348418  1
  O  O38  1  0.28069500  0.77553235  0.74282143  1
  O  O39  1  0.96728909  0.72446765  0.00516365  1
