# generated using pymatgen
data_PtO3
_symmetry_space_group_name_H-M   'P 1'
_cell_length_a   4.89495169
_cell_length_b   5.12283416
_cell_length_c   4.89495252
_cell_angle_alpha   118.53908864
_cell_angle_beta   59.99999894
_cell_angle_gamma   118.53909272
_symmetry_Int_Tables_number   1
_chemical_formula_structural   PtO3
_chemical_formula_sum   'Pt2 O6'
_cell_volume   88.66193334
_cell_formula_units_Z   2
loop_
 _symmetry_equiv_pos_site_id
 _symmetry_equiv_pos_as_xyz
  1  'x, y, z'
loop_
 _atom_site_type_symbol
 _atom_site_label
 _atom_site_symmetry_multiplicity
 _atom_site_fract_x
 _atom_site_fract_y
 _atom_site_fract_z
 _atom_site_occupancy
  Pt  Pt0  1  0.00000000  0.00000000  0.00000000  1
  Pt  Pt1  1  0.50000000  0.50000000  0.50000000  1
  O  O2  1  0.25000000  0.75000000  0.57464547  1
  O  O3  1  0.42535453  0.25000000  0.07464547  1
  O  O4  1  0.07464547  0.25000000  0.75000000  1
  O  O5  1  0.92535453  0.75000000  0.25000000  1
  O  O6  1  0.57464547  0.75000000  0.92535453  1
  O  O7  1  0.75000000  0.25000000  0.42535453  1
