# generated using pymatgen
data_ZrFe(PO4)3
_symmetry_space_group_name_H-M   'P 1'
_cell_length_a   8.83422608
_cell_length_b   8.85022401
_cell_length_c   12.37064699
_cell_angle_alpha   89.99380094
_cell_angle_beta   90.00074969
_cell_angle_gamma   90.00014425
_symmetry_Int_Tables_number   1
_chemical_formula_structural   ZrFe(PO4)3
_chemical_formula_sum   'Zr4 Fe4 P12 O48'
_cell_volume   967.19754198
_cell_formula_units_Z   4
loop_
 _symmetry_equiv_pos_site_id
 _symmetry_equiv_pos_as_xyz
  1  'x, y, z'
loop_
 _atom_site_type_symbol
 _atom_site_label
 _atom_site_symmetry_multiplicity
 _atom_site_fract_x
 _atom_site_fract_y
 _atom_site_fract_z
 _atom_site_occupancy
  Zr  Zr0  1  0.24994195  0.52585163  0.37722762  1
  Zr  Zr1  1  0.25000428  0.47409845  0.87706330  1
  Zr  Zr2  1  0.74999264  0.97411487  0.87706392  1
  Zr  Zr3  1  0.75006395  0.02584807  0.37723922  1
  Fe  Fe4  1  0.25121938  0.96762624  0.61380948  1
  Fe  Fe5  1  0.24875051  0.03242799  0.11392120  1
  Fe  Fe6  1  0.75122631  0.53242043  0.11388341  1
  Fe  Fe7  1  0.74879315  0.46760842  0.61377578  1
  P  P8  1  0.02951034  0.24105636  0.51515602  1
  P  P9  1  0.08346291  0.36553929  0.13489131  1
  P  P10  1  0.13570496  0.09033636  0.84864248  1
  P  P11  1  0.41668828  0.63464724  0.63486339  1
  P  P12  1  0.36430319  0.90957067  0.34865896  1
  P  P13  1  0.47044368  0.75896106  0.01517797  1
  P  P14  1  0.52952358  0.25893191  0.01517530  1
  P  P15  1  0.58331314  0.13464796  0.63485984  1
  P  P16  1  0.63572070  0.40957952  0.34864801  1
  P  P17  1  0.86434072  0.59040877  0.84861878  1
  P  P18  1  0.91652537  0.86557055  0.13489193  1
  P  P19  1  0.97049125  0.74107456  0.51514361  1
  O  O20  1  0.05750803  0.64713699  0.43005691  1
  O  O21  1  0.07870736  0.83095852  0.58871380  1
  O  O22  1  0.08954863  0.88079359  0.13761999  1
  O  O23  1  0.03887267  0.57508194  0.84559687  1
  O  O24  1  0.10802908  0.13589094  0.59659250  1
  O  O25  1  0.14533864  0.34262484  0.45660564  1
  O  O26  1  0.20119719  0.03905606  0.95846194  1
  O  O27  1  0.14958589  0.42223351  0.02708619  1
  O  O28  1  0.10464178  0.19361399  0.14547889  1
  O  O29  1  0.17992374  0.25578241  0.82414946  1
  O  O30  1  0.15909393  0.45097654  0.23025273  1
  O  O31  1  0.20697869  0.97523451  0.76996566  1
  O  O32  1  0.29314456  0.02483001  0.26990812  1
  O  O33  1  0.34103761  0.54909636  0.73017814  1
  O  O34  1  0.39536343  0.80642252  0.64542657  1
  O  O35  1  0.31995495  0.74410314  0.32412557  1
  O  O36  1  0.35048697  0.57791060  0.52709998  1
  O  O37  1  0.29860178  0.96089257  0.45840256  1
  O  O38  1  0.39207711  0.86393141  0.09651490  1
  O  O39  1  0.35461631  0.65739618  0.95649497  1
  O  O40  1  0.41045664  0.11922992  0.63752567  1
  O  O41  1  0.46108755  0.42476652  0.34577775  1
  O  O42  1  0.42148261  0.16905285  0.08869420  1
  O  O43  1  0.44254979  0.35284155  0.93001287  1
  O  O44  1  0.57848825  0.66905773  0.08866548  1
  O  O45  1  0.55742515  0.85286509  0.92999939  1
  O  O46  1  0.58957176  0.61923492  0.63750028  1
  O  O47  1  0.53891351  0.92478813  0.34574984  1
  O  O48  1  0.60793252  0.36392756  0.09649801  1
  O  O49  1  0.64533497  0.15737743  0.95651067  1
  O  O50  1  0.64949983  0.07787315  0.52711218  1
  O  O51  1  0.70145858  0.46092087  0.45835693  1
  O  O52  1  0.68006134  0.24411482  0.32412424  1
  O  O53  1  0.60464095  0.30643162  0.64537838  1
  O  O54  1  0.70678793  0.52482325  0.26986805  1
  O  O55  1  0.65897615  0.04913677  0.73018348  1
  O  O56  1  0.84094627  0.95097963  0.23026380  1
  O  O57  1  0.79298820  0.47521041  0.76991345  1
  O  O58  1  0.89531385  0.69362153  0.14546893  1
  O  O59  1  0.82008147  0.75579428  0.82415106  1
  O  O60  1  0.79880443  0.53903637  0.95846973  1
  O  O61  1  0.85040834  0.92227080  0.02710464  1
  O  O62  1  0.89201447  0.63583852  0.59661397  1
  O  O63  1  0.85464075  0.84258869  0.45662375  1
  O  O64  1  0.96114211  0.07507812  0.84561619  1
  O  O65  1  0.91045598  0.38083680  0.13762814  1
  O  O66  1  0.94252153  0.14710664  0.43005257  1
  O  O67  1  0.92128542  0.33090905  0.58869747  1
