# generated using pymatgen
data_LiSi4H43C17SO2
_symmetry_space_group_name_H-M   'P 1'
_cell_length_a   12.60004810
_cell_length_b   13.72126704
_cell_length_c   20.34790234
_cell_angle_alpha   105.78356115
_cell_angle_beta   98.75056069
_cell_angle_gamma   103.45273212
_symmetry_Int_Tables_number   1
_chemical_formula_structural   LiSi4H43C17SO2
_chemical_formula_sum   'Li4 Si16 H172 C68 S4 O8'
_cell_volume   3203.99849821
_cell_formula_units_Z   4
loop_
 _symmetry_equiv_pos_site_id
 _symmetry_equiv_pos_as_xyz
  1  'x, y, z'
loop_
 _atom_site_type_symbol
 _atom_site_label
 _atom_site_symmetry_multiplicity
 _atom_site_fract_x
 _atom_site_fract_y
 _atom_site_fract_z
 _atom_site_occupancy
  Li  Li0  1  0.38712256  0.54619026  0.46658888  1
  Li  Li1  1  0.61287744  0.45380974  0.53341112  1
  Li  Li2  1  0.88783972  0.96005003  0.04283337  1
  Li  Li3  1  0.11216028  0.03994997  0.95716663  1
  Si  Si4  1  0.29581788  0.36533701  0.60148342  1
  Si  Si5  1  0.70418212  0.63466299  0.39851658  1
  Si  Si6  1  0.14053607  0.23792668  0.51632698  1
  Si  Si7  1  0.85946393  0.76207332  0.48367302  1
  Si  Si8  1  0.23476822  0.49966229  0.67196432  1
  Si  Si9  1  0.76523178  0.50033771  0.32803568  1
  Si  Si10  1  0.38034440  0.27683775  0.67057256  1
  Si  Si11  1  0.61965560  0.72316225  0.32942744  1
  Si  Si12  1  0.82046914  0.14134047  0.90452539  1
  Si  Si13  1  0.17953086  0.85865953  0.09547461  1
  Si  Si14  1  0.91669653  0.20497922  0.82623270  1
  Si  Si15  1  0.08330347  0.79502078  0.17376730  1
  Si  Si16  1  0.80035063  0.28591250  0.99201147  1
  Si  Si17  1  0.19964937  0.71408750  0.00798853  1
  Si  Si18  1  0.64155920  0.02362846  0.84258575  1
  Si  Si19  1  0.35844080  0.97637154  0.15741425  1
  H  H20  1  0.12831179  0.34766767  0.43642025  1
  H  H21  1  0.87168821  0.65233233  0.56357975  1
  H  H22  1  0.00771225  0.23526281  0.41246986  1
  H  H23  1  0.99228775  0.76473719  0.58753014  1
  H  H24  1  0.02187820  0.34901139  0.48454910  1
  H  H25  1  0.97812180  0.65098861  0.51545090  1
  H  H26  1  0.99257018  0.22466285  0.58603706  1
  H  H27  1  0.00742982  0.77533715  0.41396294  1
  H  H28  1  0.95774406  0.11354321  0.50875828  1
  H  H29  1  0.04225594  0.88645679  0.49124172  1
  H  H30  1  0.05706313  0.12179843  0.58357710  1
  H  H31  1  0.94293687  0.87820157  0.41642290  1
  H  H32  1  0.22275434  0.08599056  0.48821607  1
  H  H33  1  0.77724566  0.91400944  0.51178393  1
  H  H34  1  0.11829517  0.07779513  0.41576504  1
  H  H35  1  0.88170483  0.92220487  0.58423496  1
  H  H36  1  0.25483511  0.16814292  0.43524049  1
  H  H37  1  0.74516489  0.83185708  0.56475951  1
  H  H38  1  0.07585100  0.50866151  0.58508894  1
  H  H39  1  0.92414900  0.49133849  0.41491106  1
  H  H40  1  0.14858223  0.63510227  0.64716353  1
  H  H41  1  0.85141777  0.36489773  0.35283647  1
  H  H42  1  0.20798768  0.57985814  0.57675365  1
  H  H43  1  0.79201232  0.42014186  0.42324635  1
  H  H44  1  0.42214506  0.63347275  0.70572407  1
  H  H45  1  0.57785494  0.36652725  0.29427593  1
  H  H46  1  0.32945860  0.67852125  0.75713462  1
  H  H47  1  0.67054140  0.32147875  0.24286538  1
  H  H48  1  0.39694403  0.58602113  0.77693457  1
  H  H49  1  0.60305597  0.41397887  0.22306543  1
  H  H50  1  0.17756114  0.42681355  0.76608915  1
  H  H51  1  0.82243886  0.57318645  0.23391085  1
  H  H52  1  0.11262813  0.52572699  0.75681931  1
  H  H53  1  0.88737187  0.47427301  0.24318069  1
  H  H54  1  0.06020595  0.39594260  0.69528937  1
  H  H55  1  0.93979405  0.60405740  0.30471063  1
  H  H56  1  0.42150616  0.40223414  0.79311699  1
  H  H57  1  0.57849384  0.59776586  0.20688301  1
  H  H58  1  0.51646338  0.32407923  0.78377921  1
  H  H59  1  0.48353662  0.67592077  0.21622079  1
  H  H60  1  0.53402238  0.43446502  0.75200515  1
  H  H61  1  0.46597762  0.56553498  0.24799485  1
  H  H62  1  0.23131235  0.10501722  0.64432016  1
  H  H63  1  0.76868765  0.89498278  0.35567984  1
  H  H64  1  0.32481754  0.14080311  0.72751348  1
  H  H65  1  0.67518246  0.85919689  0.27248652  1
  H  H66  1  0.21634034  0.20251984  0.71770154  1
  H  H67  1  0.78365966  0.79748016  0.28229846  1
  H  H68  1  0.53256226  0.26329807  0.60599843  1
  H  H69  1  0.46743774  0.73670193  0.39400157  1
  H  H70  1  0.52120471  0.17717231  0.65836748  1
  H  H71  1  0.47879529  0.82282769  0.34163252  1
  H  H72  1  0.42367514  0.14179737  0.57644652  1
  H  H73  1  0.57632486  0.85820263  0.42355348  1
  H  H74  1  0.13554843  0.51160313  0.33627756  1
  H  H75  1  0.86445157  0.48839687  0.66372244  1
  H  H76  1  0.26818147  0.59183382  0.33480989  1
  H  H77  1  0.73181853  0.40816618  0.66519011  1
  H  H78  1  0.11890004  0.39225838  0.22503951  1
  H  H79  1  0.88109996  0.60774162  0.77496049  1
  H  H80  1  0.23372168  0.48552103  0.21597429  1
  H  H81  1  0.76627832  0.51447897  0.78402571  1
  H  H82  1  0.36621589  0.40019491  0.25335825  1
  H  H83  1  0.63378411  0.59980509  0.74664175  1
  H  H84  1  0.24736906  0.28712441  0.22043182  1
  H  H85  1  0.75263094  0.71287559  0.77956818  1
  H  H86  1  0.36258345  0.35610676  0.35981896  1
  H  H87  1  0.63741655  0.64389324  0.64018104  1
  H  H88  1  0.21333154  0.30194339  0.33611821  1
  H  H89  1  0.78666846  0.69805661  0.66388179  1
  H  H90  1  0.44075093  0.73888234  0.61179824  1
  H  H91  1  0.55924907  0.26111766  0.38820176  1
  H  H92  1  0.52852368  0.76383459  0.55352610  1
  H  H93  1  0.47147632  0.23616541  0.44647390  1
  H  H94  1  0.47673789  0.92087190  0.55012180  1
  H  H95  1  0.52326211  0.07912810  0.44987820  1
  H  H96  1  0.45202496  0.92246559  0.63376463  1
  H  H97  1  0.54797504  0.07753441  0.36623537  1
  H  H98  1  0.28046977  0.90989015  0.52626633  1
  H  H99  1  0.71953023  0.09010985  0.47373367  1
  H  H100  1  0.25321169  0.84275193  0.58766937  1
  H  H101  1  0.74678831  0.15724807  0.41233063  1
  H  H102  1  0.27386697  0.75251828  0.43752583  1
  H  H103  1  0.72613303  0.24748172  0.56247417  1
  H  H104  1  0.19157896  0.68927749  0.48659728  1
  H  H105  1  0.80842104  0.31072251  0.51340272  1
  H  H106  1  0.82058353  0.34095787  0.80946154  1
  H  H107  1  0.17941647  0.65904213  0.19053846  1
  H  H108  1  0.89441975  0.30563957  0.74298406  1
  H  H109  1  0.10558025  0.69436043  0.25701594  1
  H  H110  1  0.76208666  0.21965934  0.73904587  1
  H  H111  1  0.23791334  0.78034066  0.26095413  1
  H  H112  1  0.87027091  0.03712768  0.72453435  1
  H  H113  1  0.12972909  0.96287232  0.27546565  1
  H  H114  1  0.99787693  0.12950824  0.72776034  1
  H  H115  1  0.00212307  0.87049176  0.27223966  1
  H  H116  1  0.99474240  0.05394951  0.78673284  1
  H  H117  1  0.00525760  0.94605049  0.21326716  1
  H  H118  1  0.10326352  0.26532118  0.90912954  1
  H  H119  1  0.89673648  0.73467882  0.09087046  1
  H  H120  1  0.10743324  0.31885427  0.83836414  1
  H  H121  1  0.89256676  0.68114573  0.16163586  1
  H  H122  1  0.05070828  0.37553182  0.90944604  1
  H  H123  1  0.94929172  0.62446818  0.09055396  1
  H  H124  1  0.73451407  0.18092181  0.06855568  1
  H  H125  1  0.26548593  0.81907819  0.93144432  1
  H  H126  1  0.70843798  0.30692281  0.09263318  1
  H  H127  1  0.29156202  0.69307719  0.90736682  1
  H  H128  1  0.61889286  0.20220648  0.01823588  1
  H  H129  1  0.38110714  0.79779352  0.98176412  1
  H  H130  1  0.65610723  0.34331382  0.92369009  1
  H  H131  1  0.34389277  0.65668618  0.07630991  1
  H  H132  1  0.73422909  0.44537580  0.00302887  1
  H  H133  1  0.26577091  0.55462420  0.99697113  1
  H  H134  1  0.79442127  0.41918146  0.92890999  1
  H  H135  1  0.20557873  0.58081854  0.07109001  1
  H  H136  1  0.99593404  0.40853470  0.02752264  1
  H  H137  1  0.00406596  0.59146530  0.97247736  1
  H  H138  1  0.92741105  0.42405907  0.09857804  1
  H  H139  1  0.07258895  0.57594093  0.90142196  1
  H  H140  1  0.98239933  0.31396930  0.07298209  1
  H  H141  1  0.01760067  0.68603070  0.92701791  1
  H  H142  1  0.54511665  0.00918727  0.94014441  1
  H  H143  1  0.45488335  0.99081273  0.05985559  1
  H  H144  1  0.49879712  0.88943032  0.86795995  1
  H  H145  1  0.50120288  0.11056968  0.13204005  1
  H  H146  1  0.63105643  0.92253727  0.92767453  1
  H  H147  1  0.36894357  0.07746273  0.07232547  1
  H  H148  1  0.56971250  0.12643623  0.76976583  1
  H  H149  1  0.43028750  0.87356377  0.23023417  1
  H  H150  1  0.45905395  0.02348347  0.77511545  1
  H  H151  1  0.54094605  0.97651653  0.22488455  1
  H  H152  1  0.51646139  0.14268505  0.84699977  1
  H  H153  1  0.48353861  0.85731495  0.15300023  1
  H  H154  1  0.72453152  0.88598885  0.78172358  1
  H  H155  1  0.27546848  0.11401115  0.21827642  1
  H  H156  1  0.57700638  0.85084281  0.74707443  1
  H  H157  1  0.42299362  0.14915719  0.25292557  1
  H  H158  1  0.67048279  0.94638353  0.72226676  1
  H  H159  1  0.32951721  0.05361647  0.27773324  1
  H  H160  1  0.76866333  0.78531511  0.90741442  1
  H  H161  1  0.23133667  0.21468489  0.09258558  1
  H  H162  1  0.82294293  0.70727955  0.95368242  1
  H  H163  1  0.17705707  0.29272045  0.04631758  1
  H  H164  1  0.64330005  0.58049978  0.89395143  1
  H  H165  1  0.35669995  0.41950022  0.10604857  1
  H  H166  1  0.57785193  0.68043289  0.88875554  1
  H  H167  1  0.42214807  0.31956711  0.11124446  1
  H  H168  1  0.51503871  0.63992480  0.98739112  1
  H  H169  1  0.48496129  0.36007520  0.01260888  1
  H  H170  1  0.63954674  0.60879382  0.01582857  1
  H  H171  1  0.36045326  0.39120618  0.98417143  1
  H  H172  1  0.69266422  0.78611306  0.09402213  1
  H  H173  1  0.30733578  0.21388694  0.90597787  1
  H  H174  1  0.60313439  0.82644529  0.03633611  1
  H  H175  1  0.39686561  0.17355471  0.96366389  1
  H  H176  1  0.70481436  0.03860124  0.14469882  1
  H  H177  1  0.29518564  0.96139876  0.85530118  1
  H  H178  1  0.76972712  0.95955540  0.18447449  1
  H  H179  1  0.23027288  0.04044460  0.81552551  1
  H  H180  1  0.85930405  0.10196573  0.28876998  1
  H  H181  1  0.14069595  0.89803427  0.71123002  1
  H  H182  1  0.75521579  0.15907929  0.26125418  1
  H  H183  1  0.24478421  0.84092071  0.73874582  1
  H  H184  1  0.98086720  0.25789564  0.27941586  1
  H  H185  1  0.01913280  0.74210436  0.72058414  1
  H  H186  1  0.87826472  0.26730641  0.21312800  1
  H  H187  1  0.12173528  0.73269359  0.78687200  1
  H  H188  1  0.03300061  0.12446054  0.19716387  1
  H  H189  1  0.96699939  0.87553946  0.80283613  1
  H  H190  1  0.98274551  0.18539174  0.13664538  1
  H  H191  1  0.01725449  0.81460826  0.86335462  1
  C  C192  1  0.06831300  0.29897409  0.45692182  1
  C  C193  1  0.93168700  0.70102591  0.54307818  1
  C  C194  1  0.02687923  0.16826381  0.55263895  1
  C  C195  1  0.97312077  0.83173619  0.44736105  1
  C  C196  1  0.18912910  0.13241022  0.45851594  1
  C  C197  1  0.81087090  0.86758978  0.54148406  1
  C  C198  1  0.15935041  0.56130735  0.61448248  1
  C  C199  1  0.84064959  0.43869265  0.38551752  1
  C  C200  1  0.35820884  0.60968468  0.73394785  1
  C  C201  1  0.64179116  0.39031532  0.26605215  1
  C  C202  1  0.13712003  0.45740791  0.72756029  1
  C  C203  1  0.86287997  0.54259209  0.27243971  1
  C  C204  1  0.47166966  0.36892039  0.75821101  1
  C  C205  1  0.52833034  0.63107961  0.24178899  1
  C  C206  1  0.27756480  0.17160282  0.69178862  1
  C  C207  1  0.72243520  0.82839718  0.30821138  1
  C  C208  1  0.47349846  0.20825405  0.62307982  1
  C  C209  1  0.52650154  0.79174595  0.37692018  1
  C  C210  1  0.21780098  0.50993558  0.32464794  1
  C  C211  1  0.78219902  0.49006442  0.67535206  1
  C  C212  1  0.20661857  0.43880569  0.24949146  1
  C  C213  1  0.79338143  0.56119431  0.75050854  1
  C  C214  1  0.28126690  0.36660777  0.25875776  1
  C  C215  1  0.71873310  0.63339223  0.74124224  1
  C  C216  1  0.28410849  0.36479469  0.33365996  1
  C  C217  1  0.71589151  0.63520531  0.66634004  1
  C  C218  1  0.44755331  0.76697117  0.56622398  1
  C  C219  1  0.55244669  0.23302883  0.43377602  1
  C  C220  1  0.42776686  0.87566364  0.57806096  1
  C  C221  1  0.57223314  0.12433636  0.42193904  1
  C  C222  1  0.30103560  0.84938497  0.54737996  1
  C  C223  1  0.69896440  0.15061503  0.45262004  1
  C  C224  1  0.27329440  0.74266930  0.48955475  1
  C  C225  1  0.72670560  0.25733070  0.51044525  1
  C  C226  1  0.84054463  0.27434772  0.77482175  1
  C  C227  1  0.15945537  0.72565228  0.22517825  1
  C  C228  1  0.94699902  0.09514013  0.75984685  1
  C  C229  1  0.05300098  0.90485987  0.24015315  1
  C  C230  1  0.05800668  0.30085950  0.87601289  1
  C  C231  1  0.94199332  0.69914050  0.12398711  1
  C  C232  1  0.70631162  0.23904411  0.04796350  1
  C  C233  1  0.29368838  0.76095589  0.95203650  1
  C  C234  1  0.74024485  0.38197845  0.95816445  1
  C  C235  1  0.25975515  0.61802155  0.04183555  1
  C  C236  1  0.94034900  0.36572705  0.05353346  1
  C  C237  1  0.05965100  0.63427295  0.94646654  1
  C  C238  1  0.57273554  0.95495887  0.90042908  1
  C  C239  1  0.42726446  0.04504113  0.09957092  1
  C  C240  1  0.53736000  0.08552174  0.80525393  1
  C  C241  1  0.46264000  0.91447826  0.19474607  1
  C  C242  1  0.65509661  0.91664382  0.76596392  1
  C  C243  1  0.34490339  0.08335618  0.23403608  1
  C  C244  1  0.75360888  0.74171221  0.94487084  1
  C  C245  1  0.24639112  0.25828779  0.05512916  1
  C  C246  1  0.63878360  0.65914049  0.92259672  1
  C  C247  1  0.36121640  0.34085951  0.07740328  1
  C  C248  1  0.60633112  0.66241176  0.99303502  1
  C  C249  1  0.39366888  0.33758824  0.00696498  1
  C  C250  1  0.66114476  0.77790325  0.03864200  1
  C  C251  1  0.33885524  0.22209675  0.96135800  1
  C  C252  1  0.78315292  0.03725409  0.17649523  1
  C  C253  1  0.21684708  0.96274591  0.82350477  1
  C  C254  1  0.82395589  0.12832977  0.24616328  1
  C  C255  1  0.17604411  0.87167023  0.75383672  1
  C  C256  1  0.91476970  0.21183403  0.23198172  1
  C  C257  1  0.08523030  0.78816597  0.76801828  1
  C  C258  1  0.95994252  0.14637074  0.17517435  1
  C  C259  1  0.04005748  0.85362926  0.82482565  1
  S  S260  1  0.41103264  0.43987331  0.55036077  1
  S  S261  1  0.58896736  0.56012669  0.44963923  1
  S  S262  1  0.91370539  0.05646635  0.95208836  1
  S  S263  1  0.08629461  0.94353365  0.04791164  1
  O  O264  1  0.27606255  0.46748912  0.37249191  1
  O  O265  1  0.72393745  0.53251088  0.62750809  1
  O  O266  1  0.36008956  0.69367178  0.50621939  1
  O  O267  1  0.63991044  0.30632822  0.49378061  1
  O  O268  1  0.75568681  0.81861752  0.01092696  1
  O  O269  1  0.24431319  0.18138248  0.98907304  1
  O  O270  1  0.86960528  0.05020697  0.13716442  1
  O  O271  1  0.13039472  0.94979303  0.86283558  1
