# generated using pymatgen
data_LiCr2O3
_symmetry_space_group_name_H-M   'P 1'
_cell_length_a   5.27972625
_cell_length_b   5.26476838
_cell_length_c   10.06167232
_cell_angle_alpha   85.76244426
_cell_angle_beta   98.47427201
_cell_angle_gamma   120.09402844
_symmetry_Int_Tables_number   1
_chemical_formula_structural   LiCr2O3
_chemical_formula_sum   'Li4 Cr8 O12'
_cell_volume   239.33794750
_cell_formula_units_Z   4
loop_
 _symmetry_equiv_pos_site_id
 _symmetry_equiv_pos_as_xyz
  1  'x, y, z'
loop_
 _atom_site_type_symbol
 _atom_site_label
 _atom_site_symmetry_multiplicity
 _atom_site_fract_x
 _atom_site_fract_y
 _atom_site_fract_z
 _atom_site_occupancy
  Li  Li0  1  0.24013605  0.48027209  0.75000000  1
  Li  Li1  1  0.42911816  0.85823631  0.25000000  1
  Li  Li2  1  0.57088184  0.14176369  0.75000000  1
  Li  Li3  1  0.75986395  0.51972791  0.25000000  1
  Cr  Cr4  1  0.16840095  0.83358387  0.49856351  1
  Cr  Cr5  1  0.00000000  0.50000000  0.00000000  1
  Cr  Cr6  1  0.09404593  0.18809285  0.25000000  1
  Cr  Cr7  1  0.50000000  0.50000000  0.50000000  1
  Cr  Cr8  1  0.66518292  0.83358387  0.00143649  1
  Cr  Cr9  1  0.33481708  0.16641613  0.99856351  1
  Cr  Cr10  1  0.90595407  0.81190715  0.75000000  1
  Cr  Cr11  1  0.83159905  0.16641613  0.50143649  1
  O  O12  1  0.04188666  0.87368909  0.12155819  1
  O  O13  1  0.31172213  0.83825916  0.89130264  1
  O  O14  1  0.12282453  0.49529893  0.38604853  1
  O  O15  1  0.52653703  0.83825916  0.60869736  1
  O  O16  1  0.16819758  0.12631091  0.62155819  1
  O  O17  1  0.62752560  0.50470107  0.88604853  1
  O  O18  1  0.37247440  0.49529893  0.11395147  1
  O  O19  1  0.83180242  0.87368909  0.37844181  1
  O  O20  1  0.47346297  0.16174084  0.39130264  1
  O  O21  1  0.87717547  0.50470107  0.61395147  1
  O  O22  1  0.68827787  0.16174084  0.10869736  1
  O  O23  1  0.95811334  0.12631091  0.87844181  1
