# generated using pymatgen
data_Li4Ti2Mn3(Fe2O9)2
_symmetry_space_group_name_H-M   'P 1'
_cell_length_a   8.99782776
_cell_length_b   25.46082095
_cell_length_c   2.93519980
_cell_angle_alpha   89.99995499
_cell_angle_beta   89.99992882
_cell_angle_gamma   89.99132800
_symmetry_Int_Tables_number   1
_chemical_formula_structural   Li4Ti2Mn3(Fe2O9)2
_chemical_formula_sum   'Li8 Ti4 Mn6 Fe8 O36'
_cell_volume   672.43102445
_cell_formula_units_Z   2
loop_
 _symmetry_equiv_pos_site_id
 _symmetry_equiv_pos_as_xyz
  1  'x, y, z'
loop_
 _atom_site_type_symbol
 _atom_site_label
 _atom_site_symmetry_multiplicity
 _atom_site_fract_x
 _atom_site_fract_y
 _atom_site_fract_z
 _atom_site_occupancy
  Li  Li0  1  0.19312740  0.98923782  0.99999925  1
  Li  Li1  1  0.19758453  0.20504000  0.99999956  1
  Li  Li2  1  0.30275453  0.70524263  0.00000002  1
  Li  Li3  1  0.30692765  0.48921235  -0.00000005  1
  Li  Li4  1  0.69309002  0.51081915  0.99999905  1
  Li  Li5  1  0.69670124  0.29474193  0.99999898  1
  Li  Li6  1  0.80270607  0.79477318  0.99999925  1
  Li  Li7  1  0.80688331  0.01081971  0.99999882  1
  Ti  Ti8  1  0.00295719  0.10187787  0.00000216  1
  Ti  Ti9  1  0.49703910  0.60187208  0.99999864  1
  Ti  Ti10  1  0.50297121  0.39811255  0.99999851  1
  Ti  Ti11  1  0.99707419  0.89814474  -0.00000178  1
  Mn  Mn12  1  0.00003435  0.49992880  0.00001238  1
  Mn  Mn13  1  0.14623879  0.80724651  0.50001581  1
  Mn  Mn14  1  0.35371580  0.30730557  0.50000145  1
  Mn  Mn15  1  0.49992722  0.00010316  -0.00000105  1
  Mn  Mn16  1  0.64626142  0.69270327  0.50000026  1
  Mn  Mn17  1  0.85373342  0.19273957  0.49999589  1
  Fe  Fe18  1  0.02070715  0.30411747  0.00000006  1
  Fe  Fe19  1  0.13891337  0.58904134  0.49999996  1
  Fe  Fe20  1  0.36118213  0.08904139  0.50000120  1
  Fe  Fe21  1  0.47920247  0.80413915  0.99999700  1
  Fe  Fe22  1  0.52076696  0.19583554  0.00000089  1
  Fe  Fe23  1  0.63892836  0.91095356  0.49999764  1
  Fe  Fe24  1  0.86122298  0.41094244  0.49999950  1
  Fe  Fe25  1  0.97923456  0.69585337  0.99999897  1
  O  O26  1  0.00332347  0.42494904  0.00000097  1
  O  O27  1  0.99668145  0.57515103  0.99999777  1
  O  O28  1  0.06274833  0.94079694  0.50000086  1
  O  O29  1  0.04640640  0.15835735  0.49999929  1
  O  O30  1  0.10200244  0.66593023  0.49999786  1
  O  O31  1  0.09660931  0.76041222  0.00000056  1
  O  O32  1  0.14456586  0.50500945  0.50000056  1
  O  O33  1  0.15476508  0.27833357  0.50000096  1
  O  O34  1  0.19266127  0.85350532  0.00000182  1
  O  O35  1  0.20307507  0.08406937  0.00000133  1
  O  O36  1  0.29689316  0.58406327  -0.00000114  1
  O  O37  1  0.30739715  0.35353528  0.99999970  1
  O  O38  1  0.34522353  0.77831739  0.49999967  1
  O  O39  1  0.35550107  0.00500086  0.49999697  1
  O  O40  1  0.40336273  0.26037164  0.00000028  1
  O  O41  1  0.39794907  0.16592624  0.49999897  1
  O  O42  1  0.45361058  0.65838189  0.50000034  1
  O  O43  1  0.43732024  0.44082033  0.50000038  1
  O  O44  1  0.50334383  0.07508975  0.99999654  1
  O  O45  1  0.49669105  0.92487596  0.00000082  1
  O  O46  1  0.56278333  0.55921283  0.49999923  1
  O  O47  1  0.54642666  0.34160883  0.49999787  1
  O  O48  1  0.60195034  0.83409731  0.49999846  1
  O  O49  1  0.59660776  0.73961347  0.00000084  1
  O  O50  1  0.64462875  0.99500487  0.50000159  1
  O  O51  1  0.65472543  0.22166995  0.50000187  1
  O  O52  1  0.69269355  0.64649210  -0.00000107  1
  O  O53  1  0.70314799  0.41592128  -0.00000133  1
  O  O54  1  0.79687219  0.91594727  0.00000043  1
  O  O55  1  0.80732609  0.14647021  0.99999964  1
  O  O56  1  0.84522921  0.72168757  0.49999876  1
  O  O57  1  0.85542009  0.49502716  0.50000082  1
  O  O58  1  0.90322285  0.23957745  0.99999798  1
  O  O59  1  0.89813703  0.33410004  0.49999795  1
  O  O60  1  0.95358280  0.84163926  0.49999904  1
  O  O61  1  0.93722940  0.05918810  0.50000102  1
