# generated using pymatgen
data_NiP4
_symmetry_space_group_name_H-M   'P 1'
_cell_length_a   4.79180993
_cell_length_b   14.02001819
_cell_length_c   7.01142450
_cell_angle_alpha   90.00000000
_cell_angle_beta   101.59044514
_cell_angle_gamma   90.00000000
_symmetry_Int_Tables_number   1
_chemical_formula_structural   NiP4
_chemical_formula_sum   'Ni6 P24'
_cell_volume   461.43133847
_cell_formula_units_Z   6
loop_
 _symmetry_equiv_pos_site_id
 _symmetry_equiv_pos_as_xyz
  1  'x, y, z'
loop_
 _atom_site_type_symbol
 _atom_site_label
 _atom_site_symmetry_multiplicity
 _atom_site_fract_x
 _atom_site_fract_y
 _atom_site_fract_z
 _atom_site_occupancy
  Ni  Ni0  1  0.00000000  0.50000000  0.50000000  1
  Ni  Ni1  1  0.13951177  0.33005730  0.88334784  1
  Ni  Ni2  1  0.00000000  0.00000000  0.00000000  1
  Ni  Ni3  1  0.13951177  0.16994270  0.38334784  1
  Ni  Ni4  1  0.86048823  0.83005730  0.61665216  1
  Ni  Ni5  1  0.86048823  0.66994270  0.11665216  1
  P  P6  1  0.07833611  0.72760452  0.87111753  1
  P  P7  1  0.07833611  0.77239548  0.37111753  1
  P  P8  1  0.20907739  0.94807745  0.75326283  1
  P  P9  1  0.25779505  0.61544336  0.70265742  1
  P  P10  1  0.20907739  0.55192255  0.25326283  1
  P  P11  1  0.35476716  0.39273487  0.64071633  1
  P  P12  1  0.37588218  0.05447717  0.57363132  1
  P  P13  1  0.49993862  0.21775262  0.95722887  1
  P  P14  1  0.25779505  0.88455664  0.20265742  1
  P  P15  1  0.35476716  0.10726513  0.14071633  1
  P  P16  1  0.50006138  0.71775262  0.54277113  1
  P  P17  1  0.37588218  0.44552283  0.07363132  1
  P  P18  1  0.62411782  0.55447717  0.92636868  1
  P  P19  1  0.49993862  0.28224738  0.45722887  1
  P  P20  1  0.64523284  0.89273487  0.85928367  1
  P  P21  1  0.74220495  0.11544336  0.79734258  1
  P  P22  1  0.50006138  0.78224738  0.04277113  1
  P  P23  1  0.62411782  0.94552283  0.42636868  1
  P  P24  1  0.64523284  0.60726513  0.35928367  1
  P  P25  1  0.79092261  0.44807745  0.74673717  1
  P  P26  1  0.74220495  0.38455664  0.29734258  1
  P  P27  1  0.79092261  0.05192255  0.24673717  1
  P  P28  1  0.92166389  0.22760452  0.62888247  1
  P  P29  1  0.92166389  0.27239548  0.12888247  1
