# generated using pymatgen
data_AgH9O5
_symmetry_space_group_name_H-M   'P 1'
_cell_length_a   6.78878892
_cell_length_b   6.48047619
_cell_length_c   13.05945871
_cell_angle_alpha   90.00000000
_cell_angle_beta   90.00000000
_cell_angle_gamma   90.00000000
_symmetry_Int_Tables_number   1
_chemical_formula_structural   AgH9O5
_chemical_formula_sum   'Ag4 H36 O20'
_cell_volume   574.54546568
_cell_formula_units_Z   4
loop_
 _symmetry_equiv_pos_site_id
 _symmetry_equiv_pos_as_xyz
  1  'x, y, z'
loop_
 _atom_site_type_symbol
 _atom_site_label
 _atom_site_symmetry_multiplicity
 _atom_site_fract_x
 _atom_site_fract_y
 _atom_site_fract_z
 _atom_site_occupancy
  Ag  Ag0  1  0.00540716  0.25901553  0.99840590  1
  Ag  Ag1  1  0.49459284  0.74098447  0.49840590  1
  Ag  Ag2  1  0.50540716  0.24098447  0.00159410  1
  Ag  Ag3  1  0.99459284  0.75901553  0.50159410  1
  H  H4  1  0.03511167  0.69303555  0.79959078  1
  H  H5  1  0.09541190  0.67163246  0.20175988  1
  H  H6  1  0.20624484  0.53989562  0.76328829  1
  H  H7  1  0.23699900  0.83603713  0.68646642  1
  H  H8  1  0.23808690  0.93415404  0.14659976  1
  H  H9  1  0.24182492  0.39831981  0.58152343  1
  H  H10  1  0.24262512  0.96325983  0.85673341  1
  H  H11  1  0.24562607  0.61793758  0.95541325  1
  H  H12  1  0.24759622  0.81162706  0.30634853  1
  H  H13  1  0.25240378  0.18837294  0.80634853  1
  H  H14  1  0.25437393  0.38206242  0.45541325  1
  H  H15  1  0.25737488  0.03674017  0.35673341  1
  H  H16  1  0.25817508  0.60168019  0.08152343  1
  H  H17  1  0.26191310  0.06584596  0.64659976  1
  H  H18  1  0.26300100  0.16396287  0.18646642  1
  H  H19  1  0.29375516  0.46010438  0.26328829  1
  H  H20  1  0.40458810  0.32836754  0.70175988  1
  H  H21  1  0.46488833  0.30696445  0.29959078  1
  H  H22  1  0.53511167  0.80696445  0.20040922  1
  H  H23  1  0.59541190  0.82836754  0.79824012  1
  H  H24  1  0.70624484  0.96010438  0.23671171  1
  H  H25  1  0.73699900  0.66396287  0.31353358  1
  H  H26  1  0.73808690  0.56584596  0.85340024  1
  H  H27  1  0.74182492  0.10168019  0.41847657  1
  H  H28  1  0.74262512  0.53674017  0.14326659  1
  H  H29  1  0.74562607  0.88206242  0.04458675  1
  H  H30  1  0.74759622  0.68837294  0.69365147  1
  H  H31  1  0.75240378  0.31162706  0.19365147  1
  H  H32  1  0.75437393  0.11793758  0.54458675  1
  H  H33  1  0.75737488  0.46325983  0.64326659  1
  H  H34  1  0.75817508  0.89831981  0.91847657  1
  H  H35  1  0.76191310  0.43415404  0.35340024  1
  H  H36  1  0.76300100  0.33603713  0.81353358  1
  H  H37  1  0.79375516  0.03989562  0.73671171  1
  H  H38  1  0.90458810  0.17163246  0.29824012  1
  H  H39  1  0.96488833  0.19303555  0.70040922  1
  O  O40  1  0.17863511  0.67810924  0.79833700  1
  O  O41  1  0.23642805  0.47496636  0.51372087  1
  O  O42  1  0.23878441  0.68039425  0.20044819  1
  O  O43  1  0.24212831  0.08117414  0.12376425  1
  O  O44  1  0.24543038  0.89015635  0.37369457  1
  O  O45  1  0.25456962  0.10984365  0.87369457  1
  O  O46  1  0.25787169  0.91882586  0.62376425  1
  O  O47  1  0.26121559  0.31960575  0.70044819  1
  O  O48  1  0.26357195  0.52503364  0.01372087  1
  O  O49  1  0.32136489  0.32189076  0.29833700  1
  O  O50  1  0.67863511  0.82189076  0.20166300  1
  O  O51  1  0.73642805  0.02503364  0.48627913  1
  O  O52  1  0.73878441  0.81960575  0.79955181  1
  O  O53  1  0.74212831  0.41882586  0.87623575  1
  O  O54  1  0.74543038  0.60984365  0.62630543  1
  O  O55  1  0.75456962  0.39015635  0.12630543  1
  O  O56  1  0.75787169  0.58117414  0.37623575  1
  O  O57  1  0.76121559  0.18039425  0.29955181  1
  O  O58  1  0.76357195  0.97496636  0.98627913  1
  O  O59  1  0.82136489  0.17810924  0.70166300  1
