# generated using pymatgen
data_Li3NbS4
_symmetry_space_group_name_H-M   'P 1'
_cell_length_a   7.55800891
_cell_length_b   10.30763748
_cell_length_c   8.78194786
_cell_angle_alpha   90.00000000
_cell_angle_beta   90.00000000
_cell_angle_gamma   90.00000000
_symmetry_Int_Tables_number   1
_chemical_formula_structural   Li3NbS4
_chemical_formula_sum   'Li12 Nb4 S16'
_cell_volume   684.15954419
_cell_formula_units_Z   4
loop_
 _symmetry_equiv_pos_site_id
 _symmetry_equiv_pos_as_xyz
  1  'x, y, z'
loop_
 _atom_site_type_symbol
 _atom_site_label
 _atom_site_symmetry_multiplicity
 _atom_site_fract_x
 _atom_site_fract_y
 _atom_site_fract_z
 _atom_site_occupancy
  Li  Li0  1  0.16121333  0.57404641  0.75927608  1
  Li  Li1  1  0.16121333  0.92595359  0.75927608  1
  Li  Li2  1  0.02671406  0.25000000  0.90811067  1
  Li  Li3  1  0.47328594  0.75000000  0.40811067  1
  Li  Li4  1  0.33878667  0.07404641  0.25927608  1
  Li  Li5  1  0.33878667  0.42595359  0.25927608  1
  Li  Li6  1  0.66121333  0.57404641  0.74072392  1
  Li  Li7  1  0.66121333  0.92595359  0.74072392  1
  Li  Li8  1  0.52671406  0.25000000  0.59188933  1
  Li  Li9  1  0.97328594  0.75000000  0.09188933  1
  Li  Li10  1  0.83878667  0.07404641  0.24072392  1
  Li  Li11  1  0.83878667  0.42595359  0.24072392  1
  Nb  Nb12  1  0.12916475  0.25000000  0.49557661  1
  Nb  Nb13  1  0.37083525  0.75000000  0.99557661  1
  Nb  Nb14  1  0.62916475  0.25000000  0.00442339  1
  Nb  Nb15  1  0.87083525  0.75000000  0.50442339  1
  S  S16  1  0.86894305  0.25000000  0.61927609  1
  S  S17  1  0.20374207  0.56828602  0.04992983  1
  S  S18  1  0.20374207  0.93171398  0.04992983  1
  S  S19  1  0.08501455  0.25000000  0.23513284  1
  S  S20  1  0.41498545  0.75000000  0.73513284  1
  S  S21  1  0.29625793  0.06828602  0.54992983  1
  S  S22  1  0.29625793  0.43171398  0.54992983  1
  S  S23  1  0.63105695  0.75000000  0.11927609  1
  S  S24  1  0.36894305  0.25000000  0.88072391  1
  S  S25  1  0.70374207  0.56828602  0.45007017  1
  S  S26  1  0.70374207  0.93171398  0.45007017  1
  S  S27  1  0.58501455  0.25000000  0.26486716  1
  S  S28  1  0.91498545  0.75000000  0.76486716  1
  S  S29  1  0.79625793  0.06828602  0.95007017  1
  S  S30  1  0.79625793  0.43171398  0.95007017  1
  S  S31  1  0.13105695  0.75000000  0.38072391  1
