# generated using pymatgen
data_LiCuPH2O5
_symmetry_space_group_name_H-M   'P 1'
_cell_length_a   9.82972689
_cell_length_b   6.99025969
_cell_length_c   6.13807451
_cell_angle_alpha   90.00000000
_cell_angle_beta   93.49241449
_cell_angle_gamma   90.00000000
_symmetry_Int_Tables_number   1
_chemical_formula_structural   LiCuPH2O5
_chemical_formula_sum   'Li4 Cu4 P4 H8 O20'
_cell_volume   420.97822041
_cell_formula_units_Z   4
loop_
 _symmetry_equiv_pos_site_id
 _symmetry_equiv_pos_as_xyz
  1  'x, y, z'
loop_
 _atom_site_type_symbol
 _atom_site_label
 _atom_site_symmetry_multiplicity
 _atom_site_fract_x
 _atom_site_fract_y
 _atom_site_fract_z
 _atom_site_occupancy
  Li  Li0  1  0.34341288  0.58581900  0.59669700  1
  Li  Li1  1  0.34341288  0.91418100  0.09669700  1
  Li  Li2  1  0.65658712  0.08581900  0.90330300  1
  Li  Li3  1  0.65658712  0.41418100  0.40330300  1
  Cu  Cu4  1  0.01165698  0.79723020  0.78571809  1
  Cu  Cu5  1  0.01165698  0.70276980  0.28571809  1
  Cu  Cu6  1  0.98834302  0.29723020  0.71428191  1
  Cu  Cu7  1  0.98834302  0.20276980  0.21428191  1
  P  P8  1  0.19256798  0.47252151  0.99816549  1
  P  P9  1  0.19256798  0.02747849  0.49816549  1
  P  P10  1  0.80743202  0.97252151  0.50183451  1
  P  P11  1  0.80743202  0.52747849  0.00183451  1
  H  H12  1  0.41478770  0.27144312  0.84963037  1
  H  H13  1  0.43749769  0.10590329  0.67959786  1
  H  H14  1  0.41478770  0.22855688  0.34963037  1
  H  H15  1  0.43749769  0.39409671  0.17959786  1
  H  H16  1  0.56250231  0.60590329  0.82040214  1
  H  H17  1  0.58521230  0.77144312  0.65036963  1
  H  H18  1  0.56250231  0.89409671  0.32040214  1
  H  H19  1  0.58521230  0.72855688  0.15036963  1
  O  O20  1  0.08436166  0.53794946  0.80828950  1
  O  O21  1  0.08436166  0.96205054  0.30828950  1
  O  O22  1  0.14966998  0.23347649  0.55813203  1
  O  O23  1  0.14966998  0.26652351  0.05813203  1
  O  O24  1  0.18853216  0.88013619  0.68837021  1
  O  O25  1  0.18853216  0.61986381  0.18837021  1
  O  O26  1  0.33514181  0.47440321  0.91044038  1
  O  O27  1  0.33514181  0.02559679  0.41044038  1
  O  O28  1  0.46495019  0.14932835  0.82844784  1
  O  O29  1  0.46495019  0.35067165  0.32844784  1
  O  O30  1  0.53504981  0.64932835  0.67155216  1
  O  O31  1  0.53504981  0.85067165  0.17155216  1
  O  O32  1  0.66485819  0.97440321  0.58955962  1
  O  O33  1  0.66485819  0.52559679  0.08955962  1
  O  O34  1  0.81146784  0.38013619  0.81162979  1
  O  O35  1  0.81146784  0.11986381  0.31162979  1
  O  O36  1  0.85033002  0.73347649  0.94186797  1
  O  O37  1  0.85033002  0.76652351  0.44186797  1
  O  O38  1  0.91563834  0.03794946  0.69171050  1
  O  O39  1  0.91563834  0.46205054  0.19171050  1
