# generated using pymatgen
data_Li4Cu4Cl10O
_symmetry_space_group_name_H-M   'P 1'
_cell_length_a   10.39480943
_cell_length_b   10.39480943
_cell_length_c   7.53278130
_cell_angle_alpha   78.99509376
_cell_angle_beta   101.00490624
_cell_angle_gamma   96.41155487
_symmetry_Int_Tables_number   1
_chemical_formula_structural   Li4Cu4Cl10O
_chemical_formula_sum   'Li8 Cu8 Cl20 O2'
_cell_volume   781.87877525
_cell_formula_units_Z   2
loop_
 _symmetry_equiv_pos_site_id
 _symmetry_equiv_pos_as_xyz
  1  'x, y, z'
loop_
 _atom_site_type_symbol
 _atom_site_label
 _atom_site_symmetry_multiplicity
 _atom_site_fract_x
 _atom_site_fract_y
 _atom_site_fract_z
 _atom_site_occupancy
  Li  Li0  1  0.07204239  0.71852252  0.85323827  1
  Li  Li1  1  0.28147748  0.92795761  0.35323827  1
  Li  Li2  1  0.42361907  0.74881588  0.85615508  1
  Li  Li3  1  0.25118412  0.57638093  0.35615508  1
  Li  Li4  1  0.74881588  0.42361907  0.64384492  1
  Li  Li5  1  0.57638093  0.25118412  0.14384492  1
  Li  Li6  1  0.71852252  0.07204239  0.64676173  1
  Li  Li7  1  0.92795761  0.28147748  0.14676173  1
  Cu  Cu8  1  0.23046699  0.37278033  0.87435865  1
  Cu  Cu9  1  0.05040757  0.22068505  0.59136478  1
  Cu  Cu10  1  0.62721967  0.76953301  0.37435865  1
  Cu  Cu11  1  0.77931495  0.94959243  0.09136478  1
  Cu  Cu12  1  0.22068505  0.05040757  0.90863522  1
  Cu  Cu13  1  0.37278033  0.23046699  0.62564135  1
  Cu  Cu14  1  0.94959243  0.77931495  0.40863522  1
  Cu  Cu15  1  0.76953301  0.62721967  0.12564135  1
  Cl  Cl16  1  0.15585580  0.73378355  0.55543418  1
  Cl  Cl17  1  0.01371512  0.35108665  0.86478143  1
  Cl  Cl18  1  0.26621645  0.84414420  0.05543418  1
  Cl  Cl19  1  0.64891335  0.98628488  0.36478143  1
  Cl  Cl20  1  0.44548746  0.72517770  0.50364242  1
  Cl  Cl21  1  0.65171802  0.85088615  0.85873309  1
  Cl  Cl22  1  0.27482230  0.55451254  0.00364242  1
  Cl  Cl23  1  0.14911385  0.34828198  0.35873309  1
  Cl  Cl24  1  0.00354194  0.00354194  0.75000000  1
  Cl  Cl25  1  0.41535510  0.41535510  0.75000000  1
  Cl  Cl26  1  0.58464490  0.58464490  0.25000000  1
  Cl  Cl27  1  0.99645806  0.99645806  0.25000000  1
  Cl  Cl28  1  0.85088615  0.65171802  0.64126691  1
  Cl  Cl29  1  0.72517770  0.44548746  0.99635758  1
  Cl  Cl30  1  0.34828198  0.14911385  0.14126691  1
  Cl  Cl31  1  0.55451254  0.27482230  0.49635758  1
  Cl  Cl32  1  0.35108665  0.01371512  0.63521857  1
  Cl  Cl33  1  0.73378355  0.15585580  0.94456582  1
  Cl  Cl34  1  0.98628488  0.64891335  0.13521857  1
  Cl  Cl35  1  0.84414420  0.26621645  0.44456582  1
  O  O36  1  0.21754532  0.21754532  0.75000000  1
  O  O37  1  0.78245468  0.78245468  0.25000000  1
