# generated using pymatgen
data_Li4Sb2H6O3F10
_symmetry_space_group_name_H-M   'P 1'
_cell_length_a   5.67524680
_cell_length_b   16.67607432
_cell_length_c   5.68459758
_cell_angle_alpha   90.00000000
_cell_angle_beta   90.03537248
_cell_angle_gamma   90.00000000
_symmetry_Int_Tables_number   1
_chemical_formula_structural   Li4Sb2H6O3F10
_chemical_formula_sum   'Li8 Sb4 H12 O6 F20'
_cell_volume   537.99497248
_cell_formula_units_Z   2
loop_
 _symmetry_equiv_pos_site_id
 _symmetry_equiv_pos_as_xyz
  1  'x, y, z'
loop_
 _atom_site_type_symbol
 _atom_site_label
 _atom_site_symmetry_multiplicity
 _atom_site_fract_x
 _atom_site_fract_y
 _atom_site_fract_z
 _atom_site_occupancy
  Li  Li0  1  0.24843342  0.99968204  0.24773173  1
  Li  Li1  1  0.24843342  0.50031796  0.24773173  1
  Li  Li2  1  0.25496662  0.61125721  0.74893646  1
  Li  Li3  1  0.25496662  0.88874279  0.74893646  1
  Li  Li4  1  0.74503338  0.38874279  0.25106354  1
  Li  Li5  1  0.74503338  0.11125721  0.25106354  1
  Li  Li6  1  0.75156658  0.00031796  0.75226827  1
  Li  Li7  1  0.75156658  0.49968204  0.75226827  1
  Sb  Sb8  1  0.25925096  0.37110768  0.74031595  1
  Sb  Sb9  1  0.25925096  0.12889232  0.74031595  1
  Sb  Sb10  1  0.74074904  0.62889232  0.25968405  1
  Sb  Sb11  1  0.74074904  0.87110768  0.25968405  1
  H  H12  1  0.13333971  0.20375483  0.22090725  1
  H  H13  1  0.13333971  0.29624517  0.22090725  1
  H  H14  1  0.20884936  0.70363507  0.14494717  1
  H  H15  1  0.20884936  0.79636493  0.14494717  1
  H  H16  1  0.26766024  0.75000000  0.54329623  1
  H  H17  1  0.46588252  0.75000000  0.73839234  1
  H  H18  1  0.53411748  0.25000000  0.26160766  1
  H  H19  1  0.73233976  0.25000000  0.45670377  1
  H  H20  1  0.79115064  0.20363507  0.85505283  1
  H  H21  1  0.79115064  0.29636493  0.85505283  1
  H  H22  1  0.86666029  0.70375483  0.77909275  1
  H  H23  1  0.86666029  0.79624517  0.77909275  1
  O  O24  1  0.22946196  0.25000000  0.26869953  1
  O  O25  1  0.25297912  0.75000000  0.24286018  1
  O  O26  1  0.29135277  0.75000000  0.71577194  1
  O  O27  1  0.70864723  0.25000000  0.28422806  1
  O  O28  1  0.74702088  0.25000000  0.75713982  1
  O  O29  1  0.77053804  0.75000000  0.73130047  1
  F  F30  1  0.98668851  0.13284417  0.00390378  1
  F  F31  1  0.98668851  0.36715583  0.00390378  1
  F  F32  1  0.00629195  0.09839672  0.48506815  1
  F  F33  1  0.00629195  0.40160328  0.48506815  1
  F  F34  1  0.18129300  0.48717915  0.80653140  1
  F  F35  1  0.18129300  0.01282085  0.80653140  1
  F  F36  1  0.50044203  0.07832783  0.50227495  1
  F  F37  1  0.50044203  0.42167217  0.50227495  1
  F  F38  1  0.50747597  0.09339906  0.99752077  1
  F  F39  1  0.50747597  0.40660094  0.99752077  1
  F  F40  1  0.49252403  0.59339906  0.00247923  1
  F  F41  1  0.49252403  0.90660094  0.00247923  1
  F  F42  1  0.49955797  0.57832783  0.49772505  1
  F  F43  1  0.49955797  0.92167217  0.49772505  1
  F  F44  1  0.81870800  0.98717915  0.19346860  1
  F  F45  1  0.81870800  0.51282085  0.19346860  1
  F  F46  1  0.99370805  0.59839672  0.51493185  1
  F  F47  1  0.99370805  0.90160328  0.51493185  1
  F  F48  1  0.01331149  0.63284417  0.99609622  1
  F  F49  1  0.01331149  0.86715583  0.99609622  1
