# generated using pymatgen
data_Li2Mn3NbO8
_symmetry_space_group_name_H-M   'P 1'
_cell_length_a   6.15885730
_cell_length_b   6.15885783
_cell_length_c   6.15885786
_cell_angle_alpha   58.59613561
_cell_angle_beta   58.59614156
_cell_angle_gamma   58.59613995
_symmetry_Int_Tables_number   1
_chemical_formula_structural   Li2Mn3NbO8
_chemical_formula_sum   'Li2 Mn3 Nb1 O8'
_cell_volume   159.88851879
_cell_formula_units_Z   1
loop_
 _symmetry_equiv_pos_site_id
 _symmetry_equiv_pos_as_xyz
  1  'x, y, z'
loop_
 _atom_site_type_symbol
 _atom_site_label
 _atom_site_symmetry_multiplicity
 _atom_site_fract_x
 _atom_site_fract_y
 _atom_site_fract_z
 _atom_site_occupancy
  Li  Li0  1  0.12583731  0.12583731  0.12583731  1
  Li  Li1  1  0.87416269  0.87416269  0.87416269  1
  Mn  Mn2  1  0.00000000  0.50000000  0.50000000  1
  Mn  Mn3  1  0.50000000  0.00000000  0.50000000  1
  Mn  Mn4  1  0.50000000  0.50000000  0.00000000  1
  Nb  Nb5  1  0.50000000  0.50000000  0.50000000  1
  O  O6  1  0.27313123  0.27313123  0.27313123  1
  O  O7  1  0.26537370  0.26537370  0.72517028  1
  O  O8  1  0.26537370  0.72517028  0.26537370  1
  O  O9  1  0.72517028  0.26537370  0.26537370  1
  O  O10  1  0.27482972  0.73462630  0.73462630  1
  O  O11  1  0.73462630  0.27482972  0.73462630  1
  O  O12  1  0.73462630  0.73462630  0.27482972  1
  O  O13  1  0.72686877  0.72686877  0.72686877  1
