# generated using pymatgen
data_Li3CrBPO7
_symmetry_space_group_name_H-M   'P 1'
_cell_length_a   8.38070448
_cell_length_b   6.38249642
_cell_length_c   5.02519406
_cell_angle_alpha   90.00000000
_cell_angle_beta   85.12432159
_cell_angle_gamma   90.00000000
_symmetry_Int_Tables_number   1
_chemical_formula_structural   Li3CrBPO7
_chemical_formula_sum   'Li6 Cr2 B2 P2 O14'
_cell_volume   267.82405707
_cell_formula_units_Z   2
loop_
 _symmetry_equiv_pos_site_id
 _symmetry_equiv_pos_as_xyz
  1  'x, y, z'
loop_
 _atom_site_type_symbol
 _atom_site_label
 _atom_site_symmetry_multiplicity
 _atom_site_fract_x
 _atom_site_fract_y
 _atom_site_fract_z
 _atom_site_occupancy
  Li  Li0  1  0.08766180  0.25000000  0.74556145  1
  Li  Li1  1  0.23528586  0.99312323  0.25228885  1
  Li  Li2  1  0.23528586  0.50687677  0.25228885  1
  Li  Li3  1  0.76471414  0.49312323  0.74771115  1
  Li  Li4  1  0.76471414  0.00687677  0.74771115  1
  Li  Li5  1  0.91233820  0.75000000  0.25443855  1
  Cr  Cr6  1  0.32605892  0.75000000  0.79056326  1
  Cr  Cr7  1  0.67394108  0.25000000  0.20943674  1
  B  B8  1  0.04401355  0.75000000  0.71734647  1
  B  B9  1  0.95598645  0.25000000  0.28265353  1
  P  P10  1  0.41827884  0.25000000  0.72256822  1
  P  P11  1  0.58172116  0.75000000  0.27743178  1
  O  O12  1  0.10986146  0.25000000  0.34237164  1
  O  O13  1  0.09799094  0.75000000  0.97437161  1
  O  O14  1  0.17107292  0.75000000  0.51569768  1
  O  O15  1  0.30860177  0.06265915  0.81289711  1
  O  O16  1  0.30860177  0.43734085  0.81289711  1
  O  O17  1  0.45585600  0.25000000  0.41538366  1
  O  O18  1  0.42171459  0.75000000  0.14733801  1
  O  O19  1  0.57828541  0.25000000  0.85266199  1
  O  O20  1  0.54414400  0.75000000  0.58461634  1
  O  O21  1  0.69139823  0.56265915  0.18710289  1
  O  O22  1  0.69139823  0.93734085  0.18710289  1
  O  O23  1  0.82892708  0.25000000  0.48430232  1
  O  O24  1  0.90200906  0.25000000  0.02562839  1
  O  O25  1  0.89013854  0.75000000  0.65762836  1
