# generated using pymatgen
data_Li4Mn3V3Cr2O16
_symmetry_space_group_name_H-M   'P 1'
_cell_length_a   5.85453108
_cell_length_b   5.97343920
_cell_length_c   9.57788353
_cell_angle_alpha   89.21808256
_cell_angle_beta   91.36024928
_cell_angle_gamma   119.99564765
_symmetry_Int_Tables_number   1
_chemical_formula_structural   Li4Mn3V3Cr2O16
_chemical_formula_sum   'Li4 Mn3 V3 Cr2 O16'
_cell_volume   290.00966654
_cell_formula_units_Z   1
loop_
 _symmetry_equiv_pos_site_id
 _symmetry_equiv_pos_as_xyz
  1  'x, y, z'
loop_
 _atom_site_type_symbol
 _atom_site_label
 _atom_site_symmetry_multiplicity
 _atom_site_fract_x
 _atom_site_fract_y
 _atom_site_fract_z
 _atom_site_occupancy
  Li  Li0  1  0.34273337  0.67733234  0.89449398  1
  Li  Li1  1  0.01556434  0.00976311  0.99545803  1
  Li  Li2  1  0.97932766  0.98295805  0.49600879  1
  Li  Li3  1  0.66242323  0.32952490  0.39651537  1
  Mn  Mn4  1  0.66463080  0.83226108  0.21093147  1
  Mn  Mn5  1  0.82401540  0.65786846  0.71486018  1
  Mn  Mn6  1  0.83222372  0.16983117  0.71236902  1
  V  V7  1  0.17292526  0.83447593  0.21452681  1
  V  V8  1  0.17153046  0.33841920  0.21341790  1
  V  V9  1  0.33163148  0.15917046  0.71176781  1
  Cr  Cr10  1  0.32262148  0.65276821  0.48514187  1
  Cr  Cr11  1  0.67798960  0.34786007  0.98247432  1
  O  O12  1  0.15755368  0.83218342  0.60575145  1
  O  O13  1  0.03007706  0.51459934  0.33585281  1
  O  O14  1  0.34019269  0.67263600  0.10535131  1
  O  O15  1  0.99478837  0.99665685  0.30960138  1
  O  O16  1  0.98967482  0.99082842  0.80838985  1
  O  O17  1  0.16735606  0.31388795  0.60148768  1
  O  O18  1  0.46303454  0.95229616  0.34327001  1
  O  O19  1  0.45858410  0.49929792  0.34267840  1
  O  O20  1  0.34076231  0.17134804  0.10841590  1
  O  O21  1  0.66223824  0.81476243  0.59826788  1
  O  O22  1  0.51861595  0.48312095  0.83493778  1
  O  O23  1  0.51525632  0.05042075  0.83878529  1
  O  O24  1  0.67013978  0.33854945  0.60865590  1
  O  O25  1  0.86022922  0.68295625  0.09928899  1
  O  O26  1  0.96886545  0.50532111  0.84293951  1
  O  O27  1  0.86501458  0.18920199  0.09620132  1
