# generated using pymatgen
data_Li3V3(BO5)2
_symmetry_space_group_name_H-M   'P 1'
_cell_length_a   9.11917695
_cell_length_b   12.27952961
_cell_length_c   3.11792945
_cell_angle_alpha   89.99981868
_cell_angle_beta   89.99925080
_cell_angle_gamma   90.02888487
_symmetry_Int_Tables_number   1
_chemical_formula_structural   Li3V3(BO5)2
_chemical_formula_sum   'Li6 V6 B4 O20'
_cell_volume   349.14321132
_cell_formula_units_Z   2
loop_
 _symmetry_equiv_pos_site_id
 _symmetry_equiv_pos_as_xyz
  1  'x, y, z'
loop_
 _atom_site_type_symbol
 _atom_site_label
 _atom_site_symmetry_multiplicity
 _atom_site_fract_x
 _atom_site_fract_y
 _atom_site_fract_z
 _atom_site_occupancy
  Li  Li0  1  0.98928042  0.49746484  0.49999486  1
  Li  Li1  1  0.25111637  0.11671444  0.50000240  1
  Li  Li2  1  0.52231578  0.49084388  -0.00000010  1
  Li  Li3  1  0.49326970  0.00771005  0.49999828  1
  Li  Li4  1  0.72088725  0.38503827  0.49999726  1
  Li  Li5  1  0.75747580  0.88890169  0.49999561  1
  V  V6  1  0.00340409  0.00187735  0.99999334  1
  V  V7  1  0.99455218  0.29154735  0.00000418  1
  V  V8  1  0.26275421  0.60957808  0.49999015  1
  V  V9  1  0.50698886  0.79190107  0.99998815  1
  V  V10  1  0.49974318  0.21353882  0.99999158  1
  V  V11  1  0.99051359  0.71413305  -0.00000077  1
  B  B12  1  0.22173400  0.85905416  0.50000241  1
  B  B13  1  0.28127590  0.35949932  0.50000963  1
  B  B14  1  0.71345400  0.63637231  0.49999521  1
  B  B15  1  0.78272384  0.14150526  0.49999603  1
  O  O16  1  0.07614509  0.13937304  0.99999379  1
  O  O17  1  0.11658229  0.58464751  0.99994694  1
  O  O18  1  0.12595298  0.34362902  0.50000031  1
  O  O19  1  0.14413110  0.76099856  0.50000026  1
  O  O20  1  0.14522444  0.95741200  0.49999642  1
  O  O21  1  0.34309083  0.45996932  0.50005533  1
  O  O22  1  0.36206246  0.26419721  0.49999585  1
  O  O23  1  0.37269801  0.85562836  0.50000563  1
  O  O24  1  0.39498543  0.08774072  0.00000263  1
  O  O25  1  0.38901745  0.66175096  0.00005266  1
  O  O26  1  0.59750094  0.33651535  0.00000254  1
  O  O27  1  0.60611708  0.91264894  0.00001562  1
  O  O28  1  0.63293541  0.14283911  0.49999427  1
  O  O29  1  0.63070348  0.73560505  0.49999832  1
  O  O30  1  0.65454507  0.53905083  0.50000216  1
  O  O31  1  0.86005716  0.04221733  0.49999097  1
  O  O32  1  0.86407878  0.23753910  0.50000553  1
  O  O33  1  0.86903443  0.65527296  0.49998747  1
  O  O34  1  0.90041619  0.41201990  0.99999883  1
  O  O35  1  0.92323223  0.86526580  0.99999726  1
