# generated using pymatgen
data_Li4CrFe(WO6)2
_symmetry_space_group_name_H-M   'P 1'
_cell_length_a   5.40782340
_cell_length_b   10.84298858
_cell_length_c   9.56026482
_cell_angle_alpha   28.08633602
_cell_angle_beta   51.55716532
_cell_angle_gamma   56.73458524
_symmetry_Int_Tables_number   1
_chemical_formula_structural   Li4CrFe(WO6)2
_chemical_formula_sum   'Li4 Cr1 Fe1 W2 O12'
_cell_volume   206.71307275
_cell_formula_units_Z   1
loop_
 _symmetry_equiv_pos_site_id
 _symmetry_equiv_pos_as_xyz
  1  'x, y, z'
loop_
 _atom_site_type_symbol
 _atom_site_label
 _atom_site_symmetry_multiplicity
 _atom_site_fract_x
 _atom_site_fract_y
 _atom_site_fract_z
 _atom_site_occupancy
  Li  Li0  1  0.26883139  0.00285288  0.29108513  1
  Li  Li1  1  0.29952105  0.50740696  0.27796353  1
  Li  Li2  1  0.77314058  0.99933387  0.77288275  1
  Li  Li3  1  0.78328852  0.48735060  0.80383074  1
  Cr  Cr4  1  0.00094361  0.99502962  0.02375934  1
  Fe  Fe5  1  0.00500226  0.49788416  0.00036991  1
  W  W6  1  0.47430263  0.01019063  0.51205583  1
  W  W7  1  0.52250386  0.49525733  0.50244586  1
  O  O8  1  0.37657280  0.29317571  0.13213876  1
  O  O9  1  0.23012096  0.12412718  0.63093944  1
  O  O10  1  0.12892477  0.30209952  0.74938275  1
  O  O11  1  0.85919298  0.18994561  0.23702977  1
  O  O12  1  0.35824228  0.80732063  0.12603080  1
  O  O13  1  0.72005351  0.38514035  0.37030887  1
  O  O14  1  0.23968078  0.62254073  0.61218582  1
  O  O15  1  0.63443347  0.18764971  0.86637452  1
  O  O16  1  0.14168759  0.82229292  0.72109679  1
  O  O17  1  0.87163787  0.69689201  0.23459132  1
  O  O18  1  0.76111565  0.88108034  0.35013171  1
  O  O19  1  0.62200444  0.69242725  0.85659735  1
