# generated using pymatgen
data_Li2Cr3CoO8
_symmetry_space_group_name_H-M   'P 1'
_cell_length_a   5.16447646
_cell_length_b   5.85288014
_cell_length_c   10.56595141
_cell_angle_alpha   74.00872743
_cell_angle_beta   77.13960666
_cell_angle_gamma   74.12741392
_symmetry_Int_Tables_number   1
_chemical_formula_structural   Li2Cr3CoO8
_chemical_formula_sum   'Li4 Cr6 Co2 O16'
_cell_volume   291.54537208
_cell_formula_units_Z   2
loop_
 _symmetry_equiv_pos_site_id
 _symmetry_equiv_pos_as_xyz
  1  'x, y, z'
loop_
 _atom_site_type_symbol
 _atom_site_label
 _atom_site_symmetry_multiplicity
 _atom_site_fract_x
 _atom_site_fract_y
 _atom_site_fract_z
 _atom_site_occupancy
  Li  Li0  1  0.00344645  0.23745538  0.49561584  1
  Li  Li1  1  0.00133861  0.62288301  0.25111385  1
  Li  Li2  1  0.99966220  0.99586255  0.00536577  1
  Li  Li3  1  0.99228113  0.39748515  0.75144580  1
  Cr  Cr4  1  0.50008559  0.31275415  0.12641026  1
  Cr  Cr5  1  0.50915985  0.05867601  0.62367775  1
  Cr  Cr6  1  0.50460479  0.93794442  0.37229632  1
  Cr  Cr7  1  0.49256548  0.56473994  0.62235095  1
  Cr  Cr8  1  0.50354510  0.18573432  0.87483970  1
  Cr  Cr9  1  0.49368023  0.68822181  0.87735292  1
  Co  Co10  1  0.49642868  0.43977000  0.37473931  1
  Co  Co11  1  0.50004624  0.81226130  0.12631447  1
  O  O12  1  0.29836586  0.13352260  0.05693013  1
  O  O13  1  0.29007130  0.28332995  0.31294674  1
  O  O14  1  0.28877890  0.65732421  0.06572717  1
  O  O15  1  0.28817933  0.03319944  0.80930453  1
  O  O16  1  0.28899206  0.38693179  0.55406997  1
  O  O17  1  0.29835559  0.76382372  0.30231009  1
  O  O18  1  0.30229760  0.90775265  0.55576673  1
  O  O19  1  0.29426905  0.50495035  0.80879374  1
  O  O20  1  0.69688269  0.49037949  0.19982162  1
  O  O21  1  0.70549474  0.11612720  0.44306175  1
  O  O22  1  0.70782441  0.59168784  0.43481928  1
  O  O23  1  0.71320384  0.96705747  0.18517941  1
  O  O24  1  0.71664594  0.22829325  0.68958068  1
  O  O25  1  0.69893593  0.72840188  0.69340547  1
  O  O26  1  0.71122049  0.34428389  0.93899837  1
  O  O27  1  0.70207191  0.85895425  0.94872236  1
