# generated using pymatgen
data_LiMnAlO3
_symmetry_space_group_name_H-M   'P 1'
_cell_length_a   5.77664578
_cell_length_b   5.82440493
_cell_length_c   5.82224716
_cell_angle_alpha   59.85030729
_cell_angle_beta   120.18454167
_cell_angle_gamma   91.25592960
_symmetry_Int_Tables_number   1
_chemical_formula_structural   LiMnAlO3
_chemical_formula_sum   'Li2 Mn2 Al2 O6'
_cell_volume   139.28073147
_cell_formula_units_Z   2
loop_
 _symmetry_equiv_pos_site_id
 _symmetry_equiv_pos_as_xyz
  1  'x, y, z'
loop_
 _atom_site_type_symbol
 _atom_site_label
 _atom_site_symmetry_multiplicity
 _atom_site_fract_x
 _atom_site_fract_y
 _atom_site_fract_z
 _atom_site_occupancy
  Li  Li0  1  0.69549065  0.61072350  0.46043936  1
  Li  Li1  1  0.30450935  0.38927650  0.53956064  1
  Mn  Mn2  1  0.74971773  0.25033780  0.18298764  1
  Mn  Mn3  1  0.25028227  0.74966220  0.81701236  1
  Al  Al4  1  0.81723369  0.88262009  0.88829377  1
  Al  Al5  1  0.18276631  0.11737991  0.11170623  1
  O  O6  1  0.70065633  0.64517688  0.10977900  1
  O  O7  1  0.78624295  0.87939139  0.57252802  1
  O  O8  1  0.78608200  0.21797110  0.83474997  1
  O  O9  1  0.21391800  0.78202890  0.16525003  1
  O  O10  1  0.21375705  0.12060861  0.42747198  1
  O  O11  1  0.29934367  0.35482312  0.89022100  1
