# generated using pymatgen
data_MnH36C12S6(IO3)2
_symmetry_space_group_name_H-M   'P 1'
_cell_length_a   11.66439080
_cell_length_b   12.18856118
_cell_length_c   14.28638254
_cell_angle_alpha   103.83097746
_cell_angle_beta   102.25638778
_cell_angle_gamma   117.34496160
_symmetry_Int_Tables_number   1
_chemical_formula_structural   MnH36C12S6(IO3)2
_chemical_formula_sum   'Mn2 H72 C24 S12 I4 O12'
_cell_volume   1625.10778094
_cell_formula_units_Z   2
loop_
 _symmetry_equiv_pos_site_id
 _symmetry_equiv_pos_as_xyz
  1  'x, y, z'
loop_
 _atom_site_type_symbol
 _atom_site_label
 _atom_site_symmetry_multiplicity
 _atom_site_fract_x
 _atom_site_fract_y
 _atom_site_fract_z
 _atom_site_occupancy
  Mn  Mn0  1  0.71028707  0.79682498  0.75036890  1
  Mn  Mn1  1  0.45991816  0.04645607  0.24963110  1
  H  H2  1  0.18854499  0.92991115  0.85040252  1
  H  H3  1  0.83814247  0.07950863  0.14959748  1
  H  H4  1  0.24168598  0.89316516  0.96148528  1
  H  H5  1  0.78020070  0.93167987  0.03851472  1
  H  H6  1  0.13891543  0.75872958  0.83460688  1
  H  H7  1  0.80430855  0.92412270  0.16539312  1
  H  H8  1  0.99473191  0.98547149  0.03074752  1
  H  H9  1  0.46398439  0.95472396  0.96925248  1
  H  H10  1  0.16147020  0.00196266  0.07188400  1
  H  H11  1  0.58958620  0.93007866  0.92811600  1
  H  H12  1  0.11792419  0.05942230  0.97247286  1
  H  H13  1  0.64545132  0.08694944  0.02752714  1
  H  H14  1  0.47615575  0.32136238  0.58576334  1
  H  H15  1  0.39039241  0.73559905  0.41423666  1
  H  H16  1  0.57053168  0.28236818  0.51196344  1
  H  H17  1  0.55856825  0.77040475  0.48803656  1
  H  H18  1  0.65111051  0.36542610  0.65133522  1
  H  H19  1  0.49977528  0.71409087  0.34866478  1
  H  H20  1  0.56329734  0.54425295  0.41847768  1
  H  H21  1  0.64481966  0.12577527  0.58152232  1
  H  H22  1  0.53791926  0.38066703  0.38966209  1
  H  H23  1  0.64825717  0.99100494  0.61033791  1
  H  H24  1  0.42393422  0.41605732  0.43974001  1
  H  H25  1  0.48419421  0.97631731  0.56025999  1
  H  H26  1  0.36546671  0.54350883  0.89110534  1
  H  H27  1  0.97436138  0.65240349  0.10889466  1
  H  H28  1  0.42424547  0.43855376  0.92080718  1
  H  H29  1  0.00343829  0.51774659  0.07919282  1
  H  H30  1  0.52566672  0.61681654  0.00121312  1
  H  H31  1  0.02445360  0.61560342  0.99878688  1
  H  H32  1  0.72798639  0.60020430  0.98455171  1
  H  H33  1  0.24343468  0.61565259  0.01544829  1
  H  H34  1  0.62515134  0.42830691  0.88808371  1
  H  H35  1  0.23706764  0.54022320  0.11191629  1
  H  H36  1  0.75663988  0.55942846  0.86452025  1
  H  H37  1  0.39211963  0.69490821  0.13547975  1
  H  H38  1  0.35085848  0.49532927  0.61723075  1
  H  H39  1  0.23362773  0.87809852  0.38276925  1
  H  H40  1  0.18551798  0.47931185  0.60307831  1
  H  H41  1  0.08243967  0.87623354  0.39692169  1
  H  H42  1  0.27761523  0.54137669  0.52055792  1
  H  H43  1  0.25705731  0.02081877  0.47944208  1
  H  H44  1  0.25139280  0.73194761  0.55536417  1
  H  H45  1  0.19602863  0.17658344  0.44463583  1
  H  H46  1  0.16285709  0.68777203  0.64289074  1
  H  H47  1  0.01996635  0.04488129  0.35710926  1
  H  H48  1  0.30638957  0.85737258  0.68150908  1
  H  H49  1  0.12488049  0.17586350  0.31849092  1
  H  H50  1  0.91317544  0.78946047  0.50637396  1
  H  H51  1  0.90680148  0.28308651  0.49362604  1
  H  H52  1  0.09011337  0.88803384  0.60350728  1
  H  H53  1  0.98660609  0.28452656  0.39649272  1
  H  H54  1  0.95300427  0.75494093  0.62194839  1
  H  H55  1  0.83105588  0.13299254  0.37805161  1
  H  H56  1  0.93437450  0.11571303  0.60657636  1
  H  H57  1  0.82779814  0.50913667  0.39342364  1
  H  H58  1  0.07459727  0.09772758  0.59134408  1
  H  H59  1  0.98325319  0.50638350  0.40865592  1
  H  H60  1  0.89729574  0.97456905  0.49772583  1
  H  H61  1  0.89956991  0.47684322  0.50227417  1
  H  H62  1  0.09439452  0.19783141  0.88771508  1
  H  H63  1  0.70667944  0.31011633  0.11228492  1
  H  H64  1  0.06796560  0.33273885  0.89308033  1
  H  H65  1  0.67488527  0.43965852  0.10691967  1
  H  H66  1  0.05178526  0.26526371  0.99400030  1
  H  H67  1  0.55778495  0.27126341  0.00599970  1
  H  H68  1  0.84637628  0.26534771  0.97795896  1
  H  H69  1  0.36841732  0.28738875  0.02204104  1
  H  H70  1  0.82049608  0.30538526  0.86374740  1
  H  H71  1  0.45674867  0.44163786  0.13625260  1
  H  H72  1  0.68091780  0.16030442  0.86790715  1
  H  H73  1  0.31301065  0.29239727  0.13209285  1
  C  C74  1  0.16054891  0.85484708  0.88560282  1
  C  C75  1  0.77494609  0.96924426  0.11439718  1
  C  C76  1  0.07750936  0.98491638  0.00653318  1
  C  C77  1  0.57097618  0.97838320  0.99346682  1
  C  C78  1  0.57858780  0.35325122  0.58088030  1
  C  C79  1  0.49770750  0.77237092  0.41911970  1
  C  C80  1  0.53018445  0.45773975  0.44088084  1
  C  C81  1  0.58930360  0.01685890  0.55911916  1
  C  C82  1  0.45727055  0.53958467  0.92269349  1
  C  C83  1  0.03457706  0.61689118  0.07730651  1
  C  C84  1  0.67984762  0.53553212  0.90157594  1
  C  C85  1  0.27827168  0.63395619  0.09842406  1
  C  C86  1  0.28752423  0.53667652  0.59750616  1
  C  C87  1  0.19001807  0.93917036  0.40249384  1
  C  C88  1  0.26303871  0.75093216  0.63696367  1
  C  C89  1  0.12607505  0.11396849  0.36303633  1
  C  C90  1  0.97837561  0.83204789  0.58924266  1
  C  C91  1  0.88913295  0.24280522  0.41075734  1
  C  C92  1  0.96343595  0.04373964  0.57904370  1
  C  C93  1  0.88439226  0.46469594  0.42095630  1
  C  C94  1  0.03726200  0.24287499  0.91147297  1
  C  C95  1  0.62578903  0.33140203  0.08852703  1
  C  C96  1  0.79433422  0.22469990  0.89311825  1
  C  C97  1  0.40121597  0.33158165  0.10688175  1
  S  S98  1  0.00502446  0.82155344  0.90935085  1
  S  S99  1  0.59567360  0.91220259  0.09064915  1
  S  S100  1  0.64941670  0.51308398  0.56959413  1
  S  S101  1  0.57982257  0.94348984  0.43040587  1
  S  S102  1  0.37704524  0.70393405  0.69490018  1
  S  S103  1  0.18214506  0.00903387  0.30509982  1
  S  S104  1  0.55110388  0.56289878  0.83691385  1
  S  S105  1  0.21419003  0.72598493  0.16308615  1
  S  S106  1  0.85539194  0.12675193  0.83139825  1
  S  S107  1  0.52399369  0.29535368  0.16860175  1
  S  S108  1  0.94394370  0.94932832  0.66012114  1
  S  S109  1  0.78382255  0.28920718  0.33987886  1
  I  I110  1  0.36461280  0.14900962  0.76356377  1
  I  I111  1  0.10104903  0.38544584  0.23643623  1
  I  I112  1  0.99363695  0.45609360  0.73732114  1
  I  I113  1  0.75631581  0.71877246  0.26267886  1
  O  O114  1  0.90749565  0.80908540  0.81171574  1
  O  O115  1  0.59577991  0.99736967  0.18828426  1
  O  O116  1  0.61061516  0.59157688  0.64260801  1
  O  O117  1  0.46800715  0.94896887  0.35739199  1
  O  O118  1  0.62790222  0.71348780  0.85918272  1
  O  O119  1  0.26871949  0.85430507  0.14081728  1
  O  O120  1  0.51401934  0.78542196  0.68178550  1
  O  O121  1  0.33223383  0.10363646  0.31821450  1
  O  O122  1  0.80618805  0.00422787  0.86035703  1
  O  O123  1  0.44583101  0.14387084  0.13964297  1
  O  O124  1  0.78690813  0.86886362  0.63687838  1
  O  O125  1  0.65002975  0.23198524  0.36312162  1
