# generated using pymatgen
data_Li3Ti(BO3)2
_symmetry_space_group_name_H-M   'P 1'
_cell_length_a   5.19133389
_cell_length_b   8.94081267
_cell_length_c   9.96976847
_cell_angle_alpha   90.00000000
_cell_angle_beta   90.70826707
_cell_angle_gamma   90.00000000
_symmetry_Int_Tables_number   1
_chemical_formula_structural   Li3Ti(BO3)2
_chemical_formula_sum   'Li12 Ti4 B8 O24'
_cell_volume   462.70889425
_cell_formula_units_Z   4
loop_
 _symmetry_equiv_pos_site_id
 _symmetry_equiv_pos_as_xyz
  1  'x, y, z'
loop_
 _atom_site_type_symbol
 _atom_site_label
 _atom_site_symmetry_multiplicity
 _atom_site_fract_x
 _atom_site_fract_y
 _atom_site_fract_z
 _atom_site_occupancy
  Li  Li0  1  0.15811445  0.97499217  0.67002122  1
  Li  Li1  1  0.17053777  0.65688670  0.61854907  1
  Li  Li2  1  0.17626440  0.98582063  0.09877831  1
  Li  Li3  1  0.32946223  0.15688670  0.88145093  1
  Li  Li4  1  0.32373560  0.48582063  0.40122169  1
  Li  Li5  1  0.34188555  0.47499217  0.82997878  1
  Li  Li6  1  0.65811445  0.52500783  0.17002122  1
  Li  Li7  1  0.67626440  0.51417937  0.59877831  1
  Li  Li8  1  0.67053777  0.84311330  0.11854907  1
  Li  Li9  1  0.82373560  0.01417937  0.90122169  1
  Li  Li10  1  0.82946223  0.34311330  0.38145093  1
  Li  Li11  1  0.84188555  0.02500783  0.32997878  1
  Ti  Ti12  1  0.15272539  0.33221063  0.12293137  1
  Ti  Ti13  1  0.34727461  0.83221063  0.37706863  1
  Ti  Ti14  1  0.65272539  0.16778937  0.62293137  1
  Ti  Ti15  1  0.84727461  0.66778937  0.87706863  1
  B  B16  1  0.16424730  0.32463654  0.62085706  1
  B  B17  1  0.16473013  0.66744516  0.12964212  1
  B  B18  1  0.33575270  0.82463654  0.87914294  1
  B  B19  1  0.33526987  0.16744516  0.37035788  1
  B  B20  1  0.66473013  0.83255484  0.62964212  1
  B  B21  1  0.66424730  0.17536346  0.12085706  1
  B  B22  1  0.83526987  0.33255484  0.87035788  1
  B  B23  1  0.83575270  0.67536346  0.37914294  1
  O  O24  1  0.08985975  0.32736368  0.91472888  1
  O  O25  1  0.09928817  0.66214436  0.40610947  1
  O  O26  1  0.17757032  0.94884495  0.87963426  1
  O  O27  1  0.20954815  0.02844880  0.36394744  1
  O  O28  1  0.19911906  0.29329662  0.33139031  1
  O  O29  1  0.23102813  0.68340482  0.85142686  1
  O  O30  1  0.26897187  0.18340482  0.64857314  1
  O  O31  1  0.30088094  0.79329662  0.16860969  1
  O  O32  1  0.29045185  0.52844880  0.13605256  1
  O  O33  1  0.32242968  0.44884495  0.62036574  1
  O  O34  1  0.41014025  0.82736368  0.58527112  1
  O  O35  1  0.40071183  0.16214436  0.09389053  1
  O  O36  1  0.59928817  0.83785564  0.90610947  1
  O  O37  1  0.58985975  0.17263632  0.41472888  1
  O  O38  1  0.67757032  0.55115505  0.37963426  1
  O  O39  1  0.70954815  0.47155120  0.86394744  1
  O  O40  1  0.69911906  0.20670338  0.83139031  1
  O  O41  1  0.73102813  0.81659518  0.35142686  1
  O  O42  1  0.76897187  0.31659518  0.14857314  1
  O  O43  1  0.80088094  0.70670338  0.66860969  1
  O  O44  1  0.79045185  0.97155120  0.63605256  1
  O  O45  1  0.82242968  0.05115505  0.12036574  1
  O  O46  1  0.90071183  0.33785564  0.59389053  1
  O  O47  1  0.91014025  0.67263632  0.08527112  1
