# generated using pymatgen
data_Li3LaNiO4
_symmetry_space_group_name_H-M   'P 1'
_cell_length_a   9.79225844
_cell_length_b   7.41278005
_cell_length_c   5.88309345
_cell_angle_alpha   100.26006205
_cell_angle_beta   76.98285943
_cell_angle_gamma   94.96691276
_symmetry_Int_Tables_number   1
_chemical_formula_structural   Li3LaNiO4
_chemical_formula_sum   'Li12 La4 Ni4 O16'
_cell_volume   408.93316583
_cell_formula_units_Z   4
loop_
 _symmetry_equiv_pos_site_id
 _symmetry_equiv_pos_as_xyz
  1  'x, y, z'
loop_
 _atom_site_type_symbol
 _atom_site_label
 _atom_site_symmetry_multiplicity
 _atom_site_fract_x
 _atom_site_fract_y
 _atom_site_fract_z
 _atom_site_occupancy
  Li  Li0  1  0.12470230  0.19512346  0.97276919  1
  Li  Li1  1  0.09788904  0.93875150  0.31979470  1
  Li  Li2  1  0.12878558  0.54955772  0.04032063  1
  Li  Li3  1  0.37568058  0.94571643  0.97089242  1
  Li  Li4  1  0.40246478  0.56611504  0.67721737  1
  Li  Li5  1  0.34684646  0.68396933  0.32411982  1
  Li  Li6  1  0.65315354  0.31603067  0.67588018  1
  Li  Li7  1  0.59753522  0.43388496  0.32278263  1
  Li  Li8  1  0.62431942  0.05428357  0.02910758  1
  Li  Li9  1  0.87121442  0.45044228  0.95967937  1
  Li  Li10  1  0.90211096  0.06124850  0.68020530  1
  Li  Li11  1  0.87529770  0.80487654  0.02723081  1
  La  La12  1  0.12279806  0.37226665  0.52000306  1
  La  La13  1  0.37583447  0.12244331  0.50525625  1
  La  La14  1  0.62416553  0.87755669  0.49474375  1
  La  La15  1  0.87720194  0.62773335  0.47999694  1
  Ni  Ni16  1  0.15033991  0.81371139  0.68581777  1
  Ni  Ni17  1  0.37657473  0.30605593  0.03720389  1
  Ni  Ni18  1  0.62342527  0.69394407  0.96279611  1
  Ni  Ni19  1  0.84966009  0.18628861  0.31418223  1
  O  O20  1  0.01951443  0.63526605  0.83021203  1
  O  O21  1  0.11246666  0.06649125  0.65616263  1
  O  O22  1  0.27068116  0.38325362  0.82146872  1
  O  O23  1  0.13554658  0.68032287  0.35881801  1
  O  O24  1  0.35639063  0.82182363  0.65695981  1
  O  O25  1  0.23523748  0.12068446  0.18467714  1
  O  O26  1  0.51561848  0.14051472  0.82055656  1
  O  O27  1  0.39164840  0.43255464  0.34850262  1
  O  O28  1  0.60835160  0.56744536  0.65149738  1
  O  O29  1  0.48438152  0.85948528  0.17944344  1
  O  O30  1  0.76476252  0.87931554  0.81532286  1
  O  O31  1  0.64360937  0.17817637  0.34304019  1
  O  O32  1  0.86445342  0.31967713  0.64118199  1
  O  O33  1  0.72931884  0.61674638  0.17853128  1
  O  O34  1  0.88753334  0.93350875  0.34383737  1
  O  O35  1  0.98048557  0.36473395  0.16978797  1
