# generated using pymatgen
data_Li4V3Cr2Co(PO4)6
_symmetry_space_group_name_H-M   'P 1'
_cell_length_a   8.47614052
_cell_length_b   8.91778970
_cell_length_c   9.00097479
_cell_angle_alpha   59.80267358
_cell_angle_beta   60.22239451
_cell_angle_gamma   58.56113931
_symmetry_Int_Tables_number   1
_chemical_formula_structural   Li4V3Cr2Co(PO4)6
_chemical_formula_sum   'Li4 V3 Cr2 Co1 P6 O24'
_cell_volume   475.72072807
_cell_formula_units_Z   1
loop_
 _symmetry_equiv_pos_site_id
 _symmetry_equiv_pos_as_xyz
  1  'x, y, z'
loop_
 _atom_site_type_symbol
 _atom_site_label
 _atom_site_symmetry_multiplicity
 _atom_site_fract_x
 _atom_site_fract_y
 _atom_site_fract_z
 _atom_site_occupancy
  Li  Li0  1  0.24749957  0.85959351  0.64332460  1
  Li  Li1  1  0.74647820  0.15197296  0.33809841  1
  Li  Li2  1  0.73219475  0.76821593  0.15216773  1
  Li  Li3  1  0.73254231  0.34737698  0.77278186  1
  V  V4  1  0.06856614  0.64368041  0.64604464  1
  V  V5  1  0.43615926  0.85380068  0.85526300  1
  V  V6  1  0.94415167  0.35172533  0.34952632  1
  Cr  Cr7  1  0.00271290  0.99587571  0.00598741  1
  Cr  Cr8  1  0.50020632  0.49672217  0.49695454  1
  Co  Co9  1  0.54308449  0.15168608  0.15452635  1
  P  P10  1  0.26393274  0.25347570  0.54889585  1
  P  P11  1  0.25110436  0.94309621  0.24522499  1
  P  P12  1  0.24239669  0.55976812  0.95000322  1
  P  P13  1  0.76046401  0.45158301  0.03599439  1
  P  P14  1  0.76413210  0.04010256  0.74858225  1
  P  P15  1  0.72655835  0.75067149  0.46492510  1
  O  O16  1  0.06244808  0.09766440  0.30349141  1
  O  O17  1  0.05581986  0.53780778  0.10061855  1
  O  O18  1  0.07701414  0.31228427  0.51605697  1
  O  O19  1  0.25273840  0.09047365  0.73492743  1
  O  O20  1  0.45352403  0.19965020  0.39561797  1
  O  O21  1  0.27117212  0.41249352  0.57502591  1
  O  O22  1  0.23560315  0.92124072  0.09098305  1
  O  O23  1  0.26964815  0.75425426  0.41077290  1
  O  O24  1  0.57479645  0.60526021  0.99195747  1
  O  O25  1  0.26193281  0.58802524  0.75507527  1
  O  O26  1  0.78257200  0.25667750  0.05237867  1
  O  O27  1  0.59774603  0.97852501  0.81434915  1
  O  O28  1  0.44036175  0.97338464  0.18404910  1
  O  O29  1  0.22450484  0.76021153  0.92030620  1
  O  O30  1  0.73552011  0.42915544  0.22880346  1
  O  O31  1  0.43313385  0.40040639  0.98021722  1
  O  O32  1  0.72678357  0.23877024  0.60124009  1
  O  O33  1  0.78214825  0.05925810  0.90413087  1
  O  O34  1  0.71621806  0.59617009  0.43386071  1
  O  O35  1  0.53265190  0.81034043  0.61183222  1
  O  O36  1  0.75173443  0.90590833  0.27456609  1
  O  O37  1  0.89852665  0.68378107  0.52426745  1
  O  O38  1  0.94062095  0.49504833  0.88898359  1
  O  O39  1  0.96059656  0.89686282  0.67518657  1
