# generated using pymatgen
data_Na3CoBSO7
_symmetry_space_group_name_H-M   'P 1'
_cell_length_a   8.98650770
_cell_length_b   6.84818976
_cell_length_c   5.26351701
_cell_angle_alpha   90.00000000
_cell_angle_beta   88.76130533
_cell_angle_gamma   90.00000000
_symmetry_Int_Tables_number   1
_chemical_formula_structural   Na3CoBSO7
_chemical_formula_sum   'Na6 Co2 B2 S2 O14'
_cell_volume   323.84803485
_cell_formula_units_Z   2
loop_
 _symmetry_equiv_pos_site_id
 _symmetry_equiv_pos_as_xyz
  1  'x, y, z'
loop_
 _atom_site_type_symbol
 _atom_site_label
 _atom_site_symmetry_multiplicity
 _atom_site_fract_x
 _atom_site_fract_y
 _atom_site_fract_z
 _atom_site_occupancy
  Na  Na0  1  0.06397559  0.25000000  0.75063543  1
  Na  Na1  1  0.24028738  0.99079867  0.24655118  1
  Na  Na2  1  0.24028738  0.50920133  0.24655118  1
  Na  Na3  1  0.75971262  0.49079867  0.75344882  1
  Na  Na4  1  0.75971262  0.00920133  0.75344882  1
  Na  Na5  1  0.93602441  0.75000000  0.24936457  1
  Co  Co6  1  0.33390272  0.75000000  0.77000743  1
  Co  Co7  1  0.66609728  0.25000000  0.22999257  1
  B  B8  1  0.06347376  0.75000000  0.73363225  1
  B  B9  1  0.93652624  0.25000000  0.26636775  1
  S  S10  1  0.42059871  0.25000000  0.71002803  1
  S  S11  1  0.57940129  0.75000000  0.28997197  1
  O  O12  1  0.08677059  0.25000000  0.28828864  1
  O  O13  1  0.13640072  0.75000000  0.96695899  1
  O  O14  1  0.16248596  0.75000000  0.52331214  1
  O  O15  1  0.32932109  0.07529042  0.78096878  1
  O  O16  1  0.32932109  0.42470958  0.78096878  1
  O  O17  1  0.45235287  0.25000000  0.42803920  1
  O  O18  1  0.43614827  0.75000000  0.15429994  1
  O  O19  1  0.56385173  0.25000000  0.84570006  1
  O  O20  1  0.54764713  0.75000000  0.57196080  1
  O  O21  1  0.67067891  0.57529042  0.21903122  1
  O  O22  1  0.67067891  0.92470958  0.21903122  1
  O  O23  1  0.83751404  0.25000000  0.47668786  1
  O  O24  1  0.86359928  0.25000000  0.03304101  1
  O  O25  1  0.91322941  0.75000000  0.71171136  1
