# generated using pymatgen
data_LiZr2O4
_symmetry_space_group_name_H-M   'P 1'
_cell_length_a   5.16634182
_cell_length_b   10.86671347
_cell_length_c   6.10381824
_cell_angle_alpha   89.99958855
_cell_angle_beta   89.99921191
_cell_angle_gamma   90.00052259
_symmetry_Int_Tables_number   1
_chemical_formula_structural   LiZr2O4
_chemical_formula_sum   'Li4 Zr8 O16'
_cell_volume   342.67541348
_cell_formula_units_Z   4
loop_
 _symmetry_equiv_pos_site_id
 _symmetry_equiv_pos_as_xyz
  1  'x, y, z'
loop_
 _atom_site_type_symbol
 _atom_site_label
 _atom_site_symmetry_multiplicity
 _atom_site_fract_x
 _atom_site_fract_y
 _atom_site_fract_z
 _atom_site_occupancy
  Li  Li0  1  0.05868742  0.60235103  0.25000006  1
  Li  Li1  1  0.44130221  0.10234808  0.24999800  1
  Li  Li2  1  0.55870153  0.89765367  0.74999921  1
  Li  Li3  1  0.94131425  0.39764863  0.74999798  1
  Zr  Zr4  1  0.00000288  0.00000049  0.00000581  1
  Zr  Zr5  1  0.00000049  0.99999700  0.49999478  1
  Zr  Zr6  1  0.02191530  0.72073676  0.75000012  1
  Zr  Zr7  1  0.47806826  0.22073947  0.74999296  1
  Zr  Zr8  1  0.50000190  0.49999906  0.99999983  1
  Zr  Zr9  1  0.49999356  0.49999922  0.49998990  1
  Zr  Zr10  1  0.52192468  0.77926179  0.25000418  1
  Zr  Zr11  1  0.97808622  0.27926058  0.25000516  1
  O  O12  1  0.21515979  0.43590858  0.25000596  1
  O  O13  1  0.26996025  0.67081385  0.01267914  1
  O  O14  1  0.26995327  0.67081057  0.48732685  1
  O  O15  1  0.29665990  0.39505088  0.74999895  1
  O  O16  1  0.20331249  0.89504594  0.75003089  1
  O  O17  1  0.23001505  0.17080347  0.01268813  1
  O  O18  1  0.23002909  0.17081393  0.48730736  1
  O  O19  1  0.28482776  0.93590935  0.24997920  1
  O  O20  1  0.71517183  0.06409069  0.75002026  1
  O  O21  1  0.76998735  0.82919710  0.98731083  1
  O  O22  1  0.76997744  0.82918461  0.51269191  1
  O  O23  1  0.79668402  0.10495578  0.24998054  1
  O  O24  1  0.70333530  0.60495066  0.24999778  1
  O  O25  1  0.73005006  0.32918634  0.98732923  1
  O  O26  1  0.73004267  0.32919027  0.51266948  1
  O  O27  1  0.78483502  0.56409221  0.74999550  1
