# generated using pymatgen
data_Li2Mn4O9
_symmetry_space_group_name_H-M   'P 1'
_cell_length_a   4.93900859
_cell_length_b   4.93901746
_cell_length_c   13.58692736
_cell_angle_alpha   90.00003607
_cell_angle_beta   90.00002182
_cell_angle_gamma   119.99987465
_symmetry_Int_Tables_number   1
_chemical_formula_structural   Li2Mn4O9
_chemical_formula_sum   'Li4 Mn8 O18'
_cell_volume   287.03362542
_cell_formula_units_Z   2
loop_
 _symmetry_equiv_pos_site_id
 _symmetry_equiv_pos_as_xyz
  1  'x, y, z'
loop_
 _atom_site_type_symbol
 _atom_site_label
 _atom_site_symmetry_multiplicity
 _atom_site_fract_x
 _atom_site_fract_y
 _atom_site_fract_z
 _atom_site_occupancy
  Li  Li0  1  0.99998322  0.99998973  0.14820857  1
  Li  Li1  1  0.99998742  0.99999781  0.35175013  1
  Li  Li2  1  0.00000070  0.00000196  0.64821608  1
  Li  Li3  1  0.00000161  0.00002108  0.85172881  1
  Mn  Mn4  1  0.33332928  0.66666665  0.01466629  1
  Mn  Mn5  1  0.33332472  0.66666162  0.31545621  1
  Mn  Mn6  1  0.33333645  0.66667612  0.81545496  1
  Mn  Mn7  1  0.33332348  0.66666190  0.51467583  1
  Mn  Mn8  1  0.66665332  0.33332436  0.18455848  1
  Mn  Mn9  1  0.66666658  0.33334207  0.68456065  1
  Mn  Mn10  1  0.66666057  0.33333108  0.48533623  1
  Mn  Mn11  1  0.66665990  0.33333280  0.98534136  1
  O  O12  1  0.99998644  0.66883679  0.75000353  1
  O  O13  1  0.03105481  0.65657794  0.42017870  1
  O  O14  1  0.34341100  0.96894549  0.92017775  1
  O  O15  1  0.03105269  0.37448235  0.92017694  1
  O  O16  1  0.99997637  0.33114986  0.25000186  1
  O  O17  1  0.33115556  0.33115917  0.75000237  1
  O  O18  1  0.34341471  0.37448421  0.42017909  1
  O  O19  1  0.62550828  0.96893614  0.42017911  1
  O  O20  1  0.37448702  0.34344209  0.07982796  1
  O  O21  1  0.33115987  0.00000379  0.24999800  1
  O  O22  1  0.62551906  0.65658335  0.92017758  1
  O  O23  1  0.37448895  0.03105711  0.57982928  1
  O  O24  1  0.65655396  0.62550362  0.57982966  1
  O  O25  1  0.66883360  0.66882673  0.24999906  1
  O  O26  1  0.96893898  0.62550415  0.07982772  1
  O  O27  1  0.65655578  0.03105392  0.07982638  1
  O  O28  1  0.66883830  0.00000807  0.75000204  1
  O  O29  1  0.96893637  0.34343903  0.57982937  1
