# generated using pymatgen
data_Li5Mn2Fe3O10
_symmetry_space_group_name_H-M   'P 1'
_cell_length_a   5.17238402
_cell_length_b   5.16497889
_cell_length_c   7.86272361
_cell_angle_alpha   110.13975599
_cell_angle_beta   101.90145401
_cell_angle_gamma   99.44038456
_symmetry_Int_Tables_number   1
_chemical_formula_structural   Li5Mn2Fe3O10
_chemical_formula_sum   'Li5 Mn2 Fe3 O10'
_cell_volume   186.54971765
_cell_formula_units_Z   1
loop_
 _symmetry_equiv_pos_site_id
 _symmetry_equiv_pos_as_xyz
  1  'x, y, z'
loop_
 _atom_site_type_symbol
 _atom_site_label
 _atom_site_symmetry_multiplicity
 _atom_site_fract_x
 _atom_site_fract_y
 _atom_site_fract_z
 _atom_site_occupancy
  Li  Li0  1  0.21417649  0.89790887  0.40930305  1
  Li  Li1  1  0.38011731  0.29054941  0.77753313  1
  Li  Li2  1  0.50000000  0.50000000  0.50000000  1
  Li  Li3  1  0.61988269  0.70945059  0.22246687  1
  Li  Li4  1  0.78582351  0.10209113  0.59069695  1
  Mn  Mn5  1  0.09533538  0.69720783  0.69298976  1
  Mn  Mn6  1  0.90466462  0.30279217  0.30701024  1
  Fe  Fe7  1  0.00000000  0.50000000  0.00000000  1
  Fe  Fe8  1  0.68542256  0.89849364  0.89502981  1
  Fe  Fe9  1  0.31457744  0.10150636  0.10497019  1
  O  O10  1  0.05323178  0.07217108  0.84527226  1
  O  O11  1  0.33121290  0.69108764  0.92662913  1
  O  O12  1  0.13021942  0.32160935  0.54025160  1
  O  O13  1  0.22429994  0.48164959  0.24768750  1
  O  O14  1  0.42876629  0.89418874  0.66208797  1
  O  O15  1  0.57123371  0.10581126  0.33791203  1
  O  O16  1  0.77570006  0.51835041  0.75231250  1
  O  O17  1  0.86978058  0.67839065  0.45974840  1
  O  O18  1  0.66878710  0.30891236  0.07337087  1
  O  O19  1  0.94676822  0.92782892  0.15472774  1
