# generated using pymatgen
data_LiMnB2O5
_symmetry_space_group_name_H-M   'P 1'
_cell_length_a   11.76305464
_cell_length_b   5.47050558
_cell_length_c   11.45566321
_cell_angle_alpha   90.00000000
_cell_angle_beta   90.00000000
_cell_angle_gamma   78.67418786
_symmetry_Int_Tables_number   1
_chemical_formula_structural   LiMnB2O5
_chemical_formula_sum   'Li8 Mn8 B16 O40'
_cell_volume   722.81483440
_cell_formula_units_Z   8
loop_
 _symmetry_equiv_pos_site_id
 _symmetry_equiv_pos_as_xyz
  1  'x, y, z'
loop_
 _atom_site_type_symbol
 _atom_site_label
 _atom_site_symmetry_multiplicity
 _atom_site_fract_x
 _atom_site_fract_y
 _atom_site_fract_z
 _atom_site_occupancy
  Li  Li0  1  0.07903385  0.36783337  0.36098782  1
  Li  Li1  1  0.07903385  0.86783337  0.13901218  1
  Li  Li2  1  0.42211667  0.13078462  0.87861556  1
  Li  Li3  1  0.42211667  0.63078462  0.62138444  1
  Li  Li4  1  0.57788333  0.36921538  0.37861556  1
  Li  Li5  1  0.57788333  0.86921538  0.12138444  1
  Li  Li6  1  0.92096615  0.13216663  0.86098782  1
  Li  Li7  1  0.92096615  0.63216663  0.63901218  1
  Mn  Mn8  1  0.23458502  0.26410759  0.62316604  1
  Mn  Mn9  1  0.26335801  0.25360989  0.12374978  1
  Mn  Mn10  1  0.23458502  0.76410759  0.87683396  1
  Mn  Mn11  1  0.26335801  0.75360989  0.37625022  1
  Mn  Mn12  1  0.73664199  0.24639011  0.62374978  1
  Mn  Mn13  1  0.76541498  0.23589241  0.12316604  1
  Mn  Mn14  1  0.73664199  0.74639011  0.87625022  1
  Mn  Mn15  1  0.76541498  0.73589241  0.37683396  1
  B  B16  1  0.00425533  0.13697962  0.63094981  1
  B  B17  1  0.00425533  0.63697962  0.86905019  1
  B  B18  1  0.17042757  0.29927677  0.88420049  1
  B  B19  1  0.17042757  0.79927677  0.61579951  1
  B  B20  1  0.33108228  0.21003461  0.37144447  1
  B  B21  1  0.33108228  0.71003461  0.12855553  1
  B  B22  1  0.50664520  0.14986782  0.61507912  1
  B  B23  1  0.49335480  0.35013218  0.11507912  1
  B  B24  1  0.50664520  0.64986782  0.88492088  1
  B  B25  1  0.49335480  0.85013218  0.38492088  1
  B  B26  1  0.66891772  0.28996539  0.87144447  1
  B  B27  1  0.66891772  0.78996539  0.62855553  1
  B  B28  1  0.82957243  0.20072323  0.38420049  1
  B  B29  1  0.82957243  0.70072323  0.11579951  1
  B  B30  1  0.99574467  0.36302038  0.13094981  1
  B  B31  1  0.99574467  0.86302038  0.36905019  1
  O  O32  1  0.06876600  0.31634993  0.61233041  1
  O  O33  1  0.04981502  0.38010289  0.88823935  1
  O  O34  1  0.10431374  0.28948499  0.17390849  1
  O  O35  1  0.06876600  0.81634993  0.88766959  1
  O  O36  1  0.04981502  0.88010289  0.61176065  1
  O  O37  1  0.10431374  0.78948499  0.32609151  1
  O  O38  1  0.22409513  0.09643095  0.94724361  1
  O  O39  1  0.24995980  0.10223643  0.43036917  1
  O  O40  1  0.23786530  0.42777033  0.81865327  1
  O  O41  1  0.22409513  0.59643095  0.55275639  1
  O  O42  1  0.29283744  0.41874920  0.30616510  1
  O  O43  1  0.24995980  0.60223643  0.06963083  1
  O  O44  1  0.23786530  0.92777033  0.68134673  1
  O  O45  1  0.29283744  0.91874920  0.19383490  1
  O  O46  1  0.39738600  0.25354869  0.64711677  1
  O  O47  1  0.45112400  0.10987379  0.37336905  1
  O  O48  1  0.42332829  0.19171821  0.07780238  1
  O  O49  1  0.39738600  0.75354869  0.85288323  1
  O  O50  1  0.45112400  0.60987379  0.12663095  1
  O  O51  1  0.42332829  0.69171821  0.42219762  1
  O  O52  1  0.57667171  0.30828179  0.57780238  1
  O  O53  1  0.54887600  0.39012621  0.87336905  1
  O  O54  1  0.60261400  0.24645131  0.14711677  1
  O  O55  1  0.57667171  0.80828179  0.92219762  1
  O  O56  1  0.54887600  0.89012621  0.62663095  1
  O  O57  1  0.60261400  0.74645131  0.35288323  1
  O  O58  1  0.70716256  0.08125080  0.80616510  1
  O  O59  1  0.76213470  0.07222967  0.31865327  1
  O  O60  1  0.75004020  0.39776357  0.93036917  1
  O  O61  1  0.70716256  0.58125080  0.69383490  1
  O  O62  1  0.77590487  0.40356905  0.44724361  1
  O  O63  1  0.76213470  0.57222967  0.18134673  1
  O  O64  1  0.75004020  0.89776357  0.56963083  1
  O  O65  1  0.77590487  0.90356905  0.05275639  1
  O  O66  1  0.89568626  0.21051501  0.67390849  1
  O  O67  1  0.95018498  0.11989711  0.38823935  1
  O  O68  1  0.93123400  0.18365007  0.11233041  1
  O  O69  1  0.89568626  0.71051501  0.82609151  1
  O  O70  1  0.95018498  0.61989711  0.11176065  1
  O  O71  1  0.93123400  0.68365007  0.38766959  1
