# generated using pymatgen
data_LiSbWO6
_symmetry_space_group_name_H-M   'P 1'
_cell_length_a   7.33310860
_cell_length_b   7.33310860
_cell_length_c   10.32179305
_cell_angle_alpha   90.00000000
_cell_angle_beta   90.00000000
_cell_angle_gamma   90.00000000
_symmetry_Int_Tables_number   1
_chemical_formula_structural   LiSbWO6
_chemical_formula_sum   'Li4 Sb4 W4 O24'
_cell_volume   555.04907226
_cell_formula_units_Z   4
loop_
 _symmetry_equiv_pos_site_id
 _symmetry_equiv_pos_as_xyz
  1  'x, y, z'
loop_
 _atom_site_type_symbol
 _atom_site_label
 _atom_site_symmetry_multiplicity
 _atom_site_fract_x
 _atom_site_fract_y
 _atom_site_fract_z
 _atom_site_occupancy
  Li  Li0  1  0.75000000  0.48251210  0.12500000  1
  Li  Li1  1  0.01748790  0.75000000  0.37500000  1
  Li  Li2  1  0.75000000  0.01748790  0.62500000  1
  Li  Li3  1  0.48251210  0.75000000  0.87500000  1
  Sb  Sb4  1  0.75000000  0.99239965  0.12500000  1
  Sb  Sb5  1  0.50760035  0.75000000  0.37500000  1
  Sb  Sb6  1  0.75000000  0.50760035  0.62500000  1
  Sb  Sb7  1  0.99239965  0.75000000  0.87500000  1
  W  W8  1  0.25000000  0.99268096  0.12500000  1
  W  W9  1  0.50731904  0.25000000  0.37500000  1
  W  W10  1  0.25000000  0.50731904  0.62500000  1
  W  W11  1  0.99268096  0.25000000  0.87500000  1
  O  O12  1  0.78945225  0.78945225  0.00000000  1
  O  O13  1  0.17658353  0.17658353  0.00000000  1
  O  O14  1  0.80727103  0.19753150  0.00427472  1
  O  O15  1  0.19753150  0.80727103  0.99572528  1
  O  O16  1  0.98411719  0.49470595  0.94274912  1
  O  O17  1  0.51588281  0.49470595  0.30725088  1
  O  O18  1  0.30246850  0.80727103  0.25427472  1
  O  O19  1  0.71054775  0.78945225  0.25000000  1
  O  O20  1  0.32341647  0.17658353  0.25000000  1
  O  O21  1  0.69272897  0.19753150  0.24572528  1
  O  O22  1  0.00529405  0.98411719  0.19274912  1
  O  O23  1  0.00529405  0.51588281  0.55725088  1
  O  O24  1  0.32341647  0.32341647  0.50000000  1
  O  O25  1  0.30246850  0.69272897  0.49572528  1
  O  O26  1  0.71054775  0.71054775  0.50000000  1
  O  O27  1  0.69272897  0.30246850  0.50427472  1
  O  O28  1  0.51588281  0.00529405  0.44274912  1
  O  O29  1  0.98411719  0.00529405  0.80725088  1
  O  O30  1  0.17658353  0.32341647  0.75000000  1
  O  O31  1  0.80727103  0.30246850  0.74572528  1
  O  O32  1  0.78945225  0.71054775  0.75000000  1
  O  O33  1  0.19753150  0.69272897  0.75427472  1
  O  O34  1  0.49470595  0.51588281  0.69274912  1
  O  O35  1  0.49470595  0.98411719  0.05725088  1
