# generated using pymatgen
data_LiAlCrO4
_symmetry_space_group_name_H-M   'P 1'
_cell_length_a   9.29938275
_cell_length_b   2.88177895
_cell_length_c   10.21475611
_cell_angle_alpha   90.00000000
_cell_angle_beta   90.00000000
_cell_angle_gamma   90.00000000
_symmetry_Int_Tables_number   1
_chemical_formula_structural   LiAlCrO4
_chemical_formula_sum   'Li4 Al4 Cr4 O16'
_cell_volume   273.74285319
_cell_formula_units_Z   4
loop_
 _symmetry_equiv_pos_site_id
 _symmetry_equiv_pos_as_xyz
  1  'x, y, z'
loop_
 _atom_site_type_symbol
 _atom_site_label
 _atom_site_symmetry_multiplicity
 _atom_site_fract_x
 _atom_site_fract_y
 _atom_site_fract_z
 _atom_site_occupancy
  Li  Li0  1  0.10020075  0.25000000  0.61859374  1
  Li  Li1  1  0.39979925  0.75000000  0.11859374  1
  Li  Li2  1  0.60020075  0.25000000  0.88140626  1
  Li  Li3  1  0.89979925  0.75000000  0.38140626  1
  Al  Al4  1  0.00818596  0.25000000  0.12389937  1
  Al  Al5  1  0.49181404  0.75000000  0.62389937  1
  Al  Al6  1  0.50818596  0.25000000  0.37610063  1
  Al  Al7  1  0.99181404  0.75000000  0.87610063  1
  Cr  Cr8  1  0.23016593  0.75000000  0.34233074  1
  Cr  Cr9  1  0.26983407  0.25000000  0.84233074  1
  Cr  Cr10  1  0.73016593  0.75000000  0.15766926  1
  Cr  Cr11  1  0.76983407  0.25000000  0.65766926  1
  O  O12  1  0.10129385  0.25000000  0.95796056  1
  O  O13  1  0.13764646  0.25000000  0.42943250  1
  O  O14  1  0.10619352  0.75000000  0.19921477  1
  O  O15  1  0.14713666  0.75000000  0.75362394  1
  O  O16  1  0.35286334  0.25000000  0.25362394  1
  O  O17  1  0.39380648  0.25000000  0.69921477  1
  O  O18  1  0.36235354  0.75000000  0.92943250  1
  O  O19  1  0.39870615  0.75000000  0.45796056  1
  O  O20  1  0.60129385  0.25000000  0.54203944  1
  O  O21  1  0.63764646  0.25000000  0.07056750  1
  O  O22  1  0.60619352  0.75000000  0.30078523  1
  O  O23  1  0.64713666  0.75000000  0.74637606  1
  O  O24  1  0.85286334  0.25000000  0.24637606  1
  O  O25  1  0.89380648  0.25000000  0.80078523  1
  O  O26  1  0.86235354  0.75000000  0.57056750  1
  O  O27  1  0.89870615  0.75000000  0.04203944  1
