# generated using pymatgen
data_VNi5(PO4)6
_symmetry_space_group_name_H-M   'P 1'
_cell_length_a   8.45892530
_cell_length_b   8.60512215
_cell_length_c   8.60512196
_cell_angle_alpha   60.00000293
_cell_angle_beta   59.42661220
_cell_angle_gamma   59.42661207
_symmetry_Int_Tables_number   1
_chemical_formula_structural   VNi5(PO4)6
_chemical_formula_sum   'V1 Ni5 P6 O24'
_cell_volume   439.03128484
_cell_formula_units_Z   1
loop_
 _symmetry_equiv_pos_site_id
 _symmetry_equiv_pos_as_xyz
  1  'x, y, z'
loop_
 _atom_site_type_symbol
 _atom_site_label
 _atom_site_symmetry_multiplicity
 _atom_site_fract_x
 _atom_site_fract_y
 _atom_site_fract_z
 _atom_site_occupancy
  V  V0  1  0.56360494  0.14546535  0.14546535  1
  Ni  Ni1  1  0.00516451  0.99827883  0.99827883  1
  Ni  Ni2  1  0.07793904  0.64068665  0.64068665  1
  Ni  Ni3  1  0.50290877  0.49903041  0.49903041  1
  Ni  Ni4  1  0.42954000  0.85682033  0.85682033  1
  Ni  Ni5  1  0.92485065  0.35838278  0.35838278  1
  P  P6  1  0.24746543  0.25109892  0.54714204  1
  P  P7  1  0.24746543  0.95429461  0.25109892  1
  P  P8  1  0.24746543  0.54714204  0.95429461  1
  P  P9  1  0.75015460  0.45255928  0.04712424  1
  P  P10  1  0.75015460  0.04712424  0.75016187  1
  P  P11  1  0.75015460  0.75016187  0.45255928  1
  O  O12  1  0.06465046  0.10666383  0.32351265  1
  O  O13  1  0.06465046  0.50517306  0.10666383  1
  O  O14  1  0.06465046  0.32351265  0.50517306  1
  O  O15  1  0.22581134  0.08853195  0.74088056  1
  O  O16  1  0.42909213  0.17493553  0.37868443  1
  O  O17  1  0.29348265  0.40252078  0.54675437  1
  O  O18  1  0.22581134  0.94477615  0.08853195  1
  O  O19  1  0.29348265  0.75724120  0.40252078  1
  O  O20  1  0.56436748  0.60908795  0.01090242  1
  O  O21  1  0.29348265  0.54675437  0.75724120  1
  O  O22  1  0.76463325  0.25064840  0.06853795  1
  O  O23  1  0.56436748  0.01090242  0.81564215  1
  O  O24  1  0.42909213  0.01728690  0.17493553  1
  O  O25  1  0.22581134  0.74088056  0.94477615  1
  O  O26  1  0.72204367  0.43554442  0.24732471  1
  O  O27  1  0.42909213  0.37868443  0.01728690  1
  O  O28  1  0.72204367  0.24732471  0.59508720  1
  O  O29  1  0.76463325  0.06853795  0.91618040  1
  O  O30  1  0.72204367  0.59508720  0.43554442  1
  O  O31  1  0.56436748  0.81564215  0.60908795  1
  O  O32  1  0.76463325  0.91618040  0.25064840  1
  O  O33  1  0.93696235  0.68997439  0.48214792  1
  O  O34  1  0.93696235  0.48214792  0.89091434  1
  O  O35  1  0.93696235  0.89091434  0.68997439  1
