# generated using pymatgen
data_CoB10H19C11
_symmetry_space_group_name_H-M   'P 1'
_cell_length_a   7.50752719
_cell_length_b   9.57723691
_cell_length_c   12.73741038
_cell_angle_alpha   75.31094668
_cell_angle_beta   88.22223306
_cell_angle_gamma   77.93889248
_symmetry_Int_Tables_number   1
_chemical_formula_structural   CoB10H19C11
_chemical_formula_sum   'Co2 B20 H38 C22'
_cell_volume   866.11459417
_cell_formula_units_Z   2
loop_
 _symmetry_equiv_pos_site_id
 _symmetry_equiv_pos_as_xyz
  1  'x, y, z'
loop_
 _atom_site_type_symbol
 _atom_site_label
 _atom_site_symmetry_multiplicity
 _atom_site_fract_x
 _atom_site_fract_y
 _atom_site_fract_z
 _atom_site_occupancy
  Co  Co0  1  0.25759410  0.05943136  0.23070483  1
  Co  Co1  1  0.74240590  0.94056864  0.76929517  1
  B  B2  1  0.02671612  0.96907817  0.30510606  1
  B  B3  1  0.97328388  0.03092183  0.69489394  1
  B  B4  1  0.24556159  0.88147102  0.14592756  1
  B  B5  1  0.75443841  0.11852898  0.85407244  1
  B  B6  1  0.09186303  0.78074043  0.25857370  1
  B  B7  1  0.90813697  0.21925957  0.74142630  1
  B  B8  1  0.44948707  0.85574366  0.22608510  1
  B  B9  1  0.55051293  0.14425634  0.77391490  1
  B  B10  1  0.33982838  0.70715252  0.23396016  1
  B  B11  1  0.66017162  0.29284748  0.76603984  1
  B  B12  1  0.09368380  0.79666050  0.40408561  1
  B  B13  1  0.90631620  0.20333950  0.59591439  1
  B  B14  1  0.42111175  0.89971437  0.35627194  1
  B  B15  1  0.57888825  0.10028563  0.64372806  1
  B  B16  1  0.24913993  0.65981771  0.36236427  1
  B  B17  1  0.75086007  0.34018229  0.63763573  1
  B  B18  1  0.31932384  0.76286773  0.44626614  1
  B  B19  1  0.68067616  0.23713227  0.55373386  1
  B  B20  1  0.46664297  0.71291381  0.34527505  1
  B  B21  1  0.53335703  0.28708619  0.65472495  1
  H  H22  1  0.95777050  0.01544880  0.12807713  1
  H  H23  1  0.04222950  0.98455120  0.87192287  1
  H  H24  1  0.88497701  0.03755272  0.32667962  1
  H  H25  1  0.11502299  0.96244728  0.67332038  1
  H  H26  1  0.25565531  0.88576459  0.05094739  1
  H  H27  1  0.74434469  0.11423541  0.94905261  1
  H  H28  1  0.97381321  0.72984882  0.23144430  1
  H  H29  1  0.02618679  0.27015118  0.76855570  1
  H  H30  1  0.16967345  0.99884042  0.45462048  1
  H  H31  1  0.83032655  0.00115958  0.54537952  1
  H  H32  1  0.58444884  0.86719282  0.17451250  1
  H  H33  1  0.41555116  0.13280718  0.82548750  1
  H  H34  1  0.38615538  0.61606154  0.18345195  1
  H  H35  1  0.61384462  0.38393846  0.81654805  1
  H  H36  1  0.97567596  0.77855589  0.46781660  1
  H  H37  1  0.02432404  0.22144411  0.53218340  1
  H  H38  1  0.53228254  0.94367105  0.39669757  1
  H  H39  1  0.46771746  0.05632895  0.60330243  1
  H  H40  1  0.22892081  0.53633004  0.39715611  1
  H  H41  1  0.77107919  0.46366996  0.60284389  1
  H  H42  1  0.35854774  0.72533943  0.54042812  1
  H  H43  1  0.64145226  0.27466057  0.45957188  1
  H  H44  1  0.60996471  0.63091386  0.37241748  1
  H  H45  1  0.39003529  0.36908614  0.62758252  1
  H  H46  1  0.36685841  0.24666524  0.34730126  1
  H  H47  1  0.63314159  0.75333476  0.65269874  1
  H  H48  1  0.58952518  0.15012906  0.19988395  1
  H  H49  1  0.41047482  0.84987094  0.80011605  1
  H  H50  1  0.38809938  0.17129688  0.02196182  1
  H  H51  1  0.61190062  0.82870312  0.97803818  1
  H  H52  1  0.99586062  0.29433654  0.96467372  1
  H  H53  1  0.00413938  0.70566346  0.03532628  1
  H  H54  1  0.70809054  0.41072641  0.03578902  1
  H  H55  1  0.29190946  0.58927359  0.96421098  1
  H  H56  1  0.69777278  0.46266283  0.21724280  1
  H  H57  1  0.30222722  0.53733717  0.78275720  1
  H  H58  1  0.97437378  0.39212669  0.33612733  1
  H  H59  1  0.02562622  0.60787331  0.66387267  1
  C  C60  1  0.06922253  0.96266670  0.18704787  1
  C  C61  1  0.93077747  0.03733330  0.81295213  1
  C  C62  1  0.20359735  0.93507501  0.39464154  1
  C  C63  1  0.79640265  0.06492499  0.60535846  1
  C  C64  1  0.14377882  0.29506356  0.22018073  1
  C  C65  1  0.85622118  0.70493644  0.77981927  1
  C  C66  1  0.32452313  0.24015999  0.26810329  1
  C  C67  1  0.67547687  0.75984001  0.73189671  1
  C  C68  1  0.44354622  0.18941952  0.18961280  1
  C  C69  1  0.55645378  0.81058048  0.81038720  1
  C  C70  1  0.33597638  0.19899733  0.09632568  1
  C  C71  1  0.66402362  0.80100267  0.90367432  1
  C  C72  1  0.15060618  0.26881549  0.11287556  1
  C  C73  1  0.84939382  0.73118451  0.88712444  1
  C  C74  1  0.99149425  0.31046650  0.04624381  1
  C  C75  1  0.00850575  0.68953350  0.95375619  1
  C  C76  1  0.83210014  0.37725618  0.08623158  1
  C  C77  1  0.16789986  0.62274382  0.91376842  1
  C  C78  1  0.82590556  0.40620570  0.19054601  1
  C  C79  1  0.17409444  0.59379430  0.80945399  1
  C  C80  1  0.97874357  0.36613891  0.25774585  1
  C  C81  1  0.02125643  0.63386109  0.74225415  1
