# generated using pymatgen
data_Li4NbCr5O12
_symmetry_space_group_name_H-M   'P 1'
_cell_length_a   5.22928053
_cell_length_b   5.22927980
_cell_length_c   10.30447435
_cell_angle_alpha   88.54472487
_cell_angle_beta   88.54472704
_cell_angle_gamma   120.19490238
_symmetry_Int_Tables_number   1
_chemical_formula_structural   Li4NbCr5O12
_chemical_formula_sum   'Li4 Nb1 Cr5 O12'
_cell_volume   243.23144660
_cell_formula_units_Z   1
loop_
 _symmetry_equiv_pos_site_id
 _symmetry_equiv_pos_as_xyz
  1  'x, y, z'
loop_
 _atom_site_type_symbol
 _atom_site_label
 _atom_site_symmetry_multiplicity
 _atom_site_fract_x
 _atom_site_fract_y
 _atom_site_fract_z
 _atom_site_occupancy
  Li  Li0  1  0.14540563  0.48240903  0.71045964  1
  Li  Li1  1  0.51759097  0.85459437  0.28954036  1
  Li  Li2  1  0.48240903  0.14540563  0.71045964  1
  Li  Li3  1  0.85459437  0.51759097  0.28954036  1
  Nb  Nb4  1  0.00000000  0.00000000  0.00000000  1
  Cr  Cr5  1  0.16340694  0.83659306  0.50000000  1
  Cr  Cr6  1  0.33436828  0.66563172  1.00000000  1
  Cr  Cr7  1  0.50000000  0.50000000  0.50000000  1
  Cr  Cr8  1  0.66563172  0.33436828  0.00000000  1
  Cr  Cr9  1  0.83659306  0.16340694  0.50000000  1
  O  O10  1  0.98974524  0.65668558  0.10130191  1
  O  O11  1  0.34331442  0.01025476  0.89869809  1
  O  O12  1  0.17632396  0.52138288  0.39602309  1
  O  O13  1  0.47861712  0.82367604  0.60397691  1
  O  O14  1  0.16823492  0.16823492  0.60482332  1
  O  O15  1  0.32398875  0.32398875  0.09697833  1
  O  O16  1  0.67601125  0.67601125  0.90302167  1
  O  O17  1  0.83176508  0.83176508  0.39517668  1
  O  O18  1  0.52138288  0.17632396  0.39602309  1
  O  O19  1  0.82367604  0.47861712  0.60397691  1
  O  O20  1  0.65668558  0.98974524  0.10130191  1
  O  O21  1  0.01025476  0.34331442  0.89869809  1
