# generated using pymatgen
data_MnSbO4
_symmetry_space_group_name_H-M   'P 1'
_cell_length_a   5.28624856
_cell_length_b   10.09306947
_cell_length_c   9.62952943
_cell_angle_alpha   17.43005583
_cell_angle_beta   32.72321145
_cell_angle_gamma   36.61505454
_symmetry_Int_Tables_number   1
_chemical_formula_structural   MnSbO4
_chemical_formula_sum   'Mn1 Sb1 O4'
_cell_volume   83.19430016
_cell_formula_units_Z   1
loop_
 _symmetry_equiv_pos_site_id
 _symmetry_equiv_pos_as_xyz
  1  'x, y, z'
loop_
 _atom_site_type_symbol
 _atom_site_label
 _atom_site_symmetry_multiplicity
 _atom_site_fract_x
 _atom_site_fract_y
 _atom_site_fract_z
 _atom_site_occupancy
  Mn  Mn0  1  0.49953971  0.50000211  0.50002749  1
  Sb  Sb1  1  0.49998790  0.00000235  0.50008509  1
  O  O2  1  0.18946986  0.00000980  0.23722023  1
  O  O3  1  0.31708826  0.49996333  0.21212334  1
  O  O4  1  0.81067117  0.99998355  0.76267514  1
  O  O5  1  0.68324310  0.50003787  0.78786871  1
