# generated using pymatgen
data_Na2TbO3
_symmetry_space_group_name_H-M   'P 1'
_cell_length_a   5.99281756
_cell_length_b   5.91818876
_cell_length_c   8.92674564
_cell_angle_alpha   70.29417462
_cell_angle_beta   71.60506613
_cell_angle_gamma   58.84994859
_symmetry_Int_Tables_number   1
_chemical_formula_structural   Na2TbO3
_chemical_formula_sum   'Na6 Tb3 O9'
_cell_volume   251.13996383
_cell_formula_units_Z   3
loop_
 _symmetry_equiv_pos_site_id
 _symmetry_equiv_pos_as_xyz
  1  'x, y, z'
loop_
 _atom_site_type_symbol
 _atom_site_label
 _atom_site_symmetry_multiplicity
 _atom_site_fract_x
 _atom_site_fract_y
 _atom_site_fract_z
 _atom_site_occupancy
  Tb  Tb0  1  0.44444400  0.77777800  0.66666700  1
  Tb  Tb1  1  0.89942114  0.53115644  0.33363555  1
  Tb  Tb2  1  0.98946786  0.02439856  0.99969745  1
  Na  Na3  1  0.22841581  0.87943317  0.33270787  1
  Na  Na4  1  0.11838983  0.45235887  0.66594655  1
  Na  Na5  1  0.77049917  0.10319613  0.66738745  1
  Na  Na6  1  0.55263493  0.22831267  0.33291927  1
  Na  Na7  1  0.66047319  0.67612283  0.00062613  1
  Na  Na8  1  0.33625407  0.32724233  0.00041473  1
  O  O9  1  0.80821673  0.80484672  0.50383402  1
  O  O10  1  0.08067227  0.75070928  0.82949898  1
  O  O11  1  0.71319299  0.39629795  0.83717753  1
  O  O12  1  0.52528719  0.51655893  0.49811069  1
  O  O13  1  0.36360181  0.03899707  0.83522331  1
  O  O14  1  0.66163039  0.92034388  0.16042645  1
  O  O15  1  0.17569601  0.15925805  0.49615547  1
  O  O16  1  0.22725761  0.63521212  0.17290655  1
  O  O17  1  0.94444400  0.27777800  0.16666700  1
