# generated using pymatgen
data_Li7Mn3(WO8)2
_symmetry_space_group_name_H-M   'P 1'
_cell_length_a   5.90758614
_cell_length_b   5.86206279
_cell_length_c   9.65178707
_cell_angle_alpha   89.99995260
_cell_angle_beta   89.83416264
_cell_angle_gamma   119.74500719
_symmetry_Int_Tables_number   1
_chemical_formula_structural   Li7Mn3(WO8)2
_chemical_formula_sum   'Li7 Mn3 W2 O16'
_cell_volume   290.20618484
_cell_formula_units_Z   1
loop_
 _symmetry_equiv_pos_site_id
 _symmetry_equiv_pos_as_xyz
  1  'x, y, z'
loop_
 _atom_site_type_symbol
 _atom_site_label
 _atom_site_symmetry_multiplicity
 _atom_site_fract_x
 _atom_site_fract_y
 _atom_site_fract_z
 _atom_site_occupancy
  Li  Li0  1  0.16175544  0.82673838  0.20747939  1
  Li  Li1  1  0.34778995  0.67389993  0.90315316  1
  Li  Li2  1  0.98607643  0.99305153  0.99768468  1
  Li  Li3  1  0.99642331  0.99824512  0.48415979  1
  Li  Li4  1  0.16176778  0.33505300  0.20748084  1
  Li  Li5  1  0.34123709  0.17061756  0.71516950  1
  Li  Li6  1  0.66756599  0.33379363  0.40841078  1
  Mn  Mn7  1  0.64226743  0.82115000  0.23285723  1
  Mn  Mn8  1  0.82341203  0.66009438  0.71660166  1
  Mn  Mn9  1  0.82340570  0.16331830  0.71660562  1
  W  W10  1  0.29366314  0.64683924  0.48495929  1
  W  W11  1  0.65716689  0.32859862  0.99237746  1
  O  O12  1  0.16554959  0.82795582  0.59016027  1
  O  O13  1  0.03443430  0.51722206  0.35632021  1
  O  O14  1  0.38465992  0.69234714  0.11200822  1
  O  O15  1  0.96674995  0.98339128  0.29223879  1
  O  O16  1  0.98589450  0.99295058  0.80520849  1
  O  O17  1  0.16554799  0.33761720  0.59016621  1
  O  O18  1  0.49946854  0.96143516  0.35560635  1
  O  O19  1  0.49947747  0.53806460  0.35560344  1
  O  O20  1  0.33812902  0.16907906  0.07330996  1
  O  O21  1  0.66959386  0.83480235  0.60323236  1
  O  O22  1  0.54480569  0.50141819  0.84228340  1
  O  O23  1  0.54479878  0.04339973  0.84228656  1
  O  O24  1  0.68964093  0.34482728  0.61208621  1
  O  O25  1  0.82091013  0.64925742  0.08863233  1
  O  O26  1  0.96688515  0.48344275  0.83312302  1
  O  O27  1  0.82092199  0.17169469  0.08863579  1
