# generated using pymatgen
data_LiSiSbCO7
_symmetry_space_group_name_H-M   'P 1'
_cell_length_a   9.02015493
_cell_length_b   6.46403073
_cell_length_c   5.21733902
_cell_angle_alpha   90.00000000
_cell_angle_beta   86.18610988
_cell_angle_gamma   90.00000000
_symmetry_Int_Tables_number   1
_chemical_formula_structural   LiSiSbCO7
_chemical_formula_sum   'Li2 Si2 Sb2 C2 O14'
_cell_volume   303.53138276
_cell_formula_units_Z   2
loop_
 _symmetry_equiv_pos_site_id
 _symmetry_equiv_pos_as_xyz
  1  'x, y, z'
loop_
 _atom_site_type_symbol
 _atom_site_label
 _atom_site_symmetry_multiplicity
 _atom_site_fract_x
 _atom_site_fract_y
 _atom_site_fract_z
 _atom_site_occupancy
  Li  Li0  1  0.19929290  0.49097723  0.22947504  1
  Li  Li1  1  0.80070710  0.99097723  0.77052496  1
  Si  Si2  1  0.42971698  0.24993242  0.72458093  1
  Si  Si3  1  0.57028302  0.74993242  0.27541907  1
  Sb  Sb4  1  0.34017852  0.75436000  0.79756551  1
  Sb  Sb5  1  0.65982148  0.25436000  0.20243449  1
  C  C6  1  0.06691762  0.74833930  0.72383360  1
  C  C7  1  0.93308238  0.24833930  0.27616640  1
  O  O8  1  0.06443373  0.27466121  0.31449072  1
  O  O9  1  0.12376219  0.74584008  0.95582829  1
  O  O10  1  0.17638129  0.72534358  0.53478349  1
  O  O11  1  0.32169508  0.05446371  0.79849581  1
  O  O12  1  0.32953851  0.44778866  0.82676293  1
  O  O13  1  0.40984247  0.74220013  0.14489495  1
  O  O14  1  0.47061760  0.26394469  0.41134743  1
  O  O15  1  0.52938240  0.76394469  0.58865257  1
  O  O16  1  0.59015753  0.24220013  0.85510505  1
  O  O17  1  0.67046149  0.94778866  0.17323707  1
  O  O18  1  0.67830492  0.55446371  0.20150419  1
  O  O19  1  0.82361871  0.22534358  0.46521651  1
  O  O20  1  0.87623781  0.24584008  0.04417171  1
  O  O21  1  0.93556627  0.77466121  0.68550928  1
