# generated using pymatgen
data_LiVO2
_symmetry_space_group_name_H-M   'P 1'
_cell_length_a   5.96871329
_cell_length_b   5.99863659
_cell_length_c   5.99863659
_cell_angle_alpha   63.65509135
_cell_angle_beta   60.16487659
_cell_angle_gamma   60.16487659
_symmetry_Int_Tables_number   1
_chemical_formula_structural   LiVO2
_chemical_formula_sum   'Li4 V4 O8'
_cell_volume   156.02255421
_cell_formula_units_Z   4
loop_
 _symmetry_equiv_pos_site_id
 _symmetry_equiv_pos_as_xyz
  1  'x, y, z'
loop_
 _atom_site_type_symbol
 _atom_site_label
 _atom_site_symmetry_multiplicity
 _atom_site_fract_x
 _atom_site_fract_y
 _atom_site_fract_z
 _atom_site_occupancy
  Li  Li0  1  0.19464123  0.05535877  0.05535877  1
  Li  Li1  1  0.00000000  0.50000000  0.00000000  1
  Li  Li2  1  0.00000000  0.00000000  0.50000000  1
  Li  Li3  1  0.80535877  0.94464123  0.94464123  1
  V  V4  1  0.50000000  0.50000000  0.00000000  1
  V  V5  1  0.50000000  0.50000000  0.50000000  1
  V  V6  1  0.00000000  0.50000000  0.50000000  1
  V  V7  1  0.50000000  0.00000000  0.50000000  1
  O  O8  1  0.26424879  0.24797110  0.24797110  1
  O  O9  1  0.73981001  0.24797110  0.24797110  1
  O  O10  1  0.25518263  0.27774342  0.71189033  1
  O  O11  1  0.25518263  0.71189033  0.27774342  1
  O  O12  1  0.74481737  0.72225658  0.28810967  1
  O  O13  1  0.74481737  0.28810967  0.72225658  1
  O  O14  1  0.26018999  0.75202890  0.75202890  1
  O  O15  1  0.73575121  0.75202890  0.75202890  1
