# generated using pymatgen
data_Li(FeO2)2
_symmetry_space_group_name_H-M   'P 1'
_cell_length_a   5.93941372
_cell_length_b   5.93559606
_cell_length_c   8.43829074
_cell_angle_alpha   89.97740541
_cell_angle_beta   90.00361867
_cell_angle_gamma   89.99887510
_symmetry_Int_Tables_number   1
_chemical_formula_structural   Li(FeO2)2
_chemical_formula_sum   'Li4 Fe8 O16'
_cell_volume   297.48314652
_cell_formula_units_Z   4
loop_
 _symmetry_equiv_pos_site_id
 _symmetry_equiv_pos_as_xyz
  1  'x, y, z'
loop_
 _atom_site_type_symbol
 _atom_site_label
 _atom_site_symmetry_multiplicity
 _atom_site_fract_x
 _atom_site_fract_y
 _atom_site_fract_z
 _atom_site_occupancy
  Li  Li0  1  0.99990035  0.23605747  0.99972087  1
  Li  Li1  1  0.99990735  0.76393664  0.50027832  1
  Li  Li2  1  0.23655217  0.99997005  0.25004231  1
  Li  Li3  1  0.76349816  0.99997865  0.74995689  1
  Fe  Fe4  1  0.23846330  0.50000888  0.25000479  1
  Fe  Fe5  1  0.25485809  0.25476218  0.62510711  1
  Fe  Fe6  1  0.25485765  0.74525128  0.87487514  1
  Fe  Fe7  1  0.49998979  0.23870178  0.00001137  1
  Fe  Fe8  1  0.49998685  0.76136307  0.49999068  1
  Fe  Fe9  1  0.74515103  0.25486608  0.37493331  1
  Fe  Fe10  1  0.74511520  0.74510674  0.12508456  1
  Fe  Fe11  1  0.76147907  0.50000748  0.74998620  1
  O  O12  1  0.01485356  0.26545230  0.25814141  1
  O  O13  1  0.01485087  0.73453633  0.24189255  1
  O  O14  1  0.26564613  0.01486728  0.99187562  1
  O  O15  1  0.26565423  0.98511914  0.50811808  1
  O  O16  1  0.26492859  0.48576547  0.01381244  1
  O  O17  1  0.26496771  0.51428043  0.48618949  1
  O  O18  1  0.48567339  0.26487557  0.23617823  1
  O  O19  1  0.48568037  0.73512000  0.26385450  1
  O  O20  1  0.51436923  0.26489346  0.76381676  1
  O  O21  1  0.51433361  0.73511513  0.73615439  1
  O  O22  1  0.73506657  0.51429876  0.51383603  1
  O  O23  1  0.73508584  0.48571855  0.98615281  1
  O  O24  1  0.73442497  0.01484675  0.00804556  1
  O  O25  1  0.73440970  0.98511467  0.49197049  1
  O  O26  1  0.98516169  0.26550633  0.74189405  1
  O  O27  1  0.98513452  0.73447955  0.75807605  1
