# generated using pymatgen
data_Li3VSiBO7
_symmetry_space_group_name_H-M   'P 1'
_cell_length_a   8.38068723
_cell_length_b   6.44619677
_cell_length_c   5.05099706
_cell_angle_alpha   90.00000000
_cell_angle_beta   86.43716459
_cell_angle_gamma   90.00000000
_symmetry_Int_Tables_number   1
_chemical_formula_structural   Li3VSiBO7
_chemical_formula_sum   'Li6 V2 Si2 B2 O14'
_cell_volume   272.34544181
_cell_formula_units_Z   2
loop_
 _symmetry_equiv_pos_site_id
 _symmetry_equiv_pos_as_xyz
  1  'x, y, z'
loop_
 _atom_site_type_symbol
 _atom_site_label
 _atom_site_symmetry_multiplicity
 _atom_site_fract_x
 _atom_site_fract_y
 _atom_site_fract_z
 _atom_site_occupancy
  Li  Li0  1  0.10106308  0.25000000  0.74471974  1
  Li  Li1  1  0.23683963  0.99958032  0.23175271  1
  Li  Li2  1  0.23683963  0.50041968  0.23175271  1
  Li  Li3  1  0.76316037  0.49958032  0.76824729  1
  Li  Li4  1  0.76316037  0.00041968  0.76824729  1
  Li  Li5  1  0.89893692  0.75000000  0.25528026  1
  V  V6  1  0.32764377  0.75000000  0.79657080  1
  V  V7  1  0.67235623  0.25000000  0.20342920  1
  Si  Si8  1  0.42491528  0.25000000  0.71937550  1
  Si  Si9  1  0.57508472  0.75000000  0.28062450  1
  B  B10  1  0.03842552  0.75000000  0.73622018  1
  B  B11  1  0.96157448  0.25000000  0.26377982  1
  O  O12  1  0.11189537  0.25000000  0.34217835  1
  O  O13  1  0.08980324  0.75000000  0.99293747  1
  O  O14  1  0.17110778  0.75000000  0.54302198  1
  O  O15  1  0.31034714  0.05478024  0.81464579  1
  O  O16  1  0.31034714  0.44521976  0.81464579  1
  O  O17  1  0.46921988  0.25000000  0.39822264  1
  O  O18  1  0.40155719  0.75000000  0.14298378  1
  O  O19  1  0.59844281  0.25000000  0.85701622  1
  O  O20  1  0.53078012  0.75000000  0.60177736  1
  O  O21  1  0.68965286  0.55478024  0.18535421  1
  O  O22  1  0.68965286  0.94521976  0.18535421  1
  O  O23  1  0.82889222  0.25000000  0.45697802  1
  O  O24  1  0.91019676  0.25000000  0.00706253  1
  O  O25  1  0.88810463  0.75000000  0.65782165  1
