# generated using pymatgen
data_Ti5V(PO4)6
_symmetry_space_group_name_H-M   'P 1'
_cell_length_a   8.44972190
_cell_length_b   8.75578750
_cell_length_c   8.75578745
_cell_angle_alpha   60.00000422
_cell_angle_beta   58.79437531
_cell_angle_gamma   58.79437748
_symmetry_Int_Tables_number   1
_chemical_formula_structural   Ti5V(PO4)6
_chemical_formula_sum   'Ti5 V1 P6 O24'
_cell_volume   449.52983459
_cell_formula_units_Z   1
loop_
 _symmetry_equiv_pos_site_id
 _symmetry_equiv_pos_as_xyz
  1  'x, y, z'
loop_
 _atom_site_type_symbol
 _atom_site_label
 _atom_site_symmetry_multiplicity
 _atom_site_fract_x
 _atom_site_fract_y
 _atom_site_fract_z
 _atom_site_occupancy
  Ti  Ti0  1  0.00091336  0.99969555  0.99969555  1
  Ti  Ti1  1  0.08149850  0.63950083  0.63950083  1
  Ti  Ti2  1  0.49615126  0.50128291  0.50128291  1
  Ti  Ti3  1  0.42549271  0.85816876  0.85816876  1
  Ti  Ti4  1  0.91897671  0.36034143  0.36034143  1
  V  V5  1  0.58083000  0.13972300  0.13972300  1
  P  P6  1  0.24997375  0.24893174  0.54125510  1
  P  P7  1  0.24997375  0.95983940  0.24893174  1
  P  P8  1  0.24997375  0.54125510  0.95983940  1
  P  P9  1  0.75118991  0.45711408  0.04072643  1
  P  P10  1  0.75118991  0.04072643  0.75096958  1
  P  P11  1  0.75118991  0.75096958  0.45711408  1
  O  O12  1  0.06257482  0.11580645  0.32125280  1
  O  O13  1  0.06257482  0.50036693  0.11580645  1
  O  O14  1  0.06257482  0.32125280  0.50036693  1
  O  O15  1  0.21812762  0.09501195  0.74225990  1
  O  O16  1  0.43581537  0.17957609  0.39088655  1
  O  O17  1  0.27616993  0.40432153  0.56075978  1
  O  O18  1  0.21812762  0.94460053  0.09501195  1
  O  O19  1  0.27616993  0.75874977  0.40432153  1
  O  O20  1  0.56486513  0.61338059  0.99855349  1
  O  O21  1  0.27616993  0.56075978  0.75874977  1
  O  O22  1  0.78737846  0.25847200  0.05392480  1
  O  O23  1  0.56486513  0.99855349  0.82320079  1
  O  O24  1  0.43581537  0.99372299  0.17957609  1
  O  O25  1  0.21812762  0.74225990  0.94460053  1
  O  O26  1  0.71725718  0.44559715  0.24049394  1
  O  O27  1  0.43581537  0.39088655  0.99372299  1
  O  O28  1  0.71725718  0.24049394  0.59665173  1
  O  O29  1  0.78737846  0.05392480  0.90022474  1
  O  O30  1  0.71725718  0.59665173  0.44559715  1
  O  O31  1  0.56486513  0.82320079  0.61338059  1
  O  O32  1  0.78737846  0.90022474  0.25847200  1
  O  O33  1  0.93536130  0.67574203  0.50334783  1
  O  O34  1  0.93536130  0.50334783  0.88554884  1
  O  O35  1  0.93536130  0.88554884  0.67574203  1
