# generated using pymatgen
data_BaLaI5
_symmetry_space_group_name_H-M   'P 1'
_cell_length_a   14.85235597
_cell_length_b   11.65923223
_cell_length_c   15.62300194
_cell_angle_alpha   90.00000000
_cell_angle_beta   90.36103365
_cell_angle_gamma   90.00000000
_symmetry_Int_Tables_number   1
_chemical_formula_structural   BaLaI5
_chemical_formula_sum   'Ba8 La8 I40'
_cell_volume   2705.33572182
_cell_formula_units_Z   8
loop_
 _symmetry_equiv_pos_site_id
 _symmetry_equiv_pos_as_xyz
  1  'x, y, z'
loop_
 _atom_site_type_symbol
 _atom_site_label
 _atom_site_symmetry_multiplicity
 _atom_site_fract_x
 _atom_site_fract_y
 _atom_site_fract_z
 _atom_site_occupancy
  Ba  Ba0  1  0.20681108  0.71064529  0.85763247  1
  Ba  Ba1  1  0.27560663  0.73149676  0.46738137  1
  Ba  Ba2  1  0.29318892  0.21064529  0.64236753  1
  Ba  Ba3  1  0.22439337  0.23149676  0.03261863  1
  Ba  Ba4  1  0.77560663  0.76850324  0.96738137  1
  Ba  Ba5  1  0.70681108  0.78935471  0.35763247  1
  Ba  Ba6  1  0.72439337  0.26850324  0.53261863  1
  Ba  Ba7  1  0.79318892  0.28935471  0.14236753  1
  La  La8  1  0.00850815  0.19958946  0.80642628  1
  La  La9  1  0.11889757  0.23470543  0.34309718  1
  La  La10  1  0.38110243  0.73470543  0.15690282  1
  La  La11  1  0.49149185  0.69958946  0.69357372  1
  La  La12  1  0.50850815  0.30041054  0.30642628  1
  La  La13  1  0.61889757  0.26529457  0.84309718  1
  La  La14  1  0.88110243  0.76529457  0.65690282  1
  La  La15  1  0.99149185  0.80041054  0.19357372  1
  I  I16  1  0.05795983  0.24231027  0.61896427  1
  I  I17  1  0.03243266  0.80783423  0.99729435  1
  I  I18  1  0.09374539  0.76873210  0.63988733  1
  I  I19  1  0.13899135  0.40492217  0.85932274  1
  I  I20  1  0.08931657  0.38327772  0.18080438  1
  I  I21  1  0.09289722  0.03655848  0.20296162  1
  I  I22  1  0.18942865  0.05312748  0.82767192  1
  I  I23  1  0.19416766  0.43488103  0.45481204  1
  I  I24  1  0.20059752  0.03961970  0.46402659  1
  I  I25  1  0.18229773  0.70229526  0.25253062  1
  I  I26  1  0.31057135  0.55312748  0.67232808  1
  I  I27  1  0.31770227  0.20229526  0.24746938  1
  I  I28  1  0.29940248  0.53961970  0.03597341  1
  I  I29  1  0.30583234  0.93488103  0.04518796  1
  I  I30  1  0.36100865  0.90492217  0.64067726  1
  I  I31  1  0.40625461  0.26873210  0.86011267  1
  I  I32  1  0.40710278  0.53655848  0.29703838  1
  I  I33  1  0.41068343  0.88327772  0.31919562  1
  I  I34  1  0.44204017  0.74231027  0.88103573  1
  I  I35  1  0.46756734  0.30783423  0.50270565  1
  I  I36  1  0.53243266  0.69216577  0.49729435  1
  I  I37  1  0.55795983  0.25768973  0.11896427  1
  I  I38  1  0.58931657  0.11672228  0.68080438  1
  I  I39  1  0.59289722  0.46344152  0.70296162  1
  I  I40  1  0.59374539  0.73126790  0.13988733  1
  I  I41  1  0.63899135  0.09507783  0.35932274  1
  I  I42  1  0.69416766  0.06511897  0.95481204  1
  I  I43  1  0.70059752  0.46038030  0.96402659  1
  I  I44  1  0.68229773  0.79770474  0.75253062  1
  I  I45  1  0.68942865  0.44687252  0.32767192  1
  I  I46  1  0.81770227  0.29770474  0.74746938  1
  I  I47  1  0.79940248  0.96038030  0.53597341  1
  I  I48  1  0.80583234  0.56511897  0.54518796  1
  I  I49  1  0.81057135  0.94687252  0.17232808  1
  I  I50  1  0.90710278  0.96344152  0.79703838  1
  I  I51  1  0.91068343  0.61672228  0.81919562  1
  I  I52  1  0.86100865  0.59507783  0.14067726  1
  I  I53  1  0.90625461  0.23126790  0.36011267  1
  I  I54  1  0.96756734  0.19216577  0.00270565  1
  I  I55  1  0.94204017  0.75768973  0.38103573  1
