# generated using pymatgen
data_Na2SnBAsO7
_symmetry_space_group_name_H-M   'P 1'
_cell_length_a   9.51545982
_cell_length_b   6.94737977
_cell_length_c   5.52506566
_cell_angle_alpha   90.00000000
_cell_angle_beta   87.18629491
_cell_angle_gamma   90.00000000
_symmetry_Int_Tables_number   1
_chemical_formula_structural   Na2SnBAsO7
_chemical_formula_sum   'Na4 Sn2 B2 As2 O14'
_cell_volume   364.80801586
_cell_formula_units_Z   2
loop_
 _symmetry_equiv_pos_site_id
 _symmetry_equiv_pos_as_xyz
  1  'x, y, z'
loop_
 _atom_site_type_symbol
 _atom_site_label
 _atom_site_symmetry_multiplicity
 _atom_site_fract_x
 _atom_site_fract_y
 _atom_site_fract_z
 _atom_site_occupancy
  Na  Na0  1  0.17777164  0.51665013  0.23502708  1
  Na  Na1  1  0.17777164  0.98334987  0.23502708  1
  Na  Na2  1  0.82222836  0.48334987  0.76497292  1
  Na  Na3  1  0.82222836  0.01665013  0.76497292  1
  Sn  Sn4  1  0.33789839  0.75000000  0.77564031  1
  Sn  Sn5  1  0.66210161  0.25000000  0.22435969  1
  B  B6  1  0.07348396  0.75000000  0.72247497  1
  B  B7  1  0.92651604  0.25000000  0.27752503  1
  As  As8  1  0.43183765  0.25000000  0.72827727  1
  As  As9  1  0.56816235  0.75000000  0.27172273  1
  O  O10  1  0.06289246  0.25000000  0.31002993  1
  O  O11  1  0.13970095  0.75000000  0.94975983  1
  O  O12  1  0.18258391  0.75000000  0.52974630  1
  O  O13  1  0.32986153  0.05511495  0.80857243  1
  O  O14  1  0.32986153  0.44488505  0.80857243  1
  O  O15  1  0.40873172  0.75000000  0.13472063  1
  O  O16  1  0.46797931  0.25000000  0.41469417  1
  O  O17  1  0.53202069  0.75000000  0.58530583  1
  O  O18  1  0.59126828  0.25000000  0.86527937  1
  O  O19  1  0.67013847  0.55511495  0.19142757  1
  O  O20  1  0.67013847  0.94488505  0.19142757  1
  O  O21  1  0.81741609  0.25000000  0.47025370  1
  O  O22  1  0.86029905  0.25000000  0.05024017  1
  O  O23  1  0.93710754  0.75000000  0.68997007  1
