# generated using pymatgen
data_KLi4CrO5
_symmetry_space_group_name_H-M   'P 1'
_cell_length_a   8.29543974
_cell_length_b   5.89084020
_cell_length_c   5.86560309
_cell_angle_alpha   123.08482913
_cell_angle_beta   88.62744052
_cell_angle_gamma   99.35716136
_symmetry_Int_Tables_number   1
_chemical_formula_structural   KLi4CrO5
_chemical_formula_sum   'K2 Li8 Cr2 O10'
_cell_volume   236.23635419
_cell_formula_units_Z   2
loop_
 _symmetry_equiv_pos_site_id
 _symmetry_equiv_pos_as_xyz
  1  'x, y, z'
loop_
 _atom_site_type_symbol
 _atom_site_label
 _atom_site_symmetry_multiplicity
 _atom_site_fract_x
 _atom_site_fract_y
 _atom_site_fract_z
 _atom_site_occupancy
  K  K0  1  0.41171811  0.60914655  0.85621669  1
  K  K1  1  0.58828189  0.39085345  0.14378331  1
  Li  Li2  1  0.08514627  0.56030914  0.20289115  1
  Li  Li3  1  0.12428017  0.66694136  0.67162195  1
  Li  Li4  1  0.08642447  0.09833546  0.71592561  1
  Li  Li5  1  0.37502831  0.87660456  0.55378751  1
  Li  Li6  1  0.62497169  0.12339544  0.44621249  1
  Li  Li7  1  0.91357553  0.90166454  0.28407439  1
  Li  Li8  1  0.87571983  0.33305864  0.32837805  1
  Li  Li9  1  0.91485373  0.43969086  0.79710885  1
  Cr  Cr10  1  0.22056001  0.13199208  0.22989131  1
  Cr  Cr11  1  0.77943999  0.86800792  0.77010869  1
  O  O12  1  0.08739824  0.77563736  0.04666630  1
  O  O13  1  0.05999739  0.25077604  0.48393097  1
  O  O14  1  0.27196475  0.50264932  0.34423018  1
  O  O15  1  0.27005847  0.04616544  0.88519283  1
  O  O16  1  0.38109516  0.08882605  0.37209670  1
  O  O17  1  0.61890484  0.91117395  0.62790330  1
  O  O18  1  0.72994153  0.95383456  0.11480717  1
  O  O19  1  0.72803525  0.49735068  0.65576982  1
  O  O20  1  0.94000261  0.74922396  0.51606903  1
  O  O21  1  0.91260176  0.22436264  0.95333370  1
