# generated using pymatgen
data_Li4Mn3Fe5O16
_symmetry_space_group_name_H-M   'P 1'
_cell_length_a   5.85285240
_cell_length_b   5.84960121
_cell_length_c   9.54030582
_cell_angle_alpha   89.98368422
_cell_angle_beta   89.83999403
_cell_angle_gamma   119.99202673
_symmetry_Int_Tables_number   1
_chemical_formula_structural   Li4Mn3Fe5O16
_chemical_formula_sum   'Li4 Mn3 Fe5 O16'
_cell_volume   282.89100324
_cell_formula_units_Z   1
loop_
 _symmetry_equiv_pos_site_id
 _symmetry_equiv_pos_as_xyz
  1  'x, y, z'
loop_
 _atom_site_type_symbol
 _atom_site_label
 _atom_site_symmetry_multiplicity
 _atom_site_fract_x
 _atom_site_fract_y
 _atom_site_fract_z
 _atom_site_occupancy
  Li  Li0  1  0.33901489  0.66945437  0.89143215  1
  Li  Li1  1  0.99674082  0.99842445  0.99613921  1
  Li  Li2  1  0.00159896  0.00090543  0.49751890  1
  Li  Li3  1  0.66774019  0.33403821  0.39269375  1
  Mn  Mn4  1  0.65976521  0.82984970  0.21482306  1
  Mn  Mn5  1  0.83131486  0.66224622  0.71488339  1
  Mn  Mn6  1  0.83119885  0.16910061  0.71490716  1
  Fe  Fe7  1  0.16835818  0.82950321  0.21452969  1
  Fe  Fe8  1  0.32782416  0.66405249  0.49263715  1
  Fe  Fe9  1  0.16829534  0.33881222  0.21454738  1
  Fe  Fe10  1  0.33923693  0.16958428  0.71383990  1
  Fe  Fe11  1  0.66137053  0.33054977  0.98898306  1
  O  O12  1  0.16035105  0.83800360  0.60364347  1
  O  O13  1  0.03574935  0.51822143  0.34144378  1
  O  O14  1  0.34416310  0.67204255  0.10271574  1
  O  O15  1  0.98829680  0.99411201  0.31137294  1
  O  O16  1  0.99384906  0.99691389  0.80905865  1
  O  O17  1  0.16032098  0.32255024  0.60361292  1
  O  O18  1  0.49103790  0.96417356  0.33827811  1
  O  O19  1  0.49063101  0.52660677  0.33831300  1
  O  O20  1  0.32521142  0.16223486  0.09812026  1
  O  O21  1  0.67748224  0.83881636  0.60395703  1
  O  O22  1  0.52300028  0.48384251  0.83322755  1
  O  O23  1  0.52303093  0.03905440  0.83317515  1
  O  O24  1  0.67556505  0.33787090  0.60891426  1
  O  O25  1  0.82731792  0.67169580  0.10052421  1
  O  O26  1  0.96390802  0.48192313  0.83402977  1
  O  O27  1  0.82762496  0.15571702  0.10052036  1
