# generated using pymatgen
data_LiCoPO4
_symmetry_space_group_name_H-M   'P 1'
_cell_length_a   15.45884917
_cell_length_b   5.12129187
_cell_length_c   8.63873566
_cell_angle_alpha   90.00000000
_cell_angle_beta   86.29382421
_cell_angle_gamma   90.00000000
_symmetry_Int_Tables_number   1
_chemical_formula_structural   LiCoPO4
_chemical_formula_sum   'Li8 Co8 P8 O32'
_cell_volume   682.49215294
_cell_formula_units_Z   8
loop_
 _symmetry_equiv_pos_site_id
 _symmetry_equiv_pos_as_xyz
  1  'x, y, z'
loop_
 _atom_site_type_symbol
 _atom_site_label
 _atom_site_symmetry_multiplicity
 _atom_site_fract_x
 _atom_site_fract_y
 _atom_site_fract_z
 _atom_site_occupancy
  Li  Li0  1  0.99828058  0.24252617  0.20323486  1
  Li  Li1  1  0.25767607  0.76944495  0.62358515  1
  Li  Li2  1  0.24232393  0.26944495  0.37641485  1
  Li  Li3  1  0.50171942  0.74252617  0.79676514  1
  Li  Li4  1  0.49828058  0.25747383  0.20323486  1
  Li  Li5  1  0.75767607  0.73055505  0.62358515  1
  Li  Li6  1  0.74232393  0.23055505  0.37641485  1
  Li  Li7  1  0.00171942  0.75747383  0.79676514  1
  Co  Co8  1  0.08282423  0.29671637  0.56890238  1
  Co  Co9  1  0.15250201  0.74096141  0.09001533  1
  Co  Co10  1  0.34749799  0.24096141  0.90998467  1
  Co  Co11  1  0.41717577  0.79671637  0.43109762  1
  Co  Co12  1  0.58282423  0.20328363  0.56890238  1
  Co  Co13  1  0.65250201  0.75903859  0.09001533  1
  Co  Co14  1  0.84749799  0.25903859  0.90998467  1
  Co  Co15  1  0.91717577  0.70328363  0.43109762  1
  P  P16  1  0.10846996  0.79241058  0.43431633  1
  P  P17  1  0.13251152  0.24933802  0.90492805  1
  P  P18  1  0.36748848  0.74933802  0.09507195  1
  P  P19  1  0.39153004  0.29241058  0.56568367  1
  P  P20  1  0.60846996  0.70758942  0.43431633  1
  P  P21  1  0.63251152  0.25066198  0.90492805  1
  P  P22  1  0.86748848  0.75066198  0.09507195  1
  P  P23  1  0.89153004  0.20758942  0.56568367  1
  O  O24  1  0.02571881  0.74970738  0.54563678  1
  O  O25  1  0.07480568  0.38429695  0.78717572  1
  O  O26  1  0.08630854  0.89836985  0.27538141  1
  O  O27  1  0.16838174  0.98812468  0.51544281  1
  O  O28  1  0.15364215  0.52190887  0.42040357  1
  O  O29  1  0.11103396  0.95151057  0.91326815  1
  O  O30  1  0.11074376  0.37564731  0.06719762  1
  O  O31  1  0.22853168  0.29882640  0.84982269  1
  O  O32  1  0.27146832  0.79882640  0.15017731  1
  O  O33  1  0.38925624  0.87564731  0.93280238  1
  O  O34  1  0.38896604  0.45151057  0.08673185  1
  O  O35  1  0.34635785  0.02190887  0.57959643  1
  O  O36  1  0.33161826  0.48812468  0.48455719  1
  O  O37  1  0.41369146  0.39836985  0.72461859  1
  O  O38  1  0.42519432  0.88429695  0.21282428  1
  O  O39  1  0.47428119  0.24970738  0.45436322  1
  O  O40  1  0.52571881  0.75029262  0.54563678  1
  O  O41  1  0.57480568  0.11570305  0.78717572  1
  O  O42  1  0.58630854  0.60163015  0.27538141  1
  O  O43  1  0.66838174  0.51187532  0.51544281  1
  O  O44  1  0.65364215  0.97809113  0.42040357  1
  O  O45  1  0.61103396  0.54848943  0.91326815  1
  O  O46  1  0.61074376  0.12435269  0.06719762  1
  O  O47  1  0.72853168  0.20117360  0.84982269  1
  O  O48  1  0.77146832  0.70117360  0.15017731  1
  O  O49  1  0.88925624  0.62435269  0.93280238  1
  O  O50  1  0.88896604  0.04848943  0.08673185  1
  O  O51  1  0.84635785  0.47809113  0.57959643  1
  O  O52  1  0.83161826  0.01187532  0.48455719  1
  O  O53  1  0.91369146  0.10163015  0.72461859  1
  O  O54  1  0.92519432  0.61570305  0.21282428  1
  O  O55  1  0.97428119  0.25029262  0.45436322  1
