# generated using pymatgen
data_BaLaCl5
_symmetry_space_group_name_H-M   'P 1'
_cell_length_a   9.62124181
_cell_length_b   9.77587018
_cell_length_c   19.65246174
_cell_angle_alpha   90.00000000
_cell_angle_beta   94.34208913
_cell_angle_gamma   90.00000000
_symmetry_Int_Tables_number   1
_chemical_formula_structural   BaLaCl5
_chemical_formula_sum   'Ba8 La8 Cl40'
_cell_volume   1843.12675984
_cell_formula_units_Z   8
loop_
 _symmetry_equiv_pos_site_id
 _symmetry_equiv_pos_as_xyz
  1  'x, y, z'
loop_
 _atom_site_type_symbol
 _atom_site_label
 _atom_site_symmetry_multiplicity
 _atom_site_fract_x
 _atom_site_fract_y
 _atom_site_fract_z
 _atom_site_occupancy
  Ba  Ba0  1  0.99986378  0.84352330  0.63846379  1
  Ba  Ba1  1  0.99986378  0.65647670  0.13846379  1
  Ba  Ba2  1  0.31654222  0.84410486  0.91401153  1
  Ba  Ba3  1  0.31654222  0.65589514  0.41401153  1
  Ba  Ba4  1  0.68345778  0.34410486  0.58598847  1
  Ba  Ba5  1  0.68345778  0.15589514  0.08598847  1
  Ba  Ba6  1  0.00013622  0.34352330  0.86153621  1
  Ba  Ba7  1  0.00013622  0.15647670  0.36153621  1
  La  La8  1  0.17992392  0.32013430  0.62180109  1
  La  La9  1  0.17992392  0.17986570  0.12180109  1
  La  La10  1  0.49384474  0.37107654  0.83926035  1
  La  La11  1  0.50615526  0.87107654  0.66073965  1
  La  La12  1  0.49384474  0.12892346  0.33926035  1
  La  La13  1  0.50615526  0.62892346  0.16073965  1
  La  La14  1  0.82007608  0.82013430  0.87819891  1
  La  La15  1  0.82007608  0.67986570  0.37819891  1
  Cl  Cl16  1  0.97833498  0.52212852  0.60345073  1
  Cl  Cl17  1  0.02475881  0.17678950  0.71259079  1
  Cl  Cl18  1  0.03252968  0.16603192  0.52605598  1
  Cl  Cl19  1  0.97833498  0.97787148  0.10345073  1
  Cl  Cl20  1  0.02475881  0.32321050  0.21259079  1
  Cl  Cl21  1  0.03252968  0.33396808  0.02605598  1
  Cl  Cl22  1  0.28132804  0.50452986  0.90585181  1
  Cl  Cl23  1  0.31221094  0.46655748  0.72957522  1
  Cl  Cl24  1  0.29128642  0.83852266  0.74712318  1
  Cl  Cl25  1  0.33401718  0.14715389  0.85169840  1
  Cl  Cl26  1  0.29414933  0.79678589  0.56380533  1
  Cl  Cl27  1  0.28132804  0.99547014  0.40585181  1
  Cl  Cl28  1  0.36615749  0.42699052  0.53513119  1
  Cl  Cl29  1  0.31221094  0.03344252  0.22957522  1
  Cl  Cl30  1  0.29128642  0.66147734  0.24712318  1
  Cl  Cl31  1  0.41085912  0.14479474  0.64615864  1
  Cl  Cl32  1  0.33401718  0.35284611  0.35169840  1
  Cl  Cl33  1  0.29414933  0.70321411  0.06380533  1
  Cl  Cl34  1  0.36615749  0.07300948  0.03513119  1
  Cl  Cl35  1  0.41085912  0.35520526  0.14615864  1
  Cl  Cl36  1  0.58914088  0.64479474  0.85384136  1
  Cl  Cl37  1  0.63384251  0.92699052  0.96486881  1
  Cl  Cl38  1  0.70585067  0.29678589  0.93619467  1
  Cl  Cl39  1  0.66598282  0.64715389  0.64830160  1
  Cl  Cl40  1  0.58914088  0.85520526  0.35384136  1
  Cl  Cl41  1  0.70871358  0.33852266  0.75287682  1
  Cl  Cl42  1  0.68778906  0.96655748  0.77042478  1
  Cl  Cl43  1  0.63384251  0.57300948  0.46486881  1
  Cl  Cl44  1  0.71867196  0.00452986  0.59414819  1
  Cl  Cl45  1  0.70585067  0.20321411  0.43619467  1
  Cl  Cl46  1  0.66598282  0.85284611  0.14830160  1
  Cl  Cl47  1  0.70871358  0.16147734  0.25287682  1
  Cl  Cl48  1  0.68778906  0.53344252  0.27042478  1
  Cl  Cl49  1  0.71867196  0.49547014  0.09414819  1
  Cl  Cl50  1  0.96747032  0.66603192  0.97394402  1
  Cl  Cl51  1  0.97524119  0.67678950  0.78740921  1
  Cl  Cl52  1  0.02166502  0.02212852  0.89654927  1
  Cl  Cl53  1  0.96747032  0.83396808  0.47394402  1
  Cl  Cl54  1  0.97524119  0.82321050  0.28740921  1
  Cl  Cl55  1  0.02166502  0.47787148  0.39654927  1
