# generated using pymatgen
data_Li2Cr(BO2)5
_symmetry_space_group_name_H-M   'P 1'
_cell_length_a   7.14835019
_cell_length_b   15.61630370
_cell_length_c   7.13318900
_cell_angle_alpha   90.00000000
_cell_angle_beta   89.81638963
_cell_angle_gamma   90.00000000
_symmetry_Int_Tables_number   1
_chemical_formula_structural   Li2Cr(BO2)5
_chemical_formula_sum   'Li8 Cr4 B20 O40'
_cell_volume   796.27955906
_cell_formula_units_Z   4
loop_
 _symmetry_equiv_pos_site_id
 _symmetry_equiv_pos_as_xyz
  1  'x, y, z'
loop_
 _atom_site_type_symbol
 _atom_site_label
 _atom_site_symmetry_multiplicity
 _atom_site_fract_x
 _atom_site_fract_y
 _atom_site_fract_z
 _atom_site_occupancy
  Li  Li0  1  0.09846367  0.16693482  0.99793494  1
  Li  Li1  1  0.09846367  0.33306518  0.49793494  1
  Li  Li2  1  0.30513305  0.92342248  0.58930801  1
  Li  Li3  1  0.30513305  0.57657752  0.08930801  1
  Li  Li4  1  0.69486695  0.42342248  0.91069199  1
  Li  Li5  1  0.69486695  0.07657752  0.41069199  1
  Li  Li6  1  0.90153633  0.66693482  0.50206506  1
  Li  Li7  1  0.90153633  0.83306518  0.00206506  1
  Cr  Cr8  1  0.15550592  0.12453326  0.52999295  1
  Cr  Cr9  1  0.15550592  0.37546674  0.02999295  1
  Cr  Cr10  1  0.84449408  0.62453326  0.97000705  1
  Cr  Cr11  1  0.84449408  0.87546674  0.47000705  1
  B  B12  1  0.20680395  0.02404543  0.90706500  1
  B  B13  1  0.20680395  0.47595457  0.40706500  1
  B  B14  1  0.21567391  0.77410924  0.52333861  1
  B  B15  1  0.21567391  0.72589076  0.02333861  1
  B  B16  1  0.24943926  0.50495396  0.73787070  1
  B  B17  1  0.24943926  0.99504604  0.23787070  1
  B  B18  1  0.32069078  0.62083814  0.50602831  1
  B  B19  1  0.32069078  0.87916186  0.00602831  1
  B  B20  1  0.45301414  0.25842937  0.50035992  1
  B  B21  1  0.45301414  0.24157063  0.00035992  1
  B  B22  1  0.54698586  0.75842937  0.99964008  1
  B  B23  1  0.54698586  0.74157063  0.49964008  1
  B  B24  1  0.67930922  0.12083814  0.99397169  1
  B  B25  1  0.67930922  0.37916186  0.49397169  1
  B  B26  1  0.75056074  0.00495396  0.76212930  1
  B  B27  1  0.75056074  0.49504604  0.26212930  1
  B  B28  1  0.78432609  0.27410924  0.97666139  1
  B  B29  1  0.78432609  0.22589076  0.47666139  1
  B  B30  1  0.79319605  0.52404543  0.59293500  1
  B  B31  1  0.79319605  0.97595457  0.09293500  1
  O  O32  1  0.08791278  0.83809947  0.54237077  1
  O  O33  1  0.08791278  0.66190053  0.04237077  1
  O  O34  1  0.15629998  0.08568177  0.78205118  1
  O  O35  1  0.15629998  0.41431823  0.28205118  1
  O  O36  1  0.17140355  0.81024651  0.99534320  1
  O  O37  1  0.17395110  0.45260494  0.59644327  1
  O  O38  1  0.17140355  0.68975349  0.49534320  1
  O  O39  1  0.17395110  0.04739506  0.09644327  1
  O  O40  1  0.25376530  0.47830456  0.92231217  1
  O  O41  1  0.25376530  0.02169544  0.42231217  1
  O  O42  1  0.26788639  0.23408573  0.50407400  1
  O  O43  1  0.28040368  0.94604736  0.86078897  1
  O  O44  1  0.26788639  0.26591427  0.00407400  1
  O  O45  1  0.28040368  0.55395264  0.36078897  1
  O  O46  1  0.31883632  0.58306449  0.69430815  1
  O  O47  1  0.31883632  0.91693551  0.19430815  1
  O  O48  1  0.40416752  0.80118993  0.53688703  1
  O  O49  1  0.40416752  0.69881007  0.03688703  1
  O  O50  1  0.49626463  0.34167701  0.53154657  1
  O  O51  1  0.50373537  0.84167701  0.96845343  1
  O  O52  1  0.49626463  0.15832299  0.03154657  1
  O  O53  1  0.50373537  0.65832299  0.46845343  1
  O  O54  1  0.59583248  0.30118993  0.96311297  1
  O  O55  1  0.59583248  0.19881007  0.46311297  1
  O  O56  1  0.68116368  0.08306449  0.80569185  1
  O  O57  1  0.68116368  0.41693551  0.30569185  1
  O  O58  1  0.71959632  0.44604736  0.63921103  1
  O  O59  1  0.73211361  0.73408573  0.99592600  1
  O  O60  1  0.71959632  0.05395264  0.13921103  1
  O  O61  1  0.73211361  0.76591427  0.49592600  1
  O  O62  1  0.74623470  0.97830456  0.57768783  1
  O  O63  1  0.74623470  0.52169544  0.07768783  1
  O  O64  1  0.82604890  0.95260494  0.90355673  1
  O  O65  1  0.82859645  0.31024651  0.50465680  1
  O  O66  1  0.82604890  0.54739506  0.40355673  1
  O  O67  1  0.82859645  0.18975349  0.00465680  1
  O  O68  1  0.84370002  0.58568177  0.71794882  1
  O  O69  1  0.84370002  0.91431823  0.21794882  1
  O  O70  1  0.91208722  0.33809947  0.95762923  1
  O  O71  1  0.91208722  0.16190053  0.45762923  1
