# generated using pymatgen
data_NiH8(CO5)2
_symmetry_space_group_name_H-M   'P 1'
_cell_length_a   11.02903082
_cell_length_b   5.97600260
_cell_length_c   6.28013399
_cell_angle_alpha   90.00000000
_cell_angle_beta   97.73494254
_cell_angle_gamma   90.00000000
_symmetry_Int_Tables_number   1
_chemical_formula_structural   NiH8(CO5)2
_chemical_formula_sum   'Ni2 H16 C4 O20'
_cell_volume   410.15445843
_cell_formula_units_Z   2
loop_
 _symmetry_equiv_pos_site_id
 _symmetry_equiv_pos_as_xyz
  1  'x, y, z'
loop_
 _atom_site_type_symbol
 _atom_site_label
 _atom_site_symmetry_multiplicity
 _atom_site_fract_x
 _atom_site_fract_y
 _atom_site_fract_z
 _atom_site_occupancy
  Ni  Ni0  1  0.00000000  0.00000000  0.00000000  1
  Ni  Ni1  1  0.50000000  0.50000000  0.50000000  1
  H  H2  1  0.01556363  0.31069154  0.22932397  1
  H  H3  1  0.07055218  0.31669946  0.78767944  1
  H  H4  1  0.11750330  0.08692061  0.69677987  1
  H  H5  1  0.13977507  0.14526360  0.31111679  1
  H  H6  1  0.38249670  0.58692061  0.80322013  1
  H  H7  1  0.42944782  0.81669946  0.71232056  1
  H  H8  1  0.36022493  0.64526360  0.18888321  1
  H  H9  1  0.48443637  0.81069154  0.27067603  1
  H  H10  1  0.51556363  0.18930846  0.72932397  1
  H  H11  1  0.63977507  0.35473640  0.81111679  1
  H  H12  1  0.57055218  0.18330054  0.28767944  1
  H  H13  1  0.61750330  0.41307939  0.19677987  1
  H  H14  1  0.86022493  0.85473640  0.68888321  1
  H  H15  1  0.88249670  0.91307939  0.30322013  1
  H  H16  1  0.92944782  0.68330054  0.21232056  1
  H  H17  1  0.98443637  0.68930846  0.77067603  1
  C  C18  1  0.17620914  0.65466180  0.92257105  1
  C  C19  1  0.32379086  0.15466180  0.57742895  1
  C  C20  1  0.67620914  0.84533820  0.42257105  1
  C  C21  1  0.82379086  0.34533820  0.07742895  1
  O  O22  1  0.04552302  0.15221066  0.75945953  1
  O  O23  1  0.09809994  0.56814553  0.77482854  1
  O  O24  1  0.08613789  0.21297980  0.18087006  1
  O  O25  1  0.15043108  0.83219011  0.03144060  1
  O  O26  1  0.21642763  0.07462643  0.52774008  1
  O  O27  1  0.28357237  0.57462643  0.97225992  1
  O  O28  1  0.34956892  0.33219011  0.46855940  1
  O  O29  1  0.40190006  0.06814553  0.72517146  1
  O  O30  1  0.45447698  0.65221066  0.74054047  1
  O  O31  1  0.41386211  0.71297980  0.31912994  1
  O  O32  1  0.58613789  0.28702020  0.68087006  1
  O  O33  1  0.54552302  0.34778934  0.25945953  1
  O  O34  1  0.59809994  0.93185447  0.27482854  1
  O  O35  1  0.65043108  0.66780989  0.53144060  1
  O  O36  1  0.71642763  0.42537357  0.02774008  1
  O  O37  1  0.78357237  0.92537357  0.47225992  1
  O  O38  1  0.84956892  0.16780989  0.96855940  1
  O  O39  1  0.91386211  0.78702020  0.81912994  1
  O  O40  1  0.90190006  0.43185447  0.22517146  1
  O  O41  1  0.95447698  0.84778934  0.24054047  1
