# generated using pymatgen
data_Li3V(SO4)3
_symmetry_space_group_name_H-M   'P 1'
_cell_length_a   8.13329374
_cell_length_b   8.13329374
_cell_length_c   8.13329332
_cell_angle_alpha   106.93746029
_cell_angle_beta   106.93746022
_cell_angle_gamma   106.93746554
_symmetry_Int_Tables_number   1
_chemical_formula_structural   Li3V(SO4)3
_chemical_formula_sum   'Li6 V2 S6 O24'
_cell_volume   448.83136128
_cell_formula_units_Z   2
loop_
 _symmetry_equiv_pos_site_id
 _symmetry_equiv_pos_as_xyz
  1  'x, y, z'
loop_
 _atom_site_type_symbol
 _atom_site_label
 _atom_site_symmetry_multiplicity
 _atom_site_fract_x
 _atom_site_fract_y
 _atom_site_fract_z
 _atom_site_occupancy
  Li  Li0  1  0.22767867  0.84790610  0.40212147  1
  Li  Li1  1  0.15209390  0.59787853  0.77232133  1
  Li  Li2  1  0.59787853  0.77232133  0.15209390  1
  Li  Li3  1  0.40212147  0.22767867  0.84790610  1
  Li  Li4  1  0.84790610  0.40212147  0.22767867  1
  Li  Li5  1  0.77232133  0.15209390  0.59787853  1
  V  V6  1  0.00000000  0.00000000  0.00000000  1
  V  V7  1  0.50000000  0.50000000  0.50000000  1
  S  S8  1  0.54356875  0.90670973  0.76449849  1
  S  S9  1  0.23550151  0.45643125  0.09329027  1
  S  S10  1  0.09329027  0.23550151  0.45643125  1
  S  S11  1  0.90670973  0.76449849  0.54356875  1
  S  S12  1  0.76449849  0.54356875  0.90670973  1
  S  S13  1  0.45643125  0.09329027  0.23550151  1
  O  O14  1  0.02101251  0.87217564  0.75384997  1
  O  O15  1  0.24615003  0.97898749  0.12782436  1
  O  O16  1  0.03232163  0.70922307  0.46183217  1
  O  O17  1  0.53816783  0.96767837  0.29077693  1
  O  O18  1  0.13042225  0.53931047  0.18356117  1
  O  O19  1  0.46068953  0.81643883  0.86957875  1
  O  O20  1  0.51398126  0.76286080  0.57987990  1
  O  O21  1  0.29077693  0.53816783  0.96767837  1
  O  O22  1  0.23713920  0.42012010  0.48601874  1
  O  O23  1  0.12782436  0.24615003  0.97898749  1
  O  O24  1  0.42012010  0.48601874  0.23713920  1
  O  O25  1  0.81643883  0.86957875  0.46068953  1
  O  O26  1  0.18356117  0.13042225  0.53931047  1
  O  O27  1  0.57987990  0.51398126  0.76286080  1
  O  O28  1  0.87217564  0.75384997  0.02101251  1
  O  O29  1  0.76286080  0.57987990  0.51398126  1
  O  O30  1  0.70922307  0.46183217  0.03232163  1
  O  O31  1  0.48601874  0.23713920  0.42012010  1
  O  O32  1  0.53931047  0.18356117  0.13042225  1
  O  O33  1  0.86957875  0.46068953  0.81643883  1
  O  O34  1  0.46183217  0.03232163  0.70922307  1
  O  O35  1  0.96767837  0.29077693  0.53816783  1
  O  O36  1  0.75384997  0.02101251  0.87217564  1
  O  O37  1  0.97898749  0.12782436  0.24615003  1
