# generated using pymatgen
data_CuAg(AsO4)2
_symmetry_space_group_name_H-M   'P 1'
_cell_length_a   7.55811221
_cell_length_b   9.14767775
_cell_length_c   9.57311135
_cell_angle_alpha   105.16785053
_cell_angle_beta   90.00000000
_cell_angle_gamma   90.00000000
_symmetry_Int_Tables_number   1
_chemical_formula_structural   CuAg(AsO4)2
_chemical_formula_sum   'Cu4 Ag4 As8 O32'
_cell_volume   638.81951543
_cell_formula_units_Z   4
loop_
 _symmetry_equiv_pos_site_id
 _symmetry_equiv_pos_as_xyz
  1  'x, y, z'
loop_
 _atom_site_type_symbol
 _atom_site_label
 _atom_site_symmetry_multiplicity
 _atom_site_fract_x
 _atom_site_fract_y
 _atom_site_fract_z
 _atom_site_occupancy
  Cu  Cu0  1  0.31961294  0.39024777  0.99572521  1
  Cu  Cu1  1  0.81961294  0.60975223  0.50427479  1
  Cu  Cu2  1  0.68038706  0.60975223  0.00427479  1
  Cu  Cu3  1  0.18038706  0.39024777  0.49572521  1
  Ag  Ag4  1  0.75026158  0.20350760  0.49011530  1
  Ag  Ag5  1  0.25026158  0.79649240  0.00988470  1
  Ag  Ag6  1  0.24973842  0.79649240  0.50988470  1
  Ag  Ag7  1  0.74973842  0.20350760  0.99011530  1
  As  As8  1  0.20780244  0.05639356  0.33200202  1
  As  As9  1  0.70780244  0.94360644  0.16799798  1
  As  As10  1  0.79219756  0.94360644  0.66799798  1
  As  As11  1  0.29219756  0.05639356  0.83200202  1
  As  As12  1  0.00859306  0.48522282  0.80969890  1
  As  As13  1  0.50859306  0.51477718  0.69030110  1
  As  As14  1  0.99140694  0.51477718  0.19030110  1
  As  As15  1  0.49140694  0.48522282  0.30969890  1
  O  O16  1  0.40572605  0.08658631  0.42186901  1
  O  O17  1  0.90572605  0.91341369  0.07813099  1
  O  O18  1  0.59427395  0.91341369  0.57813099  1
  O  O19  1  0.09427395  0.08658631  0.92186901  1
  O  O20  1  0.06208346  0.21076684  0.39534765  1
  O  O21  1  0.56208346  0.78923316  0.10465235  1
  O  O22  1  0.93791654  0.78923316  0.60465235  1
  O  O23  1  0.43791654  0.21076684  0.89534765  1
  O  O24  1  0.26068988  0.02663418  0.15014842  1
  O  O25  1  0.76068988  0.97336582  0.34985158  1
  O  O26  1  0.73931012  0.97336582  0.84985158  1
  O  O27  1  0.23931012  0.02663418  0.65014842  1
  O  O28  1  0.11390083  0.88975921  0.35270476  1
  O  O29  1  0.61390083  0.11024079  0.14729524  1
  O  O30  1  0.88609917  0.11024079  0.64729524  1
  O  O31  1  0.38609917  0.88975921  0.85270476  1
  O  O32  1  0.04780194  0.67368063  0.86508243  1
  O  O33  1  0.54780194  0.32631937  0.63491757  1
  O  O34  1  0.95219806  0.32631937  0.13491757  1
  O  O35  1  0.45219806  0.67368063  0.36508243  1
  O  O36  1  0.17103975  0.36110179  0.83665727  1
  O  O37  1  0.67103975  0.63889821  0.66334273  1
  O  O38  1  0.82896025  0.63889821  0.16334273  1
  O  O39  1  0.32896025  0.36110179  0.33665727  1
  O  O40  1  0.98089770  0.42175251  0.62116482  1
  O  O41  1  0.48089770  0.57824749  0.87883518  1
  O  O42  1  0.01910230  0.57824749  0.37883518  1
  O  O43  1  0.51910230  0.42175251  0.12116482  1
  O  O44  1  0.80792092  0.44305036  0.88687352  1
  O  O45  1  0.30792092  0.55694964  0.61312648  1
  O  O46  1  0.19207908  0.55694964  0.11312648  1
  O  O47  1  0.69207908  0.44305036  0.38687352  1
