# generated using pymatgen
data_Li2Co3TeO8
_symmetry_space_group_name_H-M   'P 1'
_cell_length_a   5.91374540
_cell_length_b   5.91374575
_cell_length_c   5.91374562
_cell_angle_alpha   58.97218212
_cell_angle_beta   58.97218510
_cell_angle_gamma   58.97218321
_symmetry_Int_Tables_number   1
_chemical_formula_structural   Li2Co3TeO8
_chemical_formula_sum   'Li2 Co3 Te1 O8'
_cell_volume   142.81306525
_cell_formula_units_Z   1
loop_
 _symmetry_equiv_pos_site_id
 _symmetry_equiv_pos_as_xyz
  1  'x, y, z'
loop_
 _atom_site_type_symbol
 _atom_site_label
 _atom_site_symmetry_multiplicity
 _atom_site_fract_x
 _atom_site_fract_y
 _atom_site_fract_z
 _atom_site_occupancy
  Li  Li0  1  0.13281588  0.13281588  0.13281588  1
  Li  Li1  1  0.86718412  0.86718412  0.86718412  1
  Co  Co2  1  0.00000000  0.50000000  0.50000000  1
  Co  Co3  1  0.50000000  0.00000000  0.50000000  1
  Co  Co4  1  0.50000000  0.50000000  0.00000000  1
  Te  Te5  1  0.50000000  0.50000000  0.50000000  1
  O  O6  1  0.26855429  0.26855429  0.26855429  1
  O  O7  1  0.26337634  0.26337634  0.71765670  1
  O  O8  1  0.26337634  0.71765670  0.26337634  1
  O  O9  1  0.71765670  0.26337634  0.26337634  1
  O  O10  1  0.28234330  0.73662366  0.73662366  1
  O  O11  1  0.73662366  0.28234330  0.73662366  1
  O  O12  1  0.73662366  0.73662366  0.28234330  1
  O  O13  1  0.73144571  0.73144571  0.73144571  1
