# generated using pymatgen
data_Li2MnCSO7
_symmetry_space_group_name_H-M   'P 1'
_cell_length_a   8.91166329
_cell_length_b   6.55214972
_cell_length_c   5.01177675
_cell_angle_alpha   90.00000000
_cell_angle_beta   87.39875879
_cell_angle_gamma   90.00000000
_symmetry_Int_Tables_number   1
_chemical_formula_structural   Li2MnCSO7
_chemical_formula_sum   'Li4 Mn2 C2 S2 O14'
_cell_volume   292.33887120
_cell_formula_units_Z   2
loop_
 _symmetry_equiv_pos_site_id
 _symmetry_equiv_pos_as_xyz
  1  'x, y, z'
loop_
 _atom_site_type_symbol
 _atom_site_label
 _atom_site_symmetry_multiplicity
 _atom_site_fract_x
 _atom_site_fract_y
 _atom_site_fract_z
 _atom_site_occupancy
  Li  Li0  1  0.18182490  0.52381102  0.22613154  1
  Li  Li1  1  0.18182490  0.97618898  0.22613154  1
  Li  Li2  1  0.81817510  0.47618898  0.77386846  1
  Li  Li3  1  0.81817510  0.02381102  0.77386846  1
  Mn  Mn4  1  0.35866083  0.75000000  0.76697644  1
  Mn  Mn5  1  0.64133917  0.25000000  0.23302356  1
  C  C6  1  0.06160477  0.75000000  0.73522574  1
  C  C7  1  0.93839523  0.25000000  0.26477426  1
  S  S8  1  0.41627122  0.25000000  0.71954883  1
  S  S9  1  0.58372878  0.75000000  0.28045117  1
  O  O10  1  0.08124462  0.25000000  0.28425492  1
  O  O11  1  0.12345125  0.75000000  0.96767919  1
  O  O12  1  0.15473521  0.75000000  0.52392378  1
  O  O13  1  0.33538657  0.06831432  0.82789695  1
  O  O14  1  0.33538657  0.43168568  0.82789695  1
  O  O15  1  0.42352583  0.75000000  0.20069700  1
  O  O16  1  0.41824044  0.25000000  0.42068643  1
  O  O17  1  0.58175956  0.75000000  0.57931357  1
  O  O18  1  0.57647417  0.25000000  0.79930300  1
  O  O19  1  0.66461343  0.56831432  0.17210305  1
  O  O20  1  0.66461343  0.93168568  0.17210305  1
  O  O21  1  0.84526479  0.25000000  0.47607622  1
  O  O22  1  0.87654875  0.25000000  0.03232081  1
  O  O23  1  0.91875538  0.75000000  0.71574508  1
