# generated using pymatgen
data_K2SnPCO7
_symmetry_space_group_name_H-M   'P 1'
_cell_length_a   9.92127909
_cell_length_b   7.06317541
_cell_length_c   5.82614458
_cell_angle_alpha   90.00000000
_cell_angle_beta   93.46513136
_cell_angle_gamma   90.00000000
_symmetry_Int_Tables_number   1
_chemical_formula_structural   K2SnPCO7
_chemical_formula_sum   'K4 Sn2 P2 C2 O14'
_cell_volume   407.52494516
_cell_formula_units_Z   2
loop_
 _symmetry_equiv_pos_site_id
 _symmetry_equiv_pos_as_xyz
  1  'x, y, z'
loop_
 _atom_site_type_symbol
 _atom_site_label
 _atom_site_symmetry_multiplicity
 _atom_site_fract_x
 _atom_site_fract_y
 _atom_site_fract_z
 _atom_site_occupancy
  K  K0  1  0.22846962  0.01435319  0.24688932  1
  K  K1  1  0.22846962  0.48564681  0.24688932  1
  K  K2  1  0.77153038  0.51435319  0.75311068  1
  K  K3  1  0.77153038  0.98564681  0.75311068  1
  Sn  Sn4  1  0.36838141  0.75000000  0.78109395  1
  Sn  Sn5  1  0.63161859  0.25000000  0.21890605  1
  P  P6  1  0.42435681  0.25000000  0.71668952  1
  P  P7  1  0.57564319  0.75000000  0.28331048  1
  C  C8  1  0.09555149  0.75000000  0.72538404  1
  C  C9  1  0.90444851  0.25000000  0.27461596  1
  O  O10  1  0.03069382  0.25000000  0.28979937  1
  O  O11  1  0.16665468  0.75000000  0.92664482  1
  O  O12  1  0.17075382  0.75000000  0.54507693  1
  O  O13  1  0.34320297  0.07164175  0.78743026  1
  O  O14  1  0.34320297  0.42835825  0.78743026  1
  O  O15  1  0.43090011  0.75000000  0.15862228  1
  O  O16  1  0.43912870  0.25000000  0.45119141  1
  O  O17  1  0.56087130  0.75000000  0.54880859  1
  O  O18  1  0.56909989  0.25000000  0.84137772  1
  O  O19  1  0.65679703  0.57164175  0.21256974  1
  O  O20  1  0.65679703  0.92835825  0.21256974  1
  O  O21  1  0.82924618  0.25000000  0.45492307  1
  O  O22  1  0.83334532  0.25000000  0.07335518  1
  O  O23  1  0.96930618  0.75000000  0.71020063  1
