# generated using pymatgen
data_Fe2OF3
_symmetry_space_group_name_H-M   'P 1'
_cell_length_a   6.25315760
_cell_length_b   6.95695471
_cell_length_c   7.41603963
_cell_angle_alpha   90.00000000
_cell_angle_beta   114.93544756
_cell_angle_gamma   90.00000000
_symmetry_Int_Tables_number   1
_chemical_formula_structural   Fe2OF3
_chemical_formula_sum   'Fe8 O4 F12'
_cell_volume   292.54597830
_cell_formula_units_Z   4
loop_
 _symmetry_equiv_pos_site_id
 _symmetry_equiv_pos_as_xyz
  1  'x, y, z'
loop_
 _atom_site_type_symbol
 _atom_site_label
 _atom_site_symmetry_multiplicity
 _atom_site_fract_x
 _atom_site_fract_y
 _atom_site_fract_z
 _atom_site_occupancy
  Fe  Fe0  1  0.47654307  0.00000000  1.00000000  1
  Fe  Fe1  1  0.02345693  0.00000000  0.00000000  1
  Fe  Fe2  1  0.75000000  0.50000000  0.00000000  1
  Fe  Fe3  1  0.25000000  0.50000000  0.00000000  1
  Fe  Fe4  1  0.49644787  0.00000000  0.49289675  1
  Fe  Fe5  1  0.00355213  0.00000000  0.50710325  1
  Fe  Fe6  1  0.75000000  0.50000000  0.50000000  1
  Fe  Fe7  1  0.25000000  0.50000000  0.50000000  1
  O  O8  1  0.34642733  0.00000000  0.19285366  1
  O  O9  1  0.15357267  0.00000000  0.80714634  1
  O  O10  1  0.91046648  0.50000000  0.32093296  1
  O  O11  1  0.58953352  0.50000000  0.67906704  1
  F  F12  1  0.84434312  0.00000000  0.18868523  1
  F  F13  1  0.49854002  0.29094315  0.00000000  1
  F  F14  1  0.00145998  0.29094315  1.00000000  1
  F  F15  1  0.49854002  0.70905685  0.00000000  1
  F  F16  1  0.75000000  0.20824132  0.50000000  1
  F  F17  1  0.25000000  0.20824132  0.50000000  1
  F  F18  1  0.00145998  0.70905685  1.00000000  1
  F  F19  1  0.65565688  0.00000000  0.81131477  1
  F  F20  1  0.39882569  0.50000000  0.29765137  1
  F  F21  1  0.10117431  0.50000000  0.70234863  1
  F  F22  1  0.75000000  0.79175868  0.50000000  1
  F  F23  1  0.25000000  0.79175868  0.50000000  1
