# generated using pymatgen
data_Li5Mn2V3O10
_symmetry_space_group_name_H-M   'P 1'
_cell_length_a   5.15301862
_cell_length_b   5.29826170
_cell_length_c   7.87807398
_cell_angle_alpha   105.66861050
_cell_angle_beta   103.13421616
_cell_angle_gamma   101.95384944
_symmetry_Int_Tables_number   1
_chemical_formula_structural   Li5Mn2V3O10
_chemical_formula_sum   'Li5 Mn2 V3 O10'
_cell_volume   193.23231492
_cell_formula_units_Z   1
loop_
 _symmetry_equiv_pos_site_id
 _symmetry_equiv_pos_as_xyz
  1  'x, y, z'
loop_
 _atom_site_type_symbol
 _atom_site_label
 _atom_site_symmetry_multiplicity
 _atom_site_fract_x
 _atom_site_fract_y
 _atom_site_fract_z
 _atom_site_occupancy
  Li  Li0  1  0.20735374  0.93024544  0.41955606  1
  Li  Li1  1  0.38351362  0.27493649  0.76425354  1
  Li  Li2  1  0.50000000  0.50000000  0.50000000  1
  Li  Li3  1  0.61648638  0.72506351  0.23574646  1
  Li  Li4  1  0.79264626  0.06975456  0.58044394  1
  Mn  Mn5  1  0.09599701  0.69432473  0.68722856  1
  Mn  Mn6  1  0.90400299  0.30567527  0.31277144  1
  V  V7  1  0.69583747  0.89420840  0.89311228  1
  V  V8  1  0.30416253  0.10579160  0.10688772  1
  V  V9  1  0.00000000  0.50000000  0.00000000  1
  O  O10  1  0.05354373  0.12932756  0.86899715  1
  O  O11  1  0.32599367  0.72682129  0.94467133  1
  O  O12  1  0.13463970  0.30101557  0.53794008  1
  O  O13  1  0.23640599  0.45964939  0.23499797  1
  O  O14  1  0.44566387  0.90472708  0.66681210  1
  O  O15  1  0.55433613  0.09527292  0.33318790  1
  O  O16  1  0.76359401  0.54035061  0.76500203  1
  O  O17  1  0.86536030  0.69898443  0.46205992  1
  O  O18  1  0.67400633  0.27317871  0.05532867  1
  O  O19  1  0.94645627  0.87067244  0.13100285  1
