# generated using pymatgen
data_Ba6Sr11I34
_symmetry_space_group_name_H-M   'P 1'
_cell_length_a   11.95384406
_cell_length_b   15.47389666
_cell_length_c   15.59150884
_cell_angle_alpha   81.44675263
_cell_angle_beta   70.14638988
_cell_angle_gamma   71.15520053
_symmetry_Int_Tables_number   1
_chemical_formula_structural   Ba6Sr11I34
_chemical_formula_sum   'Ba6 Sr11 I34'
_cell_volume   2564.71423286
_cell_formula_units_Z   1
loop_
 _symmetry_equiv_pos_site_id
 _symmetry_equiv_pos_as_xyz
  1  'x, y, z'
loop_
 _atom_site_type_symbol
 _atom_site_label
 _atom_site_symmetry_multiplicity
 _atom_site_fract_x
 _atom_site_fract_y
 _atom_site_fract_z
 _atom_site_occupancy
  Ba  Ba0  1  0.33385091  0.33900342  0.00444634  1
  Ba  Ba1  1  0.25426958  0.66975576  0.31775470  1
  Ba  Ba2  1  0.41586572  0.03748217  0.79015537  1
  Ba  Ba3  1  0.58413428  0.96251783  0.20984463  1
  Ba  Ba4  1  0.74573042  0.33024424  0.68224530  1
  Ba  Ba5  1  0.66614909  0.66099658  0.99555366  1
  Sr  Sr6  1  0.00000000  0.00000000  0.50000000  1
  Sr  Sr7  1  0.19036733  0.99946419  0.17890137  1
  Sr  Sr8  1  0.10998542  0.74518056  0.01856238  1
  Sr  Sr9  1  0.26004451  0.27003676  0.37332159  1
  Sr  Sr10  1  0.18664947  0.49024370  0.70454343  1
  Sr  Sr11  1  0.32317406  0.75374572  0.68735431  1
  Sr  Sr12  1  0.67682594  0.24625428  0.31264569  1
  Sr  Sr13  1  0.81335053  0.50975630  0.29545657  1
  Sr  Sr14  1  0.73995549  0.72996324  0.62667841  1
  Sr  Sr15  1  0.89001458  0.25481944  0.98143762  1
  Sr  Sr16  1  0.80963267  0.00053581  0.82109863  1
  I  I17  1  0.16917487  0.11961453  0.99177356  1
  I  I18  1  0.11778304  0.40509682  0.23063902  1
  I  I19  1  0.07454441  0.17226486  0.53054592  1
  I  I20  1  0.34151543  0.14624216  0.18928593  1
  I  I21  1  0.05804027  0.83930924  0.20450149  1
  I  I22  1  0.08324270  0.38117989  0.90314520  1
  I  I23  1  0.16722644  0.39379429  0.54829752  1
  I  I24  1  0.36080753  0.61705690  0.07214062  1
  I  I25  1  0.43888359  0.39913005  0.27231756  1
  I  I26  1  0.04398905  0.87114508  0.67795380  1
  I  I27  1  0.51141732  0.10303596  0.39833550  1
  I  I28  1  0.17799312  0.62989657  0.84413254  1
  I  I29  1  0.28466035  0.89360806  0.35742175  1
  I  I30  1  0.30665972  0.62911719  0.53617117  1
  I  I31  1  0.46551571  0.87531571  0.07491760  1
  I  I32  1  0.75635361  0.11821836  0.13400885  1
  I  I33  1  0.43419519  0.35306896  0.75985014  1
  I  I34  1  0.56580481  0.64693104  0.24014986  1
  I  I35  1  0.24364639  0.88178164  0.86599115  1
  I  I36  1  0.53448429  0.12468429  0.92508240  1
  I  I37  1  0.69334028  0.37088281  0.46382883  1
  I  I38  1  0.71533965  0.10639194  0.64257825  1
  I  I39  1  0.82200688  0.37010343  0.15586746  1
  I  I40  1  0.48858268  0.89696404  0.60166450  1
  I  I41  1  0.95601095  0.12885492  0.32204620  1
  I  I42  1  0.56111641  0.60086995  0.72768244  1
  I  I43  1  0.63919247  0.38294310  0.92785938  1
  I  I44  1  0.83277356  0.60620571  0.45170248  1
  I  I45  1  0.91675730  0.61882011  0.09685480  1
  I  I46  1  0.94195973  0.16069076  0.79549851  1
  I  I47  1  0.65848457  0.85375784  0.81071407  1
  I  I48  1  0.92545559  0.82773514  0.46945408  1
  I  I49  1  0.88221696  0.59490318  0.76936098  1
  I  I50  1  0.83082513  0.88038547  0.00822644  1
