# generated using pymatgen
data_Mn3Cr5O16
_symmetry_space_group_name_H-M   'P 1'
_cell_length_a   5.82433955
_cell_length_b   5.81280555
_cell_length_c   8.87886715
_cell_angle_alpha   90.00634394
_cell_angle_beta   90.20768340
_cell_angle_gamma   119.93695257
_symmetry_Int_Tables_number   1
_chemical_formula_structural   Mn3Cr5O16
_chemical_formula_sum   'Mn3 Cr5 O16'
_cell_volume   260.49075312
_cell_formula_units_Z   1
loop_
 _symmetry_equiv_pos_site_id
 _symmetry_equiv_pos_as_xyz
  1  'x, y, z'
loop_
 _atom_site_type_symbol
 _atom_site_label
 _atom_site_symmetry_multiplicity
 _atom_site_fract_x
 _atom_site_fract_y
 _atom_site_fract_z
 _atom_site_occupancy
  Mn  Mn0  1  0.65735730  0.82869616  0.21295820  1
  Mn  Mn1  1  0.82992001  0.66177618  0.71166456  1
  Mn  Mn2  1  0.82993252  0.16816143  0.71166420  1
  Cr  Cr3  1  0.16059558  0.83146034  0.20718525  1
  Cr  Cr4  1  0.33980271  0.66988422  0.48867292  1
  Cr  Cr5  1  0.16057393  0.32913985  0.20703635  1
  Cr  Cr6  1  0.32824377  0.16414006  0.70424052  1
  Cr  Cr7  1  0.66608435  0.33308947  0.98668906  1
  O  O8  1  0.17248417  0.83433443  0.60438664  1
  O  O9  1  0.05533520  0.52767120  0.33687565  1
  O  O10  1  0.33854039  0.66933697  0.09845472  1
  O  O11  1  0.99140474  0.99569719  0.31703397  1
  O  O12  1  0.99247406  0.99626978  0.81660610  1
  O  O13  1  0.17249679  0.33813212  0.60440850  1
  O  O14  1  0.47686092  0.95437981  0.33925077  1
  O  O15  1  0.47675278  0.52246963  0.33919896  1
  O  O16  1  0.34466735  0.17231849  0.10741693  1
  O  O17  1  0.66146848  0.83071405  0.60115084  1
  O  O18  1  0.52353409  0.47634937  0.83770198  1
  O  O19  1  0.52352944  0.04725865  0.83769715  1
  O  O20  1  0.67425300  0.33710991  0.59922652  1
  O  O21  1  0.83310408  0.66124587  0.10390591  1
  O  O22  1  0.95742287  0.47874923  0.83841385  1
  O  O23  1  0.83316147  0.17181459  0.10388246  1
