# generated using pymatgen
data_SrAsO4
_symmetry_space_group_name_H-M   'P 1'
_cell_length_a   9.09067552
_cell_length_b   11.77497188
_cell_length_c   15.45558629
_cell_angle_alpha   73.67442910
_cell_angle_beta   74.96786505
_cell_angle_gamma   88.64034812
_symmetry_Int_Tables_number   1
_chemical_formula_structural   SrAsO4
_chemical_formula_sum   'Sr16 As16 O64'
_cell_volume   1531.20801616
_cell_formula_units_Z   16
loop_
 _symmetry_equiv_pos_site_id
 _symmetry_equiv_pos_as_xyz
  1  'x, y, z'
loop_
 _atom_site_type_symbol
 _atom_site_label
 _atom_site_symmetry_multiplicity
 _atom_site_fract_x
 _atom_site_fract_y
 _atom_site_fract_z
 _atom_site_occupancy
  Sr  Sr0  1  0.29488143  0.48900009  0.47116486  1
  Sr  Sr1  1  0.70511857  0.51099991  0.52883514  1
  Sr  Sr2  1  0.04305862  0.23815147  0.97216726  1
  Sr  Sr3  1  0.95694138  0.76184853  0.02783274  1
  Sr  Sr4  1  0.79046695  0.98342565  0.47574610  1
  Sr  Sr5  1  0.20953305  0.01657435  0.52425390  1
  Sr  Sr6  1  0.54168645  0.73372187  0.97499683  1
  Sr  Sr7  1  0.45831355  0.26627813  0.02500317  1
  Sr  Sr8  1  0.59672124  0.90853214  0.17372820  1
  Sr  Sr9  1  0.40327876  0.09146786  0.82627180  1
  Sr  Sr10  1  0.34755455  0.66067410  0.66990228  1
  Sr  Sr11  1  0.65244545  0.33932590  0.33009772  1
  Sr  Sr12  1  0.09573085  0.40803234  0.17190737  1
  Sr  Sr13  1  0.90426915  0.59196766  0.82809263  1
  Sr  Sr14  1  0.84597990  0.15823036  0.67528006  1
  Sr  Sr15  1  0.15402010  0.84176964  0.32471994  1
  As  As16  1  0.49266484  0.78373530  0.43215836  1
  As  As17  1  0.50733516  0.21626470  0.56784164  1
  As  As18  1  0.24026128  0.53162055  0.93360534  1
  As  As19  1  0.75973872  0.46837945  0.06639466  1
  As  As20  1  0.98939363  0.28054365  0.43702765  1
  As  As21  1  0.01060637  0.71945635  0.56297235  1
  As  As22  1  0.74136226  0.03255998  0.93612639  1
  As  As23  1  0.25863774  0.96744002  0.06387361  1
  As  As24  1  0.39040090  0.59315851  0.22054470  1
  As  As25  1  0.60959910  0.40684149  0.77945530  1
  As  As26  1  0.14311522  0.34822378  0.72211105  1
  As  As27  1  0.85688478  0.65177622  0.27788895  1
  As  As28  1  0.89180790  0.09658760  0.22311986  1
  As  As29  1  0.10819210  0.90341240  0.77688014  1
  As  As30  1  0.64004446  0.84383589  0.72133163  1
  As  As31  1  0.35995554  0.15616411  0.27866837  1
  O  O32  1  0.67696424  0.84910891  0.39978807  1
  O  O33  1  0.32303576  0.15089109  0.60021193  1
  O  O34  1  0.42305056  0.59690430  0.90620766  1
  O  O35  1  0.57694944  0.40309570  0.09379234  1
  O  O36  1  0.17275281  0.34429788  0.41045932  1
  O  O37  1  0.82724719  0.65570212  0.58954068  1
  O  O38  1  0.92664028  0.09589259  0.90543306  1
  O  O39  1  0.07335972  0.90410741  0.09456694  1
  O  O40  1  0.48448328  0.63734153  0.49585192  1
  O  O41  1  0.51551672  0.36265847  0.50414808  1
  O  O42  1  0.23216874  0.38446716  0.99576333  1
  O  O43  1  0.76783126  0.61553284  0.00423667  1
  O  O44  1  0.97938703  0.13360245  0.49899112  1
  O  O45  1  0.02061297  0.86639755  0.50100888  1
  O  O46  1  0.73054730  0.88571801  0.99920001  1
  O  O47  1  0.26945270  0.11428199  0.00079999  1
  O  O48  1  0.42873901  0.80027047  0.33506840  1
  O  O49  1  0.57126099  0.19972953  0.66493160  1
  O  O50  1  0.18274026  0.55146859  0.83372447  1
  O  O51  1  0.81725974  0.44853141  0.16627553  1
  O  O52  1  0.93126871  0.30098640  0.33739774  1
  O  O53  1  0.06873129  0.69901360  0.66260226  1
  O  O54  1  0.67787811  0.05147195  0.83847012  1
  O  O55  1  0.32212189  0.94852805  0.16152988  1
  O  O56  1  0.38964370  0.85643832  0.50801632  1
  O  O57  1  0.61035630  0.14356168  0.49198368  1
  O  O58  1  0.13225252  0.59975508  0.01141373  1
  O  O59  1  0.86774748  0.40024492  0.98858627  1
  O  O60  1  0.88502858  0.35035405  0.51494122  1
  O  O61  1  0.11497142  0.64964595  0.48505878  1
  O  O62  1  0.64216804  0.10654295  0.01245564  1
  O  O63  1  0.35783196  0.89345705  0.98754436  1
  O  O64  1  0.35486852  0.52492019  0.14167313  1
  O  O65  1  0.64513148  0.47507981  0.85832687  1
  O  O66  1  0.10245656  0.26152639  0.65665374  1
  O  O67  1  0.89754344  0.73847361  0.34334626  1
  O  O68  1  0.85269280  0.01121394  0.15632149  1
  O  O69  1  0.14730720  0.98878606  0.84367851  1
  O  O70  1  0.60593717  0.77727603  0.64115156  1
  O  O71  1  0.39406283  0.22272397  0.35884844  1
  O  O72  1  0.46451077  0.50536184  0.30546044  1
  O  O73  1  0.53548923  0.49463816  0.69453956  1
  O  O74  1  0.22659960  0.26692001  0.80621066  1
  O  O75  1  0.77340040  0.73307999  0.19378934  1
  O  O76  1  0.97401836  0.01559580  0.30802607  1
  O  O77  1  0.02598164  0.98440420  0.69197393  1
  O  O78  1  0.71199456  0.75587381  0.80710517  1
  O  O79  1  0.28800544  0.24412619  0.19289483  1
  O  O80  1  0.21863014  0.63776236  0.28148176  1
  O  O81  1  0.78136986  0.36223764  0.71851824  1
  O  O82  1  0.97237220  0.38557358  0.79022349  1
  O  O83  1  0.02762780  0.61442642  0.20977651  1
  O  O84  1  0.72082092  0.13466885  0.29049128  1
  O  O85  1  0.27917908  0.86533115  0.70950872  1
  O  O86  1  0.46790003  0.88952262  0.78107466  1
  O  O87  1  0.53209997  0.11047738  0.21892534  1
  O  O88  1  0.50806429  0.71428155  0.15130269  1
  O  O89  1  0.49193571  0.28571845  0.84869731  1
  O  O90  1  0.24971242  0.46931343  0.64557910  1
  O  O91  1  0.75028758  0.53068657  0.35442090  1
  O  O92  1  0.99956201  0.21767633  0.14716402  1
  O  O93  1  0.00043799  0.78232367  0.85283598  1
  O  O94  1  0.75944107  0.96448431  0.65277966  1
  O  O95  1  0.24055893  0.03551569  0.34722034  1
