# generated using pymatgen
data_Li6Cr(BO3)3
_symmetry_space_group_name_H-M   'P 1'
_cell_length_a   6.98738934
_cell_length_b   16.60805076
_cell_length_c   6.49899442
_cell_angle_alpha   90.00000000
_cell_angle_beta   103.73976717
_cell_angle_gamma   90.00000000
_symmetry_Int_Tables_number   1
_chemical_formula_structural   Li6Cr(BO3)3
_chemical_formula_sum   'Li24 Cr4 B12 O36'
_cell_volume   732.60679394
_cell_formula_units_Z   4
loop_
 _symmetry_equiv_pos_site_id
 _symmetry_equiv_pos_as_xyz
  1  'x, y, z'
loop_
 _atom_site_type_symbol
 _atom_site_label
 _atom_site_symmetry_multiplicity
 _atom_site_fract_x
 _atom_site_fract_y
 _atom_site_fract_z
 _atom_site_occupancy
  Li  Li0  1  0.06977370  0.99317746  0.67538501  1
  Li  Li1  1  0.13821438  0.55436027  0.59979651  1
  Li  Li2  1  0.06977370  0.50682254  0.17538501  1
  Li  Li3  1  0.31261658  0.46132463  0.94997900  1
  Li  Li4  1  0.13821438  0.94563973  0.09979651  1
  Li  Li5  1  0.27444695  0.70196265  0.62234394  1
  Li  Li6  1  0.31261658  0.03867537  0.44997900  1
  Li  Li7  1  0.40084223  0.29066988  0.94924252  1
  Li  Li8  1  0.45742244  0.95623694  0.83583307  1
  Li  Li9  1  0.27444695  0.79803735  0.12234394  1
  Li  Li10  1  0.40084223  0.20933012  0.44924252  1
  Li  Li11  1  0.45742244  0.54376306  0.33583307  1
  Li  Li12  1  0.54257756  0.45623694  0.66416693  1
  Li  Li13  1  0.59915777  0.79066988  0.55075748  1
  Li  Li14  1  0.72555305  0.20196265  0.87765606  1
  Li  Li15  1  0.54257756  0.04376306  0.16416693  1
  Li  Li16  1  0.59915777  0.70933012  0.05075748  1
  Li  Li17  1  0.68738342  0.96132463  0.55002100  1
  Li  Li18  1  0.72555305  0.29803735  0.37765606  1
  Li  Li19  1  0.86178562  0.05436027  0.90020349  1
  Li  Li20  1  0.68738342  0.53867537  0.05002100  1
  Li  Li21  1  0.93022630  0.49317746  0.82461499  1
  Li  Li22  1  0.86178562  0.44563973  0.40020349  1
  Li  Li23  1  0.93022630  0.00682254  0.32461499  1
  Cr  Cr24  1  0.05540869  0.19370049  0.66780412  1
  Cr  Cr25  1  0.05540869  0.30629951  0.16780412  1
  Cr  Cr26  1  0.94459131  0.69370049  0.83219588  1
  Cr  Cr27  1  0.94459131  0.80629951  0.33219588  1
  B  B28  1  0.08121575  0.36262961  0.64954217  1
  B  B29  1  0.08121575  0.13737039  0.14954217  1
  B  B30  1  0.27804151  0.87205040  0.49402073  1
  B  B31  1  0.42480689  0.11144924  0.80862008  1
  B  B32  1  0.27804151  0.62794960  0.99402173  1
  B  B33  1  0.42480689  0.38855076  0.30862008  1
  B  B34  1  0.57519311  0.61144924  0.69137992  1
  B  B35  1  0.72195849  0.37205040  0.00597827  1
  B  B36  1  0.57519311  0.88855076  0.19137992  1
  B  B37  1  0.72195849  0.12794960  0.50597827  1
  B  B38  1  0.91878425  0.86262961  0.85045783  1
  B  B39  1  0.91878425  0.63737039  0.35045783  1
  O  O40  1  0.99422013  0.66444539  0.55582188  1
  O  O41  1  0.10513459  0.58259590  0.94938319  1
  O  O42  1  0.10748224  0.44343710  0.68593584  1
  O  O43  1  0.10924968  0.30497317  0.80984703  1
  O  O44  1  0.99422013  0.83555461  0.05582188  1
  O  O45  1  0.10513459  0.91740410  0.44938319  1
  O  O46  1  0.24562171  0.70841637  0.93143649  1
  O  O47  1  0.10748224  0.05656290  0.18593584  1
  O  O48  1  0.10924968  0.19502683  0.30984703  1
  O  O49  1  0.29917881  0.04863812  0.74199073  1
  O  O50  1  0.24562171  0.79158363  0.43143649  1
  O  O51  1  0.29917881  0.45136188  0.24199073  1
  O  O52  1  0.35901543  0.19054016  0.75529647  1
  O  O53  1  0.38694679  0.59698826  0.57209371  1
  O  O54  1  0.53809768  0.40043740  0.91779913  1
  O  O55  1  0.46190232  0.90043740  0.58220087  1
  O  O56  1  0.35901543  0.30945984  0.25529647  1
  O  O57  1  0.61305321  0.09698826  0.92790629  1
  O  O58  1  0.38694679  0.90301174  0.07209371  1
  O  O59  1  0.64098457  0.69054016  0.74470353  1
  O  O60  1  0.53809768  0.09956260  0.41779913  1
  O  O61  1  0.46190232  0.59956260  0.08220087  1
  O  O62  1  0.61305321  0.40301174  0.42790629  1
  O  O63  1  0.64098457  0.80945984  0.24470353  1
  O  O64  1  0.70082119  0.54863812  0.75800927  1
  O  O65  1  0.75437829  0.20841637  0.56856351  1
  O  O66  1  0.70082119  0.95136188  0.25800927  1
  O  O67  1  0.89075032  0.80497317  0.69015297  1
  O  O68  1  0.89251776  0.94343710  0.81406416  1
  O  O69  1  0.75437829  0.29158363  0.06856351  1
  O  O70  1  0.89486541  0.08259590  0.55061681  1
  O  O71  1  0.00577987  0.16444539  0.94417812  1
  O  O72  1  0.89075032  0.69502683  0.19015297  1
  O  O73  1  0.89251776  0.55656290  0.31406416  1
  O  O74  1  0.89486541  0.41740410  0.05061681  1
  O  O75  1  0.00577987  0.33555461  0.44417812  1
