# generated using pymatgen
data_Li4VFe3O8
_symmetry_space_group_name_H-M   'P 1'
_cell_length_a   5.67760542
_cell_length_b   6.56522438
_cell_length_c   5.08180662
_cell_angle_alpha   90.34174354
_cell_angle_beta   89.99767286
_cell_angle_gamma   90.78611430
_symmetry_Int_Tables_number   1
_chemical_formula_structural   Li4VFe3O8
_chemical_formula_sum   'Li4 V1 Fe3 O8'
_cell_volume   189.40189127
_cell_formula_units_Z   1
loop_
 _symmetry_equiv_pos_site_id
 _symmetry_equiv_pos_as_xyz
  1  'x, y, z'
loop_
 _atom_site_type_symbol
 _atom_site_label
 _atom_site_symmetry_multiplicity
 _atom_site_fract_x
 _atom_site_fract_y
 _atom_site_fract_z
 _atom_site_occupancy
  Li  Li0  1  0.08825486  0.62072226  0.98790176  1
  Li  Li1  1  0.42147697  0.12813753  0.49930214  1
  Li  Li2  1  0.57632411  0.87562675  0.99162067  1
  Li  Li3  1  0.90918038  0.37255249  0.49550910  1
  V  V4  1  0.90894442  0.87024207  0.48747988  1
  Fe  Fe5  1  0.08523432  0.12982377  0.99033176  1
  Fe  Fe6  1  0.41769097  0.62142875  0.49333900  1
  Fe  Fe7  1  0.58416066  0.37445936  0.00533936  1
  O  O8  1  0.07230327  0.10563626  0.37177494  1
  O  O9  1  0.07215345  0.65016684  0.39158108  1
  O  O10  1  0.40737411  0.13245313  0.88964825  1
  O  O11  1  0.43029899  0.61136587  0.89976106  1
  O  O12  1  0.58237012  0.37239130  0.37829942  1
  O  O13  1  0.60407295  0.88541253  0.39640025  1
  O  O14  1  0.91303107  0.36328756  0.88958977  1
  O  O15  1  0.92712933  0.88629254  0.85852156  1
