# generated using pymatgen
data_Li2Cr(PO3)4
_symmetry_space_group_name_H-M   'P 1'
_cell_length_a   8.14183213
_cell_length_b   12.90280008
_cell_length_c   10.32381089
_cell_angle_alpha   90.00000000
_cell_angle_beta   101.42789402
_cell_angle_gamma   90.00000000
_symmetry_Int_Tables_number   1
_chemical_formula_structural   Li2Cr(PO3)4
_chemical_formula_sum   'Li8 Cr4 P16 O48'
_cell_volume   1063.04022520
_cell_formula_units_Z   4
loop_
 _symmetry_equiv_pos_site_id
 _symmetry_equiv_pos_as_xyz
  1  'x, y, z'
loop_
 _atom_site_type_symbol
 _atom_site_label
 _atom_site_symmetry_multiplicity
 _atom_site_fract_x
 _atom_site_fract_y
 _atom_site_fract_z
 _atom_site_occupancy
  Li  Li0  1  0.16254459  0.07678007  0.57243186  1
  Li  Li1  1  0.06431486  0.70045036  0.16122564  1
  Li  Li2  1  0.33745541  0.57678007  0.92756814  1
  Li  Li3  1  0.43568514  0.20045036  0.33877436  1
  Li  Li4  1  0.56431486  0.79954964  0.66122564  1
  Li  Li5  1  0.66254459  0.42321993  0.07243186  1
  Li  Li6  1  0.93568514  0.29954964  0.83877436  1
  Li  Li7  1  0.83745541  0.92321993  0.42756814  1
  Cr  Cr8  1  0.23657199  0.14889380  0.98252364  1
  Cr  Cr9  1  0.26342801  0.64889380  0.51747636  1
  Cr  Cr10  1  0.73657199  0.35110620  0.48252364  1
  Cr  Cr11  1  0.76342801  0.85110620  0.01747636  1
  P  P12  1  0.07875980  0.82089823  0.68494729  1
  P  P13  1  0.16433072  0.42126714  0.61416594  1
  P  P14  1  0.05305483  0.32931073  0.14754759  1
  P  P15  1  0.33566928  0.92126714  0.88583406  1
  P  P16  1  0.21798267  0.92989634  0.13746260  1
  P  P17  1  0.42124020  0.32089823  0.81505271  1
  P  P18  1  0.28201733  0.42989634  0.36253740  1
  P  P19  1  0.44694517  0.82931073  0.35245241  1
  P  P20  1  0.55305483  0.17068927  0.64754759  1
  P  P21  1  0.71798267  0.57010366  0.63746260  1
  P  P22  1  0.57875980  0.67910177  0.18494729  1
  P  P23  1  0.78201733  0.07010366  0.86253740  1
  P  P24  1  0.66433072  0.07873286  0.11416594  1
  P  P25  1  0.94694517  0.67068927  0.85245241  1
  P  P26  1  0.83566928  0.57873286  0.38583406  1
  P  P27  1  0.92124020  0.17910177  0.31505271  1
  O  O28  1  0.11991924  0.63961123  0.91924066  1
  O  O29  1  0.02299902  0.36631131  0.65869584  1
  O  O30  1  0.00069241  0.90182574  0.58789765  1
  O  O31  1  0.15527077  0.87314087  0.82357623  1
  O  O32  1  0.06714098  0.24605313  0.26827387  1
  O  O33  1  0.08622802  0.84942890  0.14215021  1
  O  O34  1  0.18312359  0.53666533  0.63390389  1
  O  O35  1  0.20975544  0.74959732  0.65252622  1
  O  O36  1  0.29024456  0.24959732  0.84747378  1
  O  O37  1  0.31687641  0.03666533  0.86609611  1
  O  O38  1  0.16215692  0.39261922  0.46216798  1
  O  O39  1  0.34472923  0.37314087  0.67642377  1
  O  O40  1  0.16747004  0.04096844  0.11170499  1
  O  O41  1  0.14519290  0.42868946  0.22460939  1
  O  O42  1  0.33775135  0.78626636  0.44139097  1
  O  O43  1  0.16224865  0.28626636  0.05860903  1
  O  O44  1  0.35480710  0.92868946  0.27539061  1
  O  O45  1  0.49930759  0.40182574  0.91210235  1
  O  O46  1  0.47700098  0.86631131  0.84130416  1
  O  O47  1  0.33252996  0.54096844  0.38829501  1
  O  O48  1  0.38008076  0.13961123  0.58075934  1
  O  O49  1  0.33784308  0.89261922  0.03783202  1
  O  O50  1  0.56714098  0.25394687  0.76827387  1
  O  O51  1  0.58622802  0.65057110  0.64215021  1
  O  O52  1  0.41377198  0.34942890  0.35784979  1
  O  O53  1  0.43285902  0.74605313  0.23172613  1
  O  O54  1  0.66215692  0.10738078  0.96216798  1
  O  O55  1  0.61991924  0.86038877  0.41924066  1
  O  O56  1  0.66747004  0.45903156  0.61170499  1
  O  O57  1  0.52299902  0.13368869  0.15869584  1
  O  O58  1  0.50069241  0.59817426  0.08789765  1
  O  O59  1  0.64519290  0.07131054  0.72460939  1
  O  O60  1  0.83775135  0.71373364  0.94139097  1
  O  O61  1  0.66224865  0.21373364  0.55860903  1
  O  O62  1  0.85480710  0.57131054  0.77539061  1
  O  O63  1  0.83252996  0.95903156  0.88829501  1
  O  O64  1  0.65527077  0.62685913  0.32357623  1
  O  O65  1  0.83784308  0.60738078  0.53783202  1
  O  O66  1  0.68312359  0.96333467  0.13390389  1
  O  O67  1  0.70975544  0.75040268  0.15252622  1
  O  O68  1  0.79024456  0.25040268  0.34747378  1
  O  O69  1  0.81687641  0.46333467  0.36609611  1
  O  O70  1  0.91377198  0.15057110  0.85784979  1
  O  O71  1  0.93285902  0.75394687  0.73172613  1
  O  O72  1  0.84472923  0.12685913  0.17642377  1
  O  O73  1  0.99930759  0.09817426  0.41210235  1
  O  O74  1  0.97700098  0.63368869  0.34130416  1
  O  O75  1  0.88008076  0.36038877  0.08075934  1
