# generated using pymatgen
data_Li4Ti3Nb3V2O16
_symmetry_space_group_name_H-M   'P 1'
_cell_length_a   6.07220784
_cell_length_b   6.01323746
_cell_length_c   10.02019720
_cell_angle_alpha   90.01477278
_cell_angle_beta   89.69943229
_cell_angle_gamma   119.68547328
_symmetry_Int_Tables_number   1
_chemical_formula_structural   Li4Ti3Nb3V2O16
_chemical_formula_sum   'Li4 Ti3 Nb3 V2 O16'
_cell_volume   317.84989274
_cell_formula_units_Z   1
loop_
 _symmetry_equiv_pos_site_id
 _symmetry_equiv_pos_as_xyz
  1  'x, y, z'
loop_
 _atom_site_type_symbol
 _atom_site_label
 _atom_site_symmetry_multiplicity
 _atom_site_fract_x
 _atom_site_fract_y
 _atom_site_fract_z
 _atom_site_occupancy
  Li  Li0  1  0.33612704  0.66809834  0.89888974  1
  Li  Li1  1  0.01423658  0.00695677  0.99632243  1
  Li  Li2  1  0.00828801  0.00404662  0.49765795  1
  Li  Li3  1  0.66324423  0.33177647  0.38867785  1
  Ti  Ti4  1  0.16804594  0.83203758  0.21616521  1
  Ti  Ti5  1  0.16749604  0.33623955  0.21639983  1
  Ti  Ti6  1  0.32562818  0.16294564  0.71824139  1
  Nb  Nb7  1  0.66257865  0.83121339  0.21381729  1
  Nb  Nb8  1  0.83231374  0.64415663  0.71147416  1
  Nb  Nb9  1  0.83218852  0.18804455  0.71150425  1
  V  V10  1  0.33827986  0.66915755  0.48393795  1
  V  V11  1  0.66475436  0.33234680  0.99045042  1
  O  O12  1  0.16091978  0.84175650  0.60627116  1
  O  O13  1  0.03725671  0.51863422  0.32816748  1
  O  O14  1  0.32911354  0.66452147  0.10603311  1
  O  O15  1  0.00420205  0.00214638  0.31662485  1
  O  O16  1  0.00830096  0.00421700  0.81473678  1
  O  O17  1  0.16095838  0.31916373  0.60629804  1
  O  O18  1  0.47814115  0.96624232  0.33141961  1
  O  O19  1  0.47811283  0.51198045  0.33144044  1
  O  O20  1  0.31246555  0.15610529  0.10943410  1
  O  O21  1  0.68638859  0.84311135  0.59998215  1
  O  O22  1  0.51748837  0.47911792  0.83038508  1
  O  O23  1  0.51740311  0.03836850  0.83033900  1
  O  O24  1  0.62976064  0.31479434  0.59503676  1
  O  O25  1  0.84474792  0.68511220  0.10459072  1
  O  O26  1  0.97682833  0.48848752  0.84897534  1
  O  O27  1  0.84473095  0.15952093  0.10456792  1
