# generated using pymatgen
data_Li2Cr2(Si2O5)3
_symmetry_space_group_name_H-M   'P 1'
_cell_length_a   11.44334593
_cell_length_b   11.44334593
_cell_length_c   10.26334727
_cell_angle_alpha   90.00000000
_cell_angle_beta   90.00000000
_cell_angle_gamma   79.22104116
_symmetry_Int_Tables_number   1
_chemical_formula_structural   Li2Cr2(Si2O5)3
_chemical_formula_sum   'Li8 Cr8 Si24 O60'
_cell_volume   1320.27372010
_cell_formula_units_Z   4
loop_
 _symmetry_equiv_pos_site_id
 _symmetry_equiv_pos_as_xyz
  1  'x, y, z'
loop_
 _atom_site_type_symbol
 _atom_site_label
 _atom_site_symmetry_multiplicity
 _atom_site_fract_x
 _atom_site_fract_y
 _atom_site_fract_z
 _atom_site_occupancy
  Li  Li0  1  0.99957587  0.49957587  0.75000000  1
  Li  Li1  1  0.50042413  0.00042413  0.25000000  1
  Li  Li2  1  0.60059257  0.60059257  0.72628496  1
  Li  Li3  1  0.10059257  0.10059257  0.77371504  1
  Li  Li4  1  0.89940743  0.89940743  0.22628496  1
  Li  Li5  1  0.39940743  0.39940743  0.27371504  1
  Li  Li6  1  0.49957587  0.99957587  0.75000000  1
  Li  Li7  1  0.00042413  0.50042413  0.25000000  1
  Cr  Cr8  1  0.24291736  0.75708264  0.00000000  1
  Cr  Cr9  1  0.15955999  0.65955999  0.25000000  1
  Cr  Cr10  1  0.34044001  0.84044001  0.75000000  1
  Cr  Cr11  1  0.25708264  0.74291736  0.50000000  1
  Cr  Cr12  1  0.74291736  0.25708264  0.50000000  1
  Cr  Cr13  1  0.65955999  0.15955999  0.25000000  1
  Cr  Cr14  1  0.84044001  0.34044001  0.75000000  1
  Cr  Cr15  1  0.75708264  0.24291736  0.00000000  1
  Si  Si16  1  0.18661617  0.96572150  0.19233957  1
  Si  Si17  1  0.03427850  0.81338383  0.80766043  1
  Si  Si18  1  0.08350885  0.30476270  0.96288761  1
  Si  Si19  1  0.19523730  0.41649115  0.46288761  1
  Si  Si20  1  0.58350885  0.80476270  0.53711239  1
  Si  Si21  1  0.69523730  0.91649115  0.03711239  1
  Si  Si22  1  0.31338383  0.53427850  0.69233957  1
  Si  Si23  1  0.46572150  0.68661617  0.30766043  1
  Si  Si24  1  0.02025466  0.23766041  0.48928871  1
  Si  Si25  1  0.52025466  0.73766041  0.01071129  1
  Si  Si26  1  0.76233959  0.97974534  0.51071129  1
  Si  Si27  1  0.26233959  0.47974534  0.98928871  1
  Si  Si28  1  0.97974534  0.76233959  0.51071129  1
  Si  Si29  1  0.23766041  0.02025466  0.48928871  1
  Si  Si30  1  0.73766041  0.52025466  0.01071129  1
  Si  Si31  1  0.47974534  0.26233959  0.98928871  1
  Si  Si32  1  0.68661617  0.46572150  0.30766043  1
  Si  Si33  1  0.53427850  0.31338383  0.69233957  1
  Si  Si34  1  0.41649115  0.19523730  0.46288761  1
  Si  Si35  1  0.30476270  0.08350885  0.96288761  1
  Si  Si36  1  0.80476270  0.58350885  0.53711239  1
  Si  Si37  1  0.91649115  0.69523730  0.03711239  1
  Si  Si38  1  0.81338383  0.03427850  0.80766043  1
  Si  Si39  1  0.96572150  0.18661617  0.19233957  1
  O  O40  1  0.02640821  0.75240214  0.66297371  1
  O  O41  1  0.24759786  0.97359179  0.33702629  1
  O  O42  1  0.15097511  0.83942080  0.15827030  1
  O  O43  1  0.16057920  0.84902489  0.84172970  1
  O  O44  1  0.24527229  0.90787784  0.58599643  1
  O  O45  1  0.09212216  0.75472771  0.41400357  1
  O  O46  1  0.25472771  0.59212216  0.08599643  1
  O  O47  1  0.40787784  0.74527229  0.91400357  1
  O  O48  1  0.34902489  0.66057920  0.65827030  1
  O  O49  1  0.33942080  0.65097511  0.34172970  1
  O  O50  1  0.15498136  0.48306789  0.32923726  1
  O  O51  1  0.01693211  0.34501864  0.82923726  1
  O  O52  1  0.65498136  0.98306789  0.17076274  1
  O  O53  1  0.51693211  0.84501864  0.67076274  1
  O  O54  1  0.21461800  0.50390723  0.58628185  1
  O  O55  1  0.99609277  0.28538200  0.08628185  1
  O  O56  1  0.71461800  0.00390723  0.91371815  1
  O  O57  1  0.49609277  0.78538200  0.41371815  1
  O  O58  1  0.09407249  0.34406657  0.51759068  1
  O  O59  1  0.15593343  0.40592751  0.01759068  1
  O  O60  1  0.59407249  0.84406657  0.98240932  1
  O  O61  1  0.65593343  0.90592751  0.48240932  1
  O  O62  1  0.47359179  0.74759786  0.16297371  1
  O  O63  1  0.25240214  0.52640821  0.83702629  1
  O  O64  1  0.93416766  0.93416766  0.81403354  1
  O  O65  1  0.60976882  0.60976882  0.97969404  1
  O  O66  1  0.06583234  0.06583234  0.18596646  1
  O  O67  1  0.32477926  0.32477926  0.43361816  1
  O  O68  1  0.10976882  0.10976882  0.52030596  1
  O  O69  1  0.17522074  0.17522074  0.93361816  1
  O  O70  1  0.43416766  0.43416766  0.68596646  1
  O  O71  1  0.39023118  0.39023118  0.02030596  1
  O  O72  1  0.56583234  0.56583234  0.31403354  1
  O  O73  1  0.82477926  0.82477926  0.06638184  1
  O  O74  1  0.89023118  0.89023118  0.47969404  1
  O  O75  1  0.67522074  0.67522074  0.56638184  1
  O  O76  1  0.74759786  0.47359179  0.16297371  1
  O  O77  1  0.52640821  0.25240214  0.83702629  1
  O  O78  1  0.84406657  0.59407249  0.98240932  1
  O  O79  1  0.40592751  0.15593343  0.01759068  1
  O  O80  1  0.34406657  0.09407249  0.51759068  1
  O  O81  1  0.90592751  0.65593343  0.48240932  1
  O  O82  1  0.78538200  0.49609277  0.41371815  1
  O  O83  1  0.28538200  0.99609277  0.08628185  1
  O  O84  1  0.50390723  0.21461800  0.58628185  1
  O  O85  1  0.00390723  0.71461800  0.91371815  1
  O  O86  1  0.34501864  0.01693211  0.82923726  1
  O  O87  1  0.84501864  0.51693211  0.67076274  1
  O  O88  1  0.48306789  0.15498136  0.32923726  1
  O  O89  1  0.98306789  0.65498136  0.17076274  1
  O  O90  1  0.65097511  0.33942080  0.34172970  1
  O  O91  1  0.66057920  0.34902489  0.65827030  1
  O  O92  1  0.59212216  0.25472771  0.08599643  1
  O  O93  1  0.74527229  0.40787784  0.91400357  1
  O  O94  1  0.75472771  0.09212216  0.41400357  1
  O  O95  1  0.90787784  0.24527229  0.58599643  1
  O  O96  1  0.83942080  0.15097511  0.15827030  1
  O  O97  1  0.84902489  0.16057920  0.84172970  1
  O  O98  1  0.97359179  0.24759786  0.33702629  1
  O  O99  1  0.75240214  0.02640821  0.66297371  1
