# generated using pymatgen
data_Li9(CoO4)2
_symmetry_space_group_name_H-M   'P 1'
_cell_length_a   6.39903715
_cell_length_b   6.39902847
_cell_length_c   4.74285130
_cell_angle_alpha   89.41501426
_cell_angle_beta   90.58467502
_cell_angle_gamma   90.61644163
_symmetry_Int_Tables_number   1
_chemical_formula_structural   Li9(CoO4)2
_chemical_formula_sum   'Li9 Co2 O8'
_cell_volume   194.17721915
_cell_formula_units_Z   1
loop_
 _symmetry_equiv_pos_site_id
 _symmetry_equiv_pos_as_xyz
  1  'x, y, z'
loop_
 _atom_site_type_symbol
 _atom_site_label
 _atom_site_symmetry_multiplicity
 _atom_site_fract_x
 _atom_site_fract_y
 _atom_site_fract_z
 _atom_site_occupancy
  Li  Li0  1  0.06691300  0.56691841  0.75000227  1
  Li  Li1  1  0.24228302  0.24763966  0.67781808  1
  Li  Li2  1  0.27168968  0.22342627  0.18289216  1
  Li  Li3  1  0.45311647  0.95312608  0.74999837  1
  Li  Li4  1  0.52983596  0.46305021  0.24646915  1
  Li  Li5  1  0.72341683  0.77169976  0.31710717  1
  Li  Li6  1  0.74763670  0.74230004  0.82218075  1
  Li  Li7  1  0.96304060  0.02984432  0.25353319  1
  Li  Li8  1  0.97201869  0.47202729  0.25000121  1
  Co  Co9  1  0.25570349  0.75571118  0.24999883  1
  Co  Co10  1  0.75175567  0.25176845  0.75000137  1
  O  O11  1  0.99707052  0.26724497  0.96042094  1
  O  O12  1  0.24149795  0.00169558  0.44858644  1
  O  O13  1  0.24598579  0.48209148  0.42224756  1
  O  O14  1  0.50853223  0.24431657  0.93852840  1
  O  O15  1  0.50168907  0.74150935  0.05141327  1
  O  O16  1  0.74430426  0.00854542  0.56146782  1
  O  O17  1  0.76723717  0.49708300  0.53958111  1
  O  O18  1  0.98208490  0.74599398  0.07775193  1
