# generated using pymatgen
data_Na4Be2Si6SnO20
_symmetry_space_group_name_H-M   'P 1'
_cell_length_a   7.51305571
_cell_length_b   11.17394609
_cell_length_c   12.01257315
_cell_angle_alpha   115.30567686
_cell_angle_beta   90.00000000
_cell_angle_gamma   109.64469379
_symmetry_Int_Tables_number   1
_chemical_formula_structural   Na4Be2Si6SnO20
_chemical_formula_sum   'Na8 Be4 Si12 Sn2 O40'
_cell_volume   846.30719374
_cell_formula_units_Z   2
loop_
 _symmetry_equiv_pos_site_id
 _symmetry_equiv_pos_as_xyz
  1  'x, y, z'
loop_
 _atom_site_type_symbol
 _atom_site_label
 _atom_site_symmetry_multiplicity
 _atom_site_fract_x
 _atom_site_fract_y
 _atom_site_fract_z
 _atom_site_occupancy
  Na  Na0  1  0.94220436  0.39178933  0.05059272  1
  Na  Na1  1  0.44958497  0.39178933  0.55059272  1
  Na  Na2  1  0.54818225  0.59455034  0.44689073  1
  Na  Na3  1  0.04636808  0.59455034  0.94689073  1
  Na  Na4  1  0.45736158  0.98374675  0.02358350  1
  Na  Na5  1  0.52638518  0.98374675  0.52358350  1
  Na  Na6  1  0.99965644  0.99367427  0.01656371  1
  Na  Na7  1  0.99401783  0.99367427  0.51656371  1
  Be  Be8  1  0.84384814  0.49854580  0.50356198  1
  Be  Be9  1  0.65469766  0.49854580  0.00356198  1
  Be  Be10  1  0.15567050  0.49798588  0.50318975  1
  Be  Be11  1  0.34231538  0.49798588  0.00318975  1
  Si  Si12  1  0.68953434  0.29010400  0.25697591  1
  Si  Si13  1  0.60056966  0.29010400  0.75697591  1
  Si  Si14  1  0.40268904  0.70749253  0.25008378  1
  Si  Si15  1  0.30480349  0.70749253  0.75008378  1
  Si  Si16  1  0.09506787  0.28964391  0.25660925  1
  Si  Si17  1  0.19457604  0.28964391  0.75660925  1
  Si  Si18  1  0.81076236  0.70671590  0.24868836  1
  Si  Si19  1  0.89595354  0.70671590  0.74868836  1
  Si  Si20  1  0.12017694  0.73221251  0.45031819  1
  Si  Si21  1  0.61203556  0.73221251  0.95031819  1
  Si  Si22  1  0.38006433  0.26440615  0.05665278  1
  Si  Si23  1  0.88434182  0.26440615  0.55665278  1
  Sn  Sn24  1  0.74471677  0.99935700  0.25538794  1
  Sn  Sn25  1  0.25464023  0.99935700  0.75538794  1
  O  O26  1  0.88636930  0.86563228  0.25388955  1
  O  O27  1  0.97926297  0.86563228  0.75388955  1
  O  O28  1  0.48532874  0.86939675  0.26651022  1
  O  O29  1  0.38406801  0.86939675  0.76651022  1
  O  O30  1  0.67674478  0.41372943  0.38638046  1
  O  O31  1  0.73698466  0.41372943  0.88638046  1
  O  O32  1  0.23641744  0.41147286  0.38514167  1
  O  O33  1  0.17505542  0.41147286  0.88514167  1
  O  O34  1  0.93327072  0.72488207  0.37315236  1
  O  O35  1  0.79161135  0.72488207  0.87315236  1
  O  O36  1  0.56932128  0.28165016  0.13779178  1
  O  O37  1  0.71232889  0.28165016  0.63779178  1
  O  O38  1  0.58908918  0.67062523  0.28209539  1
  O  O39  1  0.08153605  0.67062523  0.78209539  1
  O  O40  1  0.05214276  0.60578134  0.49203420  1
  O  O41  1  0.55363858  0.60578134  0.99203420  1
  O  O42  1  0.68471925  0.89660967  0.06048932  1
  O  O43  1  0.21189042  0.89660967  0.56048932  1
  O  O44  1  0.00868568  0.12900094  0.24489544  1
  O  O45  1  0.12031525  0.12900094  0.74489544  1
  O  O46  1  0.60756512  0.12846890  0.24405265  1
  O  O47  1  0.52090378  0.12846890  0.74405265  1
  O  O48  1  0.26347669  0.58484016  0.12088020  1
  O  O49  1  0.32136347  0.58484016  0.62088020  1
  O  O50  1  0.82349641  0.58098077  0.12098630  1
  O  O51  1  0.75748436  0.58098077  0.62098630  1
  O  O52  1  0.20335074  0.27878564  0.13498369  1
  O  O53  1  0.07543490  0.27878564  0.63498369  1
  O  O54  1  0.29177106  0.71113108  0.36917831  1
  O  O55  1  0.41936002  0.71113108  0.86917831  1
  O  O56  1  0.91181192  0.32885251  0.22552563  1
  O  O57  1  0.41704059  0.32885251  0.72552563  1
  O  O58  1  0.94530665  0.38927500  0.51313790  1
  O  O59  1  0.44396836  0.38927500  0.01313790  1
  O  O60  1  0.79964579  0.09765082  0.44954171  1
  O  O61  1  0.29800503  0.09765082  0.94954171  1
  O  O62  1  0.12376430  0.85437171  0.10424021  1
  O  O63  1  0.73060741  0.85437171  0.60424021  1
  O  O64  1  0.31306508  0.12863831  0.40219443  1
  O  O65  1  0.81557323  0.12863831  0.90219443  1
