# generated using pymatgen
data_LiV2(SiO4)2
_symmetry_space_group_name_H-M   'P 1'
_cell_length_a   5.85712029
_cell_length_b   10.12537847
_cell_length_c   4.86773897
_cell_angle_alpha   90.00000000
_cell_angle_beta   89.87188338
_cell_angle_gamma   90.00000000
_symmetry_Int_Tables_number   1
_chemical_formula_structural   LiV2(SiO4)2
_chemical_formula_sum   'Li2 V4 Si4 O16'
_cell_volume   288.68326266
_cell_formula_units_Z   2
loop_
 _symmetry_equiv_pos_site_id
 _symmetry_equiv_pos_as_xyz
  1  'x, y, z'
loop_
 _atom_site_type_symbol
 _atom_site_label
 _atom_site_symmetry_multiplicity
 _atom_site_fract_x
 _atom_site_fract_y
 _atom_site_fract_z
 _atom_site_occupancy
  Li  Li0  1  0.28908951  0.28463642  0.25928854  1
  Li  Li1  1  0.71091049  0.78463642  0.74071146  1
  V  V2  1  0.00945610  0.53134905  0.75125963  1
  V  V3  1  0.49013227  0.06508446  0.75023264  1
  V  V4  1  0.50986773  0.56508446  0.24976736  1
  V  V5  1  0.99054390  0.03134905  0.24874037  1
  Si  Si6  1  0.00822415  0.70374406  0.18921101  1
  Si  Si7  1  0.49643013  0.89376525  0.30582343  1
  Si  Si8  1  0.50356987  0.39376525  0.69417657  1
  Si  Si9  1  0.99177585  0.20374406  0.81078899  1
  O  O10  1  0.99372976  0.68225935  0.52030421  1
  O  O11  1  0.99143411  0.36170584  0.88932592  1
  O  O12  1  0.20573264  0.13427244  0.98555113  1
  O  O13  1  0.21338456  0.62109231  0.02946110  1
  O  O14  1  0.28780750  0.98069316  0.45806842  1
  O  O15  1  0.28439450  0.47001459  0.53463614  1
  O  O16  1  0.50154714  0.24278016  0.58469778  1
  O  O17  1  0.51207692  0.90543392  0.97521278  1
  O  O18  1  0.48792308  0.40543392  0.02478722  1
  O  O19  1  0.49845286  0.74278016  0.41530222  1
  O  O20  1  0.71560550  0.97001459  0.46536386  1
  O  O21  1  0.71219250  0.48069316  0.54193158  1
  O  O22  1  0.78661544  0.12109231  0.97053890  1
  O  O23  1  0.79426736  0.63427244  0.01444887  1
  O  O24  1  0.00856589  0.86170584  0.11067408  1
  O  O25  1  0.00627024  0.18225935  0.47969579  1
