# generated using pymatgen
data_Li2Cr5O12
_symmetry_space_group_name_H-M   'P 1'
_cell_length_a   12.53342022
_cell_length_b   9.10772354
_cell_length_c   9.06043755
_cell_angle_alpha   90.00000000
_cell_angle_beta   90.00000000
_cell_angle_gamma   90.00000000
_symmetry_Int_Tables_number   1
_chemical_formula_structural   Li2Cr5O12
_chemical_formula_sum   'Li8 Cr20 O48'
_cell_volume   1034.25733969
_cell_formula_units_Z   4
loop_
 _symmetry_equiv_pos_site_id
 _symmetry_equiv_pos_as_xyz
  1  'x, y, z'
loop_
 _atom_site_type_symbol
 _atom_site_label
 _atom_site_symmetry_multiplicity
 _atom_site_fract_x
 _atom_site_fract_y
 _atom_site_fract_z
 _atom_site_occupancy
  Li  Li0  1  0.18900034  0.21767456  0.27284575  1
  Li  Li1  1  0.18900034  0.78232544  0.77284575  1
  Li  Li2  1  0.31099966  0.28232544  0.77284575  1
  Li  Li3  1  0.31099966  0.71767456  0.27284575  1
  Li  Li4  1  0.68900034  0.28232544  0.72715425  1
  Li  Li5  1  0.68900034  0.71767456  0.22715425  1
  Li  Li6  1  0.81099966  0.21767456  0.22715425  1
  Li  Li7  1  0.81099966  0.78232544  0.72715425  1
  Cr  Cr8  1  0.00000000  0.46268411  0.25000000  1
  Cr  Cr9  1  0.00000000  0.53731589  0.75000000  1
  Cr  Cr10  1  0.12044465  0.24878096  0.96679402  1
  Cr  Cr11  1  0.12044465  0.75121904  0.46679402  1
  Cr  Cr12  1  0.14244854  0.09965183  0.60425526  1
  Cr  Cr13  1  0.14244854  0.90034817  0.10425526  1
  Cr  Cr14  1  0.35755146  0.40034817  0.10425526  1
  Cr  Cr15  1  0.35755146  0.59965183  0.60425526  1
  Cr  Cr16  1  0.37955535  0.25121904  0.46679402  1
  Cr  Cr17  1  0.37955535  0.74878096  0.96679402  1
  Cr  Cr18  1  0.50000000  0.03731589  0.75000000  1
  Cr  Cr19  1  0.50000000  0.96268411  0.25000000  1
  Cr  Cr20  1  0.62044465  0.25121904  0.03320598  1
  Cr  Cr21  1  0.62044465  0.74878096  0.53320598  1
  Cr  Cr22  1  0.64244854  0.40034817  0.39574474  1
  Cr  Cr23  1  0.64244854  0.59965183  0.89574474  1
  Cr  Cr24  1  0.85755146  0.09965183  0.89574474  1
  Cr  Cr25  1  0.85755146  0.90034817  0.39574474  1
  Cr  Cr26  1  0.87955535  0.24878096  0.53320598  1
  Cr  Cr27  1  0.87955535  0.75121904  0.03320598  1
  O  O28  1  0.01532269  0.14585929  0.56507602  1
  O  O29  1  0.01532269  0.85414071  0.06507602  1
  O  O30  1  0.06555432  0.56479350  0.36898987  1
  O  O31  1  0.06555432  0.43520650  0.86898987  1
  O  O32  1  0.08786808  0.35254730  0.16256148  1
  O  O33  1  0.08786808  0.64745270  0.66256148  1
  O  O34  1  0.16298773  0.08844381  0.10328196  1
  O  O35  1  0.16298773  0.91155619  0.60328196  1
  O  O36  1  0.17469996  0.17358034  0.77528952  1
  O  O37  1  0.17469996  0.82641966  0.27528952  1
  O  O38  1  0.22870010  0.17452358  0.47535960  1
  O  O39  1  0.22870010  0.82547642  0.97535960  1
  O  O40  1  0.27129990  0.32547642  0.97535960  1
  O  O41  1  0.27129990  0.67452358  0.47535960  1
  O  O42  1  0.32530004  0.67358034  0.77528952  1
  O  O43  1  0.32530004  0.32641966  0.27528952  1
  O  O44  1  0.33701227  0.41155619  0.60328196  1
  O  O45  1  0.33701227  0.58844381  0.10328196  1
  O  O46  1  0.41213192  0.14745270  0.66256148  1
  O  O47  1  0.41213192  0.85254730  0.16256148  1
  O  O48  1  0.43444568  0.06479350  0.36898987  1
  O  O49  1  0.43444568  0.93520650  0.86898987  1
  O  O50  1  0.48467731  0.64585929  0.56507602  1
  O  O51  1  0.48467731  0.35414071  0.06507602  1
  O  O52  1  0.51532269  0.35414071  0.43492398  1
  O  O53  1  0.51532269  0.64585929  0.93492398  1
  O  O54  1  0.56555432  0.06479350  0.13101013  1
  O  O55  1  0.56555432  0.93520650  0.63101013  1
  O  O56  1  0.58786808  0.14745270  0.83743852  1
  O  O57  1  0.58786808  0.85254730  0.33743852  1
  O  O58  1  0.66298773  0.41155619  0.89671804  1
  O  O59  1  0.66298773  0.58844381  0.39671804  1
  O  O60  1  0.67469996  0.32641966  0.22471048  1
  O  O61  1  0.67469996  0.67358034  0.72471048  1
  O  O62  1  0.72870010  0.32547642  0.52464040  1
  O  O63  1  0.72870010  0.67452358  0.02464040  1
  O  O64  1  0.77129990  0.17452358  0.02464040  1
  O  O65  1  0.77129990  0.82547642  0.52464040  1
  O  O66  1  0.82530004  0.17358034  0.72471048  1
  O  O67  1  0.82530004  0.82641966  0.22471048  1
  O  O68  1  0.83701227  0.08844381  0.39671804  1
  O  O69  1  0.83701227  0.91155619  0.89671804  1
  O  O70  1  0.91213192  0.35254730  0.33743852  1
  O  O71  1  0.91213192  0.64745270  0.83743852  1
  O  O72  1  0.93444568  0.43520650  0.63101013  1
  O  O73  1  0.93444568  0.56479350  0.13101013  1
  O  O74  1  0.98467731  0.14585929  0.93492398  1
  O  O75  1  0.98467731  0.85414071  0.43492398  1
