# generated using pymatgen
data_Fe10O11F9
_symmetry_space_group_name_H-M   'P 1'
_cell_length_a   4.75896262
_cell_length_b   4.75896262
_cell_length_c   15.30827424
_cell_angle_alpha   90.12874525
_cell_angle_beta   90.12874525
_cell_angle_gamma   93.91250251
_symmetry_Int_Tables_number   1
_chemical_formula_structural   Fe10O11F9
_chemical_formula_sum   'Fe10 O11 F9'
_cell_volume   345.88770510
_cell_formula_units_Z   1
loop_
 _symmetry_equiv_pos_site_id
 _symmetry_equiv_pos_as_xyz
  1  'x, y, z'
loop_
 _atom_site_type_symbol
 _atom_site_label
 _atom_site_symmetry_multiplicity
 _atom_site_fract_x
 _atom_site_fract_y
 _atom_site_fract_z
 _atom_site_occupancy
  Fe  Fe0  1  0.00373447  0.98572561  0.99445108  1
  Fe  Fe1  1  0.00003813  -0.00003813  0.20000000  1
  Fe  Fe2  1  0.01427439  0.99626553  0.40554892  1
  Fe  Fe3  1  0.99437695  0.94855866  0.60113903  1
  Fe  Fe4  1  0.05144134  0.00562305  0.79886097  1
  Fe  Fe5  1  0.50318476  0.49514820  0.10131620  1
  Fe  Fe6  1  0.48340941  0.53809728  0.49198510  1
  Fe  Fe7  1  0.50485180  0.49681524  0.29868380  1
  Fe  Fe8  1  0.47574364  0.52425636  0.70000000  1
  Fe  Fe9  1  0.46190272  0.51659059  0.90801490  1
  O  O10  1  0.18678707  0.80512254  0.49887701  1
  O  O11  1  0.19531329  0.80468671  0.70000000  1
  O  O12  1  0.19487746  0.81321293  0.90112299  1
  O  O13  1  0.29749812  0.29944667  0.00765411  1
  O  O14  1  0.30713430  0.30198625  0.20011049  1
  O  O15  1  0.30578468  0.30677639  0.39428512  1
  O  O16  1  0.32158447  0.32231571  0.80136859  1
  O  O17  1  0.69322361  0.69421532  0.00571488  1
  O  O18  1  0.69801375  0.69286570  0.19989051  1
  O  O19  1  0.70055333  0.70250188  0.39234589  1
  O  O20  1  0.67768429  0.67841553  0.59863141  1
  F  F21  1  0.18988202  0.80389830  0.10257410  1
  F  F22  1  0.19610170  0.81011798  0.29742590  1
  F  F23  1  0.28832229  0.29428156  0.59782770  1
  F  F24  1  0.70571844  0.71167771  0.80217230  1
  F  F25  1  0.80791413  0.18670308  0.10161881  1
  F  F26  1  0.80374440  0.18895012  0.50074842  1
  F  F27  1  0.81329692  0.19208587  0.29838119  1
  F  F28  1  0.81104988  0.19625560  0.89925158  1
  F  F29  1  0.81256125  0.18743875  0.70000000  1
