# generated using pymatgen
data_V3(WO6)2
_symmetry_space_group_name_H-M   'P 1'
_cell_length_a   9.32927094
_cell_length_b   13.19999595
_cell_length_c   9.41732248
_cell_angle_alpha   90.00000000
_cell_angle_beta   90.00000000
_cell_angle_gamma   90.10175656
_symmetry_Int_Tables_number   1
_chemical_formula_structural   V3(WO6)2
_chemical_formula_sum   'V12 W8 O48'
_cell_volume   1159.70695461
_cell_formula_units_Z   4
loop_
 _symmetry_equiv_pos_site_id
 _symmetry_equiv_pos_as_xyz
  1  'x, y, z'
loop_
 _atom_site_type_symbol
 _atom_site_label
 _atom_site_symmetry_multiplicity
 _atom_site_fract_x
 _atom_site_fract_y
 _atom_site_fract_z
 _atom_site_occupancy
  V  V0  1  0.02878064  0.49609960  0.25045583  1
  V  V1  1  0.11290971  0.85627187  0.38926488  1
  V  V2  1  0.11470349  0.14332732  0.10675761  1
  V  V3  1  0.38709029  0.64372813  0.88926488  1
  V  V4  1  0.38529651  0.35667268  0.60675761  1
  V  V5  1  0.47121936  0.00390040  0.75045583  1
  V  V6  1  0.52878064  0.99609960  0.24954417  1
  V  V7  1  0.61470349  0.64332732  0.39324239  1
  V  V8  1  0.61290971  0.35627187  0.11073512  1
  V  V9  1  0.88529651  0.85667268  0.89324239  1
  V  V10  1  0.88709029  0.14372813  0.61073512  1
  V  V11  1  0.97121936  0.50390040  0.74954417  1
  W  W12  1  0.24661769  0.88361362  0.02918833  1
  W  W13  1  0.25338231  0.61638638  0.52918833  1
  W  W14  1  0.25627503  0.38230786  0.96725570  1
  W  W15  1  0.24372497  0.11769214  0.46725570  1
  W  W16  1  0.75627503  0.88230786  0.53274430  1
  W  W17  1  0.74372497  0.61769214  0.03274430  1
  W  W18  1  0.74661769  0.38361362  0.47081167  1
  W  W19  1  0.75338231  0.11638638  0.97081167  1
  O  O20  1  0.08180278  0.42540205  0.84947473  1
  O  O21  1  0.08060741  0.86802317  0.91640187  1
  O  O22  1  0.07522986  0.58896594  0.65335725  1
  O  O23  1  0.08173004  0.14610678  0.58039165  1
  O  O24  1  0.13113877  0.57038819  0.36613196  1
  O  O25  1  0.15304423  0.84348843  0.19905296  1
  O  O26  1  0.17641759  0.97984831  0.44381055  1
  O  O27  1  0.17602203  0.25096261  0.00156148  1
  O  O28  1  0.15729400  0.16098398  0.29594927  1
  O  O29  1  0.14301151  0.42957865  0.13687368  1
  O  O30  1  0.19158726  0.75137480  0.48857938  1
  O  O31  1  0.30841274  0.74862520  0.98857938  1
  O  O32  1  0.19710560  0.02490122  0.05743287  1
  O  O33  1  0.30289440  0.47509878  0.55743287  1
  O  O34  1  0.35698849  0.07042135  0.63687368  1
  O  O35  1  0.34270600  0.33901602  0.79594927  1
  O  O36  1  0.32358241  0.52015169  0.94381055  1
  O  O37  1  0.32397797  0.24903739  0.50156148  1
  O  O38  1  0.34695577  0.65651157  0.69905296  1
  O  O39  1  0.36886123  0.92961181  0.86613196  1
  O  O40  1  0.42477014  0.91103406  0.15335725  1
  O  O41  1  0.41939259  0.63197683  0.41640187  1
  O  O42  1  0.41826996  0.35389322  0.08039165  1
  O  O43  1  0.41819722  0.07459795  0.34947473  1
  O  O44  1  0.58180278  0.92540205  0.65052527  1
  O  O45  1  0.58173004  0.64610678  0.91960835  1
  O  O46  1  0.58060741  0.36802317  0.58359813  1
  O  O47  1  0.57522986  0.08896594  0.84664275  1
  O  O48  1  0.63113877  0.07038819  0.13386804  1
  O  O49  1  0.65304423  0.34348843  0.30094704  1
  O  O50  1  0.67602203  0.75096261  0.49843852  1
  O  O51  1  0.67641759  0.47984831  0.05618945  1
  O  O52  1  0.65729400  0.66098398  0.20405073  1
  O  O53  1  0.64301151  0.92957865  0.36312632  1
  O  O54  1  0.69710560  0.52490122  0.44256713  1
  O  O55  1  0.80289440  0.97509878  0.94256713  1
  O  O56  1  0.69158726  0.25137480  0.01142062  1
  O  O57  1  0.80841274  0.24862520  0.51142062  1
  O  O58  1  0.85698849  0.57042135  0.86312632  1
  O  O59  1  0.84270600  0.83901602  0.70405073  1
  O  O60  1  0.82397797  0.74903739  0.99843852  1
  O  O61  1  0.82358241  0.02015169  0.55618945  1
  O  O62  1  0.84695577  0.15651157  0.80094704  1
  O  O63  1  0.86886123  0.42961181  0.63386804  1
  O  O64  1  0.91826996  0.85389322  0.41960835  1
  O  O65  1  0.92477014  0.41103406  0.34664275  1
  O  O66  1  0.91939259  0.13197683  0.08359813  1
  O  O67  1  0.91819722  0.57459795  0.15052527  1
