# generated using pymatgen
data_Li4Ti4Mn4FeO18
_symmetry_space_group_name_H-M   'P 1'
_cell_length_a   9.18931954
_cell_length_b   25.17436247
_cell_length_c   2.96324277
_cell_angle_alpha   90.00004352
_cell_angle_beta   89.99985106
_cell_angle_gamma   89.91595839
_symmetry_Int_Tables_number   1
_chemical_formula_structural   Li4Ti4Mn4FeO18
_chemical_formula_sum   'Li8 Ti8 Mn8 Fe2 O36'
_cell_volume   685.50180162
_cell_formula_units_Z   2
loop_
 _symmetry_equiv_pos_site_id
 _symmetry_equiv_pos_as_xyz
  1  'x, y, z'
loop_
 _atom_site_type_symbol
 _atom_site_label
 _atom_site_symmetry_multiplicity
 _atom_site_fract_x
 _atom_site_fract_y
 _atom_site_fract_z
 _atom_site_occupancy
  Li  Li0  1  0.18921355  0.99818941  0.00000180  1
  Li  Li1  1  0.20634136  0.19457290  0.00000008  1
  Li  Li2  1  0.29378109  0.69462818  0.99999971  1
  Li  Li3  1  0.31086717  0.49819173  0.99999966  1
  Li  Li4  1  0.68910244  0.50184464  0.99999751  1
  Li  Li5  1  0.70634120  0.30542647  0.00000097  1
  Li  Li6  1  0.79356190  0.80545175  0.99999960  1
  Li  Li7  1  0.81070250  0.00167688  0.99999948  1
  Ti  Ti8  1  0.00475234  0.10370342  0.00000154  1
  Ti  Ti9  1  0.14523124  0.80505225  0.50000171  1
  Ti  Ti10  1  0.35462524  0.30511347  0.50000008  1
  Ti  Ti11  1  0.49506717  0.60360002  0.99999928  1
  Ti  Ti12  1  0.50502157  0.39637220  0.00000017  1
  Ti  Ti13  1  0.64529534  0.69486191  0.50000003  1
  Ti  Ti14  1  0.85459872  0.19494215  0.50000007  1
  Ti  Ti15  1  0.99524106  0.89630294  0.00000338  1
  Mn  Mn16  1  0.01777871  0.31470530  -0.00000566  1
  Mn  Mn17  1  0.14282742  0.58705962  0.49999293  1
  Mn  Mn18  1  0.35689452  0.08709049  0.50000167  1
  Mn  Mn19  1  0.48200863  0.81445698  -0.00000160  1
  Mn  Mn20  1  0.51784008  0.18549615  0.00000281  1
  Mn  Mn21  1  0.64293885  0.91290249  0.49999682  1
  Mn  Mn22  1  0.85717951  0.41298655  0.50000127  1
  Mn  Mn23  1  0.98234627  0.68530079  0.00000281  1
  Fe  Fe24  1  0.99994176  0.50005387  0.99999817  1
  Fe  Fe25  1  0.49997262  -0.00001909  0.00000235  1
  O  O26  1  0.99667455  0.41980597  0.00000713  1
  O  O27  1  0.00320854  0.58030646  0.99999238  1
  O  O28  1  0.03863964  0.94131767  0.50000032  1
  O  O29  1  0.05102886  0.16173064  0.50000257  1
  O  O30  1  0.11568397  0.66289110  0.50000123  1
  O  O31  1  0.11309589  0.75709223  0.00000435  1
  O  O32  1  0.15357495  0.50878500  0.49999757  1
  O  O33  1  0.14320640  0.29160413  0.49999790  1
  O  O34  1  0.17719646  0.85749685  0.00000060  1
  O  O35  1  0.21240151  0.08869869  0.99999707  1
  O  O36  1  0.28785978  0.58852735  0.00000347  1
  O  O37  1  0.32287015  0.35777534  0.99999687  1
  O  O38  1  0.35696861  0.79129324  0.50000130  1
  O  O39  1  0.34659507  0.00884960  0.49999901  1
  O  O40  1  0.38691064  0.25734776  0.99999820  1
  O  O41  1  0.38410824  0.16292352  0.50000028  1
  O  O42  1  0.44900507  0.66163282  0.49999964  1
  O  O43  1  0.46111040  0.44144039  0.49999879  1
  O  O44  1  0.49656867  0.08020744  0.00000401  1
  O  O45  1  0.50315528  0.91983353  0.99999330  1
  O  O46  1  0.53898826  0.55853437  0.49999949  1
  O  O47  1  0.55110951  0.33838666  0.49999639  1
  O  O48  1  0.61557527  0.83703954  0.50000248  1
  O  O49  1  0.61322697  0.74264963  0.99999972  1
  O  O50  1  0.65341957  0.99116348  0.50000250  1
  O  O51  1  0.64315596  0.20859199  0.50000189  1
  O  O52  1  0.67718137  0.64223354  -0.00000021  1
  O  O53  1  0.71226685  0.41153742  0.99999104  1
  O  O54  1  0.78764935  0.91129142  0.00000635  1
  O  O55  1  0.82284254  0.14242344  0.00000265  1
  O  O56  1  0.85700734  0.70835184  0.50000113  1
  O  O57  1  0.84651325  0.49128913  0.49999890  1
  O  O58  1  0.88687020  0.24286941  0.00000031  1
  O  O59  1  0.88431472  0.33719647  0.50000202  1
  O  O60  1  0.94899416  0.83823724  0.50000161  1
  O  O61  1  0.96154976  0.05868122  0.50000112  1
