# generated using pymatgen
data_Li5Mn3Bi2(PO4)6
_symmetry_space_group_name_H-M   'P 1'
_cell_length_a   8.86543330
_cell_length_b   8.97490334
_cell_length_c   9.04432837
_cell_angle_alpha   59.48140449
_cell_angle_beta   60.83298998
_cell_angle_gamma   60.55826804
_symmetry_Int_Tables_number   1
_chemical_formula_structural   Li5Mn3Bi2(PO4)6
_chemical_formula_sum   'Li5 Mn3 Bi2 P6 O24'
_cell_volume   512.04447461
_cell_formula_units_Z   1
loop_
 _symmetry_equiv_pos_site_id
 _symmetry_equiv_pos_as_xyz
  1  'x, y, z'
loop_
 _atom_site_type_symbol
 _atom_site_label
 _atom_site_symmetry_multiplicity
 _atom_site_fract_x
 _atom_site_fract_y
 _atom_site_fract_z
 _atom_site_occupancy
  Li  Li0  1  0.48786085  0.17269550  0.17659586  1
  Li  Li1  1  0.25450934  0.85750249  0.64750540  1
  Li  Li2  1  0.69423250  0.14873890  0.32464287  1
  Li  Li3  1  0.68018601  0.84290548  0.14933112  1
  Li  Li4  1  0.68927635  0.32022271  0.84050379  1
  Mn  Mn5  1  0.03984622  0.65673742  0.65326413  1
  Mn  Mn6  1  0.46656917  0.84024079  0.84367751  1
  Mn  Mn7  1  0.96326547  0.34486717  0.34114779  1
  Bi  Bi8  1  0.01548819  0.99151397  0.00975771  1
  Bi  Bi9  1  0.48873792  0.49103283  0.50404967  1
  P  P10  1  0.25884163  0.24635847  0.54831043  1
  P  P11  1  0.25449946  0.94659300  0.24904327  1
  P  P12  1  0.26286874  0.54329791  0.94651161  1
  P  P13  1  0.75856704  0.45366006  0.04345710  1
  P  P14  1  0.77594050  0.03771644  0.74644521  1
  P  P15  1  0.73503895  0.74886572  0.45747077  1
  O  O16  1  0.07848673  0.09781215  0.29376404  1
  O  O17  1  0.09192802  0.50693973  0.09656981  1
  O  O18  1  0.09222197  0.29401129  0.50423357  1
  O  O19  1  0.25325716  0.07156531  0.72907301  1
  O  O20  1  0.24753681  0.39942799  0.59398111  1
  O  O21  1  0.44052329  0.20647753  0.40005847  1
  O  O22  1  0.25773607  0.91534167  0.09107576  1
  O  O23  1  0.25444852  0.75918586  0.41900954  1
  O  O24  1  0.26879198  0.58253886  0.75037681  1
  O  O25  1  0.58303658  0.60561998  0.01626164  1
  O  O26  1  0.77215726  0.27393500  0.03791093  1
  O  O27  1  0.62210175  0.98445390  0.77644981  1
  O  O28  1  0.42965139  0.97643728  0.20296750  1
  O  O29  1  0.24981445  0.73766806  0.92046068  1
  O  O30  1  0.44124795  0.39508786  0.97205251  1
  O  O31  1  0.74705924  0.39709326  0.24442793  1
  O  O32  1  0.74762637  0.24343678  0.61315681  1
  O  O33  1  0.76395174  0.04044221  0.92510858  1
  O  O34  1  0.54797802  0.79150154  0.60173714  1
  O  O35  1  0.73714753  0.61594532  0.39025982  1
  O  O36  1  0.75627959  0.92441906  0.27999053  1
  O  O37  1  0.89452434  0.67591864  0.52425784  1
  O  O38  1  0.92976495  0.50462577  0.90323343  1
  O  O39  1  0.96700396  0.90816509  0.68087051  1
