# generated using pymatgen
data_Li2TiMn2O6
_symmetry_space_group_name_H-M   'P 1'
_cell_length_a   5.13450211
_cell_length_b   5.13450191
_cell_length_c   10.21393764
_cell_angle_alpha   90.00000000
_cell_angle_beta   90.00000000
_cell_angle_gamma   116.02726876
_symmetry_Int_Tables_number   1
_chemical_formula_structural   Li2TiMn2O6
_chemical_formula_sum   'Li4 Ti2 Mn4 O12'
_cell_volume   241.96311827
_cell_formula_units_Z   2
loop_
 _symmetry_equiv_pos_site_id
 _symmetry_equiv_pos_as_xyz
  1  'x, y, z'
loop_
 _atom_site_type_symbol
 _atom_site_label
 _atom_site_symmetry_multiplicity
 _atom_site_fract_x
 _atom_site_fract_y
 _atom_site_fract_z
 _atom_site_occupancy
  Li  Li0  1  0.10620571  0.60620571  0.75000000  1
  Li  Li1  1  0.39379429  0.89379429  0.25000000  1
  Li  Li2  1  0.60620571  0.10620571  0.75000000  1
  Li  Li3  1  0.89379429  0.39379429  0.25000000  1
  Ti  Ti4  1  0.00000000  0.00000000  0.00000000  1
  Ti  Ti5  1  0.50000000  0.50000000  0.50000000  1
  Mn  Mn6  1  0.16461735  0.83538265  0.50000000  1
  Mn  Mn7  1  0.33538265  0.66461735  0.00000000  1
  Mn  Mn8  1  0.66461735  0.33538265  0.00000000  1
  Mn  Mn9  1  0.83538265  0.16461735  0.50000000  1
  O  O10  1  0.04782742  0.70556266  0.11135565  1
  O  O11  1  0.95217258  0.29443734  0.88864435  1
  O  O12  1  0.20556266  0.54782742  0.38864435  1
  O  O13  1  0.45217258  0.79443734  0.61135565  1
  O  O14  1  0.17242719  0.17242719  0.59112282  1
  O  O15  1  0.32757281  0.32757281  0.09112282  1
  O  O16  1  0.67242719  0.67242719  0.90887718  1
  O  O17  1  0.29443734  0.95217258  0.88864435  1
  O  O18  1  0.82757281  0.82757281  0.40887718  1
  O  O19  1  0.54782742  0.20556266  0.38864435  1
  O  O20  1  0.79443734  0.45217258  0.61135565  1
  O  O21  1  0.70556266  0.04782742  0.11135565  1
