# generated using pymatgen
data_Li2V3TeO8
_symmetry_space_group_name_H-M   'P 1'
_cell_length_a   8.67819318
_cell_length_b   8.61660386
_cell_length_c   8.84848192
_cell_angle_alpha   90.28996788
_cell_angle_beta   89.90587161
_cell_angle_gamma   90.22880581
_symmetry_Int_Tables_number   1
_chemical_formula_structural   Li2V3TeO8
_chemical_formula_sum   'Li8 V12 Te4 O32'
_cell_volume   661.64435553
_cell_formula_units_Z   4
loop_
 _symmetry_equiv_pos_site_id
 _symmetry_equiv_pos_as_xyz
  1  'x, y, z'
loop_
 _atom_site_type_symbol
 _atom_site_label
 _atom_site_symmetry_multiplicity
 _atom_site_fract_x
 _atom_site_fract_y
 _atom_site_fract_z
 _atom_site_occupancy
  Li  Li0  1  0.11761118  0.88118591  0.37739315  1
  Li  Li1  1  0.25227537  0.74569352  0.75360461  1
  Li  Li2  1  0.25323111  0.24910827  0.25407472  1
  Li  Li3  1  0.38135296  0.11893582  0.87876123  1
  Li  Li4  1  0.61844028  0.61839533  0.62236973  1
  Li  Li5  1  0.75167411  0.75142773  0.24587567  1
  Li  Li6  1  0.75091451  0.24709573  0.74880938  1
  Li  Li7  1  0.87536471  0.38467826  0.12098093  1
  V  V8  1  0.11378811  0.62984025  0.12062726  1
  V  V9  1  0.12263144  0.38094966  0.89197005  1
  V  V10  1  0.11711281  0.11030738  0.62402358  1
  V  V11  1  0.38355146  0.88903383  0.12199995  1
  V  V12  1  0.37226778  0.62172148  0.38988240  1
  V  V13  1  0.38588625  0.37142010  0.62475532  1
  V  V14  1  0.61271370  0.87464091  0.87515670  1
  V  V15  1  0.62901989  0.12132619  0.10982359  1
  V  V16  1  0.61529609  0.38890876  0.37782880  1
  V  V17  1  0.87864112  0.61242124  0.87355681  1
  V  V18  1  0.86750601  0.88196206  0.61135578  1
  V  V19  1  0.88621069  0.12714242  0.37671789  1
  Te  Te20  1  0.00243532  0.49822343  0.49875840  1
  Te  Te21  1  0.49803990  0.50222006  0.99791316  1
  Te  Te22  1  0.50099576  0.00410740  0.50172970  1
  Te  Te23  1  0.99671002  0.99693238  0.00187846  1
  O  O24  1  0.10983265  0.14414519  0.41366868  1
  O  O25  1  0.10167605  0.90111841  0.64164733  1
  O  O26  1  0.12036484  0.60618175  0.88107193  1
  O  O27  1  0.14462132  0.40243116  0.10016131  1
  O  O28  1  0.13603047  0.13612195  0.90013817  1
  O  O29  1  0.16457921  0.32264219  0.68178198  1
  O  O30  1  0.11137046  0.63748630  0.36448043  1
  O  O31  1  0.13710840  0.89348694  0.13919763  1
  O  O32  1  0.36066356  0.10606224  0.64074368  1
  O  O33  1  0.39099595  0.36012725  0.86547949  1
  O  O34  1  0.33437972  0.68052887  0.17450955  1
  O  O35  1  0.36192743  0.86757869  0.39841520  1
  O  O36  1  0.36015119  0.59256896  0.60752073  1
  O  O37  1  0.39144336  0.37864716  0.38440652  1
  O  O38  1  0.39888502  0.10077619  0.14189692  1
  O  O39  1  0.38869050  0.85917571  0.91124239  1
  O  O40  1  0.60913520  0.35970327  0.58896180  1
  O  O41  1  0.59969675  0.60141535  0.35987732  1
  O  O42  1  0.60885051  0.88158044  0.11584752  1
  O  O43  1  0.63578457  0.09654145  0.89059832  1
  O  O44  1  0.63844772  0.36688890  0.10064765  1
  O  O45  1  0.66582901  0.18115380  0.32598177  1
  O  O46  1  0.60825617  0.86207461  0.63270276  1
  O  O47  1  0.63359809  0.60520914  0.85726017  1
  O  O48  1  0.86306043  0.39652987  0.35995995  1
  O  O49  1  0.88921789  0.13895060  0.13533588  1
  O  O50  1  0.83159829  0.82993088  0.82490840  1
  O  O51  1  0.86240462  0.63410295  0.60341434  1
  O  O52  1  0.86288729  0.90605577  0.38932240  1
  O  O53  1  0.89102567  0.11893529  0.61670956  1
  O  O54  1  0.91047349  0.38601390  0.86158078  1
  O  O55  1  0.89334259  0.63823871  0.09076513  1
