# generated using pymatgen
data_Li3V2F9
_symmetry_space_group_name_H-M   'P 1'
_cell_length_a   5.29664808
_cell_length_b   5.68048497
_cell_length_c   7.43985585
_cell_angle_alpha   84.57503583
_cell_angle_beta   90.00000019
_cell_angle_gamma   117.78885188
_symmetry_Int_Tables_number   1
_chemical_formula_structural   Li3V2F9
_chemical_formula_sum   'Li3 V2 F9'
_cell_volume   196.89694910
_cell_formula_units_Z   1
loop_
 _symmetry_equiv_pos_site_id
 _symmetry_equiv_pos_as_xyz
  1  'x, y, z'
loop_
 _atom_site_type_symbol
 _atom_site_label
 _atom_site_symmetry_multiplicity
 _atom_site_fract_x
 _atom_site_fract_y
 _atom_site_fract_z
 _atom_site_occupancy
  Li  Li0  1  0.18430149  0.71999570  0.46173622  1
  Li  Li1  1  0.03078355  1.00000000  0.00000000  1
  Li  Li2  1  0.46430579  0.28000430  0.53826378  1
  V  V3  1  0.37769640  0.71297196  0.84770452  1
  V  V4  1  0.66472443  0.28702804  0.15229548  1
  F  F5  1  0.97343701  0.51820574  0.95433377  1
  F  F6  1  0.28872310  0.92701664  0.66678658  1
  F  F7  1  0.32389758  0.48907586  0.64537059  1
  F  F8  1  0.77946725  0.91602907  0.81050786  1
  F  F9  1  0.45523127  0.48179426  0.04566623  1
  F  F10  1  0.36170646  0.07298336  0.33321342  1
  F  F11  1  0.39726477  0.00000000  0.00000000  1
  F  F12  1  0.83482173  0.51092414  0.35462941  1
  F  F13  1  0.86343818  0.08397093  0.18949214  1
