# generated using pymatgen
data_Li2Cr(Si2O5)3
_symmetry_space_group_name_H-M   'P 1'
_cell_length_a   9.73832873
_cell_length_b   7.78906633
_cell_length_c   14.80785015
_cell_angle_alpha   90.00000000
_cell_angle_beta   40.41402922
_cell_angle_gamma   113.57305371
_symmetry_Int_Tables_number   1
_chemical_formula_structural   Li2Cr(Si2O5)3
_chemical_formula_sum   'Li4 Cr2 Si12 O30'
_cell_volume   573.13187380
_cell_formula_units_Z   2
loop_
 _symmetry_equiv_pos_site_id
 _symmetry_equiv_pos_as_xyz
  1  'x, y, z'
loop_
 _atom_site_type_symbol
 _atom_site_label
 _atom_site_symmetry_multiplicity
 _atom_site_fract_x
 _atom_site_fract_y
 _atom_site_fract_z
 _atom_site_occupancy
  Li  Li0  1  0.00043593  0.00019597  0.74181649  1
  Li  Li1  1  0.00043593  0.50023996  0.74181649  1
  Li  Li2  1  0.99711313  0.99872359  0.25747728  1
  Li  Li3  1  0.99711313  0.49838954  0.25747728  1
  Cr  Cr4  1  0.49706366  0.99853183  -0.00004316  1
  Cr  Cr5  1  0.49942791  0.99971395  0.49875175  1
  Si  Si6  1  0.04243742  0.27121921  0.37850208  1
  Si  Si7  1  0.04329402  0.27164701  0.57673317  1
  Si  Si8  1  0.42134724  0.26877077  0.88986830  1
  Si  Si9  1  0.42134724  0.65257647  0.88986830  1
  Si  Si10  1  0.42186234  0.65282952  0.68677526  1
  Si  Si11  1  0.42186234  0.26903282  0.68677526  1
  Si  Si12  1  0.57423834  0.34534222  0.11029183  1
  Si  Si13  1  0.57423834  0.72889613  0.11029183  1
  Si  Si14  1  0.57509077  0.34552088  0.31271087  1
  Si  Si15  1  0.57509077  0.72956989  0.31271087  1
  Si  Si16  1  0.95313573  0.72656786  0.62203346  1
  Si  Si17  1  0.95357447  0.72678774  0.42313665  1
  O  O18  1  0.09474498  0.79737249  0.45169424  1
  O  O19  1  0.15428139  0.82714069  0.23845646  1
  O  O20  1  0.15268194  0.82634097  0.60642940  1
  O  O21  1  0.24572197  0.20574395  0.26807111  1
  O  O22  1  0.24572197  0.53997802  0.26807111  1
  O  O23  1  0.28893667  0.39446833  0.97392869  1
  O  O24  1  0.24625733  0.54030491  0.48503922  1
  O  O25  1  0.24625733  0.20595142  0.48503922  1
  O  O26  1  0.28736401  0.39368200  0.73867976  1
  O  O27  1  0.32303169  0.09043808  0.65740290  1
  O  O28  1  0.32303169  0.73259460  0.65740290  1
  O  O29  1  0.31900618  0.08651117  0.01869840  1
  O  O30  1  0.31900618  0.73249601  0.01869840  1
  O  O31  1  0.34408328  0.68179687  0.82716083  1
  O  O32  1  0.34408328  0.16228541  0.82716083  1
  O  O33  1  0.65214295  0.31631537  0.17259647  1
  O  O34  1  0.65214295  0.83582758  0.17259647  1
  O  O35  1  0.67710077  0.26553653  0.33913909  1
  O  O36  1  0.67710077  0.91156424  0.33913909  1
  O  O37  1  0.67356596  0.90780517  0.98161799  1
  O  O38  1  0.67356596  0.26575980  0.98161799  1
  O  O39  1  0.70873400  0.60436700  0.02727395  1
  O  O40  1  0.74995901  0.45771155  0.73254442  1
  O  O41  1  0.74995901  0.79224746  0.73254442  1
  O  O42  1  0.70742836  0.60371418  0.26395572  1
  O  O43  1  0.75057453  0.45825496  0.51503566  1
  O  O44  1  0.75057453  0.79231957  0.51503566  1
  O  O45  1  0.84185191  0.17092595  0.76157436  1
  O  O46  1  0.84388364  0.17194182  0.39336683  1
  O  O47  1  0.90145307  0.20072654  0.54862139  1
