# generated using pymatgen
data_Li2MnV4CuO12
_symmetry_space_group_name_H-M   'P 1'
_cell_length_a   6.93689758
_cell_length_b   6.93689824
_cell_length_c   5.84315760
_cell_angle_alpha   74.47444870
_cell_angle_beta   105.52555053
_cell_angle_gamma   96.82786528
_symmetry_Int_Tables_number   1
_chemical_formula_structural   Li2MnV4CuO12
_chemical_formula_sum   'Li2 Mn1 V4 Cu1 O12'
_cell_volume   260.69260251
_cell_formula_units_Z   1
loop_
 _symmetry_equiv_pos_site_id
 _symmetry_equiv_pos_as_xyz
  1  'x, y, z'
loop_
 _atom_site_type_symbol
 _atom_site_label
 _atom_site_symmetry_multiplicity
 _atom_site_fract_x
 _atom_site_fract_y
 _atom_site_fract_z
 _atom_site_occupancy
  Li  Li0  1  0.24519431  0.24519431  0.25000000  1
  Li  Li1  1  0.76149277  0.76149277  0.75000000  1
  Mn  Mn2  1  0.91406667  0.91406667  0.25000000  1
  V  V3  1  0.20222386  0.60677839  0.77226175  1
  V  V4  1  0.39121886  0.80128641  0.27228236  1
  V  V5  1  0.60677839  0.20222386  0.72773825  1
  V  V6  1  0.80128641  0.39121886  0.22771764  1
  Cu  Cu7  1  0.10063345  0.10063345  0.75000000  1
  O  O8  1  0.01870354  0.78219153  0.65106657  1
  O  O9  1  0.10073191  0.36784295  0.82973386  1
  O  O10  1  0.20714635  0.98064155  0.15764547  1
  O  O11  1  0.35745133  0.63712581  0.56259258  1
  O  O12  1  0.36784295  0.10073191  0.67026614  1
  O  O13  1  0.35233132  0.64025766  0.06009636  1
  O  O14  1  0.63712581  0.35745133  0.93740742  1
  O  O15  1  0.63424939  0.89843394  0.33790172  1
  O  O16  1  0.64025766  0.35233132  0.43990364  1
  O  O17  1  0.78219153  0.01870354  0.84893343  1
  O  O18  1  0.89843394  0.63424939  0.16209828  1
  O  O19  1  0.98064155  0.20714635  0.34235453  1
