# generated using pymatgen
data_Mn3Cr2Ni(PO4)6
_symmetry_space_group_name_H-M   'P 1'
_cell_length_a   8.40484993
_cell_length_b   8.40485053
_cell_length_c   8.40485036
_cell_angle_alpha   61.64954691
_cell_angle_beta   61.64954344
_cell_angle_gamma   61.64954191
_symmetry_Int_Tables_number   1
_chemical_formula_structural   Mn3Cr2Ni(PO4)6
_chemical_formula_sum   'Mn3 Cr2 Ni1 P6 O24'
_cell_volume   435.36059356
_cell_formula_units_Z   1
loop_
 _symmetry_equiv_pos_site_id
 _symmetry_equiv_pos_as_xyz
  1  'x, y, z'
loop_
 _atom_site_type_symbol
 _atom_site_label
 _atom_site_symmetry_multiplicity
 _atom_site_fract_x
 _atom_site_fract_y
 _atom_site_fract_z
 _atom_site_occupancy
  Mn  Mn0  1  0.14390215  0.14390215  0.14390215  1
  Mn  Mn1  1  0.35640857  0.35640857  0.35640857  1
  Mn  Mn2  1  0.64481965  0.64481965  0.64481965  1
  Cr  Cr3  1  0.99871385  0.99871385  0.99871385  1
  Cr  Cr4  1  0.50024320  0.50024320  0.50024320  1
  Ni  Ni5  1  0.85659720  0.85659720  0.85659720  1
  P  P6  1  0.04641327  0.75044475  0.45249217  1
  P  P7  1  0.45249217  0.04641327  0.75044475  1
  P  P8  1  0.75044475  0.45249217  0.04641327  1
  P  P9  1  0.24949828  0.54750656  0.95495831  1
  P  P10  1  0.54750656  0.95495831  0.24949828  1
  P  P11  1  0.95495831  0.24949828  0.54750656  1
  O  O12  1  0.11354871  0.32182988  0.50372015  1
  O  O13  1  0.32182988  0.50372015  0.11354871  1
  O  O14  1  0.06591130  0.90138309  0.24564517  1
  O  O15  1  0.50372015  0.11354871  0.32182988  1
  O  O16  1  0.01568997  0.81792777  0.60380122  1
  O  O17  1  0.25202200  0.58808733  0.43683685  1
  O  O18  1  0.24564517  0.06591130  0.90138309  1
  O  O19  1  0.43683685  0.25202200  0.58808733  1
  O  O20  1  0.18085273  0.39312127  0.98929488  1
  O  O21  1  0.58808733  0.43683685  0.25202200  1
  O  O22  1  0.09864824  0.75055407  0.93975263  1
  O  O23  1  0.39312127  0.98929488  0.18085273  1
  O  O24  1  0.60380122  0.01568997  0.81792777  1
  O  O25  1  0.90138309  0.24564517  0.06591130  1
  O  O26  1  0.40868150  0.55923209  0.75188129  1
  O  O27  1  0.81792777  0.60380122  0.01568997  1
  O  O28  1  0.55923209  0.75188129  0.40868150  1
  O  O29  1  0.75055407  0.93975263  0.09864824  1
  O  O30  1  0.75188129  0.40868150  0.55923209  1
  O  O31  1  0.98929488  0.18085273  0.39312127  1
  O  O32  1  0.48704315  0.89180990  0.68072486  1
  O  O33  1  0.93975263  0.09864824  0.75055407  1
  O  O34  1  0.68072486  0.48704315  0.89180990  1
  O  O35  1  0.89180990  0.68072486  0.48704315  1
