# generated using pymatgen
data_Ba3(YI6)2
_symmetry_space_group_name_H-M   'P 1'
_cell_length_a   14.27478153
_cell_length_b   14.33525071
_cell_length_c   18.38341843
_cell_angle_alpha   90.00000000
_cell_angle_beta   92.14883145
_cell_angle_gamma   90.00000000
_symmetry_Int_Tables_number   1
_chemical_formula_structural   Ba3(YI6)2
_chemical_formula_sum   'Ba12 Y8 I48'
_cell_volume   3759.20086741
_cell_formula_units_Z   4
loop_
 _symmetry_equiv_pos_site_id
 _symmetry_equiv_pos_as_xyz
  1  'x, y, z'
loop_
 _atom_site_type_symbol
 _atom_site_label
 _atom_site_symmetry_multiplicity
 _atom_site_fract_x
 _atom_site_fract_y
 _atom_site_fract_z
 _atom_site_occupancy
  Ba  Ba0  1  0.02504373  0.20851048  0.47303909  1
  Ba  Ba1  1  0.11917419  0.12045517  0.83963912  1
  Ba  Ba2  1  0.11295945  0.33970672  0.09433379  1
  Ba  Ba3  1  0.38082581  0.62045517  0.66036088  1
  Ba  Ba4  1  0.38704055  0.83970672  0.40566621  1
  Ba  Ba5  1  0.47495627  0.70851048  0.02696091  1
  Ba  Ba6  1  0.52504373  0.29148952  0.97303909  1
  Ba  Ba7  1  0.61295945  0.16029328  0.59433379  1
  Ba  Ba8  1  0.61917419  0.37954483  0.33963912  1
  Ba  Ba9  1  0.88704055  0.66029328  0.90566621  1
  Ba  Ba10  1  0.88082581  0.87954483  0.16036088  1
  Ba  Ba11  1  0.97495627  0.79148952  0.52696091  1
  Y  Y12  1  0.24614329  0.47176031  0.87265381  1
  Y  Y13  1  0.25385671  0.97176031  0.62734619  1
  Y  Y14  1  0.24112442  0.52503425  0.36205115  1
  Y  Y15  1  0.25887558  0.02503425  0.13794885  1
  Y  Y16  1  0.74112442  0.97496575  0.86205115  1
  Y  Y17  1  0.75887558  0.47496575  0.63794885  1
  Y  Y18  1  0.74614329  0.02823969  0.37265381  1
  Y  Y19  1  0.75385671  0.52823969  0.12734619  1
  I  I20  1  0.12737622  0.62654385  0.93156902  1
  I  I21  1  0.09641973  0.61561909  0.45660075  1
  I  I22  1  0.13752521  0.80100339  0.67035209  1
  I  I23  1  0.10681795  0.91811711  0.21222239  1
  I  I24  1  0.09711720  0.11499185  0.64308832  1
  I  I25  1  0.07775240  0.34589314  0.89782739  1
  I  I26  1  0.10241207  0.10256845  0.02719588  1
  I  I27  1  0.09604660  0.48137538  0.24519215  1
  I  I28  1  0.20740471  0.19669300  0.22401580  1
  I  I29  1  0.21474962  0.34625576  0.45075111  1
  I  I30  1  0.30520012  0.99337037  0.78562266  1
  I  I31  1  0.32855530  0.44086888  0.03132150  1
  I  I32  1  0.19479988  0.49337037  0.71437734  1
  I  I33  1  0.17144470  0.94086888  0.46867850  1
  I  I34  1  0.28525038  0.84625576  0.04924889  1
  I  I35  1  0.29259529  0.69669300  0.27598420  1
  I  I36  1  0.39758793  0.60256845  0.47280412  1
  I  I37  1  0.42224760  0.84589314  0.60217261  1
  I  I38  1  0.40395340  0.98137538  0.25480785  1
  I  I39  1  0.40288280  0.61499185  0.85691168  1
  I  I40  1  0.36247479  0.30100339  0.82964791  1
  I  I41  1  0.37262378  0.12654385  0.56843098  1
  I  I42  1  0.39318205  0.41811711  0.28777761  1
  I  I43  1  0.40358027  0.11561909  0.04339925  1
  I  I44  1  0.59641973  0.88438091  0.95660075  1
  I  I45  1  0.60681795  0.58188289  0.71222239  1
  I  I46  1  0.62737622  0.87345615  0.43156902  1
  I  I47  1  0.63752521  0.69899661  0.17035209  1
  I  I48  1  0.59711720  0.38500815  0.14308832  1
  I  I49  1  0.59604660  0.01862462  0.74519215  1
  I  I50  1  0.57775240  0.15410686  0.39782739  1
  I  I51  1  0.60241207  0.39743155  0.52719588  1
  I  I52  1  0.70740471  0.30330700  0.72401580  1
  I  I53  1  0.71474962  0.15374424  0.95075111  1
  I  I54  1  0.82855530  0.05913112  0.53132150  1
  I  I55  1  0.80520012  0.50662963  0.28562266  1
  I  I56  1  0.67144470  0.55913112  0.96867850  1
  I  I57  1  0.69479988  0.00662963  0.21437734  1
  I  I58  1  0.78525038  0.65374424  0.54924889  1
  I  I59  1  0.79259529  0.80330700  0.77598420  1
  I  I60  1  0.90395340  0.51862462  0.75480785  1
  I  I61  1  0.89758793  0.89743155  0.97280412  1
  I  I62  1  0.92224760  0.65410686  0.10217261  1
  I  I63  1  0.90288280  0.88500815  0.35691168  1
  I  I64  1  0.89318205  0.08188289  0.78777761  1
  I  I65  1  0.86247479  0.19899661  0.32964791  1
  I  I66  1  0.90358027  0.38438091  0.54339925  1
  I  I67  1  0.87262378  0.37345615  0.06843098  1
