# generated using pymatgen
data_Li3Y(NiO3)2
_symmetry_space_group_name_H-M   'P 1'
_cell_length_a   5.29278520
_cell_length_b   5.29278520
_cell_length_c   5.21412198
_cell_angle_alpha   81.47824891
_cell_angle_beta   98.52175109
_cell_angle_gamma   59.23156117
_symmetry_Int_Tables_number   1
_chemical_formula_structural   Li3Y(NiO3)2
_chemical_formula_sum   'Li3 Y1 Ni2 O6'
_cell_volume   119.73082366
_cell_formula_units_Z   1
loop_
 _symmetry_equiv_pos_site_id
 _symmetry_equiv_pos_as_xyz
  1  'x, y, z'
loop_
 _atom_site_type_symbol
 _atom_site_label
 _atom_site_symmetry_multiplicity
 _atom_site_fract_x
 _atom_site_fract_y
 _atom_site_fract_z
 _atom_site_occupancy
  Li  Li0  1  0.19262654  0.19262654  0.50000000  1
  Li  Li1  1  0.50000000  0.50000000  0.50000000  1
  Li  Li2  1  0.80737346  0.80737346  0.50000000  1
  Y  Y3  1  0.00000000  0.00000000  0.00000000  1
  Ni  Ni4  1  0.33407147  0.33407147  0.00000000  1
  Ni  Ni5  1  0.66592853  0.66592853  0.00000000  1
  O  O6  1  0.29520768  0.70479232  0.76401655  1
  O  O7  1  0.07691334  0.55947727  0.22923681  1
  O  O8  1  0.44052273  0.92308666  0.22923681  1
  O  O9  1  0.92308666  0.44052273  0.77076319  1
  O  O10  1  0.55947727  0.07691334  0.77076319  1
  O  O11  1  0.70479232  0.29520768  0.23598345  1
