# generated using pymatgen
data_Hf2N2O
_symmetry_space_group_name_H-M   'P 1'
_cell_length_a   5.46088197
_cell_length_b   5.48004053
_cell_length_c   14.61213072
_cell_angle_alpha   90.06184596
_cell_angle_beta   90.00000000
_cell_angle_gamma   60.11558160
_symmetry_Int_Tables_number   1
_chemical_formula_structural   Hf2N2O
_chemical_formula_sum   'Hf12 N12 O6'
_cell_volume   379.13601376
_cell_formula_units_Z   6
loop_
 _symmetry_equiv_pos_site_id
 _symmetry_equiv_pos_as_xyz
  1  'x, y, z'
loop_
 _atom_site_type_symbol
 _atom_site_label
 _atom_site_symmetry_multiplicity
 _atom_site_fract_x
 _atom_site_fract_y
 _atom_site_fract_z
 _atom_site_occupancy
  Hf  Hf0  1  0.99624477  0.00350639  0.64294728  1
  Hf  Hf1  1  0.00024884  0.00350639  0.14294728  1
  Hf  Hf2  1  0.67695128  0.64526642  0.80990130  1
  Hf  Hf3  1  0.67827856  0.64780542  0.52402597  1
  Hf  Hf4  1  0.67778230  0.64526642  0.30990130  1
  Hf  Hf5  1  0.67391702  0.64780542  0.02402597  1
  Hf  Hf6  1  0.32608298  0.35219458  0.97597403  1
  Hf  Hf7  1  0.32221770  0.35473358  0.69009870  1
  Hf  Hf8  1  0.32172144  0.35219458  0.47597403  1
  Hf  Hf9  1  0.32304872  0.35473358  0.19009870  1
  Hf  Hf10  1  -0.00024884  0.99649361  0.85705272  1
  Hf  Hf11  1  0.00375523  0.99649361  0.35705272  1
  N  N12  1  0.00361805  0.70477543  0.75190573  1
  N  N13  1  0.29160653  0.70477543  0.25190573  1
  N  N14  1  0.36805167  0.67592525  0.91770403  1
  N  N15  1  0.95602308  0.67592525  0.41770403  1
  N  N16  1  0.33888181  0.62658599  0.58463376  1
  N  N17  1  0.03453120  0.62658599  0.08463376  1
  N  N18  1  0.96546880  0.37341401  0.91536624  1
  N  N19  1  0.66111819  0.37341401  0.41536624  1
  N  N20  1  0.04397692  0.32407475  0.58229597  1
  N  N21  1  0.63194833  0.32407475  0.08229597  1
  N  N22  1  0.70839347  0.29522457  0.74809427  1
  N  N23  1  0.99638195  0.29522457  0.24809427  1
  O  O24  1  0.66545353  0.97889489  0.91804641  1
  O  O25  1  0.35565159  0.97889489  0.41804641  1
  O  O26  1  0.64434841  0.02110511  0.58195359  1
  O  O27  1  0.33454647  0.02110511  0.08195359  1
  O  O28  1  0.31133614  0.00000000  0.75000000  1
  O  O29  1  0.68866386  0.00000000  0.25000000  1
