# generated using pymatgen
data_Na(BH)5
_symmetry_space_group_name_H-M   'P 1'
_cell_length_a   10.68494018
_cell_length_b   13.34220669
_cell_length_c   6.74343660
_cell_angle_alpha   90.00000000
_cell_angle_beta   93.58253331
_cell_angle_gamma   90.00000000
_symmetry_Int_Tables_number   1
_chemical_formula_structural   Na(BH)5
_chemical_formula_sum   'Na8 B40 H40'
_cell_volume   959.47026472
_cell_formula_units_Z   8
loop_
 _symmetry_equiv_pos_site_id
 _symmetry_equiv_pos_as_xyz
  1  'x, y, z'
loop_
 _atom_site_type_symbol
 _atom_site_label
 _atom_site_symmetry_multiplicity
 _atom_site_fract_x
 _atom_site_fract_y
 _atom_site_fract_z
 _atom_site_occupancy
  Na  Na0  1  0.99831134  0.16060212  0.82599250  1
  Na  Na1  1  0.00628849  0.37819507  0.23761521  1
  Na  Na2  1  0.50168866  0.66060212  0.67400750  1
  Na  Na3  1  0.49371151  0.87819507  0.26238479  1
  Na  Na4  1  0.50628849  0.12180493  0.73761521  1
  Na  Na5  1  0.49831134  0.33939788  0.32599250  1
  Na  Na6  1  0.99371151  0.62180493  0.76238479  1
  Na  Na7  1  0.00168866  0.83939788  0.17400750  1
  B  B8  1  0.07753374  0.41489262  0.81680496  1
  B  B9  1  0.10563138  0.83634455  0.81937526  1
  B  B10  1  0.12280115  0.33156002  0.64264271  1
  B  B11  1  0.16443701  0.95219445  0.77779609  1
  B  B12  1  0.16492125  0.85279835  0.59525715  1
  B  B13  1  0.17327182  0.32141856  0.90782389  1
  B  B14  1  0.17206081  0.46304980  0.64520549  1
  B  B15  1  0.22254191  0.45292319  0.90999865  1
  B  B16  1  0.23437571  0.86673853  0.96846084  1
  B  B17  1  0.23454649  0.76606622  0.78271387  1
  B  B18  1  0.26545351  0.26606622  0.71728613  1
  B  B19  1  0.26562429  0.36673853  0.53153916  1
  B  B20  1  0.27745809  0.95292319  0.59000135  1
  B  B21  1  0.32793919  0.96304980  0.85479451  1
  B  B22  1  0.32672818  0.82141856  0.59217611  1
  B  B23  1  0.33507875  0.35279835  0.90474285  1
  B  B24  1  0.33556299  0.45219445  0.72220391  1
  B  B25  1  0.37719885  0.83156002  0.85735729  1
  B  B26  1  0.39436862  0.33634455  0.68062474  1
  B  B27  1  0.42246626  0.91489262  0.68319504  1
  B  B28  1  0.57753374  0.08510738  0.31680496  1
  B  B29  1  0.60563138  0.66365545  0.31937526  1
  B  B30  1  0.62280115  0.16843998  0.14264271  1
  B  B31  1  0.66443701  0.54780555  0.27779609  1
  B  B32  1  0.66492125  0.64720165  0.09525715  1
  B  B33  1  0.67327182  0.17858144  0.40782389  1
  B  B34  1  0.67206081  0.03695020  0.14520549  1
  B  B35  1  0.72254191  0.04707681  0.40999865  1
  B  B36  1  0.73437571  0.63326147  0.46846084  1
  B  B37  1  0.73454649  0.73393378  0.28271487  1
  B  B38  1  0.76545351  0.23393378  0.21728513  1
  B  B39  1  0.76562429  0.13326147  0.03153916  1
  B  B40  1  0.77745809  0.54707681  0.09000135  1
  B  B41  1  0.82793919  0.53695020  0.35479451  1
  B  B42  1  0.82672818  0.67858144  0.09217611  1
  B  B43  1  0.83507875  0.14720165  0.40474285  1
  B  B44  1  0.83556299  0.04780555  0.22220391  1
  B  B45  1  0.87719885  0.66843998  0.35735729  1
  B  B46  1  0.89436862  0.16365545  0.18062474  1
  B  B47  1  0.92246626  0.58510738  0.18319504  1
  H  H48  1  -0.00002584  0.18719802  0.15270075  1
  H  H49  1  0.02680730  0.56243525  0.14413150  1
  H  H50  1  0.04318863  0.28710896  0.54290196  1
  H  H51  1  0.09617818  0.02308431  0.78609112  1
  H  H52  1  0.09714047  0.83465708  0.45334086  1
  H  H53  1  0.13920530  0.53274184  0.54059009  1
  H  H54  1  0.14545368  0.26561014  0.03880663  1
  H  H55  1  0.23244128  0.67639073  0.79694658  1
  H  H56  1  0.23554493  0.51402806  0.04016495  1
  H  H57  1  0.23380767  0.86550373  0.14732683  1
  H  H58  1  0.26619233  0.36550373  0.35267317  1
  H  H59  1  0.26755872  0.17639073  0.70305342  1
  H  H60  1  0.26445507  0.01402806  0.45983505  1
  H  H61  1  0.36079470  0.03274184  0.95940991  1
  H  H62  1  0.35454632  0.76561014  0.46119337  1
  H  H63  1  0.40382182  0.52308431  0.71390888  1
  H  H64  1  0.40285953  0.33465708  0.04665914  1
  H  H65  1  0.45681137  0.78710896  0.95709804  1
  H  H66  1  0.49997416  0.31280198  0.65270075  1
  H  H67  1  0.52680730  0.93756475  0.64413150  1
  H  H68  1  0.47319270  0.06243525  0.35586850  1
  H  H69  1  0.50002584  0.68719802  0.34729925  1
  H  H70  1  0.54318863  0.21289104  0.04290196  1
  H  H71  1  0.59714047  0.66534292  0.95334086  1
  H  H72  1  0.59617818  0.47691569  0.28609112  1
  H  H73  1  0.64545368  0.23438986  0.53880663  1
  H  H74  1  0.63920530  0.96725816  0.04059009  1
  H  H75  1  0.73554493  0.98597194  0.54016495  1
  H  H76  1  0.73244128  0.82360927  0.29694658  1
  H  H77  1  0.73380767  0.63449627  0.64732683  1
  H  H78  1  0.76619233  0.13449627  0.85267317  1
  H  H79  1  0.76445507  0.48597194  0.95983505  1
  H  H80  1  0.76755872  0.32360927  0.20305342  1
  H  H81  1  0.85454632  0.73438986  0.96119337  1
  H  H82  1  0.86079470  0.46725816  0.45940991  1
  H  H83  1  0.90285953  0.16534292  0.54665914  1
  H  H84  1  0.90382182  0.97691569  0.21390888  1
  H  H85  1  0.95681137  0.71289104  0.45709804  1
  H  H86  1  0.97319270  0.43756475  0.85586850  1
  H  H87  1  0.00002584  0.81280198  0.84729925  1
