# generated using pymatgen
data_Li4Ti2Fe4(CoO6)3
_symmetry_space_group_name_H-M   'P 1'
_cell_length_a   8.79639282
_cell_length_b   25.32644876
_cell_length_c   2.91219057
_cell_angle_alpha   90.07743568
_cell_angle_beta   89.98882771
_cell_angle_gamma   90.09502776
_symmetry_Int_Tables_number   1
_chemical_formula_structural   Li4Ti2Fe4(CoO6)3
_chemical_formula_sum   'Li8 Ti4 Fe8 Co6 O36'
_cell_volume   648.78037184
_cell_formula_units_Z   2
loop_
 _symmetry_equiv_pos_site_id
 _symmetry_equiv_pos_as_xyz
  1  'x, y, z'
loop_
 _atom_site_type_symbol
 _atom_site_label
 _atom_site_symmetry_multiplicity
 _atom_site_fract_x
 _atom_site_fract_y
 _atom_site_fract_z
 _atom_site_occupancy
  Li  Li0  1  0.19442786  0.98701178  0.99995269  1
  Li  Li1  1  0.18813724  0.20547567  0.00006475  1
  Li  Li2  1  0.31134545  0.70609270  0.00006466  1
  Li  Li3  1  0.30395097  0.48607281  0.99988618  1
  Li  Li4  1  0.69593918  0.51333438  0.00010867  1
  Li  Li5  1  0.68942174  0.29370084  0.99997904  1
  Li  Li6  1  0.81091128  0.79346066  0.99986614  1
  Li  Li7  1  0.80553973  0.01428904  0.00004642  1
  Ti  Ti8  1  0.99880860  0.10487858  0.00028867  1
  Ti  Ti9  1  0.50074813  0.60443789  0.00137995  1
  Ti  Ti10  1  0.49982300  0.39557114  0.99985756  1
  Ti  Ti11  1  0.00100625  0.89520727  0.99943765  1
  Fe  Fe12  1  0.02275004  0.30421666  0.99991386  1
  Fe  Fe13  1  0.13664678  0.58815683  0.50030284  1
  Fe  Fe14  1  0.36227984  0.08800652  0.50017047  1
  Fe  Fe15  1  0.47470898  0.80484009  0.99875047  1
  Fe  Fe16  1  0.52557923  0.19549182  0.00007480  1
  Fe  Fe17  1  0.63738984  0.91193523  0.49974929  1
  Fe  Fe18  1  0.86352778  0.41190407  0.49979382  1
  Fe  Fe19  1  0.97608193  0.69584655  -0.00012093  1
  Co  Co20  1  0.00005132  0.50012336  0.00001594  1
  Co  Co21  1  0.14751218  0.80455234  0.49738357  1
  Co  Co22  1  0.35266874  0.30436751  0.49977273  1
  Co  Co23  1  0.49983464  0.99989790  0.99997201  1
  Co  Co24  1  0.64643400  0.69580095  0.50184787  1
  Co  Co25  1  0.85288502  0.19540864  0.50094337  1
  O  O26  1  0.00879830  0.42759402  0.99982942  1
  O  O27  1  0.99117493  0.57248495  0.00020875  1
  O  O28  1  0.06605485  0.93889436  0.50018572  1
  O  O29  1  0.04442977  0.16097719  0.49986144  1
  O  O30  1  0.09780111  0.66462076  0.50004746  1
  O  O31  1  0.09696055  0.76056457  0.00275306  1
  O  O32  1  0.14298163  0.50588098  0.49997206  1
  O  O33  1  0.15864139  0.27641981  0.49977903  1
  O  O34  1  0.19938029  0.84980573  0.99686492  1
  O  O35  1  0.20281646  0.08605590  0.99996843  1
  O  O36  1  0.29661901  0.58629859  0.00026911  1
  O  O37  1  0.30212345  0.34929742  0.00000293  1
  O  O38  1  0.34175099  0.77572725  0.50012529  1
  O  O39  1  0.35680496  0.00564768  0.49989871  1
  O  O40  1  0.40268686  0.25995864  0.99993194  1
  O  O41  1  0.40462586  0.16446839  0.49976704  1
  O  O42  1  0.45731539  0.66043918  0.50014118  1
  O  O43  1  0.43355757  0.43897475  0.50052448  1
  O  O44  1  0.50715248  0.07224338  0.00018708  1
  O  O45  1  0.49208732  0.92749546  0.99973853  1
  O  O46  1  0.56654388  0.56092959  0.50041891  1
  O  O47  1  0.54229355  0.33937391  0.50004345  1
  O  O48  1  0.59662822  0.83546024  0.49925751  1
  O  O49  1  0.59595773  0.74024381  0.99796820  1
  O  O50  1  0.64321680  0.99427357  0.50007510  1
  O  O51  1  0.65853979  0.22447973  0.49986735  1
  O  O52  1  0.69776887  0.65080652  0.00318225  1
  O  O53  1  0.70307031  0.41375378  0.00003128  1
  O  O54  1  0.79691906  0.91361236  0.99995156  1
  O  O55  1  0.80137494  0.15005970  0.00095163  1
  O  O56  1  0.84201191  0.72396871  0.49953238  1
  O  O57  1  0.85711434  0.49418074  0.50004619  1
  O  O58  1  0.90361680  0.23941927  0.99900838  1
  O  O59  1  0.90241336  0.33528621  0.50009945  1
  O  O60  1  0.95643757  0.83909122  0.50044629  1
  O  O61  1  0.93392098  0.06113042  0.49956098  1
