# generated using pymatgen
data_AlCuO3
_symmetry_space_group_name_H-M   'P 1'
_cell_length_a   4.70912309
_cell_length_b   6.78166696
_cell_length_c   6.23274991
_cell_angle_alpha   90.00000000
_cell_angle_beta   94.51788193
_cell_angle_gamma   90.00000000
_symmetry_Int_Tables_number   1
_chemical_formula_structural   AlCuO3
_chemical_formula_sum   'Al4 Cu4 O12'
_cell_volume   198.42877915
_cell_formula_units_Z   4
loop_
 _symmetry_equiv_pos_site_id
 _symmetry_equiv_pos_as_xyz
  1  'x, y, z'
loop_
 _atom_site_type_symbol
 _atom_site_label
 _atom_site_symmetry_multiplicity
 _atom_site_fract_x
 _atom_site_fract_y
 _atom_site_fract_z
 _atom_site_occupancy
  Al  Al0  1  0.48150844  0.80224410  0.74811060  1
  Al  Al1  1  0.51849156  0.30224410  0.75188940  1
  Al  Al2  1  0.48150844  0.69775590  0.24811060  1
  Al  Al3  1  0.51849156  0.19775590  0.25188940  1
  Cu  Cu4  1  0.00000000  0.00000000  0.50000000  1
  Cu  Cu5  1  0.00000000  0.50000000  0.50000000  1
  Cu  Cu6  1  0.00000000  0.00000000  0.00000000  1
  Cu  Cu7  1  0.00000000  0.50000000  0.00000000  1
  O  O8  1  0.14883210  0.39441889  0.75846199  1
  O  O9  1  0.14883210  0.10558111  0.25846199  1
  O  O10  1  0.30471930  0.81147978  0.00283657  1
  O  O11  1  0.30471930  0.68852022  0.50283657  1
  O  O12  1  0.33921600  0.05642932  0.66967095  1
  O  O13  1  0.33921600  0.44357068  0.16967095  1
  O  O14  1  0.66078400  0.55642932  0.83032905  1
  O  O15  1  0.66078400  0.94357068  0.33032905  1
  O  O16  1  0.69528070  0.31147978  0.49716343  1
  O  O17  1  0.69528070  0.18852022  0.99716343  1
  O  O18  1  0.85116790  0.89441889  0.74153801  1
  O  O19  1  0.85116790  0.60558111  0.24153801  1
