# generated using pymatgen
data_Li2Fe3F8
_symmetry_space_group_name_H-M   'P 1'
_cell_length_a   6.16837142
_cell_length_b   6.23343783
_cell_length_c   6.16837190
_cell_angle_alpha   119.65530206
_cell_angle_beta   59.99999719
_cell_angle_gamma   119.65530630
_symmetry_Int_Tables_number   1
_chemical_formula_structural   Li2Fe3F8
_chemical_formula_sum   'Li2 Fe3 F8'
_cell_volume   168.57643234
_cell_formula_units_Z   1
loop_
 _symmetry_equiv_pos_site_id
 _symmetry_equiv_pos_as_xyz
  1  'x, y, z'
loop_
 _atom_site_type_symbol
 _atom_site_label
 _atom_site_symmetry_multiplicity
 _atom_site_fract_x
 _atom_site_fract_y
 _atom_site_fract_z
 _atom_site_occupancy
  Li  Li0  1  0.13298501  0.39895403  0.13298501  1
  Li  Li1  1  0.86701499  0.60104597  0.86701499  1
  Fe  Fe2  1  0.00000000  0.00000000  0.50000000  1
  Fe  Fe3  1  0.50000000  0.00000000  0.00000000  1
  Fe  Fe4  1  0.50000000  0.00000000  0.50000000  1
  F  F5  1  0.09840780  0.76681590  0.09840780  1
  F  F6  1  0.09840780  0.76681590  0.57000030  1
  F  F7  1  0.57000030  0.76681590  0.09840780  1
  F  F8  1  0.59604553  0.78813758  0.59604553  1
  F  F9  1  0.40395447  0.21186242  0.40395447  1
  F  F10  1  0.42999970  0.23318410  0.90159220  1
  F  F11  1  0.90159220  0.23318410  0.42999970  1
  F  F12  1  0.90159220  0.23318410  0.90159220  1
