# generated using pymatgen
data_KMn(CN)3
_symmetry_space_group_name_H-M   'P 1'
_cell_length_a   6.70875484
_cell_length_b   7.10045739
_cell_length_c   9.77043665
_cell_angle_alpha   90.00000000
_cell_angle_beta   90.48501975
_cell_angle_gamma   90.00000000
_symmetry_Int_Tables_number   1
_chemical_formula_structural   KMn(CN)3
_chemical_formula_sum   'K4 Mn4 C12 N12'
_cell_volume   465.40030050
_cell_formula_units_Z   4
loop_
 _symmetry_equiv_pos_site_id
 _symmetry_equiv_pos_as_xyz
  1  'x, y, z'
loop_
 _atom_site_type_symbol
 _atom_site_label
 _atom_site_symmetry_multiplicity
 _atom_site_fract_x
 _atom_site_fract_y
 _atom_site_fract_z
 _atom_site_occupancy
  K  K0  1  0.97943544  0.56782455  0.25115596  1
  K  K1  1  0.47943544  0.93217545  0.75115596  1
  K  K2  1  0.02056456  0.43217545  0.74884404  1
  K  K3  1  0.52056456  0.06782455  0.24884404  1
  Mn  Mn4  1  0.50000000  0.50000000  0.50000000  1
  Mn  Mn5  1  -0.00000000  -0.00000000  -0.00000000  1
  Mn  Mn6  1  -0.00000000  -0.00000000  0.50000000  1
  Mn  Mn7  1  0.50000000  0.50000000  -0.00000000  1
  C  C8  1  0.77297588  0.84333729  0.02964249  1
  C  C9  1  0.27297588  0.65666271  0.52964249  1
  C  C10  1  0.22702412  0.15666271  0.97035751  1
  C  C11  1  0.72702412  0.34333729  0.47035751  1
  C  C12  1  0.65424242  0.72074894  0.46619061  1
  C  C13  1  0.15424242  0.77925106  0.96619061  1
  C  C14  1  0.34575758  0.27925106  0.53380939  1
  C  C15  1  0.84575758  0.22074894  0.03380939  1
  C  C16  1  0.06472387  0.98665899  0.18997820  1
  C  C17  1  0.56472387  0.51334101  0.68997820  1
  C  C18  1  0.93527613  0.01334101  0.81002180  1
  C  C19  1  0.43527613  0.48665899  0.31002180  1
  N  N20  1  0.36167426  0.26372515  0.95701563  1
  N  N21  1  0.86167426  0.23627485  0.45701563  1
  N  N22  1  0.63832574  0.73627485  0.04298437  1
  N  N23  1  0.13832574  0.76372515  0.54298437  1
  N  N24  1  0.23923434  0.14703928  0.54911467  1
  N  N25  1  0.73923434  0.35296072  0.04911467  1
  N  N26  1  0.76076566  0.85296072  0.45088533  1
  N  N27  1  0.26076566  0.64703928  0.95088533  1
  N  N28  1  0.90952591  0.02122944  0.68978575  1
  N  N29  1  0.40952591  0.47877056  0.18978575  1
  N  N30  1  0.09047409  0.97877056  0.31021425  1
  N  N31  1  0.59047409  0.52122944  0.81021425  1
