# generated using pymatgen
data_BaYI5
_symmetry_space_group_name_H-M   'P 1'
_cell_length_a   13.92137968
_cell_length_b   11.74224267
_cell_length_c   15.88008800
_cell_angle_alpha   90.00000000
_cell_angle_beta   94.35622505
_cell_angle_gamma   90.00000000
_symmetry_Int_Tables_number   1
_chemical_formula_structural   BaYI5
_chemical_formula_sum   'Ba8 Y8 I40'
_cell_volume   2588.39036672
_cell_formula_units_Z   8
loop_
 _symmetry_equiv_pos_site_id
 _symmetry_equiv_pos_as_xyz
  1  'x, y, z'
loop_
 _atom_site_type_symbol
 _atom_site_label
 _atom_site_symmetry_multiplicity
 _atom_site_fract_x
 _atom_site_fract_y
 _atom_site_fract_z
 _atom_site_occupancy
  Ba  Ba0  1  0.19232929  0.71739399  0.86057204  1
  Ba  Ba1  1  0.25992384  0.73397457  0.46132024  1
  Ba  Ba2  1  0.30767071  0.21739399  0.63942796  1
  Ba  Ba3  1  0.24007616  0.23397457  0.03867976  1
  Ba  Ba4  1  0.75992384  0.76602543  0.96132024  1
  Ba  Ba5  1  0.69232929  0.78260601  0.36057204  1
  Ba  Ba6  1  0.74007616  0.26602543  0.53867976  1
  Ba  Ba7  1  0.80767071  0.28260601  0.13942796  1
  Y  Y8  1  0.01955792  0.19176248  0.80715860  1
  Y  Y9  1  0.12697150  0.22178934  0.33598071  1
  Y  Y10  1  0.37302850  0.72178934  0.16401929  1
  Y  Y11  1  0.48044208  0.69176248  0.69284140  1
  Y  Y12  1  0.51955792  0.30823752  0.30715860  1
  Y  Y13  1  0.62697150  0.27821066  0.83598071  1
  Y  Y14  1  0.87302850  0.77821066  0.66401929  1
  Y  Y15  1  0.98044208  0.80823752  0.19284140  1
  I  I16  1  0.04572193  0.23062577  0.62606247  1
  I  I17  1  0.01696001  0.81849977  0.00755669  1
  I  I18  1  0.08400336  0.78017919  0.63942179  1
  I  I19  1  0.13971277  0.39932462  0.85703347  1
  I  I20  1  0.08439150  0.36797237  0.18219397  1
  I  I21  1  0.09659593  0.02508853  0.20758188  1
  I  I22  1  0.20158639  0.04971104  0.83029222  1
  I  I23  1  0.18967279  0.41036233  0.45357219  1
  I  I24  1  0.19456080  0.04272326  0.46568766  1
  I  I25  1  0.17162183  0.68617901  0.23849731  1
  I  I26  1  0.29841361  0.54971104  0.66970778  1
  I  I27  1  0.32837817  0.18617901  0.26150269  1
  I  I28  1  0.30543920  0.54272326  0.03431234  1
  I  I29  1  0.31032721  0.91036233  0.04642781  1
  I  I30  1  0.36028723  0.89932462  0.64296653  1
  I  I31  1  0.41599664  0.28017919  0.86057821  1
  I  I32  1  0.40340407  0.52508853  0.29241812  1
  I  I33  1  0.41560850  0.86797237  0.31780603  1
  I  I34  1  0.45427807  0.73062577  0.87393753  1
  I  I35  1  0.48303999  0.31849977  0.49244331  1
  I  I36  1  0.51696001  0.68150023  0.50755669  1
  I  I37  1  0.54572193  0.26937423  0.12606247  1
  I  I38  1  0.58439150  0.13202763  0.68219397  1
  I  I39  1  0.59659593  0.47491147  0.70758188  1
  I  I40  1  0.58400336  0.71982081  0.13942179  1
  I  I41  1  0.63971277  0.10067538  0.35703347  1
  I  I42  1  0.68967279  0.08963767  0.95357219  1
  I  I43  1  0.69456080  0.45727674  0.96568766  1
  I  I44  1  0.67162183  0.81382099  0.73849731  1
  I  I45  1  0.70158639  0.45028896  0.33029222  1
  I  I46  1  0.82837817  0.31382099  0.76150269  1
  I  I47  1  0.80543920  0.95727674  0.53431234  1
  I  I48  1  0.81032721  0.58963767  0.54642781  1
  I  I49  1  0.79841361  0.95028896  0.16970778  1
  I  I50  1  0.90340407  0.97491147  0.79241812  1
  I  I51  1  0.91560850  0.63202763  0.81780603  1
  I  I52  1  0.86028723  0.60067538  0.14296653  1
  I  I53  1  0.91599664  0.21982081  0.36057821  1
  I  I54  1  0.98303999  0.18150023  0.99244331  1
  I  I55  1  0.95427807  0.76937423  0.37393753  1
