# generated using pymatgen
data_LiV2F7
_symmetry_space_group_name_H-M   'P 1'
_cell_length_a   5.55087045
_cell_length_b   5.19147229
_cell_length_c   10.30716245
_cell_angle_alpha   90.00000000
_cell_angle_beta   100.22042060
_cell_angle_gamma   90.00000000
_symmetry_Int_Tables_number   1
_chemical_formula_structural   LiV2F7
_chemical_formula_sum   'Li2 V4 F14'
_cell_volume   292.31042006
_cell_formula_units_Z   2
loop_
 _symmetry_equiv_pos_site_id
 _symmetry_equiv_pos_as_xyz
  1  'x, y, z'
loop_
 _atom_site_type_symbol
 _atom_site_label
 _atom_site_symmetry_multiplicity
 _atom_site_fract_x
 _atom_site_fract_y
 _atom_site_fract_z
 _atom_site_occupancy
  Li  Li0  1  0.50000000  0.93999678  0.75000000  1
  Li  Li1  1  0.50000000  0.06000322  0.25000000  1
  V  V2  1  0.07083298  0.24935762  0.92660102  1
  V  V3  1  0.07083298  0.75064238  0.42660102  1
  V  V4  1  0.92916702  0.24935762  0.57339898  1
  V  V5  1  0.92916702  0.75064238  0.07339898  1
  F  F6  1  0.00000000  0.42082706  0.75000000  1
  F  F7  1  0.00000000  0.57917294  0.25000000  1
  F  F8  1  0.15376750  0.94806547  0.60555668  1
  F  F9  1  0.15376750  0.05193453  0.10555668  1
  F  F10  1  0.21770990  0.44114593  0.51639984  1
  F  F11  1  0.21770990  0.55885407  0.01639984  1
  F  F12  1  0.33346220  0.08688386  0.87001907  1
  F  F13  1  0.33346220  0.91311614  0.37001907  1
  F  F14  1  0.66653780  0.08688386  0.62998093  1
  F  F15  1  0.66653780  0.91311614  0.12998093  1
  F  F16  1  0.78229010  0.44114593  0.98360016  1
  F  F17  1  0.78229010  0.55885407  0.48360016  1
  F  F18  1  0.84623250  0.94806547  0.89444332  1
  F  F19  1  0.84623250  0.05193453  0.39444332  1
