# generated using pymatgen
data_Li4Cu3Ni2Sb3O16
_symmetry_space_group_name_H-M   'P 1'
_cell_length_a   6.04545241
_cell_length_b   6.04763209
_cell_length_c   9.72395123
_cell_angle_alpha   90.04366102
_cell_angle_beta   88.88046331
_cell_angle_gamma   120.04175942
_symmetry_Int_Tables_number   1
_chemical_formula_structural   Li4Cu3Ni2Sb3O16
_chemical_formula_sum   'Li4 Cu3 Ni2 Sb3 O16'
_cell_volume   307.67922656
_cell_formula_units_Z   1
loop_
 _symmetry_equiv_pos_site_id
 _symmetry_equiv_pos_as_xyz
  1  'x, y, z'
loop_
 _atom_site_type_symbol
 _atom_site_label
 _atom_site_symmetry_multiplicity
 _atom_site_fract_x
 _atom_site_fract_y
 _atom_site_fract_z
 _atom_site_occupancy
  Li  Li0  1  0.33505004  0.66761803  0.89690947  1
  Li  Li1  1  0.02268066  0.01148534  0.00421374  1
  Li  Li2  1  0.05117782  0.02559984  0.49080608  1
  Li  Li3  1  0.66263690  0.33140270  0.37844963  1
  Cu  Cu4  1  0.16646679  0.83008891  0.21509028  1
  Cu  Cu5  1  0.16703950  0.33664008  0.21492999  1
  Cu  Cu6  1  0.33448715  0.16711569  0.71826538  1
  Ni  Ni7  1  0.30882095  0.65431652  0.47914533  1
  Ni  Ni8  1  0.65867002  0.32923744  0.00272473  1
  Sb  Sb9  1  0.65796399  0.82904674  0.21532653  1
  Sb  Sb10  1  0.82851708  0.66116332  0.71445780  1
  Sb  Sb11  1  0.82861053  0.16745184  0.71447313  1
  O  O12  1  0.15226776  0.83457492  0.60426393  1
  O  O13  1  0.03663261  0.51843439  0.32989412  1
  O  O14  1  0.33279796  0.66658795  0.10737805  1
  O  O15  1  0.99425836  0.99693670  0.31071960  1
  O  O16  1  0.98041398  0.99030872  0.82048268  1
  O  O17  1  0.15188840  0.31786610  0.60411778  1
  O  O18  1  0.47968133  0.96156440  0.33891744  1
  O  O19  1  0.48052964  0.51887156  0.33905853  1
  O  O20  1  0.32021885  0.15994725  0.10645822  1
  O  O21  1  0.68909477  0.84444290  0.59956684  1
  O  O22  1  0.52117460  0.48663635  0.83506024  1
  O  O23  1  0.52160310  0.03440902  0.83521004  1
  O  O24  1  0.68461411  0.34223777  0.59902192  1
  O  O25  1  0.83316662  0.68229735  0.09912541  1
  O  O26  1  0.96700607  0.48369834  0.83470813  1
  O  O27  1  0.83253039  0.15031983  0.09906400  1
