# generated using pymatgen
data_Li3MnF6
_symmetry_space_group_name_H-M   'P 1'
_cell_length_a   8.71309456
_cell_length_b   5.57390928
_cell_length_c   9.80693382
_cell_angle_alpha   90.00000000
_cell_angle_beta   99.93131468
_cell_angle_gamma   90.00000000
_symmetry_Int_Tables_number   1
_chemical_formula_structural   Li3MnF6
_chemical_formula_sum   'Li12 Mn4 F24'
_cell_volume   469.14652683
_cell_formula_units_Z   4
loop_
 _symmetry_equiv_pos_site_id
 _symmetry_equiv_pos_as_xyz
  1  'x, y, z'
loop_
 _atom_site_type_symbol
 _atom_site_label
 _atom_site_symmetry_multiplicity
 _atom_site_fract_x
 _atom_site_fract_y
 _atom_site_fract_z
 _atom_site_occupancy
  Li  Li0  1  0.12396701  0.98950313  0.81971083  1
  Li  Li1  1  0.12396701  0.51049687  0.31971083  1
  Li  Li2  1  0.24187669  0.36297023  0.64421218  1
  Li  Li3  1  0.24187669  0.13702977  0.14421218  1
  Li  Li4  1  0.42517869  0.91656144  0.63702112  1
  Li  Li5  1  0.42517869  0.58343856  0.13702112  1
  Li  Li6  1  0.57482131  0.41656144  0.86297888  1
  Li  Li7  1  0.57482131  0.08343856  0.36297888  1
  Li  Li8  1  0.75812331  0.86297023  0.85578782  1
  Li  Li9  1  0.75812331  0.63702977  0.35578782  1
  Li  Li10  1  0.87603299  0.48950313  0.68028917  1
  Li  Li11  1  0.87603299  0.01049687  0.18028917  1
  Mn  Mn12  1  0.00000000  0.00000000  0.50000000  1
  Mn  Mn13  1  0.00000000  0.50000000  0.00000000  1
  Mn  Mn14  1  0.50000000  0.50000000  0.50000000  1
  Mn  Mn15  1  0.50000000  0.00000000  0.00000000  1
  F  F16  1  0.07723452  0.36114021  0.84958509  1
  F  F17  1  0.07723452  0.13885979  0.34958509  1
  F  F18  1  0.22185820  0.48676870  0.15835069  1
  F  F19  1  0.00961667  0.18830498  0.07888198  1
  F  F20  1  0.29472438  0.62152734  0.45622283  1
  F  F21  1  0.22185820  0.01323130  0.65835069  1
  F  F22  1  0.00961667  0.31169502  0.57888198  1
  F  F23  1  0.41667268  0.30985125  0.98028837  1
  F  F24  1  0.29472438  0.87847266  0.95622283  1
  F  F25  1  0.43711040  0.52414647  0.70195969  1
  F  F26  1  0.41667268  0.19014875  0.48028837  1
  F  F27  1  0.43711040  0.97585353  0.20195969  1
  F  F28  1  0.56288960  0.02414647  0.79804031  1
  F  F29  1  0.58332732  0.80985125  0.51971163  1
  F  F30  1  0.56288960  0.47585353  0.29804031  1
  F  F31  1  0.70527562  0.12152734  0.04377717  1
  F  F32  1  0.58332732  0.69014875  0.01971163  1
  F  F33  1  0.99038333  0.68830498  0.42111802  1
  F  F34  1  0.77814180  0.98676870  0.34164931  1
  F  F35  1  0.70527562  0.37847266  0.54377717  1
  F  F36  1  0.99038333  0.81169502  0.92111802  1
  F  F37  1  0.77814180  0.51323130  0.84164931  1
  F  F38  1  0.92276548  0.86114021  0.65041491  1
  F  F39  1  0.92276548  0.63885979  0.15041491  1
