# generated using pymatgen
data_Li2V3CuO8
_symmetry_space_group_name_H-M   'P 1'
_cell_length_a   5.88713878
_cell_length_b   5.86483736
_cell_length_c   9.82098163
_cell_angle_alpha   87.69782782
_cell_angle_beta   91.14649334
_cell_angle_gamma   119.87476325
_symmetry_Int_Tables_number   1
_chemical_formula_structural   Li2V3CuO8
_chemical_formula_sum   'Li4 V6 Cu2 O16'
_cell_volume   293.79323371
_cell_formula_units_Z   2
loop_
 _symmetry_equiv_pos_site_id
 _symmetry_equiv_pos_as_xyz
  1  'x, y, z'
loop_
 _atom_site_type_symbol
 _atom_site_label
 _atom_site_symmetry_multiplicity
 _atom_site_fract_x
 _atom_site_fract_y
 _atom_site_fract_z
 _atom_site_occupancy
  Li  Li0  1  0.34091562  0.65970302  0.89894045  1
  Li  Li1  1  0.98823444  0.00855860  0.99482593  1
  Li  Li2  1  0.01176556  0.02032416  0.49482593  1
  Li  Li3  1  0.65908438  0.31878740  0.39894045  1
  V  V4  1  0.13308224  0.80079460  0.21546424  1
  V  V5  1  0.18485186  0.33467213  0.21510356  1
  V  V6  1  0.64965065  0.84649436  0.21143687  1
  V  V7  1  0.35034935  0.19684371  0.71143687  1
  V  V8  1  0.86691776  0.66771236  0.71546424  1
  V  V9  1  0.81514814  0.14982027  0.71510356  1
  Cu  Cu10  1  0.34565792  0.67815897  0.49916602  1
  Cu  Cu11  1  0.65434208  0.33250105  -0.00083398  1
  O  O12  1  0.18521228  0.87293154  0.60741436  1
  O  O13  1  0.01862545  0.51105864  0.32483773  1
  O  O14  1  0.32168438  0.66667103  0.10150659  1
  O  O15  1  0.98682189  0.98807797  0.31181781  1
  O  O16  1  0.01317811  0.00125708  0.81181781  1
  O  O17  1  0.16317281  0.33577526  0.60709099  1
  O  O18  1  0.48173606  0.94857920  0.33337205  1
  O  O19  1  0.46160028  0.48842418  0.32548914  1
  O  O20  1  0.30197545  0.14186067  0.10745424  1
  O  O21  1  0.69802455  0.83988522  0.60745424  1
  O  O22  1  0.51826394  0.46684314  0.83337205  1
  O  O23  1  0.53839972  0.02682390  0.82548914  1
  O  O24  1  0.67831562  0.34498665  0.60150659  1
  O  O25  1  0.81478772  0.68771925  0.10741436  1
  O  O26  1  0.98137455  0.49243319  0.82483773  1
  O  O27  1  0.83682719  0.17260245  0.10709099  1
