# generated using pymatgen
data_H6C2(NO)3
_symmetry_space_group_name_H-M   'P 1'
_cell_length_a   3.63686682
_cell_length_b   8.07364434
_cell_length_c   17.97195874
_cell_angle_alpha   90.00000000
_cell_angle_beta   90.00000000
_cell_angle_gamma   92.96826781
_symmetry_Int_Tables_number   1
_chemical_formula_structural   H6C2(NO)3
_chemical_formula_sum   'H24 C8 N12 O12'
_cell_volume   526.99848800
_cell_formula_units_Z   4
loop_
 _symmetry_equiv_pos_site_id
 _symmetry_equiv_pos_as_xyz
  1  'x, y, z'
loop_
 _atom_site_type_symbol
 _atom_site_label
 _atom_site_symmetry_multiplicity
 _atom_site_fract_x
 _atom_site_fract_y
 _atom_site_fract_z
 _atom_site_occupancy
  H  H0  1  0.40677599  0.01520962  0.67036635  1
  H  H1  1  0.09322401  0.48479038  0.17036635  1
  H  H2  1  0.59322401  0.98479038  0.32963365  1
  H  H3  1  0.90677599  0.51520962  0.82963365  1
  H  H4  1  0.20733730  0.20800533  0.65455982  1
  H  H5  1  0.29266270  0.29199467  0.15455982  1
  H  H6  1  0.79266270  0.79199467  0.34544018  1
  H  H7  1  0.70733730  0.70800533  0.84544018  1
  H  H8  1  0.47797500  0.91517250  0.77780981  1
  H  H9  1  0.02202500  0.58482750  0.27780981  1
  H  H10  1  0.52202500  0.08482750  0.22219019  1
  H  H11  1  0.97797500  0.41517250  0.72219019  1
  H  H12  1  0.22609748  0.23415899  0.89891810  1
  H  H13  1  0.27390252  0.26584101  0.39891810  1
  H  H14  1  0.77390252  0.76584101  0.10108190  1
  H  H15  1  0.72609748  0.73415899  0.60108190  1
  H  H16  1  0.36459502  0.13092371  0.98172862  1
  H  H17  1  0.13540498  0.36907629  0.48172862  1
  H  H18  1  0.63540498  0.86907629  0.01827138  1
  H  H19  1  0.86459502  0.63092371  0.51827138  1
  H  H20  1  0.43795334  0.12060640  0.54634084  1
  H  H21  1  0.06204666  0.37939360  0.04634084  1
  H  H22  1  0.56204666  0.87939360  0.45365916  1
  H  H23  1  0.93795334  0.62060640  0.95365916  1
  C  C24  1  0.27120515  0.14532880  0.76426680  1
  C  C25  1  0.22879485  0.35467120  0.26426680  1
  C  C26  1  0.72879485  0.85467120  0.23573320  1
  C  C27  1  0.77120515  0.64532880  0.73573320  1
  C  C28  1  0.41456718  0.00387624  0.88437298  1
  C  C29  1  0.08543282  0.49612376  0.38437298  1
  C  C30  1  0.58543282  0.99612376  0.11562702  1
  C  C31  1  0.91456718  0.50387624  0.61562702  1
  N  N32  1  0.30635547  0.12140011  0.69036533  1
  N  N33  1  0.19364453  0.37859989  0.19036533  1
  N  N34  1  0.69364453  0.87859989  0.30963467  1
  N  N35  1  0.80635547  0.62140011  0.80963467  1
  N  N36  1  0.38202581  0.01441557  0.80726007  1
  N  N37  1  0.11797419  0.48558443  0.30726007  1
  N  N38  1  0.61797419  0.98558443  0.19273993  1
  N  N39  1  0.88202581  0.51441557  0.69273993  1
  N  N40  1  0.31707308  0.13264125  0.92543427  1
  N  N41  1  0.18292692  0.36735875  0.42543427  1
  N  N42  1  0.68292692  0.86735875  0.07456573  1
  N  N43  1  0.81707308  0.63264125  0.57456573  1
  O  O44  1  0.14660800  0.27445052  0.79139968  1
  O  O45  1  0.35339200  0.22554948  0.29139968  1
  O  O46  1  0.85339200  0.72554948  0.20860032  1
  O  O47  1  0.64660800  0.77445052  0.70860032  1
  O  O48  1  0.53512670  0.87274342  0.91130571  1
  O  O49  1  0.96487330  0.62725658  0.41130571  1
  O  O50  1  0.46487330  0.12725658  0.08869429  1
  O  O51  1  0.03512670  0.37274342  0.58869429  1
  O  O52  1  0.61067580  0.03802049  0.53074156  1
  O  O53  1  0.88932420  0.46197951  0.03074156  1
  O  O54  1  0.38932420  0.96197951  0.46925844  1
  O  O55  1  0.11067580  0.53802049  0.96925844  1
