# generated using pymatgen
data_LiFeB2O5
_symmetry_space_group_name_H-M   'P 1'
_cell_length_a   12.02367384
_cell_length_b   5.48391773
_cell_length_c   10.83602364
_cell_angle_alpha   90.00000000
_cell_angle_beta   90.00000000
_cell_angle_gamma   79.41101162
_symmetry_Int_Tables_number   1
_chemical_formula_structural   LiFeB2O5
_chemical_formula_sum   'Li8 Fe8 B16 O40'
_cell_volume   702.32580738
_cell_formula_units_Z   8
loop_
 _symmetry_equiv_pos_site_id
 _symmetry_equiv_pos_as_xyz
  1  'x, y, z'
loop_
 _atom_site_type_symbol
 _atom_site_label
 _atom_site_symmetry_multiplicity
 _atom_site_fract_x
 _atom_site_fract_y
 _atom_site_fract_z
 _atom_site_occupancy
  Li  Li0  1  0.06135948  0.36753195  0.37487868  1
  Li  Li1  1  0.06135948  0.86753195  0.12512132  1
  Li  Li2  1  0.43914610  0.11874282  0.88778673  1
  Li  Li3  1  0.43914610  0.61874282  0.61221327  1
  Li  Li4  1  0.56085390  0.38125718  0.38778673  1
  Li  Li5  1  0.56085390  0.88125718  0.11221327  1
  Li  Li6  1  0.93864052  0.13246805  0.87487868  1
  Li  Li7  1  0.93864052  0.63246805  0.62512132  1
  Fe  Fe8  1  0.23819909  0.27065079  0.62322601  1
  Fe  Fe9  1  0.25880107  0.24940498  0.12531203  1
  Fe  Fe10  1  0.23819909  0.77065079  0.87677399  1
  Fe  Fe11  1  0.25880107  0.74940498  0.37468797  1
  Fe  Fe12  1  0.74119893  0.25059502  0.62531203  1
  Fe  Fe13  1  0.76180091  0.22934921  0.12322601  1
  Fe  Fe14  1  0.74119893  0.75059502  0.87468797  1
  Fe  Fe15  1  0.76180091  0.72934921  0.37677399  1
  B  B16  1  0.00333113  0.14368122  0.63006327  1
  B  B17  1  0.00333113  0.64368122  0.86993673  1
  B  B18  1  0.16547076  0.30895739  0.88082693  1
  B  B19  1  0.16547076  0.80895739  0.61917307  1
  B  B20  1  0.33624301  0.20468997  0.37232799  1
  B  B21  1  0.33624301  0.70468997  0.12767201  1
  B  B22  1  0.50791921  0.15722248  0.61193909  1
  B  B23  1  0.49208079  0.34277752  0.11193909  1
  B  B24  1  0.50791921  0.65722248  0.88806091  1
  B  B25  1  0.49208079  0.84277752  0.38806091  1
  B  B26  1  0.66375699  0.29531003  0.87232799  1
  B  B27  1  0.66375699  0.79531003  0.62767201  1
  B  B28  1  0.83452924  0.19104261  0.38082693  1
  B  B29  1  0.83452924  0.69104261  0.11917307  1
  B  B30  1  0.99666887  0.35631878  0.13006327  1
  B  B31  1  0.99666887  0.85631878  0.36993673  1
  O  O32  1  0.06718202  0.31890627  0.60379644  1
  O  O33  1  0.04866071  0.38596257  0.88885548  1
  O  O34  1  0.10255636  0.29869898  0.17880938  1
  O  O35  1  0.06718202  0.81890627  0.89620356  1
  O  O36  1  0.04866071  0.88596257  0.61114452  1
  O  O37  1  0.10255636  0.79869898  0.32119062  1
  O  O38  1  0.21965838  0.12009534  0.95501250  1
  O  O39  1  0.25778823  0.11512836  0.44562249  1
  O  O40  1  0.22653050  0.43094470  0.80108991  1
  O  O41  1  0.21965838  0.62009534  0.54498750  1
  O  O42  1  0.29879689  0.40286414  0.29499706  1
  O  O43  1  0.25778823  0.61512836  0.05437751  1
  O  O44  1  0.22653050  0.93094470  0.69891009  1
  O  O45  1  0.29879689  0.90286414  0.20500294  1
  O  O46  1  0.39958885  0.25541929  0.64380642  1
  O  O47  1  0.45229703  0.10231424  0.37226741  1
  O  O48  1  0.42120149  0.19006039  0.07205974  1
  O  O49  1  0.39958885  0.75541929  0.85619358  1
  O  O50  1  0.45229703  0.60231424  0.12773259  1
  O  O51  1  0.42120149  0.69006039  0.42794026  1
  O  O52  1  0.57879851  0.30993961  0.57205974  1
  O  O53  1  0.54770297  0.39768576  0.87226741  1
  O  O54  1  0.60041115  0.24458071  0.14380642  1
  O  O55  1  0.57879851  0.80993961  0.92794026  1
  O  O56  1  0.54770297  0.89768576  0.62773259  1
  O  O57  1  0.60041115  0.74458071  0.35619358  1
  O  O58  1  0.70120311  0.09713586  0.79499706  1
  O  O59  1  0.77346950  0.06905530  0.30108991  1
  O  O60  1  0.74221177  0.38487164  0.94562249  1
  O  O61  1  0.70120311  0.59713586  0.70500294  1
  O  O62  1  0.78034162  0.37990466  0.45501250  1
  O  O63  1  0.77346950  0.56905530  0.19891009  1
  O  O64  1  0.74221177  0.88487164  0.55437751  1
  O  O65  1  0.78034162  0.87990466  0.04498750  1
  O  O66  1  0.89744364  0.20130102  0.67880938  1
  O  O67  1  0.95134029  0.11403743  0.38885548  1
  O  O68  1  0.93281798  0.18109373  0.10379644  1
  O  O69  1  0.89744364  0.70130102  0.82119062  1
  O  O70  1  0.95134029  0.61403743  0.11114452  1
  O  O71  1  0.93281798  0.68109373  0.39620356  1
