# generated using pymatgen
data_Fe3NiSn2(PO4)6
_symmetry_space_group_name_H-M   'P 1'
_cell_length_a   8.64600063
_cell_length_b   8.64600099
_cell_length_c   8.64600152
_cell_angle_alpha   60.34647370
_cell_angle_beta   60.34647808
_cell_angle_gamma   60.34647227
_symmetry_Int_Tables_number   1
_chemical_formula_structural   Fe3NiSn2(PO4)6
_chemical_formula_sum   'Fe3 Ni1 Sn2 P6 O24'
_cell_volume   460.59755313
_cell_formula_units_Z   1
loop_
 _symmetry_equiv_pos_site_id
 _symmetry_equiv_pos_as_xyz
  1  'x, y, z'
loop_
 _atom_site_type_symbol
 _atom_site_label
 _atom_site_symmetry_multiplicity
 _atom_site_fract_x
 _atom_site_fract_y
 _atom_site_fract_z
 _atom_site_occupancy
  Fe  Fe0  1  0.14957314  0.14957314  0.14957314  1
  Fe  Fe1  1  0.35212668  0.35212668  0.35212668  1
  Fe  Fe2  1  0.64859071  0.64859071  0.64859071  1
  Ni  Ni3  1  0.85250924  0.85250924  0.85250924  1
  Sn  Sn4  1  0.99909039  0.99909039  0.99909039  1
  Sn  Sn5  1  0.49919093  0.49919093  0.49919093  1
  P  P6  1  0.75047278  0.45585197  0.04158106  1
  P  P7  1  0.25008993  0.54630196  0.95783320  1
  P  P8  1  0.54630196  0.95783320  0.25008993  1
  P  P9  1  0.95783320  0.25008993  0.54630196  1
  P  P10  1  0.04158106  0.75047278  0.45585197  1
  P  P11  1  0.45585197  0.04158106  0.75047278  1
  O  O12  1  0.11147777  0.31595362  0.50476703  1
  O  O13  1  0.31595362  0.50476703  0.11147777  1
  O  O14  1  0.05732399  0.91189781  0.25147431  1
  O  O15  1  0.50476703  0.11147777  0.31595362  1
  O  O16  1  0.01190546  0.81644395  0.60235276  1
  O  O17  1  0.23962090  0.59071020  0.42925500  1
  O  O18  1  0.25147431  0.05732399  0.91189781  1
  O  O19  1  0.42925500  0.23962090  0.59071020  1
  O  O20  1  0.18307949  0.39348722  0.99507916  1
  O  O21  1  0.59071020  0.42925500  0.23962090  1
  O  O22  1  0.09043380  0.74644088  0.94264222  1
  O  O23  1  0.39348722  0.99507916  0.18307949  1
  O  O24  1  0.60235276  0.01190546  0.81644395  1
  O  O25  1  0.91189781  0.25147431  0.05732399  1
  O  O26  1  0.40999068  0.56441098  0.76130449  1
  O  O27  1  0.81644395  0.60235276  0.01190546  1
  O  O28  1  0.56441098  0.76130449  0.40999068  1
  O  O29  1  0.74644088  0.94264222  0.09043380  1
  O  O30  1  0.76130449  0.40999068  0.56441098  1
  O  O31  1  0.99507916  0.18307949  0.39348722  1
  O  O32  1  0.49221862  0.88729337  0.68722628  1
  O  O33  1  0.94264222  0.09043380  0.74644088  1
  O  O34  1  0.68722628  0.49221862  0.88729337  1
  O  O35  1  0.88729337  0.68722628  0.49221862  1
