# generated using pymatgen
data_TiMn3Cr2(PO4)6
_symmetry_space_group_name_H-M   'P 1'
_cell_length_a   8.45865207
_cell_length_b   8.45865241
_cell_length_c   8.45865237
_cell_angle_alpha   61.71215942
_cell_angle_beta   61.71216103
_cell_angle_gamma   61.71216001
_symmetry_Int_Tables_number   1
_chemical_formula_structural   TiMn3Cr2(PO4)6
_chemical_formula_sum   'Ti1 Mn3 Cr2 P6 O24'
_cell_volume   444.36843114
_cell_formula_units_Z   1
loop_
 _symmetry_equiv_pos_site_id
 _symmetry_equiv_pos_as_xyz
  1  'x, y, z'
loop_
 _atom_site_type_symbol
 _atom_site_label
 _atom_site_symmetry_multiplicity
 _atom_site_fract_x
 _atom_site_fract_y
 _atom_site_fract_z
 _atom_site_occupancy
  Ti  Ti0  1  0.85297436  0.85297436  0.85297436  1
  Mn  Mn1  1  0.14656418  0.14656418  0.14656418  1
  Mn  Mn2  1  0.35393470  0.35393470  0.35393470  1
  Mn  Mn3  1  0.64560185  0.64560185  0.64560185  1
  Cr  Cr4  1  0.99972383  0.99972383  0.99972383  1
  Cr  Cr5  1  0.50121930  0.50121930  0.50121930  1
  P  P6  1  0.25083213  0.55057200  0.94941237  1
  P  P7  1  0.55057200  0.94941237  0.25083213  1
  P  P8  1  0.94941237  0.25083213  0.55057200  1
  P  P9  1  0.04946926  0.74976355  0.44969259  1
  P  P10  1  0.44969259  0.04946926  0.74976355  1
  P  P11  1  0.74976355  0.44969259  0.04946926  1
  O  O12  1  0.09865591  0.32030192  0.51862815  1
  O  O13  1  0.32030192  0.51862815  0.09865591  1
  O  O14  1  0.06483124  0.90651801  0.24801767  1
  O  O15  1  0.51862815  0.09865591  0.32030192  1
  O  O16  1  0.98868748  0.82841184  0.61101344  1
  O  O17  1  0.24937803  0.60156453  0.44596208  1
  O  O18  1  0.24801767  0.06483124  0.90651801  1
  O  O19  1  0.44596208  0.24937803  0.60156453  1
  O  O20  1  0.17778522  0.39627267  0.98994026  1
  O  O21  1  0.60156453  0.44596208  0.24937803  1
  O  O22  1  0.09052119  0.75458089  0.93090459  1
  O  O23  1  0.39627267  0.98994026  0.17778522  1
  O  O24  1  0.61101344  0.98868748  0.82841184  1
  O  O25  1  0.90651801  0.24801767  0.06483124  1
  O  O26  1  0.40149072  0.56794251  0.74514520  1
  O  O27  1  0.82841184  0.61101344  0.98868748  1
  O  O28  1  0.56794251  0.74514520  0.40149072  1
  O  O29  1  0.75458089  0.93090459  0.09052119  1
  O  O30  1  0.74514520  0.40149072  0.56794251  1
  O  O31  1  0.98994026  0.17778522  0.39627267  1
  O  O32  1  0.48737358  0.89782399  0.67848777  1
  O  O33  1  0.93090459  0.09052119  0.75458089  1
  O  O34  1  0.67848777  0.48737358  0.89782399  1
  O  O35  1  0.89782399  0.67848777  0.48737358  1
