# generated using pymatgen
data_Li10Mn3Cr3(FeO8)2
_symmetry_space_group_name_H-M   'P 1'
_cell_length_a   6.05571660
_cell_length_b   5.96645167
_cell_length_c   9.96310115
_cell_angle_alpha   90.59983868
_cell_angle_beta   88.69794619
_cell_angle_gamma   60.75935780
_symmetry_Int_Tables_number   1
_chemical_formula_structural   Li10Mn3Cr3(FeO8)2
_chemical_formula_sum   'Li10 Mn3 Cr3 Fe2 O16'
_cell_volume   313.93116731
_cell_formula_units_Z   1
loop_
 _symmetry_equiv_pos_site_id
 _symmetry_equiv_pos_as_xyz
  1  'x, y, z'
loop_
 _atom_site_type_symbol
 _atom_site_label
 _atom_site_symmetry_multiplicity
 _atom_site_fract_x
 _atom_site_fract_y
 _atom_site_fract_z
 _atom_site_occupancy
  Li  Li0  1  0.67487475  0.67828866  0.72203396  1
  Li  Li1  1  0.39669914  0.82179292  0.93685256  1
  Li  Li2  1  0.80084951  0.80753046  0.94730970  1
  Li  Li3  1  0.79767272  0.39409482  0.93979703  1
  Li  Li4  1  0.17733161  0.61086585  0.43072762  1
  Li  Li5  1  0.34566134  0.30736281  0.22094904  1
  Li  Li6  1  0.59693502  0.20536131  0.44725531  1
  Li  Li7  1  0.01531166  0.98855899  0.01748523  1
  Li  Li8  1  0.99499101  0.00246418  0.51682243  1
  Li  Li9  1  0.19595030  0.19134085  0.43934951  1
  Mn  Mn10  1  0.83563382  0.32230922  0.21674718  1
  Mn  Mn11  1  0.66242811  0.17754669  0.71641967  1
  Mn  Mn12  1  0.16987967  0.17869775  0.71432341  1
  Cr  Cr13  1  0.34103808  0.81629095  0.21375957  1
  Cr  Cr14  1  0.16733870  0.67627925  0.71455094  1
  Cr  Cr15  1  0.83729544  0.81778957  0.21451306  1
  Fe  Fe16  1  0.65442275  0.66535192  0.47210662  1
  Fe  Fe17  1  0.33190389  0.33931533  0.97317005  1
  O  O18  1  0.83950000  0.84758688  0.60907231  1
  O  O19  1  0.51068090  0.97327885  0.33288606  1
  O  O20  1  0.31184035  0.86282019  0.59920444  1
  O  O21  1  0.97562711  0.49554262  0.32800066  1
  O  O22  1  0.66183984  0.67623812  0.09213382  1
  O  O23  1  0.50701136  0.49351778  0.32452451  1
  O  O24  1  0.16428743  0.66851282  0.09815145  1
  O  O25  1  0.80020058  0.33363394  0.58864926  1
  O  O26  1  0.49130900  0.50406347  0.82609371  1
  O  O27  1  0.01732962  0.95735112  0.33171923  1
  O  O28  1  0.03200822  0.00621283  0.83114804  1
  O  O29  1  0.69646140  0.14697297  0.10334526  1
  O  O30  1  0.29972495  0.35251075  0.59207148  1
  O  O31  1  0.01635708  0.49706107  0.82986621  1
  O  O32  1  0.51755256  0.02529479  0.83803478  1
  O  O33  1  0.16756607  0.14958326  0.10614187  1
