# generated using pymatgen
data_Na(BiO2)2
_symmetry_space_group_name_H-M   'P 1'
_cell_length_a   10.48591692
_cell_length_b   12.33622759
_cell_length_c   3.47124415
_cell_angle_alpha   89.99970006
_cell_angle_beta   89.99989061
_cell_angle_gamma   89.99807751
_symmetry_Int_Tables_number   1
_chemical_formula_structural   Na(BiO2)2
_chemical_formula_sum   'Na4 Bi8 O16'
_cell_volume   449.02854088
_cell_formula_units_Z   4
loop_
 _symmetry_equiv_pos_site_id
 _symmetry_equiv_pos_as_xyz
  1  'x, y, z'
loop_
 _atom_site_type_symbol
 _atom_site_label
 _atom_site_symmetry_multiplicity
 _atom_site_fract_x
 _atom_site_fract_y
 _atom_site_fract_z
 _atom_site_occupancy
  Na  Na0  1  0.24243969  0.35294903  0.74997127  1
  Na  Na1  1  0.25754551  0.85293373  0.24999369  1
  Na  Na2  1  0.74245287  0.14705673  0.75001723  1
  Na  Na3  1  0.75755581  0.64706023  0.25000021  1
  Bi  Bi4  1  0.06596010  0.11563531  0.75000479  1
  Bi  Bi5  1  0.08407312  0.60631140  0.75000140  1
  Bi  Bi6  1  0.41593307  0.10630749  0.24999881  1
  Bi  Bi7  1  0.43403542  0.61563533  0.24999657  1
  Bi  Bi8  1  0.56596544  0.38436723  0.75000623  1
  Bi  Bi9  1  0.58407048  0.89369310  0.75000414  1
  Bi  Bi10  1  0.91593420  0.39369871  0.24999713  1
  Bi  Bi11  1  0.93404330  0.88435808  0.25000086  1
  O  O12  1  0.01553697  0.71195925  0.25000100  1
  O  O13  1  0.08021566  0.92333360  0.74999956  1
  O  O14  1  0.11449860  0.47867099  0.25000510  1
  O  O15  1  0.21352271  0.16922176  0.24999972  1
  O  O16  1  0.28654268  0.66924239  0.75000247  1
  O  O17  1  0.38550039  0.97872526  0.74999976  1
  O  O18  1  0.41979324  0.42332192  0.25000101  1
  O  O19  1  0.48442976  0.21191198  0.75000160  1
  O  O20  1  0.51556604  0.78807879  0.24999920  1
  O  O21  1  0.58021281  0.57666864  0.75000183  1
  O  O22  1  0.61448936  0.02129364  0.24999834  1
  O  O23  1  0.71350278  0.33077723  0.25000201  1
  O  O24  1  0.78648822  0.83077391  0.74999855  1
  O  O25  1  0.88546736  0.52126076  0.75000077  1
  O  O26  1  0.91978972  0.07667903  0.24999846  1
  O  O27  1  0.98443467  0.28807447  0.74999826  1
