# generated using pymatgen
data_LiMnP2O7
_symmetry_space_group_name_H-M   'P 1'
_cell_length_a   9.74988272
_cell_length_b   9.73821047
_cell_length_c   11.12772647
_cell_angle_alpha   89.98134353
_cell_angle_beta   102.47443142
_cell_angle_gamma   89.20785868
_symmetry_Int_Tables_number   1
_chemical_formula_structural   LiMnP2O7
_chemical_formula_sum   'Li8 Mn8 P16 O56'
_cell_volume   1031.49093848
_cell_formula_units_Z   8
loop_
 _symmetry_equiv_pos_site_id
 _symmetry_equiv_pos_as_xyz
  1  'x, y, z'
loop_
 _atom_site_type_symbol
 _atom_site_label
 _atom_site_symmetry_multiplicity
 _atom_site_fract_x
 _atom_site_fract_y
 _atom_site_fract_z
 _atom_site_occupancy
  Li  Li0  1  0.16686766  0.42834154  0.53853706  1
  Li  Li1  1  0.40742236  0.60978478  0.97206863  1
  Li  Li2  1  0.36218647  0.93601135  0.47688546  1
  Li  Li3  1  0.58827290  0.39452803  0.02987450  1
  Li  Li4  1  0.64881111  0.09127892  0.04508983  1
  Li  Li5  1  0.91528849  0.90228379  0.97480468  1
  Li  Li6  1  0.82534503  0.58660792  0.45398919  1
  Li  Li7  1  0.88002395  0.28062222  0.54883615  1
  Mn  Mn8  1  0.19976865  0.92619182  0.67187798  1
  Mn  Mn9  1  0.25793243  0.21121198  0.82896986  1
  Mn  Mn10  1  0.22599193  0.72170590  0.16895826  1
  Mn  Mn11  1  0.30498878  0.42655526  0.32690693  1
  Mn  Mn12  1  0.70253276  0.57263687  0.67766116  1
  Mn  Mn13  1  0.76974027  0.27852994  0.83424949  1
  Mn  Mn14  1  0.73441901  0.78368866  0.16970664  1
  Mn  Mn15  1  0.80514815  0.06982856  0.33385095  1
  P  P16  1  0.02501334  0.44575692  0.75705879  1
  P  P17  1  0.11507707  0.71444982  0.88180118  1
  P  P18  1  0.06605902  0.92940235  0.24466382  1
  P  P19  1  0.12717298  0.14858347  0.43166690  1
  P  P20  1  0.38170063  0.64381780  0.57421708  1
  P  P21  1  0.43461091  0.42427221  0.75947515  1
  P  P22  1  0.52261217  0.05715057  0.74912259  1
  P  P23  1  0.37886259  0.20861609  0.11491311  1
  P  P24  1  0.61596490  0.79212080  0.88508456  1
  P  P25  1  0.46852127  0.93851600  0.24053931  1
  P  P26  1  0.56488273  0.57414913  0.24028720  1
  P  P27  1  0.62512456  0.34747904  0.41969612  1
  P  P28  1  0.87748934  0.85558355  0.57275499  1
  P  P29  1  0.92984867  0.07463365  0.75880327  1
  P  P30  1  0.88939631  0.28469244  0.11545493  1
  P  P31  1  0.97582031  0.55405912  0.24744050  1
  O  O32  1  0.01747529  0.41667738  0.62272430  1
  O  O33  1  0.03427581  0.84720103  0.56999537  1
  O  O34  1  0.07797784  0.08779199  0.73376272  1
  O  O35  1  0.11241615  0.34351995  0.84807044  1
  O  O36  1  0.09882720  0.59005333  0.78242179  1
  O  O37  1  0.18751684  0.82503713  0.81909167  1
  O  O38  1  0.22227098  0.65906885  0.99786446  1
  O  O39  1  0.02469259  0.25517870  0.08285809  1
  O  O40  1  0.12420844  0.07390262  0.30079276  1
  O  O41  1  0.06660116  0.91990634  0.11042516  1
  O  O42  1  0.12653510  0.54965086  0.21605243  1
  O  O43  1  0.18844946  0.28842023  0.41747149  1
  O  O44  1  0.17255042  0.81804711  0.31023305  1
  O  O45  1  0.21681898  0.05327479  0.52942202  1
  O  O46  1  0.29469592  0.55383697  0.47190306  1
  O  O47  1  0.32435983  0.31696594  0.69882151  1
  O  O48  1  0.32324149  0.78711788  0.58346219  1
  O  O49  1  0.37057112  0.04823560  0.78392955  1
  O  O50  1  0.36921430  0.56904488  0.70069378  1
  O  O51  1  0.43479164  0.43291237  0.89484867  1
  O  O52  1  0.47955281  0.76652386  0.91905996  1
  O  O53  1  0.27460069  0.15876974  0.99959149  1
  O  O54  1  0.31761952  0.33037339  0.17653448  1
  O  O55  1  0.39588029  0.08810203  0.21595947  1
  O  O56  1  0.42076382  0.59199483  0.27174752  1
  O  O57  1  0.37645666  0.84183523  0.14822455  1
  O  O58  1  0.51778439  0.08524970  0.61819973  1
  O  O59  1  0.47270131  0.33872941  0.42943803  1
  O  O60  1  0.53891396  0.64829083  0.57082559  1
  O  O61  1  0.48302458  0.90910904  0.37301951  1
  O  O62  1  0.61153363  0.15005432  0.85070394  1
  O  O63  1  0.58047581  0.40696659  0.72918908  1
  O  O64  1  0.59527343  0.90776860  0.77983475  1
  O  O65  1  0.68487047  0.67198798  0.82959409  1
  O  O66  1  0.72453477  0.85593446  0.99889605  1
  O  O67  1  0.52276145  0.23151366  0.08924277  1
  O  O68  1  0.56632677  0.57113288  0.10503497  1
  O  O69  1  0.62981619  0.42818160  0.29351603  1
  O  O70  1  0.61518269  0.94720830  0.19828167  1
  O  O71  1  0.69392575  0.20862050  0.40665671  1
  O  O72  1  0.67537885  0.68133965  0.30291126  1
  O  O73  1  0.72030071  0.43207162  0.52224269  1
  O  O74  1  0.79089808  0.93684345  0.46381848  1
  O  O75  1  0.83353769  0.19529942  0.69440153  1
  O  O76  1  0.82033279  0.71306960  0.58658000  1
  O  O77  1  0.87169478  0.45628136  0.78509794  1
  O  O78  1  0.91269739  0.07523960  0.89001792  1
  O  O79  1  0.86445610  0.93573199  0.69679722  1
  O  O80  1  0.97476522  0.74603805  0.90631794  1
  O  O81  1  0.77007649  0.33535906  0.00258008  1
  O  O82  1  0.81590770  0.16919292  0.17699428  1
  O  O83  1  0.90124130  0.40834794  0.21372539  1
  O  O84  1  0.88694135  0.65882023  0.15734149  1
  O  O85  1  0.91568088  0.91810035  0.27269041  1
  O  O86  1  0.97610769  0.16273951  0.44776784  1
  O  O87  1  0.98095668  0.57184885  0.38160833  1
