# generated using pymatgen
data_LiMn2(BO3)2
_symmetry_space_group_name_H-M   'P 1'
_cell_length_a   5.19924106
_cell_length_b   5.19924041
_cell_length_c   10.33852165
_cell_angle_alpha   87.92186440
_cell_angle_beta   92.07813958
_cell_angle_gamma   62.00545465
_symmetry_Int_Tables_number   1
_chemical_formula_structural   LiMn2(BO3)2
_chemical_formula_sum   'Li2 Mn4 B4 O12'
_cell_volume   246.15930664
_cell_formula_units_Z   2
loop_
 _symmetry_equiv_pos_site_id
 _symmetry_equiv_pos_as_xyz
  1  'x, y, z'
loop_
 _atom_site_type_symbol
 _atom_site_label
 _atom_site_symmetry_multiplicity
 _atom_site_fract_x
 _atom_site_fract_y
 _atom_site_fract_z
 _atom_site_occupancy
  Li  Li0  1  0.83777501  0.13022020  0.42572386  1
  Li  Li1  1  0.86977980  0.16222499  0.92572386  1
  Mn  Mn2  1  0.15946956  0.47761461  0.37521768  1
  Mn  Mn3  1  0.49973849  0.19379690  0.13266255  1
  Mn  Mn4  1  0.52238539  0.84053044  0.87521768  1
  Mn  Mn5  1  0.80620310  0.50026151  0.63266255  1
  B  B6  1  0.17018120  0.51735358  0.87539075  1
  B  B7  1  0.48098282  0.14637067  0.62071504  1
  B  B8  1  0.48264642  0.82981880  0.37539075  1
  B  B9  1  0.85362933  0.51901718  0.12071504  1
  O  O10  1  0.08840776  0.53103135  0.18779751  1
  O  O11  1  0.21686320  0.36185958  0.56082251  1
  O  O12  1  0.16245810  0.78040094  0.88404499  1
  O  O13  1  0.42817566  0.25872463  0.90665681  1
  O  O14  1  0.50767949  0.08272520  0.34078350  1
  O  O15  1  0.21959906  0.83754190  0.38404499  1
  O  O16  1  0.73458297  0.15208959  0.60766279  1
  O  O17  1  0.46896865  0.91159224  0.68779751  1
  O  O18  1  0.84791041  0.26541703  0.10766279  1
  O  O19  1  0.74127537  0.57182434  0.40665681  1
  O  O20  1  0.63814042  0.78313680  0.06082251  1
  O  O21  1  0.91727480  0.49232051  0.84078350  1
