# generated using pymatgen
data_MnFe3Sn2(PO4)6
_symmetry_space_group_name_H-M   'P 1'
_cell_length_a   8.68988572
_cell_length_b   8.68988609
_cell_length_c   8.68988620
_cell_angle_alpha   60.48216871
_cell_angle_beta   60.48216756
_cell_angle_gamma   60.48217266
_symmetry_Int_Tables_number   1
_chemical_formula_structural   MnFe3Sn2(PO4)6
_chemical_formula_sum   'Mn1 Fe3 Sn2 P6 O24'
_cell_volume   469.06678843
_cell_formula_units_Z   1
loop_
 _symmetry_equiv_pos_site_id
 _symmetry_equiv_pos_as_xyz
  1  'x, y, z'
loop_
 _atom_site_type_symbol
 _atom_site_label
 _atom_site_symmetry_multiplicity
 _atom_site_fract_x
 _atom_site_fract_y
 _atom_site_fract_z
 _atom_site_occupancy
  Mn  Mn0  1  0.84680317  0.84680317  0.84680317  1
  Fe  Fe1  1  0.15131993  0.15131993  0.15131993  1
  Fe  Fe2  1  0.35121289  0.35121289  0.35121289  1
  Fe  Fe3  1  0.64918748  0.64918748  0.64918748  1
  Sn  Sn4  1  0.99890911  0.99890911  0.99890911  1
  Sn  Sn5  1  0.49883975  0.49883975  0.49883975  1
  P  P6  1  0.04684942  0.74978050  0.44778823  1
  P  P7  1  0.44778823  0.04684942  0.74978050  1
  P  P8  1  0.25288182  0.54680242  0.95740340  1
  P  P9  1  0.54680242  0.95740340  0.25288182  1
  P  P10  1  0.95740340  0.25288182  0.54680242  1
  P  P11  1  0.74978050  0.44778823  0.04684942  1
  O  O12  1  0.10710316  0.32658940  0.49823460  1
  O  O13  1  0.32658940  0.49823460  0.10710316  1
  O  O14  1  0.06118360  0.90951443  0.24621067  1
  O  O15  1  0.49823460  0.10710316  0.32658940  1
  O  O16  1  0.02123001  0.81851029  0.59050228  1
  O  O17  1  0.24368181  0.59209801  0.41983080  1
  O  O18  1  0.24621067  0.06118360  0.90951443  1
  O  O19  1  0.41983080  0.24368181  0.59209801  1
  O  O20  1  0.18125868  0.39646256  0.99710574  1
  O  O21  1  0.59209801  0.41983080  0.24368181  1
  O  O22  1  0.09570798  0.74615010  0.94524145  1
  O  O23  1  0.39646256  0.99710574  0.18125868  1
  O  O24  1  0.59050228  0.02123001  0.81851029  1
  O  O25  1  0.90951443  0.24621067  0.06118360  1
  O  O26  1  0.40918678  0.56638507  0.75975999  1
  O  O27  1  0.81851029  0.59050228  0.02123001  1
  O  O28  1  0.56638507  0.75975999  0.40918678  1
  O  O29  1  0.74615010  0.94524145  0.09570798  1
  O  O30  1  0.75975999  0.40918678  0.56638507  1
  O  O31  1  0.99710574  0.18125868  0.39646256  1
  O  O32  1  0.49443076  0.88853673  0.68731198  1
  O  O33  1  0.94524145  0.09570798  0.74615010  1
  O  O34  1  0.68731198  0.49443076  0.88853673  1
  O  O35  1  0.88853673  0.68731198  0.49443076  1
