# generated using pymatgen
data_Li2Sn(BO3)2
_symmetry_space_group_name_H-M   'P 1'
_cell_length_a   5.26268073
_cell_length_b   8.94113361
_cell_length_c   10.28822550
_cell_angle_alpha   89.67190145
_cell_angle_beta   92.67450144
_cell_angle_gamma   90.81838830
_symmetry_Int_Tables_number   1
_chemical_formula_structural   Li2Sn(BO3)2
_chemical_formula_sum   'Li8 Sn4 B8 O24'
_cell_volume   483.52272312
_cell_formula_units_Z   4
loop_
 _symmetry_equiv_pos_site_id
 _symmetry_equiv_pos_as_xyz
  1  'x, y, z'
loop_
 _atom_site_type_symbol
 _atom_site_label
 _atom_site_symmetry_multiplicity
 _atom_site_fract_x
 _atom_site_fract_y
 _atom_site_fract_z
 _atom_site_occupancy
  Li  Li0  1  0.31640645  0.47999271  0.41776904  1
  Li  Li1  1  0.36692903  0.46002173  0.82084596  1
  Li  Li2  1  0.62776861  0.54520625  0.16524715  1
  Li  Li3  1  0.68792008  0.52797849  0.60823640  1
  Li  Li4  1  0.66627389  0.86219269  0.10691959  1
  Li  Li5  1  0.87575898  0.04248962  0.90027529  1
  Li  Li6  1  0.81018109  0.35319678  0.38261835  1
  Li  Li7  1  0.85975043  0.03341604  0.32176458  1
  Sn  Sn8  1  0.12407283  0.29625236  0.12422818  1
  Sn  Sn9  1  0.36126434  0.81221489  0.36897998  1
  Sn  Sn10  1  0.62141060  0.18427181  0.62912190  1
  Sn  Sn11  1  0.88034754  0.70218354  0.87286123  1
  B  B12  1  0.16719029  0.30506122  0.60905516  1
  B  B13  1  0.15593267  0.64863298  0.13394379  1
  B  B14  1  0.33305436  0.80188020  0.89309749  1
  B  B15  1  0.33344026  0.15616572  0.36878157  1
  B  B16  1  0.65407710  0.84448570  0.63090314  1
  B  B17  1  0.65994276  0.20099826  0.12643661  1
  B  B18  1  0.85084482  0.35022801  0.86578290  1
  B  B19  1  0.83063614  0.68275766  0.37320151  1
  O  O20  1  0.08990544  0.33493915  0.92618974  1
  O  O21  1  0.08526386  0.65206389  0.39222018  1
  O  O22  1  0.12470834  0.89232930  0.90019529  1
  O  O23  1  0.21502650  0.01946362  0.35006642  1
  O  O24  1  0.18899661  0.28294639  0.33450594  1
  O  O25  1  0.26718911  0.65270682  0.86414182  1
  O  O26  1  0.23630178  0.15874565  0.63047955  1
  O  O27  1  0.31816340  0.76844547  0.17211460  1
  O  O28  1  0.26461787  0.50887001  0.14990486  1
  O  O29  1  0.36485980  0.41027304  0.60876476  1
  O  O30  1  0.43039613  0.82456554  0.55906836  1
  O  O31  1  0.41504354  0.15661223  0.11014037  1
  O  O32  1  0.58538954  0.84408101  0.91975961  1
  O  O33  1  0.58792871  0.17017269  0.41570146  1
  O  O34  1  0.65023507  0.57107576  0.38536769  1
  O  O35  1  0.73652274  0.48696498  0.84506911  1
  O  O36  1  0.71604589  0.22374483  0.82350227  1
  O  O37  1  0.74938946  0.82753838  0.33585659  1
  O  O38  1  0.74564375  0.34599746  0.16129318  1
  O  O39  1  0.77796376  0.71814726  0.67899754  1
  O  O40  1  0.75987436  0.98192281  0.66373070  1
  O  O41  1  0.85687362  0.10018238  0.11416828  1
  O  O42  1  0.90988696  0.34159164  0.58492844  1
  O  O43  1  0.90757249  0.66919405  0.08376240  1
