# generated using pymatgen
data_Ag2H16O9
_symmetry_space_group_name_H-M   'P 1'
_cell_length_a   6.65027410
_cell_length_b   12.66252403
_cell_length_c   11.92191051
_cell_angle_alpha   90.00000000
_cell_angle_beta   104.13949987
_cell_angle_gamma   90.00000000
_symmetry_Int_Tables_number   1
_chemical_formula_structural   Ag2H16O9
_chemical_formula_sum   'Ag8 H64 O36'
_cell_volume   973.51982347
_cell_formula_units_Z   4
loop_
 _symmetry_equiv_pos_site_id
 _symmetry_equiv_pos_as_xyz
  1  'x, y, z'
loop_
 _atom_site_type_symbol
 _atom_site_label
 _atom_site_symmetry_multiplicity
 _atom_site_fract_x
 _atom_site_fract_y
 _atom_site_fract_z
 _atom_site_occupancy
  Ag  Ag0  1  0.41675912  0.67877882  0.89990937  1
  Ag  Ag1  1  0.40600185  0.20875118  0.83512035  1
  Ag  Ag2  1  0.41675912  0.82122118  0.39990937  1
  Ag  Ag3  1  0.40600185  0.29124882  0.33512035  1
  Ag  Ag4  1  0.59399815  0.70875118  0.66487965  1
  Ag  Ag5  1  0.58324088  0.17877882  0.60009063  1
  Ag  Ag6  1  0.59399815  0.79124882  0.16487965  1
  Ag  Ag7  1  0.58324088  0.32122118  0.10009063  1
  H  H8  1  0.03212352  0.55416356  0.89909879  1
  H  H9  1  0.01534245  0.91415068  0.73232077  1
  H  H10  1  0.15430899  0.07344233  0.94179863  1
  H  H11  1  0.10305143  0.05167124  0.80181816  1
  H  H12  1  0.21817680  0.40372227  0.90897595  1
  H  H13  1  0.12276130  0.69491109  0.67514065  1
  H  H14  1  0.11030712  0.21898730  0.60358039  1
  H  H15  1  0.03212352  0.94583644  0.39909879  1
  H  H16  1  0.09551673  0.89940490  0.52743049  1
  H  H17  1  0.13807834  0.50560450  0.59461489  1
  H  H18  1  0.19822507  0.81520706  0.69446055  1
  H  H19  1  0.01534245  0.58584932  0.23232077  1
  H  H20  1  0.22067838  0.33563307  0.61476561  1
  H  H21  1  0.15430899  0.42655767  0.44179863  1
  H  H22  1  0.10305143  0.44832876  0.30181816  1
  H  H23  1  0.33697199  0.99083755  0.71148456  1
  H  H24  1  0.21817680  0.09627773  0.40897595  1
  H  H25  1  0.42309900  0.43776940  0.87114190  1
  H  H26  1  0.12276130  0.80508891  0.17514065  1
  H  H27  1  0.11030712  0.28101270  0.10358039  1
  H  H28  1  0.09551673  0.60059510  0.02743049  1
  H  H29  1  0.13807834  0.99439550  0.09461489  1
  H  H30  1  0.52147353  0.90364662  0.95017890  1
  H  H31  1  0.19822507  0.68479294  0.19446055  1
  H  H32  1  0.33792000  0.57259660  0.50967572  1
  H  H33  1  0.43051405  0.49770980  0.70401947  1
  H  H34  1  0.22067838  0.16436693  0.11476561  1
  H  H35  1  0.56948595  0.99770980  0.79598053  1
  H  H36  1  0.66208000  0.07259660  0.99032428  1
  H  H37  1  0.47852647  0.40364662  0.54982110  1
  H  H38  1  0.33697199  0.50916245  0.21148456  1
  H  H39  1  0.42309900  0.06223060  0.37114190  1
  H  H40  1  0.57690100  0.93776940  0.62885810  1
  H  H41  1  0.66302801  0.49083755  0.78851544  1
  H  H42  1  0.52147353  0.59635338  0.45017890  1
  H  H43  1  0.33792000  0.92740340  0.00967572  1
  H  H44  1  0.43051405  0.00229020  0.20401947  1
  H  H45  1  0.77932162  0.83563307  0.88523439  1
  H  H46  1  0.56948595  0.50229020  0.29598053  1
  H  H47  1  0.66208000  0.42740340  0.49032428  1
  H  H48  1  0.80177493  0.31520706  0.80553945  1
  H  H49  1  0.47852647  0.09635338  0.04982110  1
  H  H50  1  0.86192166  0.00560450  0.90538511  1
  H  H51  1  0.90448327  0.39940490  0.97256951  1
  H  H52  1  0.88969288  0.71898730  0.89641961  1
  H  H53  1  0.87723870  0.19491109  0.82485935  1
  H  H54  1  0.57690100  0.56223060  0.12885810  1
  H  H55  1  0.78182320  0.90372227  0.59102405  1
  H  H56  1  0.66302801  0.00916245  0.28851544  1
  H  H57  1  0.89694857  0.55167124  0.69818184  1
  H  H58  1  0.84569101  0.57344233  0.55820137  1
  H  H59  1  0.77932162  0.66436693  0.38523439  1
  H  H60  1  0.98465755  0.41415068  0.76767923  1
  H  H61  1  0.80177493  0.18479294  0.30553945  1
  H  H62  1  0.86192166  0.49439550  0.40538511  1
  H  H63  1  0.90448327  0.10059510  0.47256951  1
  H  H64  1  0.96787648  0.05416356  0.60090121  1
  H  H65  1  0.88969288  0.78101270  0.39641961  1
  H  H66  1  0.87723870  0.30508891  0.32485935  1
  H  H67  1  0.78182320  0.59627773  0.09102405  1
  H  H68  1  0.89694857  0.94832876  0.19818184  1
  H  H69  1  0.84569101  0.92655767  0.05820137  1
  H  H70  1  0.98465755  0.08584932  0.26767923  1
  H  H71  1  0.96787648  0.44583644  0.10090121  1
  O  O72  1  0.08356388  0.61963708  0.94542204  1
  O  O73  1  0.08623411  0.10318786  0.86155745  1
  O  O74  1  0.08183595  0.94753567  0.67683561  1
  O  O75  1  0.08356388  0.88036292  0.44542204  1
  O  O76  1  0.08623411  0.39681214  0.36155745  1
  O  O77  1  0.24551494  0.74044248  0.70470391  1
  O  O78  1  0.23641493  0.26002104  0.64022361  1
  O  O79  1  0.36507851  0.38530952  0.91844112  1
  O  O80  1  0.40881478  0.86886270  0.97641120  1
  O  O81  1  0.25054817  0.46706701  0.57211417  1
  O  O82  1  0.08183595  0.55246433  0.17683561  1
  O  O83  1  0.24551494  0.75955752  0.20470391  1
  O  O84  1  0.48272415  0.01531338  0.71679536  1
  O  O85  1  0.51727585  0.51531338  0.78320464  1
  O  O86  1  0.23641493  0.23997896  0.14022361  1
  O  O87  1  0.36507851  0.11469048  0.41844112  1
  O  O88  1  0.40881478  0.63113730  0.47641120  1
  O  O89  1  0.25054817  0.03293299  0.07211417  1
  O  O90  1  0.74945183  0.96706701  0.92788583  1
  O  O91  1  0.59118522  0.36886270  0.52358880  1
  O  O92  1  0.63492149  0.88530952  0.58155888  1
  O  O93  1  0.76358507  0.76002104  0.85977639  1
  O  O94  1  0.48272415  0.48468662  0.21679536  1
  O  O95  1  0.51727585  0.98468662  0.28320464  1
  O  O96  1  0.75448506  0.24044248  0.79529609  1
  O  O97  1  0.91816405  0.44753567  0.82316439  1
  O  O98  1  0.74945183  0.53293299  0.42788583  1
  O  O99  1  0.59118522  0.13113730  0.02358880  1
  O  O100  1  0.63492149  0.61469048  0.08155888  1
  O  O101  1  0.76358507  0.73997896  0.35977639  1
  O  O102  1  0.75448506  0.25955752  0.29529609  1
  O  O103  1  0.91376589  0.60318786  0.63844255  1
  O  O104  1  0.91643612  0.11963708  0.55457796  1
  O  O105  1  0.91816405  0.05246433  0.32316439  1
  O  O106  1  0.91376589  0.89681214  0.13844255  1
  O  O107  1  0.91643612  0.38036292  0.05457796  1
