# generated using pymatgen
data_Fe5O3F7
_symmetry_space_group_name_H-M   'P 1'
_cell_length_a   4.82185287
_cell_length_b   4.82237302
_cell_length_c   15.62487235
_cell_angle_alpha   90.00000000
_cell_angle_beta   90.00000000
_cell_angle_gamma   91.49508877
_symmetry_Int_Tables_number   1
_chemical_formula_structural   Fe5O3F7
_chemical_formula_sum   'Fe10 O6 F14'
_cell_volume   363.19792573
_cell_formula_units_Z   2
loop_
 _symmetry_equiv_pos_site_id
 _symmetry_equiv_pos_as_xyz
  1  'x, y, z'
loop_
 _atom_site_type_symbol
 _atom_site_label
 _atom_site_symmetry_multiplicity
 _atom_site_fract_x
 _atom_site_fract_y
 _atom_site_fract_z
 _atom_site_occupancy
  Fe  Fe0  1  0.97909111  0.98005676  0.99846599  1
  Fe  Fe1  1  0.97909111  0.98005676  0.20153401  1
  Fe  Fe2  1  0.04055422  0.01970204  0.40718838  1
  Fe  Fe3  1  0.02088533  0.97121204  0.60000000  1
  Fe  Fe4  1  0.04055422  0.01970204  0.79281162  1
  Fe  Fe5  1  0.52307792  0.52351848  0.10000000  1
  Fe  Fe6  1  0.47425061  0.50806713  0.49481497  1
  Fe  Fe7  1  0.50332623  0.49555517  0.29943389  1
  Fe  Fe8  1  0.47425061  0.50806713  0.70518503  1
  Fe  Fe9  1  0.50332623  0.49555517  0.90056611  1
  O  O10  1  0.18378218  0.81733873  0.50026285  1
  O  O11  1  0.18378218  0.81733873  0.69973715  1
  O  O12  1  0.31110587  0.30975023  0.39100681  1
  O  O13  1  0.31110587  0.30975023  0.80899319  1
  O  O14  1  0.67736013  0.67552172  0.99779408  1
  O  O15  1  0.67736013  0.67552172  0.20220592  1
  F  F16  1  0.19617973  0.78671955  0.10000000  1
  F  F17  1  0.20161565  0.80163124  0.30372725  1
  F  F18  1  0.20161565  0.80163124  0.89627275  1
  F  F19  1  0.29816648  0.29698086  0.00233576  1
  F  F20  1  0.29816648  0.29698086  0.19766424  1
  F  F21  1  0.28712866  0.29648695  0.60000000  1
  F  F22  1  0.71382892  0.71581150  0.39194892  1
  F  F23  1  0.69034857  0.69571351  0.60000000  1
  F  F24  1  0.71382892  0.71581150  0.80805108  1
  F  F25  1  0.78594861  0.19617319  0.10000000  1
  F  F26  1  0.80924313  0.19622938  0.50186398  1
  F  F27  1  0.80589207  0.19844188  0.30517771  1
  F  F28  1  0.80589207  0.19844188  0.89482229  1
  F  F29  1  0.80924313  0.19622938  0.69813602  1
