# generated using pymatgen
data_Fe5O3F7
_symmetry_space_group_name_H-M   'P 1'
_cell_length_a   4.82201098
_cell_length_b   4.82201098
_cell_length_c   15.70924233
_cell_angle_alpha   89.97928330
_cell_angle_beta   89.97928330
_cell_angle_gamma   91.55484416
_symmetry_Int_Tables_number   1
_chemical_formula_structural   Fe5O3F7
_chemical_formula_sum   'Fe10 O6 F14'
_cell_volume   365.13346566
_cell_formula_units_Z   2
loop_
 _symmetry_equiv_pos_site_id
 _symmetry_equiv_pos_as_xyz
  1  'x, y, z'
loop_
 _atom_site_type_symbol
 _atom_site_label
 _atom_site_symmetry_multiplicity
 _atom_site_fract_x
 _atom_site_fract_y
 _atom_site_fract_z
 _atom_site_occupancy
  Fe  Fe0  1  0.99125872  0.96898363  0.99298269  1
  Fe  Fe1  1  0.97860379  0.98010234  0.19915036  1
  Fe  Fe2  1  0.01989766  0.02139621  0.40084964  1
  Fe  Fe3  1  0.03101637  0.00874128  0.60701731  1
  Fe  Fe4  1  0.02573592  0.97426408  0.80000000  1
  Fe  Fe5  1  0.52767481  0.52023622  0.10146851  1
  Fe  Fe6  1  0.47976378  0.47232519  0.49853149  1
  Fe  Fe7  1  0.49949864  0.50050136  0.30000000  1
  Fe  Fe8  1  0.47706961  0.50905286  0.69474447  1
  Fe  Fe9  1  0.49094714  0.52293039  0.90525553  1
  O  O10  1  0.18192681  0.81460529  0.70038959  1
  O  O11  1  0.18539471  0.81807319  0.89961041  1
  O  O12  1  0.32403822  0.32222306  0.39679032  1
  O  O13  1  0.30263942  0.30319993  0.59328949  1
  O  O14  1  0.69680007  0.69736058  0.00671051  1
  O  O15  1  0.67777694  0.67596178  0.20320968  1
  F  F16  1  0.19713077  0.79550229  0.09650634  1
  F  F17  1  0.20303559  0.79696441  0.30000000  1
  F  F18  1  0.20449771  0.80286923  0.50349366  1
  F  F19  1  0.29133016  0.29322872  0.01082465  1
  F  F20  1  0.29829637  0.29732078  0.19946119  1
  F  F21  1  0.29714770  0.30635118  0.80206215  1
  F  F22  1  0.70267922  0.70170363  0.40053881  1
  F  F23  1  0.70677128  0.70866984  0.58917535  1
  F  F24  1  0.69364882  0.70285230  0.79793785  1
  F  F25  1  0.79907624  0.19376831  0.09514961  1
  F  F26  1  0.80623169  0.20092376  0.50485039  1
  F  F27  1  0.79618252  0.20381748  0.30000000  1
  F  F28  1  0.80419913  0.19027081  0.89831184  1
  F  F29  1  0.80972919  0.19580087  0.70168716  1
