# generated using pymatgen
data_Li2FeF4
_symmetry_space_group_name_H-M   'P 1'
_cell_length_a   8.40922850
_cell_length_b   5.67682908
_cell_length_c   9.01008305
_cell_angle_alpha   90.00000000
_cell_angle_beta   105.66976167
_cell_angle_gamma   90.00000000
_symmetry_Int_Tables_number   1
_chemical_formula_structural   Li2FeF4
_chemical_formula_sum   'Li8 Fe4 F16'
_cell_volume   414.13541898
_cell_formula_units_Z   4
loop_
 _symmetry_equiv_pos_site_id
 _symmetry_equiv_pos_as_xyz
  1  'x, y, z'
loop_
 _atom_site_type_symbol
 _atom_site_label
 _atom_site_symmetry_multiplicity
 _atom_site_fract_x
 _atom_site_fract_y
 _atom_site_fract_z
 _atom_site_occupancy
  Li  Li0  1  0.12903957  0.89412089  0.96132117  1
  Li  Li1  1  0.12903957  0.60587911  0.46132117  1
  Li  Li2  1  0.37602017  0.90410534  0.72103501  1
  Li  Li3  1  0.37602017  0.59589466  0.22103501  1
  Li  Li4  1  0.62397983  0.40410534  0.77896499  1
  Li  Li5  1  0.62397983  0.09589466  0.27896499  1
  Li  Li6  1  0.87096043  0.39412089  0.53867883  1
  Li  Li7  1  0.87096043  0.10587911  0.03867883  1
  Fe  Fe8  1  0.25921184  0.40252137  0.84227146  1
  Fe  Fe9  1  0.25921184  0.09747863  0.34227146  1
  Fe  Fe10  1  0.74078816  0.90252137  0.65772854  1
  Fe  Fe11  1  0.74078816  0.59747863  0.15772854  1
  F  F12  1  0.09269629  0.47360754  0.64399876  1
  F  F13  1  0.23432947  0.59714470  0.01551055  1
  F  F14  1  0.26276399  0.05701139  0.85318492  1
  F  F15  1  0.09269629  0.02639246  0.14399876  1
  F  F16  1  0.23432947  0.90285530  0.51551055  1
  F  F17  1  0.43887461  0.59072370  0.78763943  1
  F  F18  1  0.26276399  0.44298861  0.35318492  1
  F  F19  1  0.43887461  0.90927630  0.28763943  1
  F  F20  1  0.56112539  0.09072370  0.71236057  1
  F  F21  1  0.73723601  0.55701139  0.64681508  1
  F  F22  1  0.56112539  0.40927630  0.21236057  1
  F  F23  1  0.76567053  0.09714470  0.48448945  1
  F  F24  1  0.90730371  0.97360754  0.85600124  1
  F  F25  1  0.73723601  0.94298861  0.14681508  1
  F  F26  1  0.76567053  0.40285530  0.98448945  1
  F  F27  1  0.90730371  0.52639246  0.35600124  1
