# generated using pymatgen
data_Na5Bi2P(CO4)4
_symmetry_space_group_name_H-M   'P 1'
_cell_length_a   10.39163578
_cell_length_b   10.37307009
_cell_length_c   17.96776416
_cell_angle_alpha   106.71395055
_cell_angle_beta   74.09231855
_cell_angle_gamma   119.72033569
_symmetry_Int_Tables_number   1
_chemical_formula_structural   Na5Bi2P(CO4)4
_chemical_formula_sum   'Na20 Bi8 P4 C16 O64'
_cell_volume   1590.70232537
_cell_formula_units_Z   4
loop_
 _symmetry_equiv_pos_site_id
 _symmetry_equiv_pos_as_xyz
  1  'x, y, z'
loop_
 _atom_site_type_symbol
 _atom_site_label
 _atom_site_symmetry_multiplicity
 _atom_site_fract_x
 _atom_site_fract_y
 _atom_site_fract_z
 _atom_site_occupancy
  Na  Na0  1  0.28455617  0.60110463  0.03399648  1
  Na  Na1  1  0.28427144  0.21848176  0.03272836  1
  Na  Na2  1  0.21590460  0.89889656  0.46617529  1
  Na  Na3  1  0.52230227  0.59046545  0.15887044  1
  Na  Na4  1  0.59246568  0.90823944  0.34212007  1
  Na  Na5  1  0.90873760  0.59074929  0.15930601  1
  Na  Na6  1  0.59259250  0.52736366  0.34250928  1
  Na  Na7  1  0.21503478  0.28321200  0.46592162  1
  Na  Na8  1  0.78326684  0.71733374  0.53284793  1
  Na  Na9  1  0.60274033  0.28407717  0.46601860  1
  Na  Na10  1  0.90821783  0.97590999  0.15934637  1
  Na  Na11  1  0.10032527  0.78986577  0.96453128  1
  Na  Na12  1  0.41044819  0.48359595  0.65582551  1
  Na  Na13  1  0.09237879  0.40758507  0.84191338  1
  Na  Na14  1  0.40411259  0.08497172  0.65867394  1
  Na  Na15  1  0.47412478  0.40914946  0.84304679  1
  Na  Na16  1  0.78284385  0.09745905  0.53222708  1
  Na  Na17  1  0.73036063  0.79860448  0.96553669  1
  Na  Na18  1  0.02925750  0.09310795  0.66172002  1
  Na  Na19  1  0.72108266  0.39595543  0.96748261  1
  Bi  Bi20  1  0.24269763  0.75173560  0.25296942  1
  Bi  Bi21  1  0.00905965  0.50369486  0.49919668  1
  Bi  Bi22  1  0.24254351  0.24361196  0.25202760  1
  Bi  Bi23  1  0.51029034  0.00492249  0.99922713  1
  Bi  Bi24  1  0.75530219  0.24989468  0.24565175  1
  Bi  Bi25  1  0.25042885  0.75456550  0.74819268  1
  Bi  Bi26  1  0.75486596  0.75575164  0.75193109  1
  Bi  Bi27  1  0.74655757  0.24631675  0.75080953  1
  P  P28  1  0.81217768  0.68688134  0.06239563  1
  P  P29  1  0.68715264  0.81227449  0.43762929  1
  P  P30  1  0.31458388  0.18955014  0.56259596  1
  P  P31  1  0.19073289  0.31607545  0.93711370  1
  C  C32  1  0.19620326  0.91503628  0.13494792  1
  C  C33  1  0.57909483  0.91007409  0.14012275  1
  C  C34  1  0.11325486  0.38975766  0.16778283  1
  C  C35  1  0.30400035  0.58270496  0.35972478  1
  C  C36  1  0.07945755  0.80749231  0.63704176  1
  C  C37  1  0.57920424  0.30906883  0.14034846  1
  C  C38  1  0.39508910  0.11536990  0.33447215  1
  C  C39  1  0.07903405  0.41036939  0.64041861  1
  C  C40  1  0.91688020  0.58065972  0.36156810  1
  C  C41  1  0.61121845  0.88854182  0.66812404  1
  C  C42  1  0.91584836  0.19635680  0.36072848  1
  C  C43  1  0.41824880  0.69539636  0.86088123  1
  C  C44  1  0.69432622  0.41634029  0.63811595  1
  C  C45  1  0.88772882  0.60630297  0.83433916  1
  C  C46  1  0.42067072  0.08499233  0.86062424  1
  C  C47  1  0.80224436  0.08373885  0.86077768  1
  O  O48  1  0.26242628  0.86339205  0.06997230  1
  O  O49  1  0.13505709  0.84199413  0.19319192  1
  O  O50  1  0.63333375  0.96161996  0.07474074  1
  O  O51  1  0.12051336  0.51832020  0.16667943  1
  O  O52  1  0.45448979  0.78631351  0.14617861  1
  O  O53  1  0.04521208  0.70059520  0.35796245  1
  O  O54  1  0.38262171  0.98392045  0.33486788  1
  O  O55  1  0.66058747  0.59595983  0.02967995  1
  O  O56  1  0.90488383  0.84149891  0.03380063  1
  O  O57  1  0.23511514  0.38043145  0.16508305  1
  O  O58  1  0.36797532  0.65380917  0.30036782  1
  O  O59  1  0.90575320  0.59679563  0.03216739  1
  O  O60  1  0.77938560  0.71534292  0.15422285  1
  O  O61  1  0.18858739  0.03988247  0.14136813  1
  O  O62  1  0.52569422  0.24393298  0.07433873  1
  O  O63  1  0.02653768  0.74150922  0.57061188  1
  O  O64  1  0.23326165  0.63641632  0.42147637  1
  O  O65  1  0.98551886  0.14303001  0.29826749  1
  O  O66  1  0.50785421  0.36757850  0.19958212  1
  O  O67  1  0.30965953  0.45833215  0.35635888  1
  O  O68  1  0.60009867  0.90987994  0.46614317  1
  O  O69  1  0.71022817  0.77763632  0.34530042  1
  O  O70  1  0.70521574  0.31757110  0.14610102  1
  O  O71  1  0.20417344  0.81539720  0.64384085  1
  O  O72  1  0.27639103  0.12817228  0.33572614  1
  O  O73  1  0.13251297  0.45990135  0.57446441  1
  O  O74  1  0.60042449  0.65709287  0.46660849  1
  O  O75  1  0.83771568  0.90438764  0.47225266  1
  O  O76  1  0.36044601  0.01316709  0.79719715  1
  O  O77  1  0.84740424  0.51340201  0.30063800  1
  O  O78  1  0.01770978  0.72262102  0.83379843  1
  O  O79  1  0.52579750  0.23310624  0.33423618  1
  O  O80  1  0.48280420  0.77058212  0.67497370  1
  O  O81  1  0.98501147  0.26978725  0.17265430  1
  O  O82  1  0.15035675  0.48262848  0.70012621  1
  O  O83  1  0.65178356  0.98198813  0.19992702  1
  O  O84  1  0.15969509  0.09687860  0.53312565  1
  O  O85  1  0.40541840  0.34068207  0.53057783  1
  O  O86  1  0.85872872  0.52672133  0.42666861  1
  O  O87  1  0.73376212  0.88004935  0.66550393  1
  O  O88  1  0.29367262  0.69012957  0.85472437  1
  O  O89  1  0.78837591  0.18880501  0.35744901  1
  O  O90  1  0.40524075  0.09646227  0.53215822  1
  O  O91  1  0.28801306  0.22403599  0.65440361  1
  O  O92  1  0.68732680  0.54051746  0.64367605  1
  O  O93  1  0.48867307  0.63549863  0.80186905  1
  O  O94  1  0.75984417  0.36217797  0.57383409  1
  O  O95  1  0.00802824  0.86734572  0.69494235  1
  O  O96  1  0.79605032  0.95519278  0.85907124  1
  O  O97  1  0.97283944  0.25855704  0.42570035  1
  O  O98  1  0.47245348  0.76019703  0.92680037  1
  O  O99  1  0.10702381  0.41648202  0.96580132  1
  O  O100  1  0.22717513  0.29377794  0.84518243  1
  O  O101  1  0.63320809  0.34482038  0.69771678  1
  O  O102  1  0.76865638  0.61849374  0.83458088  1
  O  O103  1  0.10471778  0.16671274  0.96855821  1
  O  O104  1  0.34777214  0.41106038  0.96933667  1
  O  O105  1  0.62026592  0.01709988  0.66494551  1
  O  O106  1  0.95409041  0.28520675  0.64611959  1
  O  O107  1  0.54150197  0.21427616  0.85846604  1
  O  O108  1  0.87392083  0.47444750  0.83602516  1
  O  O109  1  0.36444149  0.02978393  0.92506452  1
  O  O110  1  0.87117536  0.15297116  0.80055431  1
  O  O111  1  0.73500837  0.14355851  0.92168470  1
