# generated using pymatgen
data_LiV2(SiO4)2
_symmetry_space_group_name_H-M   'P 1'
_cell_length_a   8.98878006
_cell_length_b   6.41282616
_cell_length_c   4.85898330
_cell_angle_alpha   89.98929050
_cell_angle_beta   90.01031910
_cell_angle_gamma   89.78507145
_symmetry_Int_Tables_number   1
_chemical_formula_structural   LiV2(SiO4)2
_chemical_formula_sum   'Li2 V4 Si4 O16'
_cell_volume   280.08674540
_cell_formula_units_Z   2
loop_
 _symmetry_equiv_pos_site_id
 _symmetry_equiv_pos_as_xyz
  1  'x, y, z'
loop_
 _atom_site_type_symbol
 _atom_site_label
 _atom_site_symmetry_multiplicity
 _atom_site_fract_x
 _atom_site_fract_y
 _atom_site_fract_z
 _atom_site_occupancy
  Li  Li0  1  0.33460192  0.24622792  0.97695237  1
  Li  Li1  1  0.83517220  0.24639120  0.52339070  1
  V  V2  1  0.00079509  0.99794056  0.00198006  1
  V  V3  1  0.00019965  0.51314923  0.00763200  1
  V  V4  1  0.50078970  0.99796563  0.49822432  1
  V  V5  1  0.50024930  0.51297624  0.49226195  1
  Si  Si6  1  0.17745060  0.24749063  0.47530444  1
  Si  Si7  1  0.32246643  0.74952909  0.97481892  1
  Si  Si8  1  0.67743550  0.24762215  0.02482807  1
  Si  Si9  1  0.82244820  0.74970774  0.52496786  1
  O  O10  1  0.11987779  0.04139681  0.32345256  1
  O  O11  1  0.10904918  0.44972543  0.30811402  1
  O  O12  1  0.12200413  0.25984773  0.80024657  1
  O  O13  1  0.13877729  0.74199549  0.92707981  1
  O  O14  1  0.36004868  0.25955011  0.41112657  1
  O  O15  1  0.38647397  0.73933843  0.29709119  1
  O  O16  1  0.38696100  0.53924858  0.81556350  1
  O  O17  1  0.37697420  0.96388335  0.83003901  1
  O  O18  1  0.61971126  0.04155800  0.17664439  1
  O  O19  1  0.60911276  0.44983566  0.19182672  1
  O  O20  1  0.62211605  0.26002011  0.69979437  1
  O  O21  1  0.63879964  0.74209430  0.57268788  1
  O  O22  1  0.86006179  0.25965181  0.08903141  1
  O  O23  1  0.88654417  0.73965538  0.20271678  1
  O  O24  1  0.88700962  0.53933287  0.68420997  1
  O  O25  1  0.87702488  0.96386652  0.67001355  1
