# generated using pymatgen
data_Li2Mn(BO3)2
_symmetry_space_group_name_H-M   'P 1'
_cell_length_a   5.96201926
_cell_length_b   7.69105335
_cell_length_c   5.38636967
_cell_angle_alpha   90.00000000
_cell_angle_beta   116.85540483
_cell_angle_gamma   90.00000000
_symmetry_Int_Tables_number   1
_chemical_formula_structural   Li2Mn(BO3)2
_chemical_formula_sum   'Li4 Mn2 B4 O12'
_cell_volume   220.34994391
_cell_formula_units_Z   2
loop_
 _symmetry_equiv_pos_site_id
 _symmetry_equiv_pos_as_xyz
  1  'x, y, z'
loop_
 _atom_site_type_symbol
 _atom_site_label
 _atom_site_symmetry_multiplicity
 _atom_site_fract_x
 _atom_site_fract_y
 _atom_site_fract_z
 _atom_site_occupancy
  Li  Li0  1  0.19172278  0.43369547  0.39113726  1
  Li  Li1  1  0.30827722  0.93369547  0.60886274  1
  Li  Li2  1  0.69172278  0.06630453  0.39113726  1
  Li  Li3  1  0.80827722  0.56630453  0.60886274  1
  Mn  Mn4  1  0.00000000  0.00000000  0.00000000  1
  Mn  Mn5  1  0.50000000  0.50000000  0.00000000  1
  B  B6  1  0.12804015  0.26030773  0.87210228  1
  B  B7  1  0.37195985  0.76030773  0.12789772  1
  B  B8  1  0.62804015  0.23969227  0.87210228  1
  B  B9  1  0.87195985  0.73969227  0.12789772  1
  O  O10  1  0.08776553  0.10498259  0.72481092  1
  O  O11  1  0.15957968  0.41829168  0.77126482  1
  O  O12  1  0.40319507  0.73976500  0.88857315  1
  O  O13  1  0.09680493  0.23976500  0.11142685  1
  O  O14  1  0.34042032  0.91829168  0.22873518  1
  O  O15  1  0.41223447  0.60498259  0.27518908  1
  O  O16  1  0.58776553  0.39501741  0.72481092  1
  O  O17  1  0.65957968  0.08170832  0.77126482  1
  O  O18  1  0.90319507  0.76023500  0.88857315  1
  O  O19  1  0.59680493  0.26023500  0.11142685  1
  O  O20  1  0.84042032  0.58170832  0.22873518  1
  O  O21  1  0.91223447  0.89501741  0.27518908  1
