# generated using pymatgen
data_Ta2CrNO5
_symmetry_space_group_name_H-M   'P 1'
_cell_length_a   4.76171813
_cell_length_b   4.75844281
_cell_length_c   9.24447570
_cell_angle_alpha   90.00000000
_cell_angle_beta   90.35393735
_cell_angle_gamma   90.00000000
_symmetry_Int_Tables_number   1
_chemical_formula_structural   Ta2CrNO5
_chemical_formula_sum   'Ta4 Cr2 N2 O10'
_cell_volume   209.46069347
_cell_formula_units_Z   2
loop_
 _symmetry_equiv_pos_site_id
 _symmetry_equiv_pos_as_xyz
  1  'x, y, z'
loop_
 _atom_site_type_symbol
 _atom_site_label
 _atom_site_symmetry_multiplicity
 _atom_site_fract_x
 _atom_site_fract_y
 _atom_site_fract_z
 _atom_site_occupancy
  Ta  Ta0  1  0.00269702  0.99591934  0.33890213  1
  Ta  Ta1  1  0.98243416  0.99732258  0.68285171  1
  Ta  Ta2  1  0.49730298  0.49591934  0.16109787  1
  Ta  Ta3  1  0.51756584  0.49732258  0.81714829  1
  Cr  Cr4  1  0.99855691  0.00039408  0.00230933  1
  Cr  Cr5  1  0.50144309  0.50039408  0.49769067  1
  N  N6  1  0.69656589  0.70041653  0.66389980  1
  N  N7  1  0.80343411  0.20041653  0.83610020  1
  O  O8  1  0.19990063  0.80591313  0.49277757  1
  O  O9  1  0.19844236  0.80547543  0.83534618  1
  O  O10  1  0.19742370  0.80171606  0.17255746  1
  O  O11  1  0.30257630  0.30171606  0.32744254  1
  O  O12  1  0.30155864  0.30547543  0.66465382  1
  O  O13  1  0.30010037  0.30591313  0.00722243  1
  O  O14  1  0.68959285  0.69535189  0.00381925  1
  O  O15  1  0.69882918  0.69749096  0.32902660  1
  O  O16  1  0.80117082  0.19749096  0.17097340  1
  O  O17  1  0.81040715  0.19535189  0.49618075  1
