# generated using pymatgen
data_Li2Mn3(BO3)3
_symmetry_space_group_name_H-M   'P 1'
_cell_length_a   8.24519773
_cell_length_b   14.76745268
_cell_length_c   6.33960029
_cell_angle_alpha   102.67793292
_cell_angle_beta   89.95668613
_cell_angle_gamma   90.07078410
_symmetry_Int_Tables_number   1
_chemical_formula_structural   Li2Mn3(BO3)3
_chemical_formula_sum   'Li8 Mn12 B12 O36'
_cell_volume   753.09275229
_cell_formula_units_Z   4
loop_
 _symmetry_equiv_pos_site_id
 _symmetry_equiv_pos_as_xyz
  1  'x, y, z'
loop_
 _atom_site_type_symbol
 _atom_site_label
 _atom_site_symmetry_multiplicity
 _atom_site_fract_x
 _atom_site_fract_y
 _atom_site_fract_z
 _atom_site_occupancy
  Li  Li0  1  0.29405044  0.98998232  0.24634790  1
  Li  Li1  1  0.28951188  0.99006612  0.74684076  1
  Li  Li2  1  0.33959470  0.36062162  0.93303668  1
  Li  Li3  1  0.37194814  0.65006241  0.57000827  1
  Li  Li4  1  0.78906283  0.49079694  0.49408090  1
  Li  Li5  1  0.78946788  0.48985172  0.99388294  1
  Li  Li6  1  0.83714736  0.86058376  0.17971012  1
  Li  Li7  1  0.87334104  0.14911966  0.32349958  1
  Mn  Mn8  1  0.14383706  0.50640221  0.75492699  1
  Mn  Mn9  1  0.13983339  0.50662141  0.25225060  1
  Mn  Mn10  1  0.17087867  0.80964277  0.90353064  1
  Mn  Mn11  1  0.16938184  0.81148928  0.40385999  1
  Mn  Mn12  1  0.18837055  0.18469503  0.59390073  1
  Mn  Mn13  1  0.18797066  0.18404146  0.09479922  1
  Mn  Mn14  1  0.64355139  0.00588402  0.50682628  1
  Mn  Mn15  1  0.64458745  0.00595723  0.99652148  1
  Mn  Mn16  1  0.67091137  0.31126410  0.65347379  1
  Mn  Mn17  1  0.67208322  0.30983277  0.15279797  1
  Mn  Mn18  1  0.68509110  0.68360319  0.84011317  1
  Mn  Mn19  1  0.68829622  0.68485381  0.34179551  1
  B  B20  1  0.00677194  0.99878906  0.00642362  1
  B  B21  1  0.00742747  0.00026483  0.49316431  1
  B  B22  1  0.99863513  0.33393773  0.41742448  1
  B  B23  1  0.99570292  0.33742456  0.91932826  1
  B  B24  1  0.00277650  0.66481705  0.58012127  1
  B  B25  1  0.99227407  0.66559889  0.08096233  1
  B  B26  1  0.50477195  0.49903812  0.74780583  1
  B  B27  1  0.50495803  0.50011119  0.24893097  1
  B  B28  1  0.49312155  0.16510870  0.83135544  1
  B  B29  1  0.50494481  0.16518284  0.33166231  1
  B  B30  1  0.49617043  0.83775359  0.16863708  1
  B  B31  1  0.49663029  0.83289952  0.66584994  1
  O  O32  1  0.01792619  0.43289487  0.96718932  1
  O  O33  1  0.01821026  0.42901781  0.46508453  1
  O  O34  1  0.01184590  0.76248762  0.12794137  1
  O  O35  1  0.02500937  0.75984030  0.62815669  1
  O  O36  1  0.13908940  0.60704020  0.55354662  1
  O  O37  1  0.12282339  0.60841461  0.05560475  1
  O  O38  1  0.12638026  0.27235791  0.39068374  1
  O  O39  1  0.13086533  0.28044415  0.89324639  1
  O  O40  1  0.15689730  0.95411059  0.97697700  1
  O  O41  1  0.15760995  0.95576630  0.48006027  1
  O  O42  1  0.34971675  0.12807411  0.31548185  1
  O  O43  1  0.33486685  0.12914084  0.81393401  1
  O  O44  1  0.33904199  0.80476525  0.15077844  1
  O  O45  1  0.34129943  0.79482858  0.64594043  1
  O  O46  1  0.36552757  0.44796377  0.74259810  1
  O  O47  1  0.36349878  0.45050443  0.21001955  1
  O  O48  1  0.49791644  0.59406842  0.77357286  1
  O  O49  1  0.50110796  0.59553280  0.31180135  1
  O  O50  1  0.51669320  0.92784307  0.71317273  1
  O  O51  1  0.52198056  0.93285858  0.21616339  1
  O  O52  1  0.52672955  0.26050560  0.37642611  1
  O  O53  1  0.51327436  0.26185964  0.87989875  1
  O  O54  1  0.64093626  0.10781864  0.30334441  1
  O  O55  1  0.62302197  0.10718228  0.80235788  1
  O  O56  1  0.63000915  0.77933018  0.14042888  1
  O  O57  1  0.62478158  0.77155277  0.63607554  1
  O  O58  1  0.65610829  0.45529406  0.72710769  1
  O  O59  1  0.65456096  0.45447312  0.22500273  1
  O  O60  1  0.84796102  0.62730202  0.55876916  1
  O  O61  1  0.83401227  0.62933995  0.06152235  1
  O  O62  1  0.84329080  0.29566234  0.39414909  1
  O  O63  1  0.83912594  0.30388376  0.89991350  1
  O  O64  1  0.86605415  0.94792427  0.98971214  1
  O  O65  1  0.86695630  0.94932178  0.45800063  1
  O  O66  1  0.00153465  0.09576160  0.53229658  1
  O  O67  1  0.00101356  0.09431087  0.06118680  1
