# generated using pymatgen
data_Fe6O7F5
_symmetry_space_group_name_H-M   'P 1'
_cell_length_a   4.77567606
_cell_length_b   7.73896170
_cell_length_c   5.67797630
_cell_angle_alpha   96.01625598
_cell_angle_beta   93.79530368
_cell_angle_gamma   87.34054664
_symmetry_Int_Tables_number   1
_chemical_formula_structural   Fe6O7F5
_chemical_formula_sum   'Fe6 O7 F5'
_cell_volume   208.07280991
_cell_formula_units_Z   1
loop_
 _symmetry_equiv_pos_site_id
 _symmetry_equiv_pos_as_xyz
  1  'x, y, z'
loop_
 _atom_site_type_symbol
 _atom_site_label
 _atom_site_symmetry_multiplicity
 _atom_site_fract_x
 _atom_site_fract_y
 _atom_site_fract_z
 _atom_site_occupancy
  Fe  Fe0  1  0.55152796  0.66450834  0.14670987  1
  Fe  Fe1  1  0.54102763  0.01078825  0.49544084  1
  Fe  Fe2  1  0.48756033  0.33518752  0.83466683  1
  Fe  Fe3  1  0.99300319  0.67243132  0.67432328  1
  Fe  Fe4  1  0.99087801  0.32213871  0.33677707  1
  Fe  Fe5  1  0.95895375  0.99836808  0.00577521  1
  O  O6  1  0.81119944  0.77025538  0.95758679  1
  O  O7  1  0.81392729  0.10071294  0.30042403  1
  O  O8  1  0.68944425  0.11681203  0.80232872  1
  O  O9  1  0.69270798  0.76767579  0.46084252  1
  O  O10  1  0.69516170  0.42402084  0.11893620  1
  O  O11  1  0.30520781  0.55727083  0.86566345  1
  O  O12  1  0.30485907  0.23876590  0.54616701  1
  F  F13  1  0.80112284  0.43682007  0.62658164  1
  F  F14  1  0.30346612  0.89929544  0.19875150  1
  F  F15  1  0.19493532  0.22416668  0.04415228  1
  F  F16  1  0.17290899  0.55920441  0.37423845  1
  F  F17  1  0.19210932  0.90157547  0.71063532  1
