# generated using pymatgen
data_Li3Co2(SiO4)2
_symmetry_space_group_name_H-M   'P 1'
_cell_length_a   6.61184351
_cell_length_b   5.09494034
_cell_length_c   10.60229185
_cell_angle_alpha   90.00000000
_cell_angle_beta   88.78096097
_cell_angle_gamma   90.00000000
_symmetry_Int_Tables_number   1
_chemical_formula_structural   Li3Co2(SiO4)2
_chemical_formula_sum   'Li6 Co4 Si4 O16'
_cell_volume   357.07802067
_cell_formula_units_Z   2
loop_
 _symmetry_equiv_pos_site_id
 _symmetry_equiv_pos_as_xyz
  1  'x, y, z'
loop_
 _atom_site_type_symbol
 _atom_site_label
 _atom_site_symmetry_multiplicity
 _atom_site_fract_x
 _atom_site_fract_y
 _atom_site_fract_z
 _atom_site_occupancy
  Li  Li0  1  0.00830293  0.31738681  0.41323736  1
  Li  Li1  1  0.00830293  0.18261319  0.91323736  1
  Li  Li2  1  0.77642549  0.31233234  0.17180882  1
  Li  Li3  1  0.77642549  0.18766766  0.67180882  1
  Li  Li4  1  0.00501342  0.81694333  0.08543432  1
  Li  Li5  1  0.00501342  0.68305667  0.58543432  1
  Co  Co6  1  0.49055573  0.30185065  0.40129644  1
  Co  Co7  1  0.50152641  0.80614770  0.10030379  1
  Co  Co8  1  0.49055573  0.19814935  0.90129644  1
  Co  Co9  1  0.50152641  0.69385230  0.60030379  1
  Si  Si10  1  0.24176350  0.32221236  0.15911040  1
  Si  Si11  1  0.24176350  0.17778764  0.65911040  1
  Si  Si12  1  0.75756827  0.80876632  0.34357775  1
  Si  Si13  1  0.75756827  0.69123368  0.84357775  1
  O  O14  1  0.03634593  0.21121502  0.09875245  1
  O  O15  1  0.03634593  0.28878498  0.59875245  1
  O  O16  1  0.26063558  0.64561441  0.13601093  1
  O  O17  1  0.25537976  0.25024452  0.30860973  1
  O  O18  1  0.26063558  0.85438559  0.63601093  1
  O  O19  1  0.25537976  0.24975548  0.80860973  1
  O  O20  1  0.45637618  0.19801483  0.08863456  1
  O  O21  1  0.45637618  0.30198517  0.58863456  1
  O  O22  1  0.55087371  0.68372320  0.41766038  1
  O  O23  1  0.55087371  0.81627680  0.91766038  1
  O  O24  1  0.73746629  0.71436457  0.19058848  1
  O  O25  1  0.73759305  0.13494768  0.34338765  1
  O  O26  1  0.73746629  0.78563543  0.69058848  1
  O  O27  1  0.73759305  0.36505232  0.84338765  1
  O  O28  1  0.95393273  0.69712533  0.40860594  1
  O  O29  1  0.95393273  0.80287467  0.90860594  1
