# generated using pymatgen
data_Fe5O3F7
_symmetry_space_group_name_H-M   'P 1'
_cell_length_a   4.83426660
_cell_length_b   4.82493189
_cell_length_c   15.64883988
_cell_angle_alpha   90.00000000
_cell_angle_beta   89.80181942
_cell_angle_gamma   90.00000000
_symmetry_Int_Tables_number   1
_chemical_formula_structural   Fe5O3F7
_chemical_formula_sum   'Fe10 O6 F14'
_cell_volume   365.00711775
_cell_formula_units_Z   2
loop_
 _symmetry_equiv_pos_site_id
 _symmetry_equiv_pos_as_xyz
  1  'x, y, z'
loop_
 _atom_site_type_symbol
 _atom_site_label
 _atom_site_symmetry_multiplicity
 _atom_site_fract_x
 _atom_site_fract_y
 _atom_site_fract_z
 _atom_site_occupancy
  Fe  Fe0  1  0.00387440  0.00449671  -0.00047223  1
  Fe  Fe1  1  0.97740829  0.99007907  0.19400126  1
  Fe  Fe2  1  0.97625949  0.97933323  0.40001495  1
  Fe  Fe3  1  0.04224884  0.02241754  0.60722357  1
  Fe  Fe4  1  0.02156556  0.97433316  0.80175197  1
  Fe  Fe5  1  0.54224884  0.47758246  0.10722357  1
  Fe  Fe6  1  0.50387440  0.49550329  0.49952777  1
  Fe  Fe7  1  0.52156556  0.52566684  0.30175197  1
  Fe  Fe8  1  0.47740829  0.50992093  0.69400126  1
  Fe  Fe9  1  0.47625949  0.52066677  0.90001495  1
  O  O10  1  0.18433497  0.82072531  0.70103493  1
  O  O11  1  0.17422998  0.82548149  0.90358242  1
  O  O12  1  0.31039935  0.30935314  0.59061906  1
  O  O13  1  0.68433597  0.67927469  0.20103493  1
  O  O14  1  0.67422998  0.67451851  0.40358242  1
  O  O15  1  0.81039935  0.19064686  0.09061906  1
  F  F16  1  0.21486006  0.78438237  0.09182759  1
  F  F17  1  0.19491676  0.79302562  0.29865325  1
  F  F18  1  0.20085156  0.80224551  0.50411857  1
  F  F19  1  0.30828704  0.30127566  0.00607704  1
  F  F20  1  0.30682785  0.29680009  0.20210471  1
  F  F21  1  0.29742037  0.29969472  0.39826528  1
  F  F22  1  0.28651448  0.30090209  0.80119864  1
  F  F23  1  0.70085156  0.69775449  0.00411857  1
  F  F24  1  0.71486006  0.71561763  0.59182759  1
  F  F25  1  0.69491676  0.70697438  0.79865325  1
  F  F26  1  0.80828704  0.19872434  0.50607704  1
  F  F27  1  0.78651448  0.19909791  0.30119864  1
  F  F28  1  0.79742037  0.20030528  0.89826528  1
  F  F29  1  0.80682785  0.20319991  0.70210471  1
