# generated using pymatgen
data_VO2F
_symmetry_space_group_name_H-M   'P 1'
_cell_length_a   5.04270284
_cell_length_b   5.38212325
_cell_length_c   12.53016410
_cell_angle_alpha   90.59191689
_cell_angle_beta   91.83998949
_cell_angle_gamma   60.17967871
_symmetry_Int_Tables_number   1
_chemical_formula_structural   VO2F
_chemical_formula_sum   'V6 O12 F6'
_cell_volume   294.88638601
_cell_formula_units_Z   6
loop_
 _symmetry_equiv_pos_site_id
 _symmetry_equiv_pos_as_xyz
  1  'x, y, z'
loop_
 _atom_site_type_symbol
 _atom_site_label
 _atom_site_symmetry_multiplicity
 _atom_site_fract_x
 _atom_site_fract_y
 _atom_site_fract_z
 _atom_site_occupancy
  V  V0  1  0.69205582  0.68075089  0.66003484  1
  V  V1  1  0.66756171  0.60681554  0.15977329  1
  V  V2  1  0.33243829  0.39318446  0.84022671  1
  V  V3  1  0.30794418  0.31924911  0.33996516  1
  V  V4  1  0.00000000  0.00000000  0.50000000  1
  V  V5  1  0.00000000  0.00000000  0.00000000  1
  O  O6  1  0.95537936  0.52957159  0.27920929  1
  O  O7  1  0.79524497  0.80857660  0.55193214  1
  O  O8  1  0.92158578  0.32869380  0.08100621  1
  O  O9  1  0.73002294  0.13684997  0.39109842  1
  O  O10  1  0.51669489  0.53438014  0.78075808  1
  O  O11  1  0.38527992  0.81734539  0.05560113  1
  O  O12  1  0.61472008  0.18265461  0.94439887  1
  O  O13  1  0.48330511  0.46561986  0.21924192  1
  O  O14  1  0.26997706  0.86315003  0.60890158  1
  O  O15  1  0.07841422  0.67130620  0.91899379  1
  O  O16  1  0.20475503  0.19142340  0.44806786  1
  O  O17  1  0.04462064  0.47042841  0.72079071  1
  F  F18  1  0.87075142  0.86485298  0.11553195  1
  F  F19  1  0.72952731  0.33889995  0.58207877  1
  F  F20  1  0.59923385  0.99184499  0.74804224  1
  F  F21  1  0.27047269  0.66110005  0.41792123  1
  F  F22  1  0.40076615  0.00815501  0.25195776  1
  F  F23  1  0.12924858  0.13514702  0.88446805  1
