# generated using pymatgen
data_Li11V6O5F19
_symmetry_space_group_name_H-M   'P 1'
_cell_length_a   5.16283780
_cell_length_b   5.43925134
_cell_length_c   16.27456476
_cell_angle_alpha   80.69473954
_cell_angle_beta   90.40076851
_cell_angle_gamma   89.30763069
_symmetry_Int_Tables_number   1
_chemical_formula_structural   Li11V6O5F19
_chemical_formula_sum   'Li11 V6 O5 F19'
_cell_volume   450.95639776
_cell_formula_units_Z   1
loop_
 _symmetry_equiv_pos_site_id
 _symmetry_equiv_pos_as_xyz
  1  'x, y, z'
loop_
 _atom_site_type_symbol
 _atom_site_label
 _atom_site_symmetry_multiplicity
 _atom_site_fract_x
 _atom_site_fract_y
 _atom_site_fract_z
 _atom_site_occupancy
  Li  Li0  1  0.51629508  0.24323871  0.44144892  1
  Li  Li1  1  0.99154252  0.36685243  0.11081002  1
  Li  Li2  1  0.49222047  0.40753720  0.21798672  1
  Li  Li3  1  0.99960271  0.10194631  0.77045828  1
  Li  Li4  1  0.49207332  0.10618274  0.89532944  1
  Li  Li5  1  0.00391696  0.24667411  0.57095315  1
  Li  Li6  1  0.98872909  0.71679813  0.44341238  1
  Li  Li7  1  0.50203416  0.54726206  0.77701982  1
  Li  Li8  1  0.52491900  0.90527620  0.10899682  1
  Li  Li9  1  0.00138998  0.60420089  0.89262772  1
  Li  Li10  1  0.50059766  0.79443826  0.55822538  1
  V  V11  1  0.00645775  0.02883983  0.99643846  1
  V  V12  1  0.01600047  0.34770275  0.33544226  1
  V  V13  1  0.49830656  0.16679590  0.66563376  1
  V  V14  1  0.48050873  0.81966385  0.33404427  1
  V  V15  1  0.50403203  0.46570160  0.99834746  1
  V  V16  1  0.99714801  0.66826514  0.66573272  1
  O  O17  1  0.32148113  0.16870505  0.03307608  1
  O  O18  1  0.18986007  0.35153306  0.69026965  1
  O  O19  1  0.31139740  0.51152159  0.37018685  1
  O  O20  1  0.81088825  0.32162726  0.95782866  1
  O  O21  1  0.79862617  0.97845998  0.63640635  1
  F  F22  1  0.17318329  0.00245481  0.37579816  1
  F  F23  1  0.67084003  0.17594825  0.30835073  1
  F  F24  1  0.36081822  0.15420213  0.54846228  1
  F  F25  1  0.13901429  0.98400230  0.87995386  1
  F  F26  1  0.13485401  0.35008782  0.22148848  1
  F  F27  1  0.63452884  0.18272351  0.78122350  1
  F  F28  1  0.63860763  0.51328397  0.11446405  1
  F  F29  1  0.86923784  0.34688038  0.45175015  1
  F  F30  1  0.17678528  0.66930576  0.03016712  1
  F  F31  1  0.68428952  0.49495311  0.61864732  1
  F  F32  1  0.81439352  0.66366216  0.30413121  1
  F  F33  1  0.85865764  0.64685659  0.78086959  1
  F  F34  1  0.14105492  0.69096568  0.54941547  1
  F  F35  1  0.35071274  0.48364487  0.88149045  1
  F  F36  1  0.86327138  0.02669944  0.11039626  1
  F  F37  1  0.39902984  0.85407483  0.21876612  1
  F  F38  1  0.63526457  0.85109153  0.44635619  1
  F  F39  1  0.31610871  0.83578908  0.70936733  1
  F  F40  1  0.68436221  0.81691774  0.96235057  1
