# generated using pymatgen
data_U2PbI2O13
_symmetry_space_group_name_H-M   'P 1'
_cell_length_a   6.97037838
_cell_length_b   7.98355768
_cell_length_c   21.75690337
_cell_angle_alpha   98.78693337
_cell_angle_beta   90.00000000
_cell_angle_gamma   90.00000000
_symmetry_Int_Tables_number   1
_chemical_formula_structural   U2PbI2O13
_chemical_formula_sum   'U8 Pb4 I8 O52'
_cell_volume   1196.52712416
_cell_formula_units_Z   4
loop_
 _symmetry_equiv_pos_site_id
 _symmetry_equiv_pos_as_xyz
  1  'x, y, z'
loop_
 _atom_site_type_symbol
 _atom_site_label
 _atom_site_symmetry_multiplicity
 _atom_site_fract_x
 _atom_site_fract_y
 _atom_site_fract_z
 _atom_site_occupancy
  U  U0  1  0.82554352  0.61109842  0.62546207  1
  U  U1  1  0.32554352  0.38890158  0.87453793  1
  U  U2  1  0.17445648  0.38890158  0.37453793  1
  U  U3  1  0.67445648  0.61109842  0.12546207  1
  U  U4  1  0.80609939  0.47385270  0.78014065  1
  U  U5  1  0.30609939  0.52614730  0.71985935  1
  U  U6  1  0.19390061  0.52614730  0.21985935  1
  U  U7  1  0.69390061  0.47385270  0.28014065  1
  Pb  Pb8  1  0.62505905  0.12189399  0.63393080  1
  Pb  Pb9  1  0.12505905  0.87810601  0.86606920  1
  Pb  Pb10  1  0.37494095  0.87810601  0.36606920  1
  Pb  Pb11  1  0.87494095  0.12189399  0.13393080  1
  I  I12  1  0.82359577  0.83714031  0.47130313  1
  I  I13  1  0.32359577  0.16285969  0.02869687  1
  I  I14  1  0.17640423  0.16285969  0.52869687  1
  I  I15  1  0.67640423  0.83714031  0.97130313  1
  I  I16  1  0.32827906  0.70240963  0.55038176  1
  I  I17  1  0.82827906  0.29759037  0.94961824  1
  I  I18  1  0.67172094  0.29759037  0.44961824  1
  I  I19  1  0.17172094  0.70240963  0.05038176  1
  O  O20  1  0.91667711  0.69064742  0.52226616  1
  O  O21  1  0.41667711  0.30935258  0.97773384  1
  O  O22  1  0.08332289  0.30935258  0.47773384  1
  O  O23  1  0.58332289  0.69064742  0.02226616  1
  O  O24  1  0.56763949  0.78160101  0.46768087  1
  O  O25  1  0.06763949  0.21839899  0.03231913  1
  O  O26  1  0.43236051  0.21839899  0.53231913  1
  O  O27  1  0.93236051  0.78160101  0.96768087  1
  O  O28  1  0.81903506  0.03291350  0.52846341  1
  O  O29  1  0.31903506  0.96708650  0.97153659  1
  O  O30  1  0.18096494  0.96708650  0.47153659  1
  O  O31  1  0.68096494  0.03291350  0.02846341  1
  O  O32  1  0.18936384  0.61655905  0.61151927  1
  O  O33  1  0.68936384  0.38344095  0.88848073  1
  O  O34  1  0.81063616  0.38344095  0.38848073  1
  O  O35  1  0.31063616  0.61655905  0.11151927  1
  O  O36  1  0.54784742  0.59143763  0.56754106  1
  O  O37  1  0.04784742  0.40856237  0.93245894  1
  O  O38  1  0.45215258  0.40856237  0.43245894  1
  O  O39  1  0.95215258  0.59143763  0.06754106  1
  O  O40  1  0.35843850  0.91599633  0.59337043  1
  O  O41  1  0.85843850  0.08400367  0.90662957  1
  O  O42  1  0.64156150  0.08400367  0.40662957  1
  O  O43  1  0.14156150  0.91599633  0.09337043  1
  O  O44  1  0.85142293  0.38125470  0.59477668  1
  O  O45  1  0.35142293  0.61874530  0.90522332  1
  O  O46  1  0.14857707  0.61874530  0.40522332  1
  O  O47  1  0.64857707  0.38125470  0.09477668  1
  O  O48  1  0.78447629  0.84376098  0.64920836  1
  O  O49  1  0.28447629  0.15623902  0.85079164  1
  O  O50  1  0.21552371  0.15623902  0.35079164  1
  O  O51  1  0.71552371  0.84376098  0.14920836  1
  O  O52  1  0.61886751  0.54898488  0.69558084  1
  O  O53  1  0.11886751  0.45101512  0.80441916  1
  O  O54  1  0.38113249  0.45101512  0.30441916  1
  O  O55  1  0.88113249  0.54898488  0.19558084  1
  O  O56  1  0.81350617  0.25283559  0.73663357  1
  O  O57  1  0.31350617  0.74716441  0.76336643  1
  O  O58  1  0.18649383  0.74716441  0.26336643  1
  O  O59  1  0.68649383  0.25283559  0.23663357  1
  O  O60  1  0.80261619  0.69047379  0.82617259  1
  O  O61  1  0.30261619  0.30952621  0.67382741  1
  O  O62  1  0.19738381  0.30952621  0.17382741  1
  O  O63  1  0.69738381  0.69047379  0.32617259  1
  O  O64  1  0.98866362  0.56929735  0.70776909  1
  O  O65  1  0.48866362  0.43070265  0.79223091  1
  O  O66  1  0.01133638  0.43070265  0.29223091  1
  O  O67  1  0.51133638  0.56929735  0.20776909  1
  O  O68  1  0.51868598  0.02405217  0.73765750  1
  O  O69  1  0.01868598  0.97594783  0.76234250  1
  O  O70  1  0.48131402  0.97594783  0.26234250  1
  O  O71  1  0.98131402  0.02405217  0.23765750  1
