# generated using pymatgen
data_Fe5O3F7
_symmetry_space_group_name_H-M   'P 1'
_cell_length_a   4.81551990
_cell_length_b   4.81551990
_cell_length_c   15.71467193
_cell_angle_alpha   89.92120776
_cell_angle_beta   89.92120776
_cell_angle_gamma   88.63876626
_symmetry_Int_Tables_number   1
_chemical_formula_structural   Fe5O3F7
_chemical_formula_sum   'Fe10 O6 F14'
_cell_volume   364.30765862
_cell_formula_units_Z   2
loop_
 _symmetry_equiv_pos_site_id
 _symmetry_equiv_pos_as_xyz
  1  'x, y, z'
loop_
 _atom_site_type_symbol
 _atom_site_label
 _atom_site_symmetry_multiplicity
 _atom_site_fract_x
 _atom_site_fract_y
 _atom_site_fract_z
 _atom_site_occupancy
  Fe  Fe0  1  0.98072165  0.96632513  0.99532985  1
  Fe  Fe1  1  0.03367487  0.01927835  0.20467015  1
  Fe  Fe2  1  0.02038592  0.97197126  0.39971694  1
  Fe  Fe3  1  0.02465398  0.97534602  0.60000000  1
  Fe  Fe4  1  0.02802874  0.97961408  0.80028306  1
  Fe  Fe5  1  0.50251859  0.49748141  0.10000000  1
  Fe  Fe6  1  0.48910887  0.51227519  0.49836096  1
  Fe  Fe7  1  0.47003155  0.50863181  0.29237815  1
  Fe  Fe8  1  0.48772481  0.51089113  0.70163904  1
  Fe  Fe9  1  0.49136819  0.52996845  0.90762185  1
  O  O10  1  0.20083594  0.80485275  0.30513712  1
  O  O11  1  0.18558149  0.81223724  0.50002977  1
  O  O12  1  0.18776276  0.81441851  0.69997023  1
  O  O13  1  0.19514725  0.79916406  0.89486288  1
  O  O14  1  0.32907636  0.32109216  0.19625214  1
  O  O15  1  0.67890784  0.67092364  0.00374786  1
  F  F16  1  0.20602168  0.79397832  0.10000000  1
  F  F17  1  0.29811724  0.29921756  0.00067341  1
  F  F18  1  0.29680570  0.30061047  0.39512737  1
  F  F19  1  0.29242204  0.29601164  0.59978841  1
  F  F20  1  0.30018058  0.30216946  0.80572669  1
  F  F21  1  0.70078244  0.70188276  0.19932659  1
  F  F22  1  0.69783054  0.69981942  0.39427331  1
  F  F23  1  0.70398836  0.70757796  0.60021159  1
  F  F24  1  0.69938953  0.70319430  0.80487163  1
  F  F25  1  0.80688242  0.19311758  0.10000000  1
  F  F26  1  0.80420589  0.19438880  0.50053130  1
  F  F27  1  0.79457273  0.21233814  0.31034298  1
  F  F28  1  0.78766186  0.20542727  0.88965702  1
  F  F29  1  0.80561120  0.19579411  0.69946870  1
