# generated using pymatgen
data_Li2Mn3(BO3)3
_symmetry_space_group_name_H-M   'P 1'
_cell_length_a   8.29543585
_cell_length_b   14.65306288
_cell_length_c   6.34392096
_cell_angle_alpha   102.52430991
_cell_angle_beta   89.97601685
_cell_angle_gamma   90.37795067
_symmetry_Int_Tables_number   1
_chemical_formula_structural   Li2Mn3(BO3)3
_chemical_formula_sum   'Li8 Mn12 B12 O36'
_cell_volume   752.75963823
_cell_formula_units_Z   4
loop_
 _symmetry_equiv_pos_site_id
 _symmetry_equiv_pos_as_xyz
  1  'x, y, z'
loop_
 _atom_site_type_symbol
 _atom_site_label
 _atom_site_symmetry_multiplicity
 _atom_site_fract_x
 _atom_site_fract_y
 _atom_site_fract_z
 _atom_site_occupancy
  Li  Li0  1  0.28705809  0.99078669  0.24447383  1
  Li  Li1  1  0.33951874  0.35887891  0.42780612  1
  Li  Li2  1  0.33763582  0.36086957  0.93171881  1
  Li  Li3  1  0.36798862  0.64826028  0.07234990  1
  Li  Li4  1  0.78949749  0.49024948  0.49609332  1
  Li  Li5  1  0.84288652  0.85945200  0.17860963  1
  Li  Li6  1  0.83385222  0.85858206  0.67892379  1
  Li  Li7  1  0.86978826  0.14951153  0.82567755  1
  Mn  Mn8  1  0.13369794  0.50987168  0.75452671  1
  Mn  Mn9  1  0.12616767  0.50932554  0.25270041  1
  Mn  Mn10  1  0.18219405  0.81578378  0.90454673  1
  Mn  Mn11  1  0.18199995  0.81399070  0.41056700  1
  Mn  Mn12  1  0.18492426  0.17465481  0.58853087  1
  Mn  Mn13  1  0.18795330  0.17674976  0.08614344  1
  Mn  Mn14  1  0.63227714  0.00949319  0.50396360  1
  Mn  Mn15  1  0.62918521  0.00935139  0.00618168  1
  Mn  Mn16  1  0.68198417  0.31427125  0.65630905  1
  Mn  Mn17  1  0.68298986  0.31551529  0.15792941  1
  Mn  Mn18  1  0.68562032  0.67565495  0.83818295  1
  Mn  Mn19  1  0.68667706  0.67576102  0.33406727  1
  B  B20  1  0.99555049  0.99771628  0.99838229  1
  B  B21  1  0.99593434  0.99555225  0.49667964  1
  B  B22  1  0.00016947  0.33511104  0.41526137  1
  B  B23  1  0.00770196  0.33352654  0.91796223  1
  B  B24  1  0.99614346  0.66544525  0.58043761  1
  B  B25  1  -0.00004924  0.67153079  0.08533336  1
  B  B26  1  0.49646016  0.49620995  0.74753796  1
  B  B27  1  0.49550873  0.49771235  0.24880275  1
  B  B28  1  0.50310554  0.17300059  0.83803369  1
  B  B29  1  0.49357250  0.16559238  0.33117899  1
  B  B30  1  0.50186343  0.83274983  0.16783578  1
  B  B31  1  0.50595937  0.83551672  0.66767740  1
  O  O32  1  0.03440109  0.42875419  0.96584537  1
  O  O33  1  0.02158859  0.43179862  0.46257482  1
  O  O34  1  0.02694651  0.76845875  0.13401256  1
  O  O35  1  0.01822658  0.76193556  0.63296975  1
  O  O36  1  0.12799406  0.60670025  0.54665377  1
  O  O37  1  0.13428565  0.61228182  0.05993356  1
  O  O38  1  0.13092304  0.27660927  0.38591559  1
  O  O39  1  0.13987150  0.27484915  0.88902832  1
  O  O40  1  0.14212179  0.95335591  0.99487274  1
  O  O41  1  0.14316921  0.95190940  0.45546644  1
  O  O42  1  0.33797697  0.12701659  0.31060939  1
  O  O43  1  0.35139300  0.13661492  0.82193494  1
  O  O44  1  0.35221571  0.78897677  0.14487000  1
  O  O45  1  0.34648593  0.80745628  0.65321178  1
  O  O46  1  0.35511322  0.44251266  0.72189478  1
  O  O47  1  0.35314199  0.44478801  0.22221724  1
  O  O48  1  0.48899015  0.59157604  0.81150046  1
  O  O49  1  0.48994059  0.59277378  0.27590884  1
  O  O50  1  0.54656809  0.92951016  0.71579364  1
  O  O51  1  0.51054631  0.92980294  0.21607671  1
  O  O52  1  0.51563960  0.26166254  0.37975943  1
  O  O53  1  0.52744712  0.27084487  0.88645474  1
  O  O54  1  0.62476752  0.10637204  0.30252631  1
  O  O55  1  0.63775758  0.11468644  0.80681954  1
  O  O56  1  0.64013215  0.77984065  0.14149497  1
  O  O57  1  0.63011872  0.77130546  0.63515949  1
  O  O58  1  0.64352508  0.45234007  0.70794908  1
  O  O59  1  0.64208289  0.45345126  0.24684507  1
  O  O60  1  0.84150604  0.62682881  0.56042683  1
  O  O61  1  0.84751240  0.63563701  0.06400425  1
  O  O62  1  0.84241344  0.30260538  0.40128069  1
  O  O63  1  0.85451057  0.29406020  0.89663723  1
  O  O64  1  0.85380734  0.94420091  0.97140299  1
  O  O65  1  0.85471067  0.94177740  0.46998951  1
  O  O66  1  0.98835180  0.09079863  0.56313479  1
  O  O67  1  0.99024122  0.09302842  0.02813127  1
