# generated using pymatgen
data_Li4Cr3(FeO4)3
_symmetry_space_group_name_H-M   'P 1'
_cell_length_a   6.02849545
_cell_length_b   7.84239678
_cell_length_c   5.15137365
_cell_angle_alpha   77.02084872
_cell_angle_beta   73.41720148
_cell_angle_gamma   78.64317592
_symmetry_Int_Tables_number   1
_chemical_formula_structural   Li4Cr3(FeO4)3
_chemical_formula_sum   'Li4 Cr3 Fe3 O12'
_cell_volume   225.14113683
_cell_formula_units_Z   1
loop_
 _symmetry_equiv_pos_site_id
 _symmetry_equiv_pos_as_xyz
  1  'x, y, z'
loop_
 _atom_site_type_symbol
 _atom_site_label
 _atom_site_symmetry_multiplicity
 _atom_site_fract_x
 _atom_site_fract_y
 _atom_site_fract_z
 _atom_site_occupancy
  Li  Li0  1  0.16644022  0.83007088  0.49732310  1
  Li  Li1  1  0.50022578  0.50326212  0.50267690  1
  Li  Li2  1  0.66865163  0.33367883  0.99062932  1
  Li  Li3  1  0.99801537  0.99965417  0.00937068  1
  Cr  Cr4  1  0.66582275  0.83350529  0.50186441  1
  Cr  Cr5  1  0.00084425  0.49982871  0.49813559  1
  Cr  Cr6  1  0.33333300  0.16666700  0.50000000  1
  Fe  Fe7  1  0.83333300  0.66666700  0.00000000  1
  Fe  Fe8  1  0.16592253  0.33451625  0.99977135  1
  Fe  Fe9  1  0.50074447  0.99881675  0.00022865  1
  O  O10  1  0.81433696  0.89509866  0.77126306  1
  O  O11  1  0.97051257  0.74783277  0.26846692  1
  O  O12  1  0.35176746  0.93887569  0.72628715  1
  O  O13  1  0.69615343  0.58550023  0.73153308  1
  O  O14  1  0.52472769  0.75780105  0.25342483  1
  O  O15  1  0.85233004  0.43823434  0.22873694  1
  O  O16  1  0.14193831  0.57553195  0.74657517  1
  O  O17  1  0.47062579  0.24439865  0.75395828  1
  O  O18  1  0.31489954  0.39445831  0.27371285  1
  O  O19  1  0.64066974  0.07680042  0.25661212  1
  O  O20  1  0.02599726  0.25653258  0.74338788  1
  O  O21  1  0.19604121  0.08893435  0.24604172  1
