# generated using pymatgen
data_LiCr(PO3)4
_symmetry_space_group_name_H-M   'P 1'
_cell_length_a   8.11856789
_cell_length_b   8.56815116
_cell_length_c   9.46193460
_cell_angle_alpha   119.35531676
_cell_angle_beta   115.40487862
_cell_angle_gamma   61.72107722
_symmetry_Int_Tables_number   1
_chemical_formula_structural   LiCr(PO3)4
_chemical_formula_sum   'Li2 Cr2 P8 O24'
_cell_volume   488.32237210
_cell_formula_units_Z   2
loop_
 _symmetry_equiv_pos_site_id
 _symmetry_equiv_pos_as_xyz
  1  'x, y, z'
loop_
 _atom_site_type_symbol
 _atom_site_label
 _atom_site_symmetry_multiplicity
 _atom_site_fract_x
 _atom_site_fract_y
 _atom_site_fract_z
 _atom_site_occupancy
  Li  Li0  1  0.00000000  0.50000000  0.50000000  1
  Li  Li1  1  0.00000000  0.00000000  0.00000000  1
  Cr  Cr2  1  0.66406842  0.75000000  0.75000000  1
  Cr  Cr3  1  0.33593158  0.25000000  0.25000000  1
  P  P4  1  0.69741834  0.85711390  0.13851463  1
  P  P5  1  0.34535837  0.81007331  0.10497540  1
  P  P6  1  0.05045528  0.68992669  0.39502460  1
  P  P7  1  0.41601861  0.64288610  0.36148537  1
  P  P8  1  0.58398139  0.35711390  0.63851463  1
  P  P9  1  0.94954472  0.31007331  0.60497540  1
  P  P10  1  0.65464163  0.18992669  0.89502460  1
  P  P11  1  0.30258166  0.14288610  0.86148537  1
  O  O12  1  0.27583322  0.02171926  0.20875567  1
  O  O13  1  0.78523561  0.78261172  0.99689231  1
  O  O14  1  0.86409023  0.81274660  0.29343186  1
  O  O15  1  0.56268998  0.73940170  0.08962270  1
  O  O16  1  0.41216814  0.93374835  0.80012187  1
  O  O17  1  0.21246899  0.76059830  0.41037730  1
  O  O18  1  0.38340398  0.68725340  0.20656814  1
  O  O19  1  0.02112086  0.74715667  0.56018507  1
  O  O20  1  0.57095502  0.71738828  0.50310769  1
  O  O21  1  0.20809146  0.75284333  0.93981493  1
  O  O22  1  0.08879681  0.47828074  0.29124433  1
  O  O23  1  0.54579362  0.56625165  0.69987813  1
  O  O24  1  0.45420638  0.43374835  0.30012187  1
  O  O25  1  0.91120319  0.52171926  0.70875567  1
  O  O26  1  0.79190854  0.24715667  0.06018507  1
  O  O27  1  0.42904498  0.28261172  0.49689231  1
  O  O28  1  0.97887914  0.25284333  0.43981493  1
  O  O29  1  0.61659602  0.31274660  0.79343186  1
  O  O30  1  0.78753101  0.23940170  0.58962270  1
  O  O31  1  0.58783186  0.06625165  0.19987813  1
  O  O32  1  0.43731002  0.26059830  0.91037730  1
  O  O33  1  0.13590977  0.18725340  0.70656814  1
  O  O34  1  0.21476439  0.21738828  0.00310769  1
  O  O35  1  0.72416678  0.97828074  0.79124433  1
