# generated using pymatgen
data_KIn(PO4)2
_symmetry_space_group_name_H-M   'P 1'
_cell_length_a   8.57039314
_cell_length_b   9.61006141
_cell_length_c   9.78202164
_cell_angle_alpha   115.71126876
_cell_angle_beta   90.00000000
_cell_angle_gamma   90.00000000
_symmetry_Int_Tables_number   1
_chemical_formula_structural   KIn(PO4)2
_chemical_formula_sum   'K4 In4 P8 O32'
_cell_volume   725.89920879
_cell_formula_units_Z   4
loop_
 _symmetry_equiv_pos_site_id
 _symmetry_equiv_pos_as_xyz
  1  'x, y, z'
loop_
 _atom_site_type_symbol
 _atom_site_label
 _atom_site_symmetry_multiplicity
 _atom_site_fract_x
 _atom_site_fract_y
 _atom_site_fract_z
 _atom_site_occupancy
  K  K0  1  0.63497832  0.90752471  0.81979960  1
  K  K1  1  0.13497832  0.59247529  0.18020040  1
  K  K2  1  0.36502168  0.09247529  0.18020040  1
  K  K3  1  0.86502168  0.40752471  0.81979960  1
  In  In4  1  0.37315000  0.50858606  0.74415498  1
  In  In5  1  0.87315000  0.99141394  0.25584502  1
  In  In6  1  0.62685000  0.49141394  0.25584502  1
  In  In7  1  0.12685000  0.00858606  0.74415498  1
  P  P8  1  0.32216655  0.67448851  0.50651919  1
  P  P9  1  0.82216655  0.82551149  0.49348081  1
  P  P10  1  0.67783345  0.32551149  0.49348081  1
  P  P11  1  0.17783345  0.17448851  0.50651919  1
  P  P12  1  0.43684104  0.26188494  0.90902881  1
  P  P13  1  0.93684104  0.23811506  0.09097119  1
  P  P14  1  0.56315896  0.73811506  0.09097119  1
  P  P15  1  0.06315896  0.76188494  0.90902881  1
  O  O16  1  0.41200044  0.65903857  0.63547679  1
  O  O17  1  0.91200044  0.84096143  0.36452321  1
  O  O18  1  0.58799956  0.34096143  0.36452321  1
  O  O19  1  0.08799956  0.15903857  0.63547679  1
  O  O20  1  0.41729014  0.61920524  0.35913350  1
  O  O21  1  0.91729014  0.88079476  0.64086650  1
  O  O22  1  0.58270986  0.38079476  0.64086650  1
  O  O23  1  0.08270986  0.11920524  0.35913350  1
  O  O24  1  0.26310880  0.84262620  0.55320759  1
  O  O25  1  0.76310880  0.65737380  0.44679241  1
  O  O26  1  0.73689120  0.15737380  0.44679241  1
  O  O27  1  0.23689120  0.34262620  0.55320759  1
  O  O28  1  0.15837164  0.59610085  0.47410200  1
  O  O29  1  0.65837164  0.90389915  0.52589800  1
  O  O30  1  0.84162836  0.40389915  0.52589800  1
  O  O31  1  0.34162836  0.09610085  0.47410200  1
  O  O32  1  0.34242577  0.11155813  0.85760501  1
  O  O33  1  0.84242577  0.38844187  0.14239499  1
  O  O34  1  0.65757423  0.88844187  0.14239499  1
  O  O35  1  0.15757423  0.61155813  0.85760501  1
  O  O36  1  0.48488835  0.31052194  0.07800874  1
  O  O37  1  0.98488835  0.18947806  0.92199126  1
  O  O38  1  0.51511165  0.68947806  0.92199126  1
  O  O39  1  0.01511165  0.81052194  0.07800874  1
  O  O40  1  0.34914163  0.38861951  0.88645091  1
  O  O41  1  0.84914163  0.11138049  0.11354909  1
  O  O42  1  0.65085837  0.61138049  0.11354909  1
  O  O43  1  0.15085837  0.88861951  0.88645091  1
  O  O44  1  0.60533881  0.22947478  0.84136372  1
  O  O45  1  0.10533881  0.27052522  0.15863628  1
  O  O46  1  0.39466119  0.77052522  0.15863628  1
  O  O47  1  0.89466119  0.72947478  0.84136372  1
