# generated using pymatgen
data_LiMnP3(HO5)2
_symmetry_space_group_name_H-M   'P 1'
_cell_length_a   8.81547665
_cell_length_b   11.42698429
_cell_length_c   9.47356043
_cell_angle_alpha   90.00000000
_cell_angle_beta   116.43342854
_cell_angle_gamma   90.00000000
_symmetry_Int_Tables_number   1
_chemical_formula_structural   LiMnP3(HO5)2
_chemical_formula_sum   'Li4 Mn4 P12 H8 O40'
_cell_volume   854.54131107
_cell_formula_units_Z   4
loop_
 _symmetry_equiv_pos_site_id
 _symmetry_equiv_pos_as_xyz
  1  'x, y, z'
loop_
 _atom_site_type_symbol
 _atom_site_label
 _atom_site_symmetry_multiplicity
 _atom_site_fract_x
 _atom_site_fract_y
 _atom_site_fract_z
 _atom_site_occupancy
  Li  Li0  1  0.07623574  0.16326252  0.58528056  1
  Li  Li1  1  0.07623574  0.33673748  0.08528056  1
  Li  Li2  1  0.92376426  0.66326252  0.91471944  1
  Li  Li3  1  0.92376426  0.83673748  0.41471944  1
  Mn  Mn4  1  0.40301348  0.89694826  0.71819301  1
  Mn  Mn5  1  0.59698652  0.39694826  0.78180699  1
  Mn  Mn6  1  0.40301348  0.60305174  0.21819301  1
  Mn  Mn7  1  0.59698652  0.10305174  0.28180699  1
  P  P8  1  0.09709138  0.97695141  0.81863674  1
  P  P9  1  0.26661076  0.47253962  0.86206152  1
  P  P10  1  0.09709138  0.52304859  0.31863674  1
  P  P11  1  0.32272098  0.61429714  0.63329591  1
  P  P12  1  0.26661076  0.02746038  0.36206152  1
  P  P13  1  0.67727902  0.11429714  0.86670409  1
  P  P14  1  0.32272098  0.88570286  0.13329591  1
  P  P15  1  0.73338924  0.97253962  0.63793848  1
  P  P16  1  0.67727902  0.38570286  0.36670409  1
  P  P17  1  0.90290862  0.47695141  0.68136326  1
  P  P18  1  0.73338924  0.52746038  0.13793848  1
  P  P19  1  0.90290862  0.02304859  0.18136326  1
  H  H20  1  0.34333682  0.15454763  0.97544209  1
  H  H21  1  0.56129841  0.72822346  0.98154182  1
  H  H22  1  0.34333682  0.34545237  0.47544209  1
  H  H23  1  0.43870159  0.22822346  0.51845818  1
  H  H24  1  0.56129841  0.77177654  0.48154182  1
  H  H25  1  0.65666318  0.65454763  0.52455791  1
  H  H26  1  0.43870159  0.27177654  0.01845818  1
  H  H27  1  0.65666318  0.84545237  0.02455791  1
  O  O28  1  0.09004362  0.10424668  0.77609092  1
  O  O29  1  0.08981170  0.42256529  0.72679123  1
  O  O30  1  0.24003682  0.49382108  0.00645305  1
  O  O31  1  0.18293204  0.89310273  0.75570715  1
  O  O32  1  0.28808287  0.59508067  0.78747285  1
  O  O33  1  0.17312290  0.53233820  0.50732250  1
  O  O34  1  0.09004362  0.39575332  0.27609192  1
  O  O35  1  0.40420259  0.38916833  0.87321819  1
  O  O36  1  0.08981170  0.07743471  0.22679123  1
  O  O37  1  0.24003682  0.00617892  0.50645305  1
  O  O38  1  0.28728709  0.73991070  0.58652912  1
  O  O39  1  0.18293204  0.60689727  0.25570715  1
  O  O40  1  0.59245416  0.79528337  0.93333424  1
  O  O41  1  0.50983769  0.06084056  0.83739611  1
  O  O42  1  0.49016231  0.56084056  0.66260389  1
  O  O43  1  0.28808287  0.90491933  0.28747285  1
  O  O44  1  0.40754584  0.29528337  0.56666576  1
  O  O45  1  0.17312290  0.96766180  0.00732250  1
  O  O46  1  0.40420259  0.11083167  0.37321819  1
  O  O47  1  0.71271291  0.23991070  0.91347088  1
  O  O48  1  0.28728709  0.76008930  0.08652912  1
  O  O49  1  0.59579741  0.88916833  0.62678181  1
  O  O50  1  0.82687710  0.03233820  0.99267750  1
  O  O51  1  0.59245416  0.70471663  0.43333424  1
  O  O52  1  0.71191713  0.09508067  0.71252715  1
  O  O53  1  0.50983769  0.43915944  0.33739611  1
  O  O54  1  0.49016231  0.93915944  0.16260389  1
  O  O55  1  0.40754584  0.20471663  0.06666576  1
  O  O56  1  0.81706796  0.39310273  0.74429285  1
  O  O57  1  0.71271291  0.26008930  0.41347088  1
  O  O58  1  0.75996418  0.99382108  0.49354695  1
  O  O59  1  0.91018830  0.92256529  0.77320877  1
  O  O60  1  0.59579741  0.61083167  0.12678181  1
  O  O61  1  0.90995638  0.60424668  0.72390908  1
  O  O62  1  0.82687710  0.46766180  0.49267750  1
  O  O63  1  0.71191713  0.40491933  0.21252715  1
  O  O64  1  0.81706796  0.10689727  0.24429285  1
  O  O65  1  0.75996418  0.50617892  0.99354695  1
  O  O66  1  0.91018830  0.57743471  0.27320877  1
  O  O67  1  0.90995638  0.89575332  0.22390808  1
