# generated using pymatgen
data_Fe3(O2F)2
_symmetry_space_group_name_H-M   'P 1'
_cell_length_a   4.71034323
_cell_length_b   14.02858726
_cell_length_c   3.05320258
_cell_angle_alpha   90.00001183
_cell_angle_beta   89.99999249
_cell_angle_gamma   89.99916079
_symmetry_Int_Tables_number   1
_chemical_formula_structural   Fe3(O2F)2
_chemical_formula_sum   'Fe6 O8 F4'
_cell_volume   201.75398088
_cell_formula_units_Z   2
loop_
 _symmetry_equiv_pos_site_id
 _symmetry_equiv_pos_as_xyz
  1  'x, y, z'
loop_
 _atom_site_type_symbol
 _atom_site_label
 _atom_site_symmetry_multiplicity
 _atom_site_fract_x
 _atom_site_fract_y
 _atom_site_fract_z
 _atom_site_occupancy
  Fe  Fe0  1  0.93411785  0.00899653  -0.00000018  1
  Fe  Fe1  1  0.99995400  0.33329581  -0.00000049  1
  Fe  Fe2  1  0.06597491  0.65766026  -0.00000008  1
  Fe  Fe3  1  0.43410567  0.15766886  0.49999892  1
  Fe  Fe4  1  0.56595965  0.50901114  0.50000008  1
  Fe  Fe5  1  0.49996598  0.83337666  0.49999942  1
  O  O6  1  0.16799635  0.26726327  0.50000009  1
  O  O7  1  0.24707833  0.59925965  0.49999999  1
  O  O8  1  0.25283950  0.09919683  -0.00000059  1
  O  O9  1  0.33205344  0.76733931  0.99999945  1
  O  O10  1  0.74705201  0.56742516  -0.00000003  1
  O  O11  1  0.66801228  0.89938673  0.99999912  1
  O  O12  1  0.75281399  0.06744797  0.50000054  1
  O  O13  1  0.83200834  0.39934327  0.50000115  1
  F  F14  1  0.15653699  0.93417252  0.49999960  1
  F  F15  1  0.34349916  0.43414594  0.00000392  1
  F  F16  1  0.65651271  0.23246916  0.99999965  1
  F  F17  1  0.84351884  0.73254291  0.49999944  1
