# generated using pymatgen
data_Fe2OF3
_symmetry_space_group_name_H-M   'P 1'
_cell_length_a   4.87999657
_cell_length_b   4.87999657
_cell_length_c   15.42507215
_cell_angle_alpha   90.00000000
_cell_angle_beta   90.00000000
_cell_angle_gamma   91.75546511
_symmetry_Int_Tables_number   1
_chemical_formula_structural   Fe2OF3
_chemical_formula_sum   'Fe10 O5 F15'
_cell_volume   367.16592043
_cell_formula_units_Z   5
loop_
 _symmetry_equiv_pos_site_id
 _symmetry_equiv_pos_as_xyz
  1  'x, y, z'
loop_
 _atom_site_type_symbol
 _atom_site_label
 _atom_site_symmetry_multiplicity
 _atom_site_fract_x
 _atom_site_fract_y
 _atom_site_fract_z
 _atom_site_occupancy
  Fe  Fe0  1  0.97003807  0.97003807  0.00022815  1
  Fe  Fe1  1  0.03063195  0.03063195  0.20000000  1
  Fe  Fe2  1  0.97003807  0.97003807  0.39977185  1
  Fe  Fe3  1  0.02079609  0.02079609  0.59979649  1
  Fe  Fe4  1  0.02079609  0.02079609  0.80020351  1
  Fe  Fe5  1  0.50007894  0.50007894  0.09993227  1
  Fe  Fe6  1  0.50018690  0.50018690  0.50019644  1
  Fe  Fe7  1  0.50007894  0.50007894  0.30006773  1
  Fe  Fe8  1  0.47548875  0.47548875  0.70000000  1
  Fe  Fe9  1  0.50018690  0.50018690  0.89980356  1
  O  O10  1  0.33166963  0.33166963  0.20000000  1
  O  O11  1  0.32225323  0.32225323  0.59732506  1
  O  O12  1  0.32225323  0.32225323  0.80267494  1
  O  O13  1  0.66837378  0.66837378  -0.00002666  1
  O  O14  1  0.66837378  0.66837378  0.40002666  1
  F  F15  1  0.20472466  0.79554017  0.10016646  1
  F  F16  1  0.20472466  0.79554017  0.29983354  1
  F  F17  1  0.20166540  0.79218206  0.49978205  1
  F  F18  1  0.21367249  0.80128398  0.70000000  1
  F  F19  1  0.20166540  0.79218206  0.90021795  1
  F  F20  1  0.29053920  0.29053920  0.00056489  1
  F  F21  1  0.29053920  0.29053920  0.39943511  1
  F  F22  1  0.70957550  0.70957550  0.20000000  1
  F  F23  1  0.70245934  0.70245934  0.60111875  1
  F  F24  1  0.70245934  0.70245934  0.79888125  1
  F  F25  1  0.79554017  0.20472466  0.10016646  1
  F  F26  1  0.79218206  0.20166540  0.49978205  1
  F  F27  1  0.79554017  0.20472466  0.29983354  1
  F  F28  1  0.79218206  0.20166540  0.90021795  1
  F  F29  1  0.80128398  0.21367249  0.70000000  1
