# generated using pymatgen
data_Mn3(O2F)2
_symmetry_space_group_name_H-M   'P 1'
_cell_length_a   4.62596270
_cell_length_b   7.65965870
_cell_length_c   5.55737700
_cell_angle_alpha   93.95295886
_cell_angle_beta   92.05548025
_cell_angle_gamma   88.97077736
_symmetry_Int_Tables_number   1
_chemical_formula_structural   Mn3(O2F)2
_chemical_formula_sum   'Mn6 O8 F4'
_cell_volume   196.29761732
_cell_formula_units_Z   2
loop_
 _symmetry_equiv_pos_site_id
 _symmetry_equiv_pos_as_xyz
  1  'x, y, z'
loop_
 _atom_site_type_symbol
 _atom_site_label
 _atom_site_symmetry_multiplicity
 _atom_site_fract_x
 _atom_site_fract_y
 _atom_site_fract_z
 _atom_site_occupancy
  Mn  Mn0  1  0.48626869  0.99473319  0.49519841  1
  Mn  Mn1  1  0.50185616  0.66126977  0.17152031  1
  Mn  Mn2  1  0.50602673  0.35372905  0.82039275  1
  Mn  Mn3  1  0.00007410  0.67132799  0.66347151  1
  Mn  Mn4  1  0.97343033  0.32043429  0.34660460  1
  Mn  Mn5  1  0.02061993  0.99867536  0.00894092  1
  O  O6  1  0.80254384  0.44015032  0.63210804  1
  O  O7  1  0.80795917  0.09636517  0.29276992  1
  O  O8  1  0.68681311  0.76825652  0.46548167  1
  O  O9  1  0.70301254  0.43490156  0.12109238  1
  O  O10  1  0.30773313  0.56987210  0.86922395  1
  O  O11  1  0.30754000  0.23182541  0.53544044  1
  O  O12  1  0.30677009  0.89064650  0.20919205  1
  O  O13  1  0.19343424  0.90019328  0.70978971  1
  F  F14  1  0.79900442  0.77218487  0.96863617  1
  F  F15  1  0.69848462  0.10618542  0.79987641  1
  F  F16  1  0.18809027  0.54862796  0.36032770  1
  F  F17  1  0.21033862  0.24062124  0.02993407  1
