# generated using pymatgen
data_Li7MnNi3(PO4)6
_symmetry_space_group_name_H-M   'P 1'
_cell_length_a   8.76690513
_cell_length_b   8.76690495
_cell_length_c   8.74238401
_cell_angle_alpha   59.90717963
_cell_angle_beta   59.90717539
_cell_angle_gamma   60.00000091
_symmetry_Int_Tables_number   1
_chemical_formula_structural   Li7MnNi3(PO4)6
_chemical_formula_sum   'Li7 Mn1 Ni3 P6 O24'
_cell_volume   474.45687238
_cell_formula_units_Z   1
loop_
 _symmetry_equiv_pos_site_id
 _symmetry_equiv_pos_as_xyz
  1  'x, y, z'
loop_
 _atom_site_type_symbol
 _atom_site_label
 _atom_site_symmetry_multiplicity
 _atom_site_fract_x
 _atom_site_fract_y
 _atom_site_fract_z
 _atom_site_occupancy
  Li  Li0  1  0.14904653  0.72227824  0.80121438  1
  Li  Li1  1  0.32746085  0.14904653  0.80121438  1
  Li  Li2  1  0.72227824  0.32746085  0.80121438  1
  Li  Li3  1  0.48425328  0.48425328  0.54723915  1
  Li  Li4  1  0.23524440  0.72066732  0.15457775  1
  Li  Li5  1  0.72066732  0.88950952  0.15457775  1
  Li  Li6  1  0.88950952  0.23524440  0.15457775  1
  Mn  Mn7  1  0.85389896  0.85389896  0.43830412  1
  Ni  Ni8  1  0.35050297  0.35050297  0.94849210  1
  Ni  Ni9  1  0.14453414  0.14453414  0.56639858  1
  Ni  Ni10  1  0.64207681  0.64207681  0.07376857  1
  P  P11  1  0.04252063  0.46879809  0.74832845  1
  P  P12  1  0.46879809  0.74035282  0.74832845  1
  P  P13  1  0.74035282  0.04252063  0.74832845  1
  P  P14  1  0.23908145  0.95813959  0.25667971  1
  P  P15  1  0.54609825  0.23908145  0.25667971  1
  P  P16  1  0.95813959  0.54609825  0.25667971  1
  O  O17  1  0.08493168  0.27838770  0.74093168  1
  O  O18  1  0.22056347  0.46886538  0.74806452  1
  O  O19  1  0.00633115  0.63948299  0.57402256  1
  O  O20  1  0.47872231  0.70965358  0.93268919  1
  O  O21  1  0.27838770  0.89574895  0.74093168  1
  O  O22  1  0.46886538  0.56250663  0.74806452  1
  O  O23  1  0.70965358  0.87893491  0.93268919  1
  O  O24  1  0.56250663  0.22056347  0.74806452  1
  O  O25  1  0.21241362  0.98112439  0.42976549  1
  O  O26  1  0.05468627  0.96168173  0.25806286  1
  O  O27  1  0.87893491  0.47872231  0.93268919  1
  O  O28  1  0.37669649  0.21241362  0.42976549  1
  O  O29  1  0.63948299  0.78016330  0.57402256  1
  O  O30  1  0.12037387  0.53131362  0.07084548  1
  O  O31  1  0.89574895  0.08493168  0.74093168  1
  O  O32  1  0.78016330  0.00633115  0.57402256  1
  O  O33  1  0.38491727  0.76367752  0.24938308  1
  O  O34  1  0.27746703  0.12037387  0.07084548  1
  O  O35  1  0.60202214  0.38491727  0.24938308  1
  O  O36  1  0.72556915  0.05468627  0.25806286  1
  O  O37  1  0.53131362  0.27746703  0.07084548  1
  O  O38  1  0.98112439  0.37669649  0.42976549  1
  O  O39  1  0.76367752  0.60202214  0.24938308  1
  O  O40  1  0.96168173  0.72556915  0.25806286  1
