# generated using pymatgen
data_Co3OF5
_symmetry_space_group_name_H-M   'P 1'
_cell_length_a   4.70046289
_cell_length_b   7.84635593
_cell_length_c   5.66941496
_cell_angle_alpha   92.92543436
_cell_angle_beta   91.73387937
_cell_angle_gamma   88.36269839
_symmetry_Int_Tables_number   1
_chemical_formula_structural   Co3OF5
_chemical_formula_sum   'Co6 O2 F10'
_cell_volume   208.65192559
_cell_formula_units_Z   2
loop_
 _symmetry_equiv_pos_site_id
 _symmetry_equiv_pos_as_xyz
  1  'x, y, z'
loop_
 _atom_site_type_symbol
 _atom_site_label
 _atom_site_symmetry_multiplicity
 _atom_site_fract_x
 _atom_site_fract_y
 _atom_site_fract_z
 _atom_site_occupancy
  Co  Co0  1  0.46621374  0.02484633  0.49103134  1
  Co  Co1  1  0.50000000  0.33333300  0.83333300  1
  Co  Co2  1  0.53378626  0.64182067  0.17563466  1
  Co  Co3  1  0.99998281  0.67004299  0.66383695  1
  Co  Co4  1  0.00000000  0.33333300  0.33333300  1
  Co  Co5  1  0.00001719  0.99662401  0.00283005  1
  O  O6  1  0.71542013  0.42863736  0.14270896  1
  O  O7  1  0.28457987  0.23802864  0.52395804  1
  F  F8  1  0.80185787  0.43730397  0.62699479  1
  F  F9  1  0.80454018  0.76573356  0.96442712  1
  F  F10  1  0.80679078  0.10198490  0.29957419  1
  F  F11  1  0.68834317  0.77639923  0.46385417  1
  F  F12  1  0.69138643  0.09688804  0.79117881  1
  F  F13  1  0.30861357  0.56977796  0.87548819  1
  F  F14  1  0.31165683  0.89026777  0.20281283  1
  F  F15  1  0.19814213  0.22936303  0.03967221  1
  F  F16  1  0.19545982  0.90093244  0.70223988  1
  F  F17  1  0.19320922  0.56468210  0.36709281  1
