# generated using pymatgen
data_Mn6O7F5
_symmetry_space_group_name_H-M   'P 1'
_cell_length_a   4.62123863
_cell_length_b   7.73685310
_cell_length_c   5.63289300
_cell_angle_alpha   93.80206890
_cell_angle_beta   91.38251836
_cell_angle_gamma   89.50348986
_symmetry_Int_Tables_number   1
_chemical_formula_structural   Mn6O7F5
_chemical_formula_sum   'Mn6 O7 F5'
_cell_volume   200.89078061
_cell_formula_units_Z   1
loop_
 _symmetry_equiv_pos_site_id
 _symmetry_equiv_pos_as_xyz
  1  'x, y, z'
loop_
 _atom_site_type_symbol
 _atom_site_label
 _atom_site_symmetry_multiplicity
 _atom_site_fract_x
 _atom_site_fract_y
 _atom_site_fract_z
 _atom_site_occupancy
  Mn  Mn0  1  0.49295105  0.99781646  0.50232791  1
  Mn  Mn1  1  0.51168745  0.64947441  0.17417232  1
  Mn  Mn2  1  0.50659042  0.35668296  0.82166248  1
  Mn  Mn3  1  0.99404956  0.67172176  0.66749306  1
  Mn  Mn4  1  0.97669375  0.31829651  0.34924525  1
  Mn  Mn5  1  0.00764491  0.00488219  0.99590199  1
  O  O6  1  0.79762335  0.44488574  0.63605400  1
  O  O7  1  0.81716572  0.09213121  0.28876141  1
  O  O8  1  0.68365564  0.76516196  0.46077047  1
  O  O9  1  0.70927366  0.42939503  0.12084500  1
  O  O10  1  0.31124498  0.56714770  0.87540406  1
  O  O11  1  0.31070175  0.23520700  0.53979942  1
  O  O12  1  0.18440712  0.90264840  0.70853524  1
  F  F13  1  0.79036568  0.78052717  0.96889634  1
  F  F14  1  0.70348540  0.12454922  0.80533476  1
  F  F15  1  0.29548225  0.87672349  0.19071766  1
  F  F16  1  0.18491612  0.54831661  0.36529640  1
  F  F17  1  0.22206218  0.23443318  0.02878323  1
