# generated using pymatgen
data_FeOF
_symmetry_space_group_name_H-M   'P 1'
_cell_length_a   4.74622997
_cell_length_b   7.78563102
_cell_length_c   5.67798765
_cell_angle_alpha   94.43171802
_cell_angle_beta   90.74641911
_cell_angle_gamma   89.85618930
_symmetry_Int_Tables_number   1
_chemical_formula_structural   FeOF
_chemical_formula_sum   'Fe6 O6 F6'
_cell_volume   209.16993506
_cell_formula_units_Z   6
loop_
 _symmetry_equiv_pos_site_id
 _symmetry_equiv_pos_as_xyz
  1  'x, y, z'
loop_
 _atom_site_type_symbol
 _atom_site_label
 _atom_site_symmetry_multiplicity
 _atom_site_fract_x
 _atom_site_fract_y
 _atom_site_fract_z
 _atom_site_occupancy
  Fe  Fe0  1  0.52919557  0.66773642  0.15813823  1
  Fe  Fe1  1  0.43437417  0.00780482  0.49468099  1
  Fe  Fe2  1  0.53194919  0.33776256  0.81994868  1
  Fe  Fe3  1  0.98556046  0.67189899  0.67981157  1
  Fe  Fe4  1  0.98409819  0.33826008  0.34566732  1
  Fe  Fe5  1  0.02678246  0.97849113  0.99932280  1
  O  O6  1  0.80686623  0.44484125  0.62673813  1
  O  O7  1  0.80522476  0.76674840  0.96376910  1
  O  O8  1  0.69388835  0.43217345  0.12767313  1
  O  O9  1  0.30157940  0.24044717  0.54041283  1
  O  O10  1  0.31421741  0.89096103  0.20129853  1
  O  O11  1  0.19154815  0.89177962  0.70193640  1
  F  F12  1  0.80768642  0.09751518  0.29732947  1
  F  F13  1  0.69836457  0.09862184  0.79681961  1
  F  F14  1  0.69760802  0.77561871  0.46455803  1
  F  F15  1  0.29951119  0.56048389  0.87242651  1
  F  F16  1  0.19007143  0.22765847  0.03949744  1
  F  F17  1  0.20147505  0.57119797  0.36996723  1
