# generated using pymatgen
data_Pu2TcB6
_symmetry_space_group_name_H-M   'P 1'
_cell_length_a   3.61635058
_cell_length_b   9.25577170
_cell_length_c   11.33936662
_cell_angle_alpha   90.00000000
_cell_angle_beta   90.00000000
_cell_angle_gamma   90.00000000
_symmetry_Int_Tables_number   1
_chemical_formula_structural   Pu2TcB6
_chemical_formula_sum   'Pu8 Tc4 B24'
_cell_volume   379.55258756
_cell_formula_units_Z   4
loop_
 _symmetry_equiv_pos_site_id
 _symmetry_equiv_pos_as_xyz
  1  'x, y, z'
loop_
 _atom_site_type_symbol
 _atom_site_label
 _atom_site_symmetry_multiplicity
 _atom_site_fract_x
 _atom_site_fract_y
 _atom_site_fract_z
 _atom_site_occupancy
  Pu  Pu0  1  -0.00000000  0.33571144  0.40831620  1
  Pu  Pu1  1  -0.00000000  0.66428856  0.59168380  1
  Pu  Pu2  1  0.00000000  0.83571144  0.09168380  1
  Pu  Pu3  1  0.00000000  0.16428856  0.90831620  1
  Pu  Pu4  1  -0.00000000  0.95401371  0.39025017  1
  Pu  Pu5  1  0.00000000  0.04598629  0.60974983  1
  Pu  Pu6  1  -0.00000000  0.45401371  0.10974983  1
  Pu  Pu7  1  0.00000000  0.54598629  0.89025017  1
  Tc  Tc8  1  -0.00000000  0.64387261  0.32085806  1
  Tc  Tc9  1  0.00000000  0.35612739  0.67914194  1
  Tc  Tc10  1  -0.00000000  0.14387261  0.17914194  1
  Tc  Tc11  1  -0.00000000  0.85612739  0.82085806  1
  B  B12  1  0.50000000  0.55078356  0.43348707  1
  B  B13  1  0.50000000  0.44921644  0.56651293  1
  B  B14  1  0.50000000  0.05078356  0.06651293  1
  B  B15  1  0.50000000  0.94921644  0.93348707  1
  B  B16  1  0.50000000  0.74368784  0.42389621  1
  B  B17  1  0.50000000  0.25631216  0.57610379  1
  B  B18  1  0.50000000  0.24368784  0.07610379  1
  B  B19  1  0.50000000  0.75631216  0.92389621  1
  B  B20  1  0.50000000  0.80270152  0.27115337  1
  B  B21  1  0.50000000  0.19729848  0.72884663  1
  B  B22  1  0.50000000  0.30270152  0.22884663  1
  B  B23  1  0.50000000  0.69729848  0.77115337  1
  B  B24  1  0.50000000  0.64355474  0.18764771  1
  B  B25  1  0.50000000  0.35644526  0.81235229  1
  B  B26  1  0.50000000  0.14355474  0.31235229  1
  B  B27  1  0.50000000  0.85644526  0.68764771  1
  B  B28  1  0.50000000  0.98552841  0.21708365  1
  B  B29  1  0.50000000  0.01447159  0.78291635  1
  B  B30  1  0.50000000  0.48552841  0.28291635  1
  B  B31  1  0.50000000  0.51447159  0.71708365  1
  B  B32  1  0.50000000  0.64218373  0.03950635  1
  B  B33  1  0.50000000  0.35781627  0.96049365  1
  B  B34  1  0.50000000  0.14218373  0.46049365  1
  B  B35  1  0.50000000  0.85781627  0.53950635  1
