# generated using pymatgen
data_Li3Cr(PO4)2
_symmetry_space_group_name_H-M   'P 1'
_cell_length_a   8.72926227
_cell_length_b   9.11892102
_cell_length_c   8.68657571
_cell_angle_alpha   87.73372983
_cell_angle_beta   112.93469584
_cell_angle_gamma   92.56244071
_symmetry_Int_Tables_number   1
_chemical_formula_structural   Li3Cr(PO4)2
_chemical_formula_sum   'Li12 Cr4 P8 O32'
_cell_volume   635.98287186
_cell_formula_units_Z   4
loop_
 _symmetry_equiv_pos_site_id
 _symmetry_equiv_pos_as_xyz
  1  'x, y, z'
loop_
 _atom_site_type_symbol
 _atom_site_label
 _atom_site_symmetry_multiplicity
 _atom_site_fract_x
 _atom_site_fract_y
 _atom_site_fract_z
 _atom_site_occupancy
  Li  Li0  1  0.35905806  0.79333719  0.86557801  1
  Li  Li1  1  0.13000368  0.29911398  0.62467578  1
  Li  Li2  1  0.04067745  0.44966504  0.15505810  1
  Li  Li3  1  0.56734215  0.75835395  0.58362269  1
  Li  Li4  1  0.08459506  0.76353598  0.10540924  1
  Li  Li5  1  0.43582594  0.25067231  0.43538911  1
  Li  Li6  1  0.89410563  0.22977324  0.89018967  1
  Li  Li7  1  0.96677806  0.54329155  0.84294107  1
  Li  Li8  1  0.14715179  0.03640165  0.03692615  1
  Li  Li9  1  0.87121482  0.67406153  0.39653057  1
  Li  Li10  1  0.62247214  0.22373242  0.13682106  1
  Li  Li11  1  0.73371751  0.89909679  0.10275810  1
  Cr  Cr12  1  0.23070806  0.91204822  0.48634321  1
  Cr  Cr13  1  0.50985592  0.41149207  0.76697282  1
  Cr  Cr14  1  0.49184626  0.59233447  0.23090367  1
  Cr  Cr15  1  0.76921310  0.08816592  0.51065753  1
  P  P16  1  0.01356399  0.92508691  0.71258486  1
  P  P17  1  0.28973865  0.42850950  0.98543613  1
  P  P18  1  0.24098821  0.56993505  0.42853384  1
  P  P19  1  0.57254678  0.07134468  0.76210747  1
  P  P20  1  0.43246584  0.92891308  0.24038364  1
  P  P21  1  0.76312060  0.42955192  0.56881452  1
  P  P22  1  0.71494570  0.57777451  0.00922741  1
  P  P23  1  0.98986405  0.08199919  0.28426657  1
  O  O24  1  0.03086151  0.87352519  0.88751711  1
  O  O25  1  0.11499986  0.38504929  0.97810728  1
  O  O26  1  0.15908676  0.86426057  0.67576445  1
  O  O27  1  0.31508013  0.36515355  0.83519390  1
  O  O28  1  0.05294764  0.55165033  0.37183209  1
  O  O29  1  0.62576454  0.05918524  0.95111061  1
  O  O30  1  0.98319180  0.90719898  0.29231917  1
  O  O31  1  0.68132620  0.40742970  0.01443259  1
  O  O32  1  0.57561931  0.62691235  0.83927826  1
  O  O33  1  0.15352873  0.12207632  0.43746805  1
  O  O34  1  0.46544537  0.93720811  0.66525616  1
  O  O35  1  0.33627491  0.43675534  0.53444612  1
  O  O36  1  0.31669373  0.71004772  0.52704717  1
  O  O37  1  0.46947831  0.20880582  0.68395660  1
  O  O38  1  0.27364760  0.57591692  0.26364589  1
  O  O39  1  0.73321767  0.08327684  0.72525717  1
  O  O40  1  0.26365634  0.92462578  0.26486225  1
  O  O41  1  0.72706283  0.42226161  0.73174183  1
  O  O42  1  0.53087628  0.79143066  0.32517958  1
  O  O43  1  0.68687086  0.29150900  0.46673000  1
  O  O44  1  0.67373625  0.56364890  0.45937645  1
  O  O45  1  0.53495005  0.06386023  0.33705608  1
  O  O46  1  0.84434099  0.87635352  0.56996733  1
  O  O47  1  0.43242116  0.37865900  0.15393537  1
  O  O48  1  0.32020841  0.60066906  0.98824973  1
  O  O49  1  0.01066873  0.09828584  0.69058015  1
  O  O50  1  0.38763838  0.93912580  0.05334748  1
  O  O51  1  0.95114462  0.44928530  0.62764561  1
  O  O52  1  0.68899002  0.65628051  0.15410920  1
  O  O53  1  0.83417597  0.13298056  0.30940855  1
  O  O54  1  0.89212206  0.61355894  0.01863744  1
  O  O55  1  0.99479456  0.14359087  0.12023011  1
