# generated using pymatgen
data_Li3MnSiO5
_symmetry_space_group_name_H-M   'P 1'
_cell_length_a   5.00750815
_cell_length_b   5.48688723
_cell_length_c   15.88359764
_cell_angle_alpha   89.98841894
_cell_angle_beta   89.99876957
_cell_angle_gamma   89.99805351
_symmetry_Int_Tables_number   1
_chemical_formula_structural   Li3MnSiO5
_chemical_formula_sum   'Li12 Mn4 Si4 O20'
_cell_volume   436.41188267
_cell_formula_units_Z   4
loop_
 _symmetry_equiv_pos_site_id
 _symmetry_equiv_pos_as_xyz
  1  'x, y, z'
loop_
 _atom_site_type_symbol
 _atom_site_label
 _atom_site_symmetry_multiplicity
 _atom_site_fract_x
 _atom_site_fract_y
 _atom_site_fract_z
 _atom_site_occupancy
  Li  Li0  1  0.99425679  0.66384203  0.59055559  1
  Li  Li1  1  0.99424505  0.16385427  0.90944774  1
  Li  Li2  1  0.49922619  0.33581273  0.99355246  1
  Li  Li3  1  0.49926018  0.83578567  0.50640511  1
  Li  Li4  1  0.50857178  0.32689078  0.80269528  1
  Li  Li5  1  0.50857483  0.82692523  0.69727657  1
  Li  Li6  1  0.49424762  0.33621128  0.40946662  1
  Li  Li7  1  0.49421651  0.83614088  0.09051441  1
  Li  Li8  1  0.99924091  0.66420450  0.00641595  1
  Li  Li9  1  0.99926055  0.16419423  0.49359711  1
  Li  Li10  1  0.00855276  0.17305369  0.30275132  1
  Li  Li11  1  0.00854904  0.67316812  0.19729841  1
  Mn  Mn12  1  0.00754620  0.17163853  0.69729170  1
  Mn  Mn13  1  0.00737460  0.67160453  0.80283180  1
  Mn  Mn14  1  0.50731902  0.32838642  0.19717633  1
  Mn  Mn15  1  0.50728259  0.82835232  0.30272672  1
  Si  Si16  1  0.00589270  0.16324267  0.09797412  1
  Si  Si17  1  0.00578335  0.66319116  0.40203710  1
  Si  Si18  1  0.50588790  0.33679151  0.59797562  1
  Si  Si19  1  0.50590989  0.83677494  0.90202373  1
  O  O20  1  0.09854365  0.34069625  0.79580121  1
  O  O21  1  0.09851856  0.84060780  0.70428766  1
  O  O22  1  0.10335251  0.38005989  0.39780103  1
  O  O23  1  0.10331276  0.88007650  0.10219136  1
  O  O24  1  0.10394496  0.31351678  0.01521620  1
  O  O25  1  0.10399958  0.81350161  0.48477269  1
  O  O26  1  0.10514074  0.31023316  0.18571109  1
  O  O27  1  0.10491784  0.81024862  0.31426576  1
  O  O28  1  0.16880504  0.32963181  0.60151684  1
  O  O29  1  0.16887087  0.82963930  0.89849647  1
  O  O30  1  0.59841804  0.65914682  0.20419759  1
  O  O31  1  0.59844438  0.15944690  0.29566537  1
  O  O32  1  0.60337154  0.61993711  0.60220823  1
  O  O33  1  0.60335613  0.11993093  0.89779959  1
  O  O34  1  0.60401040  0.18649291  0.51522963  1
  O  O35  1  0.60399198  0.68648242  0.98477113  1
  O  O36  1  0.60508294  0.18974678  0.68574009  1
  O  O37  1  0.60511484  0.68976050  0.81428109  1
  O  O38  1  0.66884868  0.17040350  0.10153699  1
  O  O39  1  0.66875609  0.67037492  0.39849630  1
