# generated using pymatgen
data_LiMn2(BO3)2
_symmetry_space_group_name_H-M   'P 1'
_cell_length_a   5.77978740
_cell_length_b   5.30145472
_cell_length_c   22.21411772
_cell_angle_alpha   89.28641360
_cell_angle_beta   90.88875053
_cell_angle_gamma   114.15407355
_symmetry_Int_Tables_number   1
_chemical_formula_structural   LiMn2(BO3)2
_chemical_formula_sum   'Li5 Mn10 B10 O30'
_cell_volume   620.98673839
_cell_formula_units_Z   5
loop_
 _symmetry_equiv_pos_site_id
 _symmetry_equiv_pos_as_xyz
  1  'x, y, z'
loop_
 _atom_site_type_symbol
 _atom_site_label
 _atom_site_symmetry_multiplicity
 _atom_site_fract_x
 _atom_site_fract_y
 _atom_site_fract_z
 _atom_site_occupancy
  Li  Li0  1  0.85713576  0.02841604  0.81303660  1
  Li  Li1  1  0.74310704  0.77341572  0.58725685  1
  Li  Li2  1  0.25676201  0.22668110  0.41324723  1
  Li  Li3  1  0.14609202  0.97988211  0.18781389  1
  Li  Li4  1  0.34431691  0.57599646  0.98841515  1
  Mn  Mn5  1  0.86454386  0.52616876  0.87997895  1
  Mn  Mn6  1  0.73428674  0.27610947  0.52054543  1
  Mn  Mn7  1  0.92244595  0.86990737  0.32545913  1
  Mn  Mn8  1  0.47445792  0.32539611  0.27711669  1
  Mn  Mn9  1  0.67721231  0.92962699  0.07648842  1
  Mn  Mn10  1  0.33185177  0.07638346  0.92265594  1
  Mn  Mn11  1  0.52426439  0.67176344  0.72498246  1
  Mn  Mn12  1  0.07587603  0.12860933  0.67521627  1
  Mn  Mn13  1  0.26561078  0.72369522  0.47976805  1
  Mn  Mn14  1  0.13573031  0.47555465  0.12238884  1
  B  B15  1  0.99760078  0.57671418  0.74954501  1
  B  B16  1  0.60203191  0.22344569  0.65061688  1
  B  B17  1  0.80248068  0.82670897  0.45580858  1
  B  B18  1  0.59863618  0.37622287  0.14558150  1
  B  B19  1  0.79595732  0.97263226  0.94392761  1
  B  B20  1  0.19893087  0.02069264  0.05259104  1
  B  B21  1  0.40195256  0.62780455  0.85635047  1
  B  B22  1  0.19691544  0.17207655  0.54428147  1
  B  B23  1  0.39771303  0.77686359  0.35004580  1
  B  B24  1  0.00570493  0.42563161  0.25081300  1
  O  O25  1  0.88478140  0.00468888  0.40807540  1
  O  O26  1  0.93175347  0.40779348  0.79855268  1
  O  O27  1  0.86499449  0.48332609  0.29476104  1
  O  O28  1  0.68567266  0.01000892  0.65904128  1
  O  O29  1  0.88641654  0.62132585  0.46643888  1
  O  O30  1  0.70940080  0.17763452  0.93233213  1
  O  O31  1  0.91492463  0.79115700  0.74068626  1
  O  O32  1  0.77345091  0.34964412  0.10541423  1
  O  O33  1  0.95356451  0.94326861  0.89833458  1
  O  O34  1  0.66707444  0.39394260  0.60158410  1
  O  O35  1  0.51181199  0.20294772  0.19292299  1
  O  O36  1  0.71303115  0.79723785  0.99081142  1
  O  O37  1  0.45387747  0.26872412  0.69470692  1
  O  O38  1  0.65011307  0.86281645  0.50129451  1
  O  O39  1  0.48717614  0.42310408  0.86829012  1
  O  O40  1  0.50296496  0.57312584  0.13047248  1
  O  O41  1  0.35261505  0.14012192  0.49869266  1
  O  O42  1  0.55230210  0.74040253  0.30603743  1
  O  O43  1  0.25549152  0.19341262  0.00409721  1
  O  O44  1  0.48609992  0.80296091  0.80879609  1
  O  O45  1  0.33301434  0.60480607  0.39824186  1
  O  O46  1  0.07606115  0.07410634  0.10221309  1
  O  O47  1  0.24571170  0.66199938  0.90144274  1
  O  O48  1  0.07586458  0.20412735  0.25899540  1
  O  O49  1  0.26603128  0.79675299  0.05670214  1
  O  O50  1  0.11124195  0.37746209  0.53304314  1
  O  O51  1  0.30825639  0.98785748  0.34174115  1
  O  O52  1  0.14564700  0.53049805  0.70539145  1
  O  O53  1  0.08012015  0.59940358  0.20187636  1
  O  O54  1  0.11414875  0.99545841  0.59133199  1
