# generated using pymatgen
data_Na5CrO4
_symmetry_space_group_name_H-M   'P 1'
_cell_length_a   10.47267285
_cell_length_b   10.67543335
_cell_length_c   10.58283971
_cell_angle_alpha   90.00000000
_cell_angle_beta   90.00000000
_cell_angle_gamma   90.00000000
_symmetry_Int_Tables_number   1
_chemical_formula_structural   Na5CrO4
_chemical_formula_sum   'Na40 Cr8 O32'
_cell_volume   1183.16487674
_cell_formula_units_Z   8
loop_
 _symmetry_equiv_pos_site_id
 _symmetry_equiv_pos_as_xyz
  1  'x, y, z'
loop_
 _atom_site_type_symbol
 _atom_site_label
 _atom_site_symmetry_multiplicity
 _atom_site_fract_x
 _atom_site_fract_y
 _atom_site_fract_z
 _atom_site_occupancy
  Na  Na0  1  0.10673966  0.83486470  0.11219185  1
  Na  Na1  1  0.10673966  0.66513530  0.61219185  1
  Na  Na2  1  0.11236469  0.14357426  0.39848443  1
  Na  Na3  1  0.11236469  0.35642574  0.89848443  1
  Na  Na4  1  0.11905962  0.39695517  0.16576037  1
  Na  Na5  1  0.11905962  0.10304483  0.66576037  1
  Na  Na6  1  0.12315371  0.59257565  0.35095180  1
  Na  Na7  1  0.12315371  0.90742435  0.85095180  1
  Na  Na8  1  0.15665060  0.86578376  0.38181728  1
  Na  Na9  1  0.15665060  0.63421624  0.88181728  1
  Na  Na10  1  0.34334940  0.13421624  0.88181728  1
  Na  Na11  1  0.34334940  0.36578376  0.38181728  1
  Na  Na12  1  0.37684629  0.09257565  0.35095180  1
  Na  Na13  1  0.37684629  0.40742435  0.85095180  1
  Na  Na14  1  0.38094038  0.60304483  0.66576037  1
  Na  Na15  1  0.38094038  0.89695517  0.16576037  1
  Na  Na16  1  0.38763531  0.64357426  0.39848443  1
  Na  Na17  1  0.38763531  0.85642574  0.89848443  1
  Na  Na18  1  0.39326034  0.16513530  0.61219185  1
  Na  Na19  1  0.39326034  0.33486470  0.11219185  1
  Na  Na20  1  0.60673966  0.66513530  0.88780815  1
  Na  Na21  1  0.60673966  0.83486470  0.38780815  1
  Na  Na22  1  0.61236469  0.14357426  0.10151557  1
  Na  Na23  1  0.61236469  0.35642574  0.60151557  1
  Na  Na24  1  0.61905962  0.39695517  0.33423963  1
  Na  Na25  1  0.61905962  0.10304483  0.83423963  1
  Na  Na26  1  0.62315371  0.59257565  0.14904820  1
  Na  Na27  1  0.62315371  0.90742435  0.64904820  1
  Na  Na28  1  0.65665060  0.63421624  0.61818272  1
  Na  Na29  1  0.65665060  0.86578376  0.11818272  1
  Na  Na30  1  0.84334940  0.13421624  0.61818272  1
  Na  Na31  1  0.84334940  0.36578376  0.11818272  1
  Na  Na32  1  0.87684629  0.09257565  0.14904820  1
  Na  Na33  1  0.87684629  0.40742435  0.64904820  1
  Na  Na34  1  0.88094038  0.60304483  0.83423963  1
  Na  Na35  1  0.88094038  0.89695517  0.33423963  1
  Na  Na36  1  0.88763531  0.64357426  0.10151557  1
  Na  Na37  1  0.88763531  0.85642574  0.60151557  1
  Na  Na38  1  0.89326034  0.16513530  0.88780815  1
  Na  Na39  1  0.89326034  0.33486470  0.38780815  1
  Cr  Cr40  1  0.14729541  0.11505717  0.12450046  1
  Cr  Cr41  1  0.14729541  0.38494283  0.62450046  1
  Cr  Cr42  1  0.35270459  0.88494283  0.62450046  1
  Cr  Cr43  1  0.35270459  0.61505717  0.12450046  1
  Cr  Cr44  1  0.64729541  0.11505717  0.37549954  1
  Cr  Cr45  1  0.64729541  0.38494283  0.87549954  1
  Cr  Cr46  1  0.85270459  0.61505717  0.37549954  1
  Cr  Cr47  1  0.85270459  0.88494283  0.87549954  1
  O  O48  1  0.02270231  0.23497990  0.05523316  1
  O  O49  1  0.02270231  0.26502010  0.55523316  1
  O  O50  1  0.05537953  0.00217682  0.23795968  1
  O  O51  1  0.05537953  0.49782318  0.73795968  1
  O  O52  1  0.23948398  0.99517357  0.02074946  1
  O  O53  1  0.23948398  0.50482643  0.52074946  1
  O  O54  1  0.24027976  0.22702942  0.23588496  1
  O  O55  1  0.24027976  0.27297058  0.73588496  1
  O  O56  1  0.25972024  0.72702942  0.23588496  1
  O  O57  1  0.25972024  0.77297058  0.73588496  1
  O  O58  1  0.26051602  0.00482643  0.52074946  1
  O  O59  1  0.26051602  0.49517357  0.02074946  1
  O  O60  1  0.44462047  0.50217682  0.23795968  1
  O  O61  1  0.44462047  0.99782318  0.73795968  1
  O  O62  1  0.47729769  0.76502010  0.55523316  1
  O  O63  1  0.47729769  0.73497990  0.05523316  1
  O  O64  1  0.52270231  0.26502010  0.94476684  1
  O  O65  1  0.52270231  0.23497990  0.44476684  1
  O  O66  1  0.55537953  0.00217682  0.26204032  1
  O  O67  1  0.55537953  0.49782318  0.76204032  1
  O  O68  1  0.73948398  0.50482643  0.97925054  1
  O  O69  1  0.73948398  0.99517357  0.47925054  1
  O  O70  1  0.74027976  0.22702942  0.26411504  1
  O  O71  1  0.74027976  0.27297058  0.76411504  1
  O  O72  1  0.75972024  0.72702942  0.26411504  1
  O  O73  1  0.75972024  0.77297058  0.76411504  1
  O  O74  1  0.76051602  0.00482643  0.97925054  1
  O  O75  1  0.76051602  0.49517357  0.47925054  1
  O  O76  1  0.94462047  0.99782318  0.76204032  1
  O  O77  1  0.94462047  0.50217682  0.26204032  1
  O  O78  1  0.97729769  0.76502010  0.94476684  1
  O  O79  1  0.97729769  0.73497990  0.44476684  1
