# generated using pymatgen
data_LiMn2(BO3)2
_symmetry_space_group_name_H-M   'P 1'
_cell_length_a   5.35171949
_cell_length_b   13.95870748
_cell_length_c   10.20806892
_cell_angle_alpha   89.58762845
_cell_angle_beta   91.90733762
_cell_angle_gamma   79.57564432
_symmetry_Int_Tables_number   1
_chemical_formula_structural   LiMn2(BO3)2
_chemical_formula_sum   'Li6 Mn12 B12 O36'
_cell_volume   749.50438910
_cell_formula_units_Z   6
loop_
 _symmetry_equiv_pos_site_id
 _symmetry_equiv_pos_as_xyz
  1  'x, y, z'
loop_
 _atom_site_type_symbol
 _atom_site_label
 _atom_site_symmetry_multiplicity
 _atom_site_fract_x
 _atom_site_fract_y
 _atom_site_fract_z
 _atom_site_occupancy
  Li  Li0  1  0.15167520  0.00611460  0.14618957  1
  Li  Li1  1  0.46841416  0.32670580  0.66494532  1
  Li  Li2  1  0.47807102  0.34462926  0.16911775  1
  Li  Li3  1  0.81307137  0.65889882  0.67056301  1
  Li  Li4  1  0.80208752  0.67768040  0.16020555  1
  Li  Li5  1  0.87035896  0.99074511  0.41427120  1
  Mn  Mn6  1  0.27935755  0.11730253  0.87759378  1
  Mn  Mn7  1  0.60837721  0.09579018  0.63353309  1
  Mn  Mn8  1  0.04726035  0.23095346  0.13086566  1
  Mn  Mn9  1  0.73253555  0.21855634  0.38038325  1
  Mn  Mn10  1  0.62668193  0.43916707  0.88177288  1
  Mn  Mn11  1  0.06743583  0.56256706  0.38146543  1
  Mn  Mn12  1  0.92096397  0.45002325  0.62947444  1
  Mn  Mn13  1  0.37359642  0.55334916  0.12704329  1
  Mn  Mn14  1  0.26189985  0.78272825  0.63500877  1
  Mn  Mn15  1  0.95703697  0.78192863  0.87954591  1
  Mn  Mn16  1  0.40897509  0.88047995  0.37544006  1
  Mn  Mn17  1  0.70894549  0.89848843  0.11960893  1
  B  B18  1  0.27652995  0.10847498  0.37358292  1
  B  B19  1  0.04508585  0.22522714  0.62993859  1
  B  B20  1  0.60719881  0.11803921  0.13284696  1
  B  B21  1  0.72298157  0.21028853  0.87177147  1
  B  B22  1  0.06734168  0.55102144  0.87186180  1
  B  B23  1  0.61518750  0.44910729  0.37337341  1
  B  B24  1  0.38484125  0.55620752  0.63308095  1
  B  B25  1  0.94288089  0.45204631  0.12970698  1
  B  B26  1  0.27427835  0.77813958  0.12086362  1
  B  B27  1  0.39343612  0.88887534  0.87353108  1
  B  B28  1  0.94153388  0.78652568  0.37374338  1
  B  B29  1  0.73812056  0.87855538  0.62581781  1
  O  O30  1  0.20072544  0.02074005  0.35906886  1
  O  O31  1  0.19881033  0.14186901  0.68577702  1
  O  O32  1  0.36155913  0.12006978  0.07680132  1
  O  O33  1  0.78381514  0.03643416  0.14036362  1
  O  O34  1  0.52402515  0.11298050  0.42286627  1
  O  O35  1  0.11167216  0.19405562  0.33657406  1
  O  O36  1  0.63395499  0.12529384  0.83455736  1
  O  O37  1  0.12042311  0.31258099  0.62927144  1
  O  O38  1  0.65879428  0.20728479  0.18494766  1
  O  O39  1  0.80389555  0.21396142  0.57361268  1
  O  O40  1  0.12015309  0.36995704  0.13046443  1
  O  O41  1  0.58447974  0.29970645  0.84703222  1
  O  O42  1  0.96121131  0.19777013  0.93479514  1
  O  O43  1  0.56743804  0.35840103  0.35587781  1
  O  O44  1  0.00390149  0.54223889  0.16536857  1
  O  O45  1  0.53894839  0.46575410  0.66845591  1
  O  O46  1  0.68822260  0.44984350  0.09097201  1
  O  O47  1  0.13134641  0.55467255  0.59133852  1
  O  O48  1  0.82732192  0.46878887  0.44399681  1
  O  O49  1  0.30067417  0.53291284  0.94175058  1
  O  O50  1  0.44876079  0.53035991  0.31739515  1
  O  O51  1  0.98382146  0.46830908  0.81822134  1
  O  O52  1  0.47176997  0.64082821  0.63693738  1
  O  O53  1  0.01992617  0.78197846  0.07121448  1
  O  O54  1  0.44056204  0.69264928  0.12547637  1
  O  O55  1  0.92819140  0.64044522  0.85454909  1
  O  O56  1  0.15951245  0.79637600  0.44866828  1
  O  O57  1  0.31157536  0.80362882  0.82449794  1
  O  O58  1  0.88189784  0.69976890  0.34372678  1
  O  O59  1  0.33784646  0.86538048  0.16538726  1
  O  O60  1  0.89152784  0.79290445  0.68388939  1
  O  O61  1  0.50028140  0.86624248  0.58130756  1
  O  O62  1  0.23816006  0.97425276  0.88503576  1
  O  O63  1  0.64691433  0.87471462  0.91893597  1
  O  O64  1  0.79084519  0.87373037  0.32753387  1
  O  O65  1  0.82578792  0.96142769  0.60604925  1
