# generated using pymatgen
data_LiMn2(BO3)2
_symmetry_space_group_name_H-M   'P 1'
_cell_length_a   5.79378652
_cell_length_b   5.30123115
_cell_length_c   8.17209369
_cell_angle_alpha   90.03884473
_cell_angle_beta   79.64439650
_cell_angle_gamma   90.16575114
_symmetry_Int_Tables_number   1
_chemical_formula_structural   LiMn2(BO3)2
_chemical_formula_sum   'Li2 Mn4 B4 O12'
_cell_volume   246.90978214
_cell_formula_units_Z   2
loop_
 _symmetry_equiv_pos_site_id
 _symmetry_equiv_pos_as_xyz
  1  'x, y, z'
loop_
 _atom_site_type_symbol
 _atom_site_label
 _atom_site_symmetry_multiplicity
 _atom_site_fract_x
 _atom_site_fract_y
 _atom_site_fract_z
 _atom_site_occupancy
  Li  Li0  1  0.05455920  0.66052898  0.26493127  1
  Li  Li1  1  0.94544080  0.33947102  0.73506873  1
  Mn  Mn2  1  0.18801273  0.82171933  0.56858604  1
  Mn  Mn3  1  0.34501718  0.70179903  0.91673503  1
  Mn  Mn4  1  0.65498282  0.29820097  0.08326497  1
  Mn  Mn5  1  0.81198727  0.17828067  0.43141396  1
  B  B6  1  0.15369096  0.17490110  0.09708363  1
  B  B7  1  0.32612631  0.32917844  0.41218189  1
  B  B8  1  0.67387469  0.67082156  0.58781811  1
  B  B9  1  0.84630904  0.82509890  0.90291637  1
  O  O10  1  0.16390029  0.91854721  0.10553685  1
  O  O11  1  0.04198162  0.68974451  0.81541970  1
  O  O12  1  0.14509453  0.19810121  0.51541430  1
  O  O13  1  0.31021353  0.58040365  0.38583981  1
  O  O14  1  0.51679750  0.19379347  0.32677658  1
  O  O15  1  0.66272922  0.67722279  0.98484720  1
  O  O16  1  0.33727078  0.32277721  0.01515280  1
  O  O17  1  0.48320250  0.80620653  0.67322342  1
  O  O18  1  0.68978647  0.41959635  0.61416019  1
  O  O19  1  0.85490547  0.80189879  0.48458570  1
  O  O20  1  0.95801838  0.31025549  0.18458030  1
  O  O21  1  0.83609971  0.08145279  0.89446315  1
