# generated using pymatgen
data_Li2Mn3(BO3)3
_symmetry_space_group_name_H-M   'P 1'
_cell_length_a   8.23226490
_cell_length_b   14.73825829
_cell_length_c   6.34822195
_cell_angle_alpha   102.54328160
_cell_angle_beta   89.99532812
_cell_angle_gamma   90.01098599
_symmetry_Int_Tables_number   1
_chemical_formula_structural   Li2Mn3(BO3)3
_chemical_formula_sum   'Li8 Mn12 B12 O36'
_cell_volume   751.84141691
_cell_formula_units_Z   4
loop_
 _symmetry_equiv_pos_site_id
 _symmetry_equiv_pos_as_xyz
  1  'x, y, z'
loop_
 _atom_site_type_symbol
 _atom_site_label
 _atom_site_symmetry_multiplicity
 _atom_site_fract_x
 _atom_site_fract_y
 _atom_site_fract_z
 _atom_site_occupancy
  Li  Li0  1  0.29108868  0.98935428  0.24268298  1
  Li  Li1  1  0.28924113  0.99076934  0.74522056  1
  Li  Li2  1  0.34301580  0.36067950  0.93361881  1
  Li  Li3  1  0.36961207  0.64953841  0.57411179  1
  Li  Li4  1  0.78933836  0.48939977  0.49691129  1
  Li  Li5  1  0.79209074  0.48994715  0.99589763  1
  Li  Li6  1  0.84140426  0.85951765  0.17884059  1
  Li  Li7  1  0.87042106  0.14947303  0.82317663  1
  Mn  Mn8  1  0.14209383  0.50579144  0.75389813  1
  Mn  Mn9  1  0.14232935  0.50585190  0.25120271  1
  Mn  Mn10  1  0.17192804  0.80989654  0.90782580  1
  Mn  Mn11  1  0.16950693  0.81101152  0.40630810  1
  Mn  Mn12  1  0.18658316  0.18428834  0.58670383  1
  Mn  Mn13  1  0.18524964  0.18297517  0.09475807  1
  Mn  Mn14  1  0.64350316  0.00529984  0.50338256  1
  Mn  Mn15  1  0.64168967  0.00656267  0.00644504  1
  Mn  Mn16  1  0.67013947  0.31145535  0.65294829  1
  Mn  Mn17  1  0.67108868  0.30958991  0.16141996  1
  Mn  Mn18  1  0.68621535  0.68388983  0.84202532  1
  Mn  Mn19  1  0.68679470  0.68411161  0.34415265  1
  B  B20  1  0.00389817  0.99963244  0.99938999  1
  B  B21  1  0.00617732  0.99979444  0.49894893  1
  B  B22  1  0.99587177  0.33692021  0.41519825  1
  B  B23  1  0.99895600  0.33417490  0.91723109  1
  B  B24  1  0.00292827  0.66504287  0.58466499  1
  B  B25  1  0.99375886  0.66435470  0.08085788  1
  B  B26  1  0.50453097  0.49904666  0.75136031  1
  B  B27  1  0.50536426  0.49900702  0.25086131  1
  B  B28  1  0.49947130  0.16710741  0.83731961  1
  B  B29  1  0.49889692  0.16222687  0.33182525  1
  B  B30  1  0.49568219  0.83595049  0.16665820  1
  B  B31  1  0.49775128  0.83474868  0.67006285  1
  O  O32  1  0.01240029  0.42963907  0.96326092  1
  O  O33  1  0.02151172  0.43190503  0.46587710  1
  O  O34  1  0.01359679  0.76140739  0.13124351  1
  O  O35  1  0.02481122  0.76052995  0.63470328  1
  O  O36  1  0.13959846  0.60787276  0.55527695  1
  O  O37  1  0.12507821  0.60687540  0.05316432  1
  O  O38  1  0.11976893  0.27360702  0.38346204  1
  O  O39  1  0.13768592  0.27966595  0.88827167  1
  O  O40  1  0.15521549  0.95549230  0.97850872  1
  O  O41  1  0.15765741  0.95586368  0.47538413  1
  O  O42  1  0.34087567  0.12673349  0.31485772  1
  O  O43  1  0.34477848  0.12975715  0.81617922  1
  O  O44  1  0.34033900  0.79963351  0.15001057  1
  O  O45  1  0.34161182  0.79741465  0.64978770  1
  O  O46  1  0.36526272  0.44780447  0.74306551  1
  O  O47  1  0.36585896  0.44793738  0.20985709  1
  O  O48  1  0.49831279  0.59432162  0.77617307  1
  O  O49  1  0.49921713  0.59426442  0.31743412  1
  O  O50  1  0.51905406  0.93019882  0.71597517  1
  O  O51  1  0.51472843  0.93141261  0.21222239  1
  O  O52  1  0.52257858  0.25784237  0.37518930  1
  O  O53  1  0.51960620  0.26439998  0.88937021  1
  O  O54  1  0.63119934  0.10413987  0.30581201  1
  O  O55  1  0.63597825  0.11096218  0.80858135  1
  O  O56  1  0.63316397  0.77996182  0.14073555  1
  O  O57  1  0.62523287  0.77291491  0.64187325  1
  O  O58  1  0.65630354  0.45523775  0.73392748  1
  O  O59  1  0.65725210  0.45441952  0.22556454  1
  O  O60  1  0.84789300  0.62716507  0.56404774  1
  O  O61  1  0.83529314  0.62840414  0.06041558  1
  O  O62  1  0.83542616  0.30589089  0.39822960  1
  O  O63  1  0.84658421  0.29186929  0.89942509  1
  O  O64  1  0.86410925  0.94841270  0.99198390  1
  O  O65  1  0.86685584  0.94812521  0.45559900  1
  O  O66  1  0.99848823  0.09507965  0.56660010  1
  O  O67  1  0.99594245  0.09493905  0.02723168  1
