# generated using pymatgen
data_Li2Mn3CrO8
_symmetry_space_group_name_H-M   'P 1'
_cell_length_a   5.97248203
_cell_length_b   5.80410697
_cell_length_c   6.01193951
_cell_angle_alpha   118.92399070
_cell_angle_beta   120.32718037
_cell_angle_gamma   90.20745392
_symmetry_Int_Tables_number   1
_chemical_formula_structural   Li2Mn3CrO8
_chemical_formula_sum   'Li2 Mn3 Cr1 O8'
_cell_volume   148.73357730
_cell_formula_units_Z   1
loop_
 _symmetry_equiv_pos_site_id
 _symmetry_equiv_pos_as_xyz
  1  'x, y, z'
loop_
 _atom_site_type_symbol
 _atom_site_label
 _atom_site_symmetry_multiplicity
 _atom_site_fract_x
 _atom_site_fract_y
 _atom_site_fract_z
 _atom_site_occupancy
  Li  Li0  1  0.49999874  0.99999299  0.99999341  1
  Li  Li1  1  0.99997764  0.99998932  0.49997705  1
  Mn  Mn2  1  0.99997675  0.49999991  0.99998879  1
  Mn  Mn3  1  0.50000175  -0.00000453  0.50001179  1
  Mn  Mn4  1  0.50001024  0.50001849  0.50002305  1
  Cr  Cr5  1  0.00004151  -0.00000297  0.00000539  1
  O  O6  1  0.75390447  0.22968943  0.94977440  1
  O  O7  1  0.75381585  0.72618058  0.95788664  1
  O  O8  1  0.70838720  0.23695659  0.48062161  1
  O  O9  1  0.73488959  0.76875321  0.53066342  1
  O  O10  1  0.26511331  0.23124006  0.46933462  1
  O  O11  1  0.29158701  0.76302898  0.51936891  1
  O  O12  1  0.24619889  0.27386610  0.04212912  1
  O  O13  1  0.24609806  0.77029387  0.05022280  1
