# generated using pymatgen
data_LiCo2OF3
_symmetry_space_group_name_H-M   'P 1'
_cell_length_a   5.98528500
_cell_length_b   6.22112183
_cell_length_c   8.71705390
_cell_angle_alpha   90.00459323
_cell_angle_beta   90.00455846
_cell_angle_gamma   90.01583042
_symmetry_Int_Tables_number   1
_chemical_formula_structural   LiCo2OF3
_chemical_formula_sum   'Li4 Co8 O4 F12'
_cell_volume   324.58111893
_cell_formula_units_Z   4
loop_
 _symmetry_equiv_pos_site_id
 _symmetry_equiv_pos_as_xyz
  1  'x, y, z'
loop_
 _atom_site_type_symbol
 _atom_site_label
 _atom_site_symmetry_multiplicity
 _atom_site_fract_x
 _atom_site_fract_y
 _atom_site_fract_z
 _atom_site_occupancy
  Li  Li0  1  0.00000241  0.97732854  0.01936145  1
  Li  Li1  1  0.50000040  0.02246279  0.23085669  1
  Li  Li2  1  0.50004825  0.52250297  0.51917468  1
  Li  Li3  1  0.99995392  0.47726805  0.73063052  1
  Co  Co4  1  0.25002295  0.50003744  0.12499728  1
  Co  Co5  1  0.74997569  0.50003664  0.12499827  1
  Co  Co6  1  0.00001555  0.23319077  0.39238810  1
  Co  Co7  1  0.00001335  0.73317019  0.35758982  1
  Co  Co8  1  0.74998943  0.00003728  0.62500941  1
  Co  Co9  1  0.25001597  0.00003519  0.62500925  1
  Co  Co10  1  0.49997967  0.26686171  0.89266201  1
  Co  Co11  1  0.49998868  0.76684106  0.85735468  1
  O  O12  1  0.00005505  0.70497550  0.13372738  1
  O  O13  1  0.49993963  0.29499448  0.11650748  1
  O  O14  1  0.49995380  0.79499845  0.63349391  1
  O  O15  1  0.00005449  0.20495211  0.61627026  1
  F  F16  1  0.99992655  0.24376883  0.15189977  1
  F  F17  1  0.50006679  0.75627206  0.09787462  1
  F  F18  1  0.75968164  0.98330314  0.36968095  1
  F  F19  1  0.24033035  0.98339657  0.36969542  1
  F  F20  1  0.24036671  0.48336333  0.38030806  1
  F  F21  1  0.75966077  0.48326715  0.38031830  1
  F  F22  1  0.50005021  0.25628055  0.65216360  1
  F  F23  1  0.99995924  0.74377729  0.59803556  1
  F  F24  1  0.74033868  0.51673273  0.86966596  1
  F  F25  1  0.25962051  0.51666445  0.86967303  1
  F  F26  1  0.25963981  0.01669914  0.88031473  1
  F  F27  1  0.74034947  0.01678159  0.88033880  1
