# generated using pymatgen
data_VFe5(PO4)6
_symmetry_space_group_name_H-M   'P 1'
_cell_length_a   8.45949153
_cell_length_b   8.62737012
_cell_length_c   8.62736994
_cell_angle_alpha   60.00000065
_cell_angle_beta   59.34133112
_cell_angle_gamma   59.34133258
_symmetry_Int_Tables_number   1
_chemical_formula_structural   VFe5(PO4)6
_chemical_formula_sum   'V1 Fe5 P6 O24'
_cell_volume   440.74750487
_cell_formula_units_Z   1
loop_
 _symmetry_equiv_pos_site_id
 _symmetry_equiv_pos_as_xyz
  1  'x, y, z'
loop_
 _atom_site_type_symbol
 _atom_site_label
 _atom_site_symmetry_multiplicity
 _atom_site_fract_x
 _atom_site_fract_y
 _atom_site_fract_z
 _atom_site_occupancy
  V  V0  1  0.56964555  0.14345115  0.14345115  1
  Fe  Fe1  1  0.00125443  0.99958152  0.99958152  1
  Fe  Fe2  1  0.06362606  0.64545831  0.64545831  1
  Fe  Fe3  1  0.50245608  0.49918097  0.49918097  1
  Fe  Fe4  1  0.43071336  0.85642921  0.85642921  1
  Fe  Fe5  1  0.93677222  0.35440959  0.35440959  1
  P  P6  1  0.25153353  0.24950729  0.54434340  1
  P  P7  1  0.25153353  0.95461578  0.24950729  1
  P  P8  1  0.25153353  0.54434340  0.95461578  1
  P  P9  1  0.74617689  0.45508009  0.04577263  1
  P  P10  1  0.74617689  0.04577263  0.75297140  1
  P  P11  1  0.74617689  0.75297140  0.45508009  1
  O  O12  1  0.06595155  0.10534585  0.32634917  1
  O  O13  1  0.06595155  0.50235343  0.10534585  1
  O  O14  1  0.06595155  0.32634917  0.50235343  1
  O  O15  1  0.22621411  0.09257118  0.74071177  1
  O  O16  1  0.43402282  0.17779091  0.38349169  1
  O  O17  1  0.29022459  0.40630188  0.55065600  1
  O  O18  1  0.22621411  0.94050395  0.09257118  1
  O  O19  1  0.29022459  0.75281753  0.40630188  1
  O  O20  1  0.56548007  0.61087472  0.00142440  1
  O  O21  1  0.29022459  0.55065600  0.75281753  1
  O  O22  1  0.76740461  0.25509985  0.06489449  1
  O  O23  1  0.56548007  0.00142440  0.82222081  1
  O  O24  1  0.43402282  0.00469459  0.17779091  1
  O  O25  1  0.22621411  0.74071177  0.94050395  1
  O  O26  1  0.71618037  0.44000098  0.24866929  1
  O  O27  1  0.43402282  0.38349169  0.00469459  1
  O  O28  1  0.71618037  0.24866929  0.59514836  1
  O  O29  1  0.76740461  0.06489449  0.91260006  1
  O  O30  1  0.71618037  0.59514836  0.44000098  1
  O  O31  1  0.56548007  0.82222081  0.61087472  1
  O  O32  1  0.76740461  0.91260006  0.25509985  1
  O  O33  1  0.93532124  0.68758016  0.48779604  1
  O  O34  1  0.93532124  0.48779604  0.88930256  1
  O  O35  1  0.93532124  0.88930256  0.68758016  1
