# generated using pymatgen
data_Mn12O7F17
_symmetry_space_group_name_H-M   'P 1'
_cell_length_a   5.43547269
_cell_length_b   5.39463384
_cell_length_c   15.09591198
_cell_angle_alpha   84.40747192
_cell_angle_beta   95.43513134
_cell_angle_gamma   91.59915337
_symmetry_Int_Tables_number   1
_chemical_formula_structural   Mn12O7F17
_chemical_formula_sum   'Mn12 O7 F17'
_cell_volume   438.48262311
_cell_formula_units_Z   1
loop_
 _symmetry_equiv_pos_site_id
 _symmetry_equiv_pos_as_xyz
  1  'x, y, z'
loop_
 _atom_site_type_symbol
 _atom_site_label
 _atom_site_symmetry_multiplicity
 _atom_site_fract_x
 _atom_site_fract_y
 _atom_site_fract_z
 _atom_site_occupancy
  Mn  Mn0  1  0.90686068  0.01307016  0.00103444  1
  Mn  Mn1  1  0.09456388  0.53743532  0.16294157  1
  Mn  Mn2  1  0.89639243  0.98062899  0.32758358  1
  Mn  Mn3  1  0.01629223  0.52320994  0.50845765  1
  Mn  Mn4  1  0.97876992  0.06203695  0.66277233  1
  Mn  Mn5  1  0.04539611  0.56822617  0.82768587  1
  Mn  Mn6  1  0.40999127  0.98597774  0.16832743  1
  Mn  Mn7  1  0.57657325  0.48572170  0.99604041  1
  Mn  Mn8  1  0.51118558  0.40589870  0.65697264  1
  Mn  Mn9  1  0.48054857  0.03640101  0.51040115  1
  Mn  Mn10  1  0.54232888  0.44170718  0.32609920  1
  Mn  Mn11  1  0.42350981  0.03825506  0.83887113  1
  O  O12  1  0.15414186  0.84375314  0.08535525  1
  O  O13  1  0.24630134  0.22155063  0.59872661  1
  O  O14  1  0.17902899  0.89242695  0.75849431  1
  O  O15  1  0.35917849  0.67059001  0.23402865  1
  O  O16  1  0.64221151  0.18060992  0.92903681  1
  O  O17  1  0.74871103  0.28777215  0.58585226  1
  O  O18  1  0.62675919  0.12978937  0.25823318  1
  F  F19  1  0.12613056  0.21040568  0.24431155  1
  F  F20  1  0.17353173  0.87247031  0.41272530  1
  F  F21  1  0.13372471  0.20392453  0.91710567  1
  F  F22  1  0.37982835  0.31620608  0.09862446  1
  F  F23  1  0.34093421  0.70585361  0.58005308  1
  F  F24  1  0.34754292  0.71563281  0.91285720  1
  F  F25  1  0.31182622  0.37656981  0.76623992  1
  F  F26  1  0.29749786  0.35978692  0.42546688  1
  F  F27  1  0.66202472  0.82124938  0.07426730  1
  F  F28  1  0.71019603  0.70182332  0.40922798  1
  F  F29  1  0.75767832  0.57525256  0.73060306  1
  F  F30  1  0.78362499  0.20823610  0.41600581  1
  F  F31  1  0.88836120  0.34113071  0.07847166  1
  F  F32  1  0.69350865  0.07597918  0.74891472  1
  F  F33  1  0.84042059  0.81965354  0.57182963  1
  F  F34  1  0.84400184  0.70912985  0.92220845  1
  F  F35  1  0.87042104  0.68163751  0.25417486  1
