# generated using pymatgen
data_Li2Mn2(SiO3)3
_symmetry_space_group_name_H-M   'P 1'
_cell_length_a   10.80939426
_cell_length_b   7.43356046
_cell_length_c   12.43054480
_cell_angle_alpha   90.00000000
_cell_angle_beta   111.54037220
_cell_angle_gamma   90.00000000
_symmetry_Int_Tables_number   1
_chemical_formula_structural   Li2Mn2(SiO3)3
_chemical_formula_sum   'Li8 Mn8 Si12 O36'
_cell_volume   929.06400271
_cell_formula_units_Z   4
loop_
 _symmetry_equiv_pos_site_id
 _symmetry_equiv_pos_as_xyz
  1  'x, y, z'
loop_
 _atom_site_type_symbol
 _atom_site_label
 _atom_site_symmetry_multiplicity
 _atom_site_fract_x
 _atom_site_fract_y
 _atom_site_fract_z
 _atom_site_occupancy
  Li  Li0  1  0.04887415  0.96797591  0.63783354  1
  Li  Li1  1  0.04887415  0.53202409  0.13783354  1
  Li  Li2  1  0.46466821  0.06438290  0.64425445  1
  Li  Li3  1  0.53533179  0.56438290  0.85574555  1
  Li  Li4  1  0.46466821  0.43561710  0.14425445  1
  Li  Li5  1  0.53533179  0.93561710  0.35574555  1
  Li  Li6  1  0.95112585  0.46797591  0.86216646  1
  Li  Li7  1  0.95112585  0.03202409  0.36216646  1
  Mn  Mn8  1  0.04979387  0.89297571  0.91865761  1
  Mn  Mn9  1  0.04979387  0.60702429  0.41865761  1
  Mn  Mn10  1  0.43543236  0.63162256  0.56507091  1
  Mn  Mn11  1  0.56456764  0.13162256  0.93492909  1
  Mn  Mn12  1  0.43543236  0.86837744  0.06507091  1
  Mn  Mn13  1  0.56456764  0.36837744  0.43492909  1
  Mn  Mn14  1  0.95020613  0.39297571  0.58134239  1
  Mn  Mn15  1  0.95020613  0.10702429  0.08134239  1
  Si  Si16  1  0.22768898  0.54361723  0.93317793  1
  Si  Si17  1  0.23865732  0.15828665  0.85365769  1
  Si  Si18  1  0.25952059  0.47281764  0.70495061  1
  Si  Si19  1  0.22768898  0.95638277  0.43317793  1
  Si  Si20  1  0.23865732  0.34171335  0.35365769  1
  Si  Si21  1  0.25952059  0.02718236  0.20495061  1
  Si  Si22  1  0.74047941  0.97281764  0.79504939  1
  Si  Si23  1  0.76134268  0.65828665  0.64634231  1
  Si  Si24  1  0.77231102  0.04361723  0.56682207  1
  Si  Si25  1  0.74047941  0.52718236  0.29504939  1
  Si  Si26  1  0.76134268  0.84171335  0.14634231  1
  Si  Si27  1  0.77231102  0.45638277  0.06682207  1
  O  O28  1  0.09693438  0.62564660  0.95236336  1
  O  O29  1  0.11326539  0.02218108  0.80222110  1
  O  O30  1  0.13430575  0.49336853  0.58318542  1
  O  O31  1  0.20688597  0.32173143  0.93148254  1
  O  O32  1  0.09693438  0.87435340  0.45236336  1
  O  O33  1  0.22866470  0.59512453  0.80389278  1
  O  O34  1  0.26546813  0.25679696  0.74394756  1
  O  O35  1  0.11326539  0.47781892  0.30222110  1
  O  O36  1  0.36967042  0.60463273  0.03102467  1
  O  O37  1  0.13430575  0.00663147  0.08318542  1
  O  O38  1  0.37626203  0.05906052  0.93264345  1
  O  O39  1  0.20688597  0.17826857  0.43148254  1
  O  O40  1  0.22866470  0.90487547  0.30389278  1
  O  O41  1  0.40511419  0.53006547  0.70617332  1
  O  O42  1  0.26546813  0.24320304  0.24394756  1
  O  O43  1  0.36967042  0.89536727  0.53102467  1
  O  O44  1  0.37626203  0.44093948  0.43264345  1
  O  O45  1  0.40511419  0.96993453  0.20617332  1
  O  O46  1  0.59488581  0.03006547  0.79382668  1
  O  O47  1  0.62373797  0.55906052  0.56735655  1
  O  O48  1  0.63032958  0.10463273  0.46897533  1
  O  O49  1  0.73453187  0.75679696  0.75605244  1
  O  O50  1  0.59488581  0.46993453  0.29382668  1
  O  O51  1  0.77133530  0.09512453  0.69610722  1
  O  O52  1  0.79311403  0.82173143  0.56851746  1
  O  O53  1  0.62373797  0.94093948  0.06735655  1
  O  O54  1  0.86569425  0.99336853  0.91681458  1
  O  O55  1  0.63032958  0.39536727  0.96897533  1
  O  O56  1  0.88673461  0.52218108  0.69777890  1
  O  O57  1  0.73453187  0.74320304  0.25605244  1
  O  O58  1  0.77133530  0.40487547  0.19610722  1
  O  O59  1  0.90306562  0.12564660  0.54763664  1
  O  O60  1  0.79311403  0.67826857  0.06851746  1
  O  O61  1  0.86569425  0.50663147  0.41681458  1
  O  O62  1  0.88673461  0.97781892  0.19777890  1
  O  O63  1  0.90306562  0.37435340  0.04763664  1
