# generated using pymatgen
data_Na7V2O6
_symmetry_space_group_name_H-M   'P 1'
_cell_length_a   5.83243517
_cell_length_b   8.16193175
_cell_length_c   10.69702027
_cell_angle_alpha   76.37890607
_cell_angle_beta   90.00000003
_cell_angle_gamma   69.06583726
_symmetry_Int_Tables_number   1
_chemical_formula_structural   Na7V2O6
_chemical_formula_sum   'Na14 V4 O12'
_cell_volume   460.24052300
_cell_formula_units_Z   2
loop_
 _symmetry_equiv_pos_site_id
 _symmetry_equiv_pos_as_xyz
  1  'x, y, z'
loop_
 _atom_site_type_symbol
 _atom_site_label
 _atom_site_symmetry_multiplicity
 _atom_site_fract_x
 _atom_site_fract_y
 _atom_site_fract_z
 _atom_site_occupancy
  Na  Na0  1  0.69716949  0.87708094  0.64997876  1
  Na  Na1  1  0.57602862  0.66187139  0.90642457  1
  Na  Na2  1  0.42574957  0.87708094  0.14997876  1
  Na  Na3  1  0.18799306  0.54695476  0.80764439  1
  Na  Na4  1  0.76209999  0.66187139  0.40642457  1
  Na  Na5  1  0.73494782  0.45304524  0.69235561  1
  Na  Na6  1  0.26505218  0.54695476  0.30764439  1
  Na  Na7  1  0.23790001  0.33812861  0.59357543  1
  Na  Na8  1  0.81200694  0.45304524  0.19235561  1
  Na  Na9  1  0.57425043  0.12291906  0.85002124  1
  Na  Na10  1  0.42397138  0.33812861  0.09357543  1
  Na  Na11  1  0.07804140  0.00000000  0.75000000  1
  Na  Na12  1  0.30283051  0.12291906  0.35002124  1
  Na  Na13  1  0.92195860  1.00000000  0.25000000  1
  V  V14  1  0.22909783  0.76340908  0.53552168  1
  V  V15  1  0.00749309  0.76340908  0.03552168  1
  V  V16  1  0.99250691  0.23659092  0.96447832  1
  V  V17  1  0.77090217  0.23659092  0.46447832  1
  O  O18  1  0.85818851  0.81378795  0.87453629  1
  O  O19  1  0.39417852  0.75173721  0.68948107  1
  O  O20  1  0.32802355  0.81378795  0.37453629  1
  O  O21  1  0.00908358  0.64767709  0.58422682  1
  O  O22  1  0.85408427  0.75173721  0.18948107  1
  O  O23  1  0.65676168  0.35232291  0.91577318  1
  O  O24  1  0.34323832  0.64767709  0.08422682  1
  O  O25  1  0.14591573  0.24826279  0.81051893  1
  O  O26  1  0.99091642  0.35232291  0.41577318  1
  O  O27  1  0.67197645  0.18621205  0.62546371  1
  O  O28  1  0.60582148  0.24826279  0.31051893  1
  O  O29  1  0.14181149  0.18621205  0.12546371  1
