# generated using pymatgen
data_Fe10O9F11
_symmetry_space_group_name_H-M   'P 1'
_cell_length_a   4.75466351
_cell_length_b   4.76634067
_cell_length_c   15.50504713
_cell_angle_alpha   90.00000000
_cell_angle_beta   90.00000000
_cell_angle_gamma   92.17771492
_symmetry_Int_Tables_number   1
_chemical_formula_structural   Fe10O9F11
_chemical_formula_sum   'Fe10 O9 F11'
_cell_volume   351.12696654
_cell_formula_units_Z   1
loop_
 _symmetry_equiv_pos_site_id
 _symmetry_equiv_pos_as_xyz
  1  'x, y, z'
loop_
 _atom_site_type_symbol
 _atom_site_label
 _atom_site_symmetry_multiplicity
 _atom_site_fract_x
 _atom_site_fract_y
 _atom_site_fract_z
 _atom_site_occupancy
  Fe  Fe0  1  0.00556674  0.98574143  0.00286636  1
  Fe  Fe1  1  0.02325736  0.97422179  0.20000000  1
  Fe  Fe2  1  0.00556674  0.98574143  0.39713364  1
  Fe  Fe3  1  0.02853798  0.01185563  0.60898370  1
  Fe  Fe4  1  0.02853798  0.01185563  0.79101630  1
  Fe  Fe5  1  0.47605251  0.52256883  0.08804023  1
  Fe  Fe6  1  0.49756355  0.48052188  0.49766099  1
  Fe  Fe7  1  0.47605251  0.52256883  0.31195977  1
  Fe  Fe8  1  0.45670413  0.50232837  0.70000000  1
  Fe  Fe9  1  0.49756355  0.48052188  0.90233901  1
  O  O10  1  0.18824811  0.80603463  0.10171572  1
  O  O11  1  0.18824811  0.80603463  0.29828528  1
  O  O12  1  0.20168951  0.79950987  0.70000000  1
  O  O13  1  0.29794740  0.29534899  0.99909215  1
  O  O14  1  0.29794740  0.29534899  0.40090785  1
  O  O15  1  0.31444045  0.31502527  0.59689380  1
  O  O16  1  0.31444045  0.31502527  0.80310620  1
  O  O17  1  0.69779080  0.69481415  0.99687385  1
  O  O18  1  0.69779080  0.69481415  0.40312615  1
  F  F19  1  0.19928727  0.80257353  0.49936556  1
  F  F20  1  0.19928727  0.80257353  0.90063444  1
  F  F21  1  0.30439806  0.31168588  0.20000000  1
  F  F22  1  0.68402292  0.69311576  0.20000000  1
  F  F23  1  0.70417835  0.70530394  0.59895772  1
  F  F24  1  0.70417835  0.70530394  0.80104228  1
  F  F25  1  0.80119000  0.19367761  0.10489808  1
  F  F26  1  0.81087569  0.18772673  0.49935081  1
  F  F27  1  0.80119000  0.19367761  0.29510192  1
  F  F28  1  0.81087569  0.18772673  0.90064919  1
  F  F29  1  0.78656933  0.21675407  0.70000000  1
