# generated using pymatgen
data_H2Pb(CO2)2
_symmetry_space_group_name_H-M   'P 1'
_cell_length_a   6.68757814
_cell_length_b   7.74257660
_cell_length_c   8.94750231
_cell_angle_alpha   90.00000000
_cell_angle_beta   90.00000000
_cell_angle_gamma   90.00000000
_symmetry_Int_Tables_number   1
_chemical_formula_structural   H2Pb(CO2)2
_chemical_formula_sum   'H8 Pb4 C8 O16'
_cell_volume   463.29349175
_cell_formula_units_Z   4
loop_
 _symmetry_equiv_pos_site_id
 _symmetry_equiv_pos_as_xyz
  1  'x, y, z'
loop_
 _atom_site_type_symbol
 _atom_site_label
 _atom_site_symmetry_multiplicity
 _atom_site_fract_x
 _atom_site_fract_y
 _atom_site_fract_z
 _atom_site_occupancy
  H  H0  1  0.49314349  0.53120714  0.77541577  1
  H  H1  1  0.00685651  0.46879286  0.27541577  1
  H  H2  1  0.99314349  0.96879286  0.22458423  1
  H  H3  1  0.50685651  0.03120714  0.72458423  1
  H  H4  1  0.76028654  0.71207873  0.99135733  1
  H  H5  1  0.73971346  0.28792127  0.49135733  1
  H  H6  1  0.26028654  0.78792127  0.00864267  1
  H  H7  1  0.23971346  0.21207873  0.50864267  1
  Pb  Pb8  1  0.07063246  0.74503238  0.66798449  1
  Pb  Pb9  1  0.42936754  0.25496762  0.16798449  1
  Pb  Pb10  1  0.57063246  0.75496762  0.33201551  1
  Pb  Pb11  1  0.92936754  0.24503238  0.83201551  1
  C  C12  1  0.57941292  0.61278123  0.69667182  1
  C  C13  1  0.92058708  0.38721877  0.19667182  1
  C  C14  1  0.07941292  0.88721877  0.30332818  1
  C  C15  1  0.42058708  0.11278123  0.80332818  1
  C  C16  1  0.75373100  0.85543184  0.99401424  1
  C  C17  1  0.74626900  0.14456816  0.49401424  1
  C  C18  1  0.25373100  0.64456816  0.00598576  1
  C  C19  1  0.24626900  0.35543184  0.50598576  1
  O  O20  1  0.48750383  0.73121258  0.62666082  1
  O  O21  1  0.01249617  0.26878742  0.12666082  1
  O  O22  1  0.98750383  0.76878742  0.37333918  1
  O  O23  1  0.51249617  0.23121258  0.87333918  1
  O  O24  1  0.76411506  0.57447286  0.68380603  1
  O  O25  1  0.73588494  0.42552714  0.18380603  1
  O  O26  1  0.26411506  0.92552714  0.31619397  1
  O  O27  1  0.23588494  0.07447286  0.81619397  1
  O  O28  1  0.14899235  0.57414943  0.90385153  1
  O  O29  1  0.35100765  0.42585057  0.40385153  1
  O  O30  1  0.64899235  0.92585057  0.09614847  1
  O  O31  1  0.85100765  0.07414943  0.59614847  1
  O  O32  1  0.85340208  0.93274493  0.89374736  1
  O  O33  1  0.64659792  0.06725507  0.39374736  1
  O  O34  1  0.35340208  0.56725507  0.10625264  1
  O  O35  1  0.14659792  0.43274493  0.60625264  1
