# generated using pymatgen
data_LiMnPO4
_symmetry_space_group_name_H-M   'P 1'
_cell_length_a   8.44050943
_cell_length_b   18.69593828
_cell_length_c   5.10092673
_cell_angle_alpha   90.00000000
_cell_angle_beta   90.00000000
_cell_angle_gamma   90.00000000
_symmetry_Int_Tables_number   1
_chemical_formula_structural   LiMnPO4
_chemical_formula_sum   'Li8 Mn8 P8 O32'
_cell_volume   804.94278211
_cell_formula_units_Z   8
loop_
 _symmetry_equiv_pos_site_id
 _symmetry_equiv_pos_as_xyz
  1  'x, y, z'
loop_
 _atom_site_type_symbol
 _atom_site_label
 _atom_site_symmetry_multiplicity
 _atom_site_fract_x
 _atom_site_fract_y
 _atom_site_fract_z
 _atom_site_occupancy
  Li  Li0  1  0.14825707  0.76185506  0.45568925  1
  Li  Li1  1  0.07184472  0.54985178  0.60071971  1
  Li  Li2  1  0.42815528  0.04985178  0.10071971  1
  Li  Li3  1  0.35174293  0.26185506  0.95568925  1
  Li  Li4  1  0.64825707  0.73814494  0.45568925  1
  Li  Li5  1  0.57184472  0.95014822  0.60071971  1
  Li  Li6  1  0.92815528  0.45014822  0.10071971  1
  Li  Li7  1  0.85174293  0.23814494  0.95568925  1
  Mn  Mn8  1  0.01238690  0.93199469  0.96423029  1
  Mn  Mn9  1  0.14550267  0.33963150  0.46301633  1
  Mn  Mn10  1  0.35449733  0.83963150  0.96301633  1
  Mn  Mn11  1  0.48761310  0.43199469  0.46423029  1
  Mn  Mn12  1  0.51238690  0.56800531  0.96423029  1
  Mn  Mn13  1  0.64550267  0.16036850  0.46301633  1
  Mn  Mn14  1  0.85449733  0.66036850  0.96301633  1
  Mn  Mn15  1  0.98761310  0.06800531  0.46423029  1
  P  P16  1  0.20180649  0.68146784  0.93097696  1
  P  P17  1  0.23977627  0.93041639  0.43865961  1
  P  P18  1  0.26022373  0.43041639  0.93865961  1
  P  P19  1  0.29819351  0.18146784  0.43097696  1
  P  P20  1  0.70180649  0.81853216  0.93097696  1
  P  P21  1  0.73977627  0.56958361  0.43865961  1
  P  P22  1  0.76022373  0.06958361  0.93865961  1
  P  P23  1  0.79819351  0.31853216  0.43097696  1
  O  O24  1  0.06552056  0.64166243  0.77881236  1
  O  O25  1  0.08820024  0.97078386  0.33448535  1
  O  O26  1  0.10797506  0.46875015  0.85377486  1
  O  O27  1  0.14001388  0.14335892  0.37614539  1
  O  O28  1  0.15503943  0.68521521  0.22078235  1
  O  O29  1  0.22723651  0.92616886  0.74478430  1
  O  O30  1  0.21519545  0.75865762  0.81217083  1
  O  O31  1  0.26951569  0.35412331  0.81692241  1
  O  O32  1  0.23048431  0.85412331  0.31692241  1
  O  O33  1  0.28480455  0.25865762  0.31217083  1
  O  O34  1  0.27276349  0.42616886  0.24478430  1
  O  O35  1  0.34496057  0.18521521  0.72078235  1
  O  O36  1  0.35998612  0.64335892  0.87614539  1
  O  O37  1  0.39202494  0.96875015  0.35377486  1
  O  O38  1  0.41179976  0.47078386  0.83448535  1
  O  O39  1  0.43447944  0.14166243  0.27881236  1
  O  O40  1  0.56552056  0.85833757  0.77881236  1
  O  O41  1  0.58820024  0.52921614  0.33448535  1
  O  O42  1  0.60797506  0.03124985  0.85377486  1
  O  O43  1  0.64001388  0.35664108  0.37614539  1
  O  O44  1  0.65503943  0.81478479  0.22078235  1
  O  O45  1  0.72723651  0.57383114  0.74478430  1
  O  O46  1  0.71519545  0.74134238  0.81217083  1
  O  O47  1  0.76951569  0.14587669  0.81692241  1
  O  O48  1  0.73048431  0.64587669  0.31692241  1
  O  O49  1  0.78480455  0.24134238  0.31217083  1
  O  O50  1  0.77276349  0.07383114  0.24478430  1
  O  O51  1  0.84496057  0.31478479  0.72078235  1
  O  O52  1  0.85998612  0.85664108  0.87614539  1
  O  O53  1  0.89202494  0.53124985  0.35377486  1
  O  O54  1  0.91179976  0.02921614  0.83448535  1
  O  O55  1  0.93447944  0.35833757  0.27881236  1
