# generated using pymatgen
data_Fe5(OF4)2
_symmetry_space_group_name_H-M   'P 1'
_cell_length_a   4.85217992
_cell_length_b   7.96447113
_cell_length_c   10.04068318
_cell_angle_alpha   109.22619095
_cell_angle_beta   91.34728377
_cell_angle_gamma   88.39466085
_symmetry_Int_Tables_number   1
_chemical_formula_structural   Fe5(OF4)2
_chemical_formula_sum   'Fe10 O4 F16'
_cell_volume   366.19531148
_cell_formula_units_Z   2
loop_
 _symmetry_equiv_pos_site_id
 _symmetry_equiv_pos_as_xyz
  1  'x, y, z'
loop_
 _atom_site_type_symbol
 _atom_site_label
 _atom_site_symmetry_multiplicity
 _atom_site_fract_x
 _atom_site_fract_y
 _atom_site_fract_z
 _atom_site_occupancy
  Fe  Fe0  1  0.48481590  0.29764149  0.89340961  1
  Fe  Fe1  1  0.50371166  0.10069471  0.30438731  1
  Fe  Fe2  1  0.48497565  0.90631721  0.69311534  1
  Fe  Fe3  1  0.55140569  0.71058555  0.09921320  1
  Fe  Fe4  1  0.48339602  0.49534891  0.49218442  1
  Fe  Fe5  1  0.98250955  0.61088378  0.80848511  1
  Fe  Fe6  1  0.02649278  0.19695175  0.61652636  1
  Fe  Fe7  1  0.97712560  0.80512776  0.38715897  1
  Fe  Fe8  1  0.03494680  0.39069970  0.20999808  1
  Fe  Fe9  1  0.98115996  0.98675091  -0.00413717  1
  O  O10  1  0.79841114  0.75430191  0.98114921  1
  O  O11  1  0.67965336  0.87199518  0.27868167  1
  O  O12  1  0.29887307  0.14049360  0.72230111  1
  O  O13  1  0.30953766  0.32089309  0.31634907  1
  F  F14  1  0.81298063  0.97414182  0.58198980  1
  F  F15  1  0.81731344  0.54550103  0.37005317  1
  F  F16  1  0.80072255  0.35592098  0.77578883  1
  F  F17  1  0.79640762  0.17508246  0.18748884  1
  F  F18  1  0.69722924  0.06329925  0.87862091  1
  F  F19  1  0.68124418  0.66066923  0.66506735  1
  F  F20  1  0.71299202  0.46277085  0.08882705  1
  F  F21  1  0.71117993  0.24912261  0.48131207  1
  F  F22  1  0.28604900  0.74298324  0.50801696  1
  F  F23  1  0.30151316  0.94231182  0.12524372  1
  F  F24  1  0.31979109  0.55275028  0.93514512  1
  F  F25  1  0.17614192  0.43677214  0.62448605  1
  F  F26  1  0.19998715  0.05339148  0.42616581  1
  F  F27  1  0.20269009  0.83672433  0.81661454  1
  F  F28  1  0.18109490  0.24056375  0.02535414  1
  F  F29  1  0.20564724  0.61930916  0.21100233  1
