# generated using pymatgen
data_LiCrP2O7
_symmetry_space_group_name_H-M   'P 1'
_cell_length_a   6.99941522
_cell_length_b   8.44954498
_cell_length_c   9.20830736
_cell_angle_alpha   90.00000000
_cell_angle_beta   112.52407210
_cell_angle_gamma   90.00000000
_symmetry_Int_Tables_number   1
_chemical_formula_structural   LiCrP2O7
_chemical_formula_sum   'Li4 Cr4 P8 O28'
_cell_volume   503.05400261
_cell_formula_units_Z   4
loop_
 _symmetry_equiv_pos_site_id
 _symmetry_equiv_pos_as_xyz
  1  'x, y, z'
loop_
 _atom_site_type_symbol
 _atom_site_label
 _atom_site_symmetry_multiplicity
 _atom_site_fract_x
 _atom_site_fract_y
 _atom_site_fract_z
 _atom_site_occupancy
  Li  Li0  1  0.10527441  0.57267398  0.90460602  1
  Li  Li1  1  0.39472559  0.07267398  0.59539398  1
  Li  Li2  1  0.60527441  0.92732602  0.40460602  1
  Li  Li3  1  0.89472559  0.42732602  0.09539398  1
  Cr  Cr4  1  0.11981164  0.93369647  0.81635765  1
  Cr  Cr5  1  0.38018836  0.43369647  0.68364235  1
  Cr  Cr6  1  0.61981164  0.56630353  0.31635765  1
  Cr  Cr7  1  0.88018836  0.06630353  0.18364235  1
  P  P8  1  0.06059241  0.71785389  0.53356654  1
  P  P9  1  0.43940759  0.21785389  0.96643346  1
  P  P10  1  0.17795893  0.73436461  0.24186617  1
  P  P11  1  0.32204107  0.23436461  0.25813383  1
  P  P12  1  0.67795893  0.76563539  0.74186617  1
  P  P13  1  0.82204107  0.26563539  0.75813383  1
  P  P14  1  0.56059241  0.78214611  0.03356654  1
  P  P15  1  0.93940759  0.28214611  0.46643346  1
  O  O16  1  0.14394064  0.58057892  0.64964833  1
  O  O17  1  0.13493581  0.88015555  0.61406302  1
  O  O18  1  0.32351973  0.77700813  0.94846180  1
  O  O19  1  0.17648027  0.27700813  0.55153820  1
  O  O20  1  0.36506419  0.38015555  0.88593698  1
  O  O21  1  0.16144121  0.68988591  0.40832875  1
  O  O22  1  0.35605936  0.08057892  0.85035167  1
  O  O23  1  0.08449647  0.24125582  0.20881360  1
  O  O24  1  0.07959729  0.89917929  0.19506490  1
  O  O25  1  0.07820709  0.60768706  0.12299114  1
  O  O26  1  0.66144121  0.81011409  0.90832875  1
  O  O27  1  0.42179291  0.10768706  0.37700886  1
  O  O28  1  0.58449647  0.25874418  0.70881360  1
  O  O29  1  0.57959729  0.60082071  0.69506390  1
  O  O30  1  0.42040271  0.39917929  0.30493510  1
  O  O31  1  0.41550353  0.74125582  0.29118640  1
  O  O32  1  0.57820709  0.89231294  0.62299114  1
  O  O33  1  0.33855879  0.18988591  0.09167125  1
  O  O34  1  0.92179291  0.39231294  0.87700886  1
  O  O35  1  0.92040271  0.10082071  0.80493610  1
  O  O36  1  0.91550353  0.75874418  0.79118640  1
  O  O37  1  0.64394064  0.91942108  0.14964833  1
  O  O38  1  0.83855879  0.31011409  0.59167125  1
  O  O39  1  0.63493581  0.61984445  0.11406302  1
  O  O40  1  0.82351973  0.72299187  0.44846180  1
  O  O41  1  0.67648027  0.22299187  0.05153820  1
  O  O42  1  0.86506419  0.11984445  0.38593698  1
  O  O43  1  0.85605936  0.41942108  0.35035167  1
