# generated using pymatgen
data_LiCrPO5
_symmetry_space_group_name_H-M   'P 1'
_cell_length_a   8.59179799
_cell_length_b   9.13723205
_cell_length_c   10.29829248
_cell_angle_alpha   90.00000000
_cell_angle_beta   90.00000000
_cell_angle_gamma   89.99634291
_symmetry_Int_Tables_number   1
_chemical_formula_structural   LiCrPO5
_chemical_formula_sum   'Li8 Cr8 P8 O40'
_cell_volume   808.47004456
_cell_formula_units_Z   8
loop_
 _symmetry_equiv_pos_site_id
 _symmetry_equiv_pos_as_xyz
  1  'x, y, z'
loop_
 _atom_site_type_symbol
 _atom_site_label
 _atom_site_symmetry_multiplicity
 _atom_site_fract_x
 _atom_site_fract_y
 _atom_site_fract_z
 _atom_site_occupancy
  Li  Li0  1  0.00271500  0.81878548  0.99793365  1
  Li  Li1  1  0.22989760  0.16571021  0.11719845  1
  Li  Li2  1  0.27010240  0.83428979  0.61719845  1
  Li  Li3  1  0.49728500  0.18121452  0.49793365  1
  Li  Li4  1  0.55353444  0.52527858  0.04750329  1
  Li  Li5  1  0.71627853  0.83677410  0.38959890  1
  Li  Li6  1  0.78372147  0.16322590  0.88959890  1
  Li  Li7  1  0.94646556  0.47472142  0.54750329  1
  Cr  Cr8  1  0.13866265  0.15775910  0.61025403  1
  Cr  Cr9  1  0.14634715  0.35860472  0.88749999  1
  Cr  Cr10  1  0.35365285  0.64139528  0.38749999  1
  Cr  Cr11  1  0.36133735  0.84224090  0.11025403  1
  Cr  Cr12  1  0.63899049  0.84675578  0.88446406  1
  Cr  Cr13  1  0.64155685  0.64568051  0.60757163  1
  Cr  Cr14  1  0.85844315  0.35431949  0.10757163  1
  Cr  Cr15  1  0.86100951  0.15324422  0.38446406  1
  P  P16  1  0.15300645  0.55285205  0.14356456  1
  P  P17  1  0.17224278  0.95315966  0.37109205  1
  P  P18  1  0.32775722  0.04684034  0.87109205  1
  P  P19  1  0.34699355  0.44714795  0.64356456  1
  P  P20  1  0.65200974  0.44318307  0.35505581  1
  P  P21  1  0.66929043  0.04581633  0.13005904  1
  P  P22  1  0.83070957  0.95418367  0.63005904  1
  P  P23  1  0.84799026  0.55681693  0.85505581  1
  O  O24  1  0.98789943  0.26413189  0.99563338  1
  O  O25  1  0.99586303  0.25292320  0.50909218  1
  O  O26  1  0.00698328  0.98246747  0.63100417  1
  O  O27  1  0.02450516  0.53284851  0.86758255  1
  O  O28  1  0.05806194  0.25991161  0.75625005  1
  O  O29  1  0.18026257  0.71227677  0.09365469  1
  O  O30  1  0.20102252  0.79801294  0.42680209  1
  O  O31  1  0.20070416  0.53566715  0.28585534  1
  O  O32  1  0.25677838  0.55810506  0.55634492  1
  O  O33  1  0.26675417  0.02535966  0.73135347  1
  O  O34  1  0.24226954  0.93972992  0.96562893  1
  O  O35  1  0.25773046  0.06027008  0.46562893  1
  O  O36  1  0.23324583  0.97464134  0.23135347  1
  O  O37  1  0.24322162  0.44189494  0.05634492  1
  O  O38  1  0.29929584  0.46433285  0.78585534  1
  O  O39  1  0.29897748  0.20198706  0.92680209  1
  O  O40  1  0.31973743  0.28772323  0.59365469  1
  O  O41  1  0.44193806  0.74008839  0.25625005  1
  O  O42  1  0.47549484  0.46715149  0.36758255  1
  O  O43  1  0.49301672  0.01753253  0.13100417  1
  O  O44  1  0.51210057  0.73586811  0.49563338  1
  O  O45  1  0.50413697  0.74707680  0.00909218  1
  O  O46  1  0.50385209  0.01859428  0.86861522  1
  O  O47  1  0.52456373  0.46887719  0.63468901  1
  O  O48  1  0.55708104  0.74521822  0.75027823  1
  O  O49  1  0.67669227  0.28283309  0.39976307  1
  O  O50  1  0.69701956  0.20240007  0.07765299  1
  O  O51  1  0.69444069  0.46506271  0.21047574  1
  O  O52  1  0.75077889  0.45266914  0.94535900  1
  O  O53  1  0.76944622  0.98031090  0.76904465  1
  O  O54  1  0.74468128  0.05742381  0.53202287  1
  O  O55  1  0.75531872  0.94257619  0.03202287  1
  O  O56  1  0.73055378  0.01968910  0.26904465  1
  O  O57  1  0.74922111  0.54733086  0.44535900  1
  O  O58  1  0.80555931  0.53493729  0.71047574  1
  O  O59  1  0.80298044  0.79759993  0.57765299  1
  O  O60  1  0.82330773  0.71716691  0.89976307  1
  O  O61  1  0.94291896  0.25478178  0.25027823  1
  O  O62  1  0.97543627  0.53112281  0.13468901  1
  O  O63  1  0.99614791  0.98140572  0.36861522  1
