# generated using pymatgen
data_Li2Mn3(BO3)3
_symmetry_space_group_name_H-M   'P 1'
_cell_length_a   8.23542052
_cell_length_b   8.29182484
_cell_length_c   6.34833981
_cell_angle_alpha   90.00000000
_cell_angle_beta   90.00000000
_cell_angle_gamma   119.59921199
_symmetry_Int_Tables_number   1
_chemical_formula_structural   Li2Mn3(BO3)3
_chemical_formula_sum   'Li4 Mn6 B6 O18'
_cell_volume   376.93504001
_cell_formula_units_Z   2
loop_
 _symmetry_equiv_pos_site_id
 _symmetry_equiv_pos_as_xyz
  1  'x, y, z'
loop_
 _atom_site_type_symbol
 _atom_site_label
 _atom_site_symmetry_multiplicity
 _atom_site_fract_x
 _atom_site_fract_y
 _atom_site_fract_z
 _atom_site_occupancy
  Li  Li0  1  0.27633495  0.29950109  0.25000000  1
  Li  Li1  1  0.02328341  0.72415943  0.75000000  1
  Li  Li2  1  0.69789761  0.97773392  0.75000000  1
  Li  Li3  1  0.69724392  0.98047565  0.25000000  1
  Mn  Mn4  1  0.36258123  0.01264166  0.50144946  1
  Mn  Mn5  1  0.36258123  0.01264166  0.99855054  1
  Mn  Mn6  1  0.64174936  0.62063615  0.50035204  1
  Mn  Mn7  1  0.64174936  0.62063615  0.99964796  1
  Mn  Mn8  1  0.99785434  0.36986524  0.00074278  1
  Mn  Mn9  1  0.99785434  0.36986524  0.49925722  1
  B  B10  1  0.65864387  0.32710745  0.25000000  1
  B  B11  1  0.67875208  0.33250311  0.75000000  1
  B  B12  1  0.33632979  0.66485066  0.25000000  1
  B  B13  1  0.34358621  0.67614704  0.75000000  1
  B  B14  1  0.99165118  0.99961651  0.00063837  1
  B  B15  1  0.99165118  0.99961651  0.49936163  1
  O  O16  1  0.09454101  0.19069012  0.01904425  1
  O  O17  1  0.09454101  0.19069012  0.48095575  1
  O  O18  1  0.46374197  0.21283374  0.25000000  1
  O  O19  1  0.14487427  0.54102169  0.25000000  1
  O  O20  1  0.49067973  0.21836007  0.75000000  1
  O  O21  1  0.15065872  0.56217824  0.75000000  1
  O  O22  1  0.08173670  0.89809682  0.98276965  1
  O  O23  1  0.08173670  0.89809682  0.51723035  1
  O  O24  1  0.77541888  0.25091089  0.25000000  1
  O  O25  1  0.45220034  0.58682267  0.25000000  1
  O  O26  1  0.80076820  0.25839754  0.75000000  1
  O  O27  1  0.46667990  0.60850486  0.75000000  1
  O  O28  1  0.73409282  0.51761545  0.25000000  1
  O  O29  1  0.75650335  0.52611337  0.75000000  1
  O  O30  1  0.40956892  0.85454008  0.25000000  1
  O  O31  1  0.41556204  0.86729198  0.75000000  1
  O  O32  1  0.79656217  0.91098951  0.49989062  1
  O  O33  1  0.79656217  0.91098951  0.00010938  1
