# generated using pymatgen
data_Li2Mn3(BO3)3
_symmetry_space_group_name_H-M   'P 1'
_cell_length_a   8.30196347
_cell_length_b   14.68611024
_cell_length_c   6.34410294
_cell_angle_alpha   102.44131561
_cell_angle_beta   90.00177366
_cell_angle_gamma   89.61293278
_symmetry_Int_Tables_number   1
_chemical_formula_structural   Li2Mn3(BO3)3
_chemical_formula_sum   'Li8 Mn12 B12 O36'
_cell_volume   755.31366066
_cell_formula_units_Z   4
loop_
 _symmetry_equiv_pos_site_id
 _symmetry_equiv_pos_as_xyz
  1  'x, y, z'
loop_
 _atom_site_type_symbol
 _atom_site_label
 _atom_site_symmetry_multiplicity
 _atom_site_fract_x
 _atom_site_fract_y
 _atom_site_fract_z
 _atom_site_occupancy
  Li  Li0  1  0.28664128  0.98949489  0.74294873  1
  Li  Li1  1  0.33655954  0.35974267  0.93156274  1
  Li  Li2  1  0.36814627  0.64932841  0.07371577  1
  Li  Li3  1  0.36920378  0.64987245  0.57797196  1
  Li  Li4  1  0.78798501  0.48978632  0.49493303  1
  Li  Li5  1  0.83886875  0.86016850  0.17981126  1
  Li  Li6  1  0.87058995  0.15006491  0.82406403  1
  Li  Li7  1  0.86910412  0.14827352  0.32744397  1
  Mn  Mn8  1  0.13015608  0.50063221  0.75294411  1
  Mn  Mn9  1  0.13112712  0.50097764  0.25170070  1
  Mn  Mn10  1  0.16977080  0.81750441  0.90769896  1
  Mn  Mn11  1  0.17092519  0.81555918  0.40874371  1
  Mn  Mn12  1  0.19826451  0.17978572  0.58763613  1
  Mn  Mn13  1  0.19881232  0.17918429  0.09850503  1
  Mn  Mn14  1  0.62751371  0.00154089  0.49714552  1
  Mn  Mn15  1  0.63027963  0.00073268  0.99815226  1
  Mn  Mn16  1  0.66790372  0.31673161  0.65667401  1
  Mn  Mn17  1  0.67069259  0.31936896  0.15892082  1
  Mn  Mn18  1  0.69791494  0.67864832  0.83971075  1
  Mn  Mn19  1  0.69913521  0.67955247  0.34173329  1
  B  B20  1  0.99778016  0.00237097  0.00086824  1
  B  B21  1  0.99659238  0.00102936  0.50207567  1
  B  B22  1  0.99499426  0.32962100  0.41736788  1
  B  B23  1  0.00262388  0.33033839  0.91629938  1
  B  B24  1  0.00566551  0.66202298  0.58115217  1
  B  B25  1  0.00001958  0.66830353  0.08393148  1
  B  B26  1  0.49710461  0.50138596  0.75165053  1
  B  B27  1  0.49722865  0.50379297  0.25171117  1
  B  B28  1  0.50037836  0.16497553  0.83266304  1
  B  B29  1  0.50509400  0.16754518  0.33407279  1
  B  B30  1  0.50178354  0.83029868  0.16583520  1
  B  B31  1  0.49852968  0.82914971  0.66493860  1
  O  O32  1  0.03371831  0.42493575  0.96577490  1
  O  O33  1  0.01328585  0.42596775  0.46503749  1
  O  O34  1  0.01827497  0.76543344  0.13180434  1
  O  O35  1  0.02678614  0.75629209  0.62795678  1
  O  O36  1  0.13960394  0.60143807  0.55234207  1
  O  O37  1  0.13415831  0.60991229  0.05575200  1
  O  O38  1  0.12471210  0.26896373  0.38550889  1
  O  O39  1  0.13587492  0.27024807  0.88789403  1
  O  O40  1  0.14445217  0.95782569  0.96203925  1
  O  O41  1  0.14187795  0.95556430  0.49614454  1
  O  O42  1  0.34981569  0.13150784  0.32007456  1
  O  O43  1  0.34655363  0.12548189  0.81759448  1
  O  O44  1  0.34887326  0.79187608  0.14605139  1
  O  O45  1  0.34405890  0.79190710  0.64879092  1
  O  O46  1  0.35763490  0.45015325  0.74532038  1
  O  O47  1  0.35853773  0.45187856  0.20570305  1
  O  O48  1  0.48806831  0.59892568  0.79882557  1
  O  O49  1  0.48718534  0.60117180  0.30347383  1
  O  O50  1  0.51484746  0.92568939  0.70863066  1
  O  O51  1  0.52912524  0.92472666  0.20972050  1
  O  O52  1  0.52680108  0.26264691  0.37849999  1
  O  O53  1  0.51609756  0.26148569  0.87858815  1
  O  O54  1  0.63705677  0.10645530  0.30275653  1
  O  O55  1  0.63549283  0.10675778  0.80065733  1
  O  O56  1  0.63774666  0.77200149  0.13937643  1
  O  O57  1  0.62888870  0.76870831  0.63683067  1
  O  O58  1  0.64423526  0.45690764  0.71201494  1
  O  O59  1  0.64469781  0.45955865  0.24615146  1
  O  O60  1  0.85035317  0.62364379  0.56082192  1
  O  O61  1  0.84616079  0.63103525  0.06588568  1
  O  O62  1  0.84120569  0.29240532  0.39984703  1
  O  O63  1  0.84786222  0.29441255  0.89489863  1
  O  O64  1  0.85794181  0.95097047  0.99208659  1
  O  O65  1  0.85538381  0.95119878  0.45658574  1
  O  O66  1  0.98967355  0.09885428  0.55393478  1
  O  O67  1  0.98835903  0.10001906  0.04959858  1
