# generated using pymatgen
data_LiFeP2O7
_symmetry_space_group_name_H-M   'P 1'
_cell_length_a   9.73147099
_cell_length_b   9.78538150
_cell_length_c   11.14188721
_cell_angle_alpha   90.06032861
_cell_angle_beta   101.85303080
_cell_angle_gamma   90.23802220
_symmetry_Int_Tables_number   1
_chemical_formula_structural   LiFeP2O7
_chemical_formula_sum   'Li8 Fe8 P16 O56'
_cell_volume   1038.36521623
_cell_formula_units_Z   8
loop_
 _symmetry_equiv_pos_site_id
 _symmetry_equiv_pos_as_xyz
  1  'x, y, z'
loop_
 _atom_site_type_symbol
 _atom_site_label
 _atom_site_symmetry_multiplicity
 _atom_site_fract_x
 _atom_site_fract_y
 _atom_site_fract_z
 _atom_site_occupancy
  Li  Li0  1  0.09441814  0.10602937  0.02821466  1
  Li  Li1  1  0.41890634  0.59975430  0.98067015  1
  Li  Li2  1  0.39391783  0.96382207  0.50295416  1
  Li  Li3  1  0.85075175  0.59149434  0.95159492  1
  Li  Li4  1  0.64716690  0.11216664  0.04557914  1
  Li  Li5  1  0.90692557  0.88987952  0.96922866  1
  Li  Li6  1  0.85630168  0.57679721  0.47815815  1
  Li  Li7  1  0.88185381  0.28210296  0.54454257  1
  Fe  Fe8  1  0.20272838  0.91484210  0.67269492  1
  Fe  Fe9  1  0.24907241  0.21181265  0.82542038  1
  Fe  Fe10  1  0.25602273  0.70453291  0.17811625  1
  Fe  Fe11  1  0.29256008  0.41514509  0.33602695  1
  Fe  Fe12  1  0.69867810  0.58458399  0.67139070  1
  Fe  Fe13  1  0.74093057  0.29423018  0.82467238  1
  Fe  Fe14  1  0.74380665  0.77480889  0.17455834  1
  Fe  Fe15  1  0.79187623  0.07023900  0.33282529  1
  P  P16  1  0.01671124  0.44994121  0.74960596  1
  P  P17  1  0.11765402  0.70792088  0.88545570  1
  P  P18  1  0.05859724  0.92002863  0.23325691  1
  P  P19  1  0.12408052  0.14054867  0.42536786  1
  P  P20  1  0.37192833  0.64316923  0.57195353  1
  P  P21  1  0.42856337  0.42273792  0.76287223  1
  P  P22  1  0.51842164  0.04886077  0.74771182  1
  P  P23  1  0.38590314  0.21443366  0.11823188  1
  P  P24  1  0.60854305  0.78782921  0.88192928  1
  P  P25  1  0.47423717  0.94566869  0.24557645  1
  P  P26  1  0.57299999  0.58465886  0.24424558  1
  P  P27  1  0.62397027  0.35659470  0.41871175  1
  P  P28  1  0.87321976  0.85824921  0.57366188  1
  P  P29  1  0.93466559  0.07784683  0.76233146  1
  P  P30  1  0.89125507  0.28441978  0.11942899  1
  P  P31  1  0.97855882  0.55223136  0.24253548  1
  O  O32  1  0.00196564  0.43103802  0.61439639  1
  O  O33  1  0.02890475  0.84799852  0.57135050  1
  O  O34  1  0.08627600  0.08560893  0.73541561  1
  O  O35  1  0.10646882  0.58664959  0.78608611  1
  O  O36  1  0.09650069  0.33952575  0.83378624  1
  O  O37  1  0.17735798  0.82767540  0.82460859  1
  O  O38  1  0.22170597  0.65793081  0.00286329  1
  O  O39  1  0.03602247  0.25313830  0.10594336  1
  O  O40  1  0.12015020  0.05817252  0.29903260  1
  O  O41  1  0.05978413  0.93495772  0.09922817  1
  O  O42  1  0.13172364  0.53399370  0.22020312  1
  O  O43  1  0.18248510  0.28084784  0.40324778  1
  O  O44  1  0.15833263  0.80401842  0.28755825  1
  O  O45  1  0.21402109  0.05641607  0.52676330  1
  O  O46  1  0.29084537  0.56913230  0.46031398  1
  O  O47  1  0.34138326  0.29799836  0.70578215  1
  O  O48  1  0.31869218  0.78707476  0.59493581  1
  O  O49  1  0.36787423  0.03232834  0.77847819  1
  O  O50  1  0.35971143  0.55519441  0.69194772  1
  O  O51  1  0.41969053  0.43364458  0.89512566  1
  O  O52  1  0.46510597  0.75072823  0.89551554  1
  O  O53  1  0.27860943  0.16885766  0.99814183  1
  O  O54  1  0.32333871  0.32767551  0.18460741  1
  O  O55  1  0.38911320  0.08494046  0.20996418  1
  O  O56  1  0.41767099  0.58652567  0.25957646  1
  O  O57  1  0.39619519  0.83850156  0.15398782  1
  O  O58  1  0.47282004  0.34701870  0.43245116  1
  O  O59  1  0.52083488  0.07293266  0.61706816  1
  O  O60  1  0.47589281  0.91727920  0.37620224  1
  O  O61  1  0.53043139  0.65287639  0.57429663  1
  O  O62  1  0.60527950  0.15046862  0.84358932  1
  O  O63  1  0.58467581  0.41737972  0.73977039  1
  O  O64  1  0.60225625  0.90703507  0.78323057  1
  O  O65  1  0.69121064  0.67318946  0.83103048  1
  O  O66  1  0.70968759  0.84474897  0.00166107  1
  O  O67  1  0.52839887  0.23771481  0.09417287  1
  O  O68  1  0.59012402  0.60664331  0.11231845  1
  O  O69  1  0.62893228  0.43747386  0.29219429  1
  O  O70  1  0.62688553  0.96459125  0.21546680  1
  O  O71  1  0.69436375  0.21957744  0.40395142  1
  O  O72  1  0.67493354  0.69143924  0.31733070  1
  O  O73  1  0.71895448  0.43929166  0.52246073  1
  O  O74  1  0.78808165  0.93296725  0.46423667  1
  O  O75  1  0.84293651  0.20136128  0.70740614  1
  O  O76  1  0.81590943  0.71537807  0.59671084  1
  O  O77  1  0.86691152  0.47154414  0.78601986  1
  O  O78  1  0.93081338  0.06390351  0.89591517  1
  O  O79  1  0.86163378  0.94457585  0.69520691  1
  O  O80  1  0.97332265  0.72972683  0.90931361  1
  O  O81  1  0.79633105  0.33654693  0.99561401  1
  O  O82  1  0.81201499  0.16898969  0.17274514  1
  O  O83  1  0.89477535  0.64778128  0.14005387  1
  O  O84  1  0.89667567  0.40773537  0.21562870  1
  O  O85  1  0.90556873  0.90554725  0.25798880  1
  O  O86  1  0.96887553  0.15288160  0.43713776  1
  O  O87  1  0.96917540  0.59172633  0.36869283  1
