# generated using pymatgen
data_Li2Mn3(BO3)3
_symmetry_space_group_name_H-M   'P 1'
_cell_length_a   6.34776911
_cell_length_b   14.31392754
_cell_length_c   8.89120439
_cell_angle_alpha   90.60872335
_cell_angle_beta   110.91416971
_cell_angle_gamma   90.00000000
_symmetry_Int_Tables_number   1
_chemical_formula_structural   Li2Mn3(BO3)3
_chemical_formula_sum   'Li8 Mn12 B12 O36'
_cell_volume   754.59401028
_cell_formula_units_Z   4
loop_
 _symmetry_equiv_pos_site_id
 _symmetry_equiv_pos_as_xyz
  1  'x, y, z'
loop_
 _atom_site_type_symbol
 _atom_site_label
 _atom_site_symmetry_multiplicity
 _atom_site_fract_x
 _atom_site_fract_y
 _atom_site_fract_z
 _atom_site_occupancy
  Li  Li0  1  0.16947284  0.85900541  0.83894668  1
  Li  Li1  1  0.18559697  0.14925696  0.87119494  1
  Li  Li2  1  0.64587085  0.48732999  0.79174070  1
  Li  Li3  1  0.66952297  0.85992391  0.83904694  1
  Li  Li4  1  0.41999972  0.36005661  0.34000044  1
  Li  Li5  1  0.89435548  0.99074860  0.28870996  1
  Li  Li6  1  0.91898179  0.35912643  0.33796259  1
  Li  Li7  1  0.93530139  0.64952697  0.37060279  1
  Mn  Mn8  1  0.34313981  0.67527780  0.68726936  1
  Mn  Mn9  1  0.34188221  0.31423076  0.68223750  1
  Mn  Mn10  1  0.09364933  0.17581867  0.18658076  1
  Mn  Mn11  1  0.09531063  0.81486313  0.18298715  1
  Mn  Mn12  1  0.07173464  0.51061828  0.13260046  1
  Mn  Mn13  1  0.32057422  0.01007800  0.63303182  1
  Mn  Mn14  1  0.81245860  0.01007800  0.63303182  1
  Mn  Mn15  1  0.56086482  0.51061828  0.13260046  1
  Mn  Mn16  1  0.58767651  0.81486313  0.18298715  1
  Mn  Mn17  1  0.59293244  0.17581867  0.18658076  1
  Mn  Mn18  1  0.84035528  0.31423076  0.68223750  1
  Mn  Mn19  1  0.84412955  0.67527780  0.68726936  1
  B  B20  1  0.24689191  0.67113567  0.99378282  1
  B  B21  1  0.00050742  0.83582227  0.50101583  1
  B  B22  1  0.00031012  0.16790011  0.50061924  1
  B  B23  1  0.24769062  0.49675187  0.49720830  1
  B  B24  1  0.49785640  0.99682791  0.99638959  1
  B  B25  1  0.25309957  0.33360919  0.00619913  1
  B  B26  1  0.49680382  0.16957457  0.49360664  1
  B  B27  1  0.50468360  0.83226733  0.50936621  1
  B  B28  1  0.99853319  0.99682791  0.99638959  1
  B  B29  1  0.74951768  0.49675187  0.49720830  1
  B  B30  1  0.75211674  0.33584917  0.00423348  1
  B  B31  1  0.75072397  0.66711982  0.00144795  1
  O  O32  1  0.01075215  0.09254798  0.98868737  1
  O  O33  1  0.01039026  0.26458033  0.52078153  1
  O  O34  1  0.00647896  0.93292211  0.51295792  1
  O  O35  1  0.06839684  0.11083712  0.63679268  1
  O  O36  1  0.06820268  0.78083245  0.63640537  1
  O  O37  1  0.16918649  0.63553163  0.83837297  1
  O  O38  1  0.17598113  0.29417720  0.85196226  1
  O  O39  1  0.05031259  0.95330117  0.14279484  1
  O  O40  1  0.22682868  0.59252515  0.48973997  1
  O  O41  1  0.47793522  0.09254798  0.98868737  1
  O  O42  1  0.42285221  0.94306290  0.85449461  1
  O  O43  1  0.17512624  0.44339488  0.35476002  1
  O  O44  1  0.34007666  0.45325727  0.64367753  1
  O  O45  1  0.26045276  0.76795154  0.02090652  1
  O  O46  1  0.31178428  0.61118571  0.12356856  1
  O  O47  1  0.31898010  0.27491867  0.13796019  1
  O  O48  1  0.56807397  0.76891212  0.63614893  1
  O  O49  1  0.26657031  0.42883079  0.03314161  1
  O  O50  1  0.41973316  0.13259238  0.33946733  1
  O  O51  1  0.42554019  0.80373993  0.35108139  1
  O  O52  1  0.50965113  0.26638461  0.51930326  1
  O  O53  1  0.67499424  0.62488653  0.84998848  1
  O  O54  1  0.52524164  0.92628921  0.55048327  1
  O  O55  1  0.56216615  0.11025877  0.62433131  1
  O  O56  1  0.67372044  0.30372241  0.84744089  1
  O  O57  1  0.80360086  0.45325727  0.64367753  1
  O  O58  1  0.67963378  0.44339488  0.35476002  1
  O  O59  1  0.93164340  0.94306290  0.85449461  1
  O  O60  1  0.76291129  0.59252515  0.48973997  1
  O  O61  1  0.59248224  0.95330117  0.14279484  1
  O  O62  1  0.76428288  0.43273861  0.02856475  1
  O  O63  1  0.81771032  0.27645126  0.13542165  1
  O  O64  1  0.81944885  0.61093793  0.13889771  1
  O  O65  1  0.92383937  0.12756387  0.34767873  1
  O  O66  1  0.75978086  0.76369239  0.01956172  1
  O  O67  1  0.92456857  0.79307586  0.34913714  1
