# generated using pymatgen
data_Li6Mn2B4SO16
_symmetry_space_group_name_H-M   'P 1'
_cell_length_a   9.37921899
_cell_length_b   9.37921835
_cell_length_c   9.37921899
_cell_angle_alpha   59.99999874
_cell_angle_beta   120.00000020
_cell_angle_gamma   89.99999931
_symmetry_Int_Tables_number   1
_chemical_formula_structural   Li6Mn2B4SO16
_chemical_formula_sum   'Li12 Mn4 B8 S2 O32'
_cell_volume   583.42493737
_cell_formula_units_Z   2
loop_
 _symmetry_equiv_pos_site_id
 _symmetry_equiv_pos_as_xyz
  1  'x, y, z'
loop_
 _atom_site_type_symbol
 _atom_site_label
 _atom_site_symmetry_multiplicity
 _atom_site_fract_x
 _atom_site_fract_y
 _atom_site_fract_z
 _atom_site_occupancy
  Li  Li0  1  0.09500707  0.65499293  0.19001414  1
  Li  Li1  1  0.09500707  0.09500707  0.75000000  1
  Li  Li2  1  0.34500707  0.34500707  0.25000000  1
  Li  Li3  1  0.65499293  0.09500707  0.30998586  1
  Li  Li4  1  0.90499293  0.34500707  0.25000000  1
  Li  Li5  1  0.34500707  0.90499293  0.25000000  1
  Li  Li6  1  0.09500707  0.65499293  0.75000000  1
  Li  Li7  1  0.65499293  0.09500707  0.75000000  1
  Li  Li8  1  0.34500707  0.90499293  0.69001414  1
  Li  Li9  1  0.90499293  0.34500707  0.80998586  1
  Li  Li10  1  0.90499293  0.90499293  0.25000000  1
  Li  Li11  1  0.65499293  0.65499293  0.75000000  1
  Mn  Mn12  1  0.50000000  0.00000000  0.00000000  1
  Mn  Mn13  1  0.00000000  0.50000000  0.50000000  1
  Mn  Mn14  1  0.50000000  0.50000000  0.00000000  1
  Mn  Mn15  1  0.50000000  0.50000000  0.50000000  1
  B  B16  1  0.35006553  0.71664449  0.06671002  1
  B  B17  1  0.28335551  0.28335551  0.56671002  1
  B  B18  1  0.28335551  0.28335551  0.93328998  1
  B  B19  1  0.71664449  0.35006553  0.43328998  1
  B  B20  1  0.28335551  0.64993447  0.56671002  1
  B  B21  1  0.71664449  0.71664449  0.06671002  1
  B  B22  1  0.64993447  0.28335551  0.93328998  1
  B  B23  1  0.71664449  0.71664449  0.43328998  1
  S  S24  1  0.12500000  0.12500000  0.25000000  1
  S  S25  1  0.87500000  0.87500000  0.75000000  1
  O  O26  1  0.05979093  0.05979093  0.11958087  1
  O  O27  1  0.05979093  0.05979093  0.38041913  1
  O  O28  1  0.05979093  0.32062820  0.11958087  1
  O  O29  1  0.42003676  0.12758425  0.07299656  1
  O  O30  1  0.32062820  0.05979093  0.38041913  1
  O  O31  1  0.12758425  0.42003676  0.42700344  1
  O  O32  1  0.65295880  0.29941919  0.07299656  1
  O  O33  1  0.29941919  0.12758425  0.71945595  1
  O  O34  1  0.34704120  0.57996324  0.21945595  1
  O  O35  1  0.57996324  0.34704120  0.28054405  1
  O  O36  1  0.12758425  0.29941919  0.78054405  1
  O  O37  1  0.42003676  0.29941919  0.54762201  1
  O  O38  1  0.34704120  0.87241575  0.04762201  1
  O  O39  1  0.70058081  0.57996324  0.04762201  1
  O  O40  1  0.12758425  0.65295880  0.54762201  1
  O  O41  1  0.29941919  0.65295880  0.42700344  1
  O  O42  1  0.70058081  0.34704120  0.57299656  1
  O  O43  1  0.29941919  0.42003676  0.95237799  1
  O  O44  1  0.87241575  0.34704120  0.45237799  1
  O  O45  1  0.65295880  0.12758425  0.95237799  1
  O  O46  1  0.57996324  0.70058081  0.45237799  1
  O  O47  1  0.87241575  0.70058081  0.21945595  1
  O  O48  1  0.42003676  0.65295880  0.71945595  1
  O  O49  1  0.65295880  0.42003676  0.78054405  1
  O  O50  1  0.70058081  0.87241575  0.28054405  1
  O  O51  1  0.34704120  0.70058081  0.92700344  1
  O  O52  1  0.87241575  0.57996324  0.57299656  1
  O  O53  1  0.67937180  0.94020907  0.61958087  1
  O  O54  1  0.57996324  0.87241575  0.92700344  1
  O  O55  1  0.94020907  0.67937180  0.88041913  1
  O  O56  1  0.94020907  0.94020907  0.61958087  1
  O  O57  1  0.94020907  0.94020907  0.88041913  1
