# generated using pymatgen
data_Li2Mn3(BO3)3
_symmetry_space_group_name_H-M   'P 1'
_cell_length_a   6.33879347
_cell_length_b   14.40464146
_cell_length_c   8.82437180
_cell_angle_alpha   89.94873186
_cell_angle_beta   111.04886368
_cell_angle_gamma   90.00000000
_symmetry_Int_Tables_number   1
_chemical_formula_structural   Li2Mn3(BO3)3
_chemical_formula_sum   'Li8 Mn12 B12 O36'
_cell_volume   751.97263075
_cell_formula_units_Z   4
loop_
 _symmetry_equiv_pos_site_id
 _symmetry_equiv_pos_as_xyz
  1  'x, y, z'
loop_
 _atom_site_type_symbol
 _atom_site_label
 _atom_site_symmetry_multiplicity
 _atom_site_fract_x
 _atom_site_fract_y
 _atom_site_fract_z
 _atom_site_occupancy
  Li  Li0  1  0.14484241  0.49038020  0.78968483  1
  Li  Li1  1  0.17104666  0.86085680  0.84209232  1
  Li  Li2  1  0.39620325  0.98577418  0.29240650  1
  Li  Li3  1  0.68568171  0.15134176  0.87136242  1
  Li  Li4  1  0.42093273  0.36140838  0.34186546  1
  Li  Li5  1  0.64692272  0.48937245  0.79384544  1
  Li  Li6  1  0.89376892  0.99221905  0.28753685  1
  Li  Li7  1  0.93556465  0.64878606  0.37113030  1
  Mn  Mn8  1  0.32953637  0.31087283  0.66908863  1
  Mn  Mn9  1  0.31981653  0.00546478  0.64236453  1
  Mn  Mn10  1  0.09358801  0.18379995  0.18745933  1
  Mn  Mn11  1  0.08311907  0.81094324  0.16928932  1
  Mn  Mn12  1  0.07288518  0.50565833  0.14321812  1
  Mn  Mn13  1  0.34663723  0.68406159  0.68652664  1
  Mn  Mn14  1  0.83988941  0.68406159  0.68652664  1
  Mn  Mn15  1  0.57033394  0.50565833  0.14321812  1
  Mn  Mn16  1  0.58616925  0.81094324  0.16928932  1
  Mn  Mn17  1  0.59387132  0.18379995  0.18745933  1
  Mn  Mn18  1  0.82254800  0.00546478  0.64236453  1
  Mn  Mn19  1  0.83955226  0.31087283  0.66908863  1
  B  B20  1  0.24952357  0.33705666  0.99904814  1
  B  B21  1  0.24501446  0.66590104  0.99002892  1
  B  B22  1  0.00223659  0.00024369  0.00537546  1
  B  B23  1  0.25384759  0.50017731  0.50733811  1
  B  B24  1  0.49806721  0.16614655  0.49613343  1
  B  B25  1  0.49741628  0.83594553  0.49483256  1
  B  B26  1  0.74640602  0.33296547  0.99281204  1
  B  B27  1  0.75349052  0.50017731  0.50733811  1
  B  B28  1  0.50313886  0.00024369  0.00537546  1
  B  B29  1  0.75198174  0.66363187  0.00396249  1
  B  B30  1  0.00001543  0.16175870  0.50002986  1
  B  B31  1  0.99886648  0.83478356  0.49773196  1
  O  O32  1  0.06939281  0.78214734  0.63878563  1
  O  O33  1  0.01221184  0.25686031  0.52442368  1
  O  O34  1  0.00343053  0.93041841  0.50686206  1
  O  O35  1  0.06618544  0.10247849  0.63237089  1
  O  O36  1  0.17158012  0.30339695  0.84316023  1
  O  O37  1  0.16604227  0.62934316  0.83208453  1
  O  O38  1  0.23047413  0.59545122  0.49906345  1
  O  O39  1  0.41536118  0.94881247  0.86557800  1
  O  O40  1  0.07728663  0.95569798  0.15620818  1
  O  O41  1  0.33182831  0.45599357  0.65851617  1
  O  O42  1  0.20031829  0.44890053  0.36757567  1
  O  O43  1  0.51738207  0.09535361  0.99782127  1
  O  O44  1  0.42095840  0.12650916  0.34191580  1
  O  O45  1  0.31075140  0.60827651  0.12150281  1
  O  O46  1  0.41631407  0.81070380  0.33262915  1
  O  O47  1  0.50593550  0.26268910  0.51187100  1
  O  O48  1  0.51480585  0.93067640  0.52961269  1
  O  O49  1  0.55815117  0.77018763  0.61630233  1
  O  O50  1  0.56713685  0.11106265  0.63427369  1
  O  O51  1  0.67419321  0.62652548  0.84838742  1
  O  O52  1  0.26068908  0.43267003  0.02137916  1
  O  O53  1  0.25515560  0.76244465  0.01031020  1
  O  O54  1  0.31758051  0.27994924  0.13516201  1
  O  O55  1  0.66802587  0.29549209  0.83605274  1
  O  O56  1  0.98043920  0.09535361  0.99782127  1
  O  O57  1  0.66725738  0.44890053  0.36757567  1
  O  O58  1  0.82668786  0.45599357  0.65851617  1
  O  O59  1  0.57892055  0.95569798  0.15620818  1
  O  O60  1  0.95021682  0.94881247  0.86557800  1
  O  O61  1  0.76858932  0.59545122  0.49906345  1
  O  O62  1  0.81004391  0.27092210  0.12008882  1
  O  O63  1  0.75752744  0.42800461  0.01505389  1
  O  O64  1  0.76270373  0.75893432  0.02540646  1
  O  O65  1  0.82020793  0.60575015  0.14041585  1
  O  O66  1  0.92118199  0.12689827  0.34236297  1
  O  O67  1  0.92396335  0.79013571  0.34792671  1
