# generated using pymatgen
data_LiMnPO4
_symmetry_space_group_name_H-M   'P 1'
_cell_length_a   7.66723655
_cell_length_b   13.95145542
_cell_length_c   5.89877219
_cell_angle_alpha   90.00000000
_cell_angle_beta   90.00000000
_cell_angle_gamma   90.00000000
_symmetry_Int_Tables_number   1
_chemical_formula_structural   LiMnPO4
_chemical_formula_sum   'Li8 Mn8 P8 O32'
_cell_volume   630.98640490
_cell_formula_units_Z   8
loop_
 _symmetry_equiv_pos_site_id
 _symmetry_equiv_pos_as_xyz
  1  'x, y, z'
loop_
 _atom_site_type_symbol
 _atom_site_label
 _atom_site_symmetry_multiplicity
 _atom_site_fract_x
 _atom_site_fract_y
 _atom_site_fract_z
 _atom_site_occupancy
  Li  Li0  1  0.17015526  0.52721429  0.41854559  1
  Li  Li1  1  0.17015526  0.97278571  0.91854559  1
  Li  Li2  1  0.32984474  0.02721429  0.41854559  1
  Li  Li3  1  0.32984474  0.47278571  0.91854559  1
  Li  Li4  1  0.67015526  0.52721429  0.08145441  1
  Li  Li5  1  0.67015526  0.97278571  0.58145441  1
  Li  Li6  1  0.82984474  0.02721429  0.08145441  1
  Li  Li7  1  0.82984474  0.47278571  0.58145441  1
  Mn  Mn8  1  0.18075121  0.20769346  0.14802791  1
  Mn  Mn9  1  0.18075121  0.29230654  0.64802791  1
  Mn  Mn10  1  0.31924879  0.79230654  0.64802791  1
  Mn  Mn11  1  0.31924879  0.70769346  0.14802791  1
  Mn  Mn12  1  0.68075121  0.20769346  0.35197209  1
  Mn  Mn13  1  0.68075121  0.29230654  0.85197209  1
  Mn  Mn14  1  0.81924879  0.70769346  0.35197209  1
  Mn  Mn15  1  0.81924879  0.79230654  0.85197209  1
  P  P16  1  0.03799423  0.62582377  0.89213484  1
  P  P17  1  0.03799423  0.87417623  0.39213484  1
  P  P18  1  0.46200577  0.12582377  0.89213484  1
  P  P19  1  0.46200577  0.37417623  0.39213484  1
  P  P20  1  0.53799423  0.62582377  0.60786516  1
  P  P21  1  0.53799423  0.87417623  0.10786516  1
  P  P22  1  0.96200577  0.12582377  0.60786516  1
  P  P23  1  0.96200577  0.37417623  0.10786516  1
  O  O24  1  0.98762341  0.06864482  0.82510962  1
  O  O25  1  0.98762341  0.43135518  0.32510962  1
  O  O26  1  0.09915483  0.76802471  0.33849739  1
  O  O27  1  0.09915483  0.73197529  0.83849739  1
  O  O28  1  0.13887641  0.14264985  0.47872183  1
  O  O29  1  0.13887641  0.35735015  0.97872183  1
  O  O30  1  0.17724532  0.58222219  0.05501324  1
  O  O31  1  0.17724532  0.91777781  0.55501324  1
  O  O32  1  0.32275468  0.08222219  0.05501324  1
  O  O33  1  0.32275468  0.41777781  0.55501324  1
  O  O34  1  0.36112359  0.64264985  0.47872183  1
  O  O35  1  0.36112359  0.85735015  0.97872183  1
  O  O36  1  0.40084517  0.23197529  0.83849739  1
  O  O37  1  0.40084517  0.26802471  0.33849739  1
  O  O38  1  0.51237659  0.56864482  0.82510962  1
  O  O39  1  0.51237659  0.93135518  0.32510962  1
  O  O40  1  0.48762341  0.43135518  0.17489038  1
  O  O41  1  0.48762341  0.06864482  0.67489038  1
  O  O42  1  0.59915483  0.73197529  0.66150261  1
  O  O43  1  0.59915483  0.76802471  0.16150261  1
  O  O44  1  0.63887641  0.14264985  0.02127817  1
  O  O45  1  0.63887641  0.35735015  0.52127817  1
  O  O46  1  0.67724532  0.58222219  0.44498676  1
  O  O47  1  0.67724532  0.91777781  0.94498676  1
  O  O48  1  0.82275468  0.08222219  0.44498676  1
  O  O49  1  0.82275468  0.41777781  0.94498676  1
  O  O50  1  0.86112359  0.64264985  0.02127817  1
  O  O51  1  0.86112359  0.85735015  0.52127817  1
  O  O52  1  0.90084517  0.23197529  0.66150261  1
  O  O53  1  0.90084517  0.26802471  0.16150261  1
  O  O54  1  0.01237659  0.56864482  0.67489038  1
  O  O55  1  0.01237659  0.93135518  0.17489038  1
