# generated using pymatgen
data_Mn3(OF2)2
_symmetry_space_group_name_H-M   'P 1'
_cell_length_a   10.87834574
_cell_length_b   6.82950406
_cell_length_c   3.13642533
_cell_angle_alpha   90.00000000
_cell_angle_beta   90.00000000
_cell_angle_gamma   108.31150831
_symmetry_Int_Tables_number   1
_chemical_formula_structural   Mn3(OF2)2
_chemical_formula_sum   'Mn6 O4 F8'
_cell_volume   221.21725605
_cell_formula_units_Z   2
loop_
 _symmetry_equiv_pos_site_id
 _symmetry_equiv_pos_as_xyz
  1  'x, y, z'
loop_
 _atom_site_type_symbol
 _atom_site_label
 _atom_site_symmetry_multiplicity
 _atom_site_fract_x
 _atom_site_fract_y
 _atom_site_fract_z
 _atom_site_occupancy
  Mn  Mn0  1  0.01874877  0.00944941  0.00000000  1
  Mn  Mn1  1  0.32512668  0.16252876  0.50000000  1
  Mn  Mn2  1  0.00823784  0.50415760  0.50000000  1
  Mn  Mn3  1  0.66665624  0.33333129  0.00000000  1
  Mn  Mn4  1  0.31462418  0.65722303  0.00000000  1
  Mn  Mn5  1  0.66674148  0.83336897  0.50000000  1
  O  O6  1  0.13651329  0.06840882  0.50000000  1
  O  O7  1  0.66667745  0.02313163  0.00000000  1
  O  O8  1  0.19686506  0.59825113  0.50000000  1
  O  O9  1  0.66662976  0.64351893  0.00000000  1
  F  F10  1  0.99739335  0.30310429  0.00000000  1
  F  F11  1  0.33592196  0.36356203  0.00000000  1
  F  F12  1  0.99738423  0.69437992  0.00000000  1
  F  F13  1  0.52622117  0.26311347  0.50000000  1
  F  F14  1  0.44468735  0.72233271  0.50000000  1
  F  F15  1  0.80707073  0.40354961  0.50000000  1
  F  F16  1  0.33588374  0.97225362  0.00000000  1
  F  F17  1  0.88861672  0.94433579  0.50000000  1
