# generated using pymatgen
data_LiMnPO4
_symmetry_space_group_name_H-M   'P 1'
_cell_length_a   5.29314337
_cell_length_b   10.21426218
_cell_length_c   5.96935287
_cell_angle_alpha   90.00000000
_cell_angle_beta   90.00000000
_cell_angle_gamma   95.46567974
_symmetry_Int_Tables_number   1
_chemical_formula_structural   LiMnPO4
_chemical_formula_sum   'Li4 Mn4 P4 O16'
_cell_volume   321.26902748
_cell_formula_units_Z   4
loop_
 _symmetry_equiv_pos_site_id
 _symmetry_equiv_pos_as_xyz
  1  'x, y, z'
loop_
 _atom_site_type_symbol
 _atom_site_label
 _atom_site_symmetry_multiplicity
 _atom_site_fract_x
 _atom_site_fract_y
 _atom_site_fract_z
 _atom_site_occupancy
  Li  Li0  1  0.21856521  0.96395826  0.67355636  1
  Li  Li1  1  0.28143479  0.53604174  0.17355636  1
  Li  Li2  1  0.71856521  0.46395826  0.82644364  1
  Li  Li3  1  0.78143479  0.03604174  0.32644364  1
  Mn  Mn4  1  0.18297266  0.66397229  0.62287253  1
  Mn  Mn5  1  0.31702734  0.83602771  0.12287253  1
  Mn  Mn6  1  0.68297266  0.16397229  0.87712747  1
  Mn  Mn7  1  0.81702734  0.33602771  0.37712747  1
  P  P8  1  0.22886384  0.38655765  0.69240620  1
  P  P9  1  0.27113616  0.11344135  0.19240620  1
  P  P10  1  0.72886384  0.88655765  0.80759380  1
  P  P11  1  0.77113616  0.61344235  0.30759380  1
  O  O12  1  0.96230878  0.80966582  0.77149985  1
  O  O13  1  0.03297756  0.69723888  0.27588983  1
  O  O14  1  0.22216501  0.44273395  0.45086818  1
  O  O15  1  0.24485544  0.50733380  0.85461599  1
  O  O16  1  0.25514456  0.99266620  0.35461599  1
  O  O17  1  0.27783499  0.05726605  0.95086818  1
  O  O18  1  0.46230878  0.30966582  0.72850015  1
  O  O19  1  0.53297756  0.19723888  0.22411017  1
  O  O20  1  0.46702244  0.80276112  0.77588983  1
  O  O21  1  0.53769122  0.69033418  0.27149985  1
  O  O22  1  0.72216501  0.94273395  0.04913182  1
  O  O23  1  0.74485544  0.00733380  0.64538401  1
  O  O24  1  0.75514456  0.49266620  0.14538401  1
  O  O25  1  0.77783499  0.55726605  0.54913182  1
  O  O26  1  0.96702244  0.30276112  0.72411017  1
  O  O27  1  0.03769122  0.19033418  0.22850015  1
