# generated using pymatgen
data_LiMnP3HO10
_symmetry_space_group_name_H-M   'P 1'
_cell_length_a   7.30471214
_cell_length_b   7.30471214
_cell_length_c   9.44800818
_cell_angle_alpha   73.53204827
_cell_angle_beta   106.46795173
_cell_angle_gamma   112.55715485
_symmetry_Int_Tables_number   1
_chemical_formula_structural   LiMnP3HO10
_chemical_formula_sum   'Li2 Mn2 P6 H2 O20'
_cell_volume   437.69213535
_cell_formula_units_Z   2
loop_
 _symmetry_equiv_pos_site_id
 _symmetry_equiv_pos_as_xyz
  1  'x, y, z'
loop_
 _atom_site_type_symbol
 _atom_site_label
 _atom_site_symmetry_multiplicity
 _atom_site_fract_x
 _atom_site_fract_y
 _atom_site_fract_z
 _atom_site_occupancy
  Li  Li0  1  0.56560850  0.56560850  0.75000000  1
  Li  Li1  1  0.43439150  0.43439150  0.25000000  1
  Mn  Mn2  1  0.00000000  0.50000000  0.50000000  1
  Mn  Mn3  1  0.50000000  0.00000000  0.00000000  1
  P  P4  1  0.13877933  0.72310227  0.79428340  1
  P  P5  1  0.27689773  0.86122067  0.29428340  1
  P  P6  1  0.13725819  0.13725819  0.75000000  1
  P  P7  1  0.86274181  0.86274181  0.25000000  1
  P  P8  1  0.72310227  0.13877933  0.70571660  1
  P  P9  1  0.86122067  0.27689773  0.20571660  1
  H  H10  1  0.00000000  0.50000000  0.00000000  1
  H  H11  1  0.50000000  0.00000000  0.50000000  1
  O  O12  1  0.09881570  0.93054879  0.70012860  1
  O  O13  1  0.06945121  0.90118430  0.20012860  1
  O  O14  1  0.34663552  0.77229904  0.90077090  1
  O  O15  1  0.15231281  0.62537832  0.67741163  1
  O  O16  1  0.60719400  0.96160526  0.62179630  1
  O  O17  1  0.22770096  0.65336448  0.40077090  1
  O  O18  1  0.37462168  0.84768719  0.17741163  1
  O  O19  1  0.16764359  0.29760609  0.61010289  1
  O  O20  1  0.03839474  0.39280600  0.12179630  1
  O  O21  1  0.29760609  0.16764359  0.88989711  1
  O  O22  1  0.70239391  0.83235641  0.11010289  1
  O  O23  1  0.96160526  0.60719400  0.87820370  1
  O  O24  1  0.83235641  0.70239391  0.38989711  1
  O  O25  1  0.62537832  0.15231281  0.82258837  1
  O  O26  1  0.77229904  0.34663552  0.59922910  1
  O  O27  1  0.39280600  0.03839474  0.37820370  1
  O  O28  1  0.84768719  0.37462168  0.32258837  1
  O  O29  1  0.65336448  0.22770096  0.09922910  1
  O  O30  1  0.93054879  0.09881570  0.79987140  1
  O  O31  1  0.90118430  0.06945121  0.29987140  1
