# generated using pymatgen
data_Ti7Cr12O48
_symmetry_space_group_name_H-M   'P 1'
_cell_length_a   5.04251937
_cell_length_b   10.48460046
_cell_length_c   17.45707477
_cell_angle_alpha   90.18952771
_cell_angle_beta   91.07304463
_cell_angle_gamma   90.16844570
_symmetry_Int_Tables_number   1
_chemical_formula_structural   Ti7Cr12O48
_chemical_formula_sum   'Ti7 Cr12 O48'
_cell_volume   922.76355073
_cell_formula_units_Z   1
loop_
 _symmetry_equiv_pos_site_id
 _symmetry_equiv_pos_as_xyz
  1  'x, y, z'
loop_
 _atom_site_type_symbol
 _atom_site_label
 _atom_site_symmetry_multiplicity
 _atom_site_fract_x
 _atom_site_fract_y
 _atom_site_fract_z
 _atom_site_occupancy
  Ti  Ti0  1  0.09389925  0.25879984  0.25202371  1
  Ti  Ti1  1  0.25718186  0.08018058  0.97312300  1
  Ti  Ti2  1  0.28550604  0.92993780  0.47642738  1
  Ti  Ti3  1  0.71517286  0.43262401  0.52380140  1
  Ti  Ti4  1  0.73655920  0.57266993  0.01943071  1
  Ti  Ti5  1  0.74437719  0.91544839  0.03536216  1
  Ti  Ti6  1  0.92525786  0.74729059  0.75206324  1
  Cr  Cr7  1  0.20256689  0.75570351  0.94317482  1
  Cr  Cr8  1  0.20555972  0.02200153  0.65704758  1
  Cr  Cr9  1  0.21037889  0.47473540  0.65332785  1
  Cr  Cr10  1  0.26862162  0.52728893  0.15417648  1
  Cr  Cr11  1  0.27103429  0.97308146  0.16044756  1
  Cr  Cr12  1  0.26251615  0.25204492  0.44546762  1
  Cr  Cr13  1  0.73522197  0.75157867  0.55399045  1
  Cr  Cr14  1  0.72100529  0.02514836  0.84681978  1
  Cr  Cr15  1  0.73418570  0.47924423  0.84211398  1
  Cr  Cr16  1  0.79399885  0.52467051  0.34348060  1
  Cr  Cr17  1  0.78537746  0.97803798  0.34567709  1
  Cr  Cr18  1  0.78685882  0.24698816  0.05894925  1
  O  O19  1  0.06003387  0.22193619  0.99533644  1
  O  O20  1  0.04640093  0.60782402  0.36819485  1
  O  O21  1  0.05182237  0.90064789  0.38466959  1
  O  O22  1  0.12885389  0.62599323  0.20893870  1
  O  O23  1  0.09127281  0.87374046  0.20407814  1
  O  O24  1  0.11760700  0.11668456  0.46674019  1
  O  O25  1  0.05382995  0.36636959  0.46756573  1
  O  O26  1  0.07823426  0.99721211  0.06886364  1
  O  O27  1  0.06231178  0.50638912  0.07899913  1
  O  O28  1  0.12038493  0.75254333  0.84533063  1
  O  O29  1  0.12568152  0.61324053  0.69771576  1
  O  O30  1  0.10946114  0.88195907  0.70316964  1
  O  O31  1  0.31033465  0.11739538  0.20405409  1
  O  O32  1  0.30490245  0.38195016  0.20119460  1
  O  O33  1  0.31719070  0.25518274  0.35051823  1
  O  O34  1  0.38127821  0.98885709  0.57233051  1
  O  O35  1  0.42863075  0.50067071  0.58001494  1
  O  O36  1  0.41695797  0.89435063  0.96872555  1
  O  O37  1  0.43898823  0.63860683  0.97329651  1
  O  O38  1  0.40377099  0.10265916  0.71123221  1
  O  O39  1  0.35896954  0.38148373  0.71025596  1
  O  O40  1  0.44036921  0.10250831  0.87944914  1
  O  O41  1  0.46463959  0.40878204  0.86354886  1
  O  O42  1  0.45447906  0.76947151  0.49709068  1
  O  O43  1  0.54216165  0.27019644  0.50164776  1
  O  O44  1  0.55663718  0.58776526  0.12051298  1
  O  O45  1  0.56707612  0.89454998  0.12051355  1
  O  O46  1  0.60037355  0.60795595  0.29074299  1
  O  O47  1  0.63338595  0.88864844  0.28597247  1
  O  O48  1  0.58216008  0.10650143  0.03327533  1
  O  O49  1  0.63126692  0.37692248  0.02904658  1
  O  O50  1  0.56711631  0.00288349  0.41921240  1
  O  O51  1  0.61768923  0.48833550  0.42654972  1
  O  O52  1  0.67927990  0.75469618  0.64715398  1
  O  O53  1  0.68947325  0.61945616  0.78935076  1
  O  O54  1  0.67979367  0.88675455  0.80063616  1
  O  O55  1  0.87581188  0.11479043  0.30244197  1
  O  O56  1  0.88253535  0.38209138  0.29530030  1
  O  O57  1  0.87882854  0.24125467  0.15176994  1
  O  O58  1  0.89814848  0.52241319  0.92913469  1
  O  O59  1  0.91961801  0.98985452  0.92782011  1
  O  O60  1  0.87933789  0.61439344  0.53300999  1
  O  O61  1  0.94562310  0.86566991  0.53191806  1
  O  O62  1  0.89204741  0.11921679  0.79717068  1
  O  O63  1  0.91722356  0.38363958  0.79526684  1
  O  O64  1  0.95632532  0.10764822  0.63356326  1
  O  O65  1  0.94244470  0.39777081  0.61431976  1
  O  O66  1  0.91877728  0.75126707  0.01200237  1
