# generated using pymatgen
data_SrU2I2O13
_symmetry_space_group_name_H-M   'P 1'
_cell_length_a   6.96360464
_cell_length_b   7.91854119
_cell_length_c   21.80150056
_cell_angle_alpha   99.26235441
_cell_angle_beta   90.00000000
_cell_angle_gamma   90.00000000
_symmetry_Int_Tables_number   1
_chemical_formula_structural   SrU2I2O13
_chemical_formula_sum   'Sr4 U8 I8 O52'
_cell_volume   1186.49514362
_cell_formula_units_Z   4
loop_
 _symmetry_equiv_pos_site_id
 _symmetry_equiv_pos_as_xyz
  1  'x, y, z'
loop_
 _atom_site_type_symbol
 _atom_site_label
 _atom_site_symmetry_multiplicity
 _atom_site_fract_x
 _atom_site_fract_y
 _atom_site_fract_z
 _atom_site_occupancy
  Sr  Sr0  1  0.62662090  0.13416769  0.63145494  1
  Sr  Sr1  1  0.12662090  0.86583231  0.86854506  1
  Sr  Sr2  1  0.37337910  0.86583231  0.36854506  1
  Sr  Sr3  1  0.87337910  0.13416769  0.13145494  1
  U  U4  1  0.82348057  0.61156482  0.62564477  1
  U  U5  1  0.32348057  0.38843518  0.87435523  1
  U  U6  1  0.17651943  0.38843518  0.37435523  1
  U  U7  1  0.67651943  0.61156482  0.12564477  1
  U  U8  1  0.80378095  0.47379376  0.77965052  1
  U  U9  1  0.30378095  0.52620624  0.72034948  1
  U  U10  1  0.19621905  0.52620624  0.22034948  1
  U  U11  1  0.69621905  0.47379376  0.27965052  1
  I  I12  1  0.81977978  0.83546082  0.47113233  1
  I  I13  1  0.31977978  0.16453918  0.02886767  1
  I  I14  1  0.18022022  0.16453918  0.52886767  1
  I  I15  1  0.68022022  0.83546082  0.97113233  1
  I  I16  1  0.32483590  0.70148274  0.55042384  1
  I  I17  1  0.82483590  0.29851726  0.94957616  1
  I  I18  1  0.67516410  0.29851726  0.44957616  1
  I  I19  1  0.17516410  0.70148274  0.05042384  1
  O  O20  1  0.91083272  0.68396771  0.52049733  1
  O  O21  1  0.41083272  0.31603229  0.97950267  1
  O  O22  1  0.08916728  0.31603229  0.47950267  1
  O  O23  1  0.58916728  0.68396771  0.02049733  1
  O  O24  1  0.56283253  0.78173844  0.46636961  1
  O  O25  1  0.06283253  0.21826156  0.03363039  1
  O  O26  1  0.43716747  0.21826156  0.53363039  1
  O  O27  1  0.93716747  0.78173844  0.96636961  1
  O  O28  1  0.81804024  0.02940939  0.53023765  1
  O  O29  1  0.31804024  0.97059061  0.96976235  1
  O  O30  1  0.18195976  0.97059061  0.46976235  1
  O  O31  1  0.68195976  0.02940939  0.03023765  1
  O  O32  1  0.18518653  0.61678788  0.61165981  1
  O  O33  1  0.68518653  0.38321212  0.88834019  1
  O  O34  1  0.81481347  0.38321212  0.38834019  1
  O  O35  1  0.31481347  0.61678788  0.11165981  1
  O  O36  1  0.54456825  0.59103974  0.56790669  1
  O  O37  1  0.04456825  0.40896026  0.93209331  1
  O  O38  1  0.45543175  0.40896026  0.43209331  1
  O  O39  1  0.95543175  0.59103974  0.06790669  1
  O  O40  1  0.35738863  0.91635548  0.59231590  1
  O  O41  1  0.85738863  0.08364452  0.90768410  1
  O  O42  1  0.64261137  0.08364452  0.40768410  1
  O  O43  1  0.14261137  0.91635548  0.09231590  1
  O  O44  1  0.84279489  0.37654288  0.59642987  1
  O  O45  1  0.34279489  0.62345712  0.90357013  1
  O  O46  1  0.15720511  0.62345712  0.40357013  1
  O  O47  1  0.65720511  0.37654288  0.09642987  1
  O  O48  1  0.78862219  0.84526191  0.64828737  1
  O  O49  1  0.28862219  0.15473809  0.85171263  1
  O  O50  1  0.21137781  0.15473809  0.35171263  1
  O  O51  1  0.71137781  0.84526191  0.14828737  1
  O  O52  1  0.61568730  0.55147227  0.69601333  1
  O  O53  1  0.11568730  0.44852773  0.80398667  1
  O  O54  1  0.38431270  0.44852773  0.30398667  1
  O  O55  1  0.88431270  0.55147227  0.19601333  1
  O  O56  1  0.80877569  0.25472292  0.73230490  1
  O  O57  1  0.30877569  0.74527708  0.76769510  1
  O  O58  1  0.19122431  0.74527708  0.26769510  1
  O  O59  1  0.69122431  0.25472292  0.23230490  1
  O  O60  1  0.80438817  0.69083993  0.82742658  1
  O  O61  1  0.30438817  0.30916007  0.67257342  1
  O  O62  1  0.19561183  0.30916007  0.17257342  1
  O  O63  1  0.69561183  0.69083993  0.32742658  1
  O  O64  1  0.98698990  0.57268840  0.70807229  1
  O  O65  1  0.48698990  0.42731160  0.79192771  1
  O  O66  1  0.01301010  0.42731160  0.29192771  1
  O  O67  1  0.51301010  0.57268840  0.20807229  1
  O  O68  1  0.51535356  0.02584541  0.73526181  1
  O  O69  1  0.01535356  0.97415459  0.76473819  1
  O  O70  1  0.48464644  0.97415459  0.26473819  1
  O  O71  1  0.98464644  0.02584541  0.23526181  1
