# generated using pymatgen
data_Li2V(PO4)2
_symmetry_space_group_name_H-M   'P 1'
_cell_length_a   6.87935837
_cell_length_b   8.94768021
_cell_length_c   10.85989165
_cell_angle_alpha   90.00000000
_cell_angle_beta   90.00000000
_cell_angle_gamma   90.00000000
_symmetry_Int_Tables_number   1
_chemical_formula_structural   Li2V(PO4)2
_chemical_formula_sum   'Li8 V4 P8 O32'
_cell_volume   668.47301496
_cell_formula_units_Z   4
loop_
 _symmetry_equiv_pos_site_id
 _symmetry_equiv_pos_as_xyz
  1  'x, y, z'
loop_
 _atom_site_type_symbol
 _atom_site_label
 _atom_site_symmetry_multiplicity
 _atom_site_fract_x
 _atom_site_fract_y
 _atom_site_fract_z
 _atom_site_occupancy
  Li  Li0  1  0.22928984  0.26244369  0.00853175  1
  Li  Li1  1  0.37163716  0.90779208  0.89602207  1
  Li  Li2  1  0.12836284  0.09220792  0.39602207  1
  Li  Li3  1  0.27071016  0.73755631  0.50853175  1
  Li  Li4  1  0.72928984  0.23755631  0.99146825  1
  Li  Li5  1  0.87163716  0.59220792  0.10397793  1
  Li  Li6  1  0.62836284  0.40779208  0.60397793  1
  Li  Li7  1  0.77071016  0.76244369  0.49146825  1
  V  V8  1  0.25638615  0.22369587  0.68353176  1
  V  V9  1  0.24361385  0.77630413  0.18353176  1
  V  V10  1  0.75638615  0.27630413  0.31646824  1
  V  V11  1  0.74361385  0.72369587  0.81646824  1
  P  P12  1  0.97035893  0.43715343  0.85276436  1
  P  P13  1  0.12697315  0.49492079  0.33571009  1
  P  P14  1  0.37302685  0.50507921  0.83571009  1
  P  P15  1  0.52964107  0.56284657  0.35276436  1
  P  P16  1  0.47035893  0.06284657  0.14723564  1
  P  P17  1  0.62697315  0.00507921  0.66428991  1
  P  P18  1  0.87302685  0.99492079  0.16428991  1
  P  P19  1  0.02964107  0.93715343  0.64723564  1
  O  O20  1  0.97204967  0.84160093  0.17829006  1
  O  O21  1  0.07338707  0.59480772  0.44238308  1
  O  O22  1  0.09340265  0.91234288  0.51443676  1
  O  O23  1  0.05256518  0.28798403  0.80259154  1
  O  O24  1  0.11649656  0.57643458  0.20906850  1
  O  O25  1  0.18789968  0.00619002  0.73061985  1
  O  O26  1  0.17675516  0.22882326  0.54260308  1
  O  O27  1  0.14710035  0.55590004  0.85140129  1
  O  O28  1  0.35289965  0.44409996  0.35140129  1
  O  O29  1  0.32324484  0.77117674  0.04260308  1
  O  O30  1  0.31210032  0.99380998  0.23061985  1
  O  O31  1  0.38350344  0.42356542  0.70906850  1
  O  O32  1  0.44743482  0.71201597  0.30259154  1
  O  O33  1  0.40659735  0.08765712  0.01443676  1
  O  O34  1  0.42661293  0.40519228  0.94238308  1
  O  O35  1  0.52795033  0.15839907  0.67829006  1
  O  O36  1  0.47204967  0.65839907  0.82170994  1
  O  O37  1  0.57338707  0.90519228  0.55761692  1
  O  O38  1  0.59340265  0.58765712  0.48556324  1
  O  O39  1  0.55256518  0.21201597  0.19740846  1
  O  O40  1  0.61649656  0.92356542  0.79093150  1
  O  O41  1  0.68789968  0.49380998  0.26938015  1
  O  O42  1  0.67675516  0.27117674  0.45739692  1
  O  O43  1  0.64710035  0.94409996  0.14859871  1
  O  O44  1  0.85289965  0.05590004  0.64859871  1
  O  O45  1  0.82324484  0.72882326  0.95739692  1
  O  O46  1  0.81210032  0.50619002  0.76938015  1
  O  O47  1  0.88350344  0.07643458  0.29093150  1
  O  O48  1  0.94743482  0.78798403  0.69740846  1
  O  O49  1  0.90659735  0.41234288  0.98556324  1
  O  O50  1  0.92661293  0.09480772  0.05761692  1
  O  O51  1  0.02795033  0.34160093  0.32170994  1
