# generated using pymatgen
data_Li9Cr19O48
_symmetry_space_group_name_H-M   'P 1'
_cell_length_a   5.05422019
_cell_length_b   10.18808752
_cell_length_c   17.26677279
_cell_angle_alpha   90.39306869
_cell_angle_beta   89.61732494
_cell_angle_gamma   89.98311989
_symmetry_Int_Tables_number   1
_chemical_formula_structural   Li9Cr19O48
_chemical_formula_sum   'Li9 Cr19 O48'
_cell_volume   889.07432369
_cell_formula_units_Z   1
loop_
 _symmetry_equiv_pos_site_id
 _symmetry_equiv_pos_as_xyz
  1  'x, y, z'
loop_
 _atom_site_type_symbol
 _atom_site_label
 _atom_site_symmetry_multiplicity
 _atom_site_fract_x
 _atom_site_fract_y
 _atom_site_fract_z
 _atom_site_occupancy
  Li  Li0  1  0.09133965  0.25041983  0.24939563  1
  Li  Li1  1  0.25041297  0.42081694  0.97416798  1
  Li  Li2  1  0.25079325  0.57506712  0.46881102  1
  Li  Li3  1  0.25090415  0.92450588  0.46782120  1
  Li  Li4  1  0.25130494  0.25283887  0.80460573  1
  Li  Li5  1  0.74649432  0.74770541  0.19568267  1
  Li  Li6  1  0.74855919  0.91831139  0.02842056  1
  Li  Li7  1  0.76116575  0.25190962  0.69914857  1
  Li  Li8  1  0.90619948  0.74876022  0.75124736  1
  Cr  Cr9  1  0.22355621  0.74861948  0.94360566  1
  Cr  Cr10  1  0.22843070  0.02898726  0.65457188  1
  Cr  Cr11  1  0.22847557  0.47073332  0.65401598  1
  Cr  Cr12  1  0.25441491  0.74232262  0.30228048  1
  Cr  Cr13  1  0.25186676  0.06968372  0.97681830  1
  Cr  Cr14  1  0.28576882  0.52681648  0.15521004  1
  Cr  Cr15  1  0.27708105  0.97463171  0.15581005  1
  Cr  Cr16  1  0.28904083  0.24940229  0.44248675  1
  Cr  Cr17  1  0.40564422  0.74942481  0.75283331  1
  Cr  Cr18  1  0.59224096  0.25127913  0.24783116  1
  Cr  Cr19  1  0.71796054  0.75033820  0.55831233  1
  Cr  Cr20  1  0.72232276  0.47446109  0.84387884  1
  Cr  Cr21  1  0.72104357  0.02683367  0.84645434  1
  Cr  Cr22  1  0.75816258  0.07323035  0.52193942  1
  Cr  Cr23  1  0.75773497  0.42675750  0.52184704  1
  Cr  Cr24  1  0.75111799  0.56968648  0.02694208  1
  Cr  Cr25  1  0.77746214  0.52748311  0.34338353  1
  Cr  Cr26  1  0.77639966  0.97097757  0.34247583  1
  Cr  Cr27  1  0.77909484  0.24979128  0.05628905  1
  O  O28  1  0.05369461  0.23976308  0.99406452  1
  O  O29  1  0.05407664  0.61778265  0.36974192  1
  O  O30  1  0.05441781  0.88164898  0.36679723  1
  O  O31  1  0.10925796  0.63147926  0.21740758  1
  O  O32  1  0.08810565  0.88045988  0.21095892  1
  O  O33  1  0.08912270  0.11616058  0.46767587  1
  O  O34  1  0.08897263  0.38350302  0.46755655  1
  O  O35  1  0.09208814  0.00950726  0.07626538  1
  O  O36  1  0.07534766  0.49859253  0.07806918  1
  O  O37  1  0.17059231  0.74972479  0.84264879  1
  O  O38  1  0.17123493  0.61473461  0.70160571  1
  O  O39  1  0.17098753  0.88589902  0.70182188  1
  O  O40  1  0.35119434  0.11475390  0.20399418  1
  O  O41  1  0.34926557  0.38332489  0.20393937  1
  O  O42  1  0.34785482  0.24953900  0.34592012  1
  O  O43  1  0.42122989  0.49810307  0.57659826  1
  O  O44  1  0.42180010  0.00226882  0.57695643  1
  O  O45  1  0.40280701  0.88933484  0.96572393  1
  O  O46  1  0.42719578  0.61946240  0.96599816  1
  O  O47  1  0.39791626  0.12537449  0.71072692  1
  O  O48  1  0.40051514  0.37428287  0.70848217  1
  O  O49  1  0.44314934  0.10889204  0.87490358  1
  O  O50  1  0.45512881  0.39261634  0.86876523  1
  O  O51  1  0.45627835  0.74978309  0.50249305  1
  O  O52  1  0.57500928  0.25001059  0.50858629  1
  O  O53  1  0.56026241  0.61664778  0.12334498  1
  O  O54  1  0.54434511  0.89396220  0.13043810  1
  O  O55  1  0.56684998  0.62433299  0.29102423  1
  O  O56  1  0.56152894  0.87043824  0.29252363  1
  O  O57  1  0.57254951  0.11955871  0.03319503  1
  O  O58  1  0.59738920  0.38941829  0.03425967  1
  O  O59  1  0.59575538  0.00985100  0.42737201  1
  O  O60  1  0.59498500  0.48913517  0.42733394  1
  O  O61  1  0.63952107  0.75098173  0.65369348  1
  O  O62  1  0.64622612  0.61495035  0.79451650  1
  O  O63  1  0.64674669  0.88641892  0.79765557  1
  O  O64  1  0.82659282  0.11611679  0.29433638  1
  O  O65  1  0.83126080  0.38231433  0.29486233  1
  O  O66  1  0.82683131  0.24952982  0.15574853  1
  O  O67  1  0.90515816  0.50948429  0.92273336  1
  O  O68  1  0.91695097  0.99549234  0.92202420  1
  O  O69  1  0.90118299  0.61618634  0.53735149  1
  O  O70  1  0.90137695  0.88381573  0.53715093  1
  O  O71  1  0.89398067  0.12194582  0.79005198  1
  O  O72  1  0.90993279  0.38010014  0.78887203  1
  O  O73  1  0.94515252  0.10597320  0.62686799  1
  O  O74  1  0.94471988  0.39397249  0.62591393  1
  O  O75  1  0.94846372  0.74057394  0.00473966  1
