# generated using pymatgen
data_SrLaCl5
_symmetry_space_group_name_H-M   'P 1'
_cell_length_a   9.89780678
_cell_length_b   15.18477346
_cell_length_c   10.53988689
_cell_angle_alpha   90.00000000
_cell_angle_beta   101.42011449
_cell_angle_gamma   90.00000000
_symmetry_Int_Tables_number   1
_chemical_formula_structural   SrLaCl5
_chemical_formula_sum   'Sr8 La8 Cl40'
_cell_volume   1552.73985611
_cell_formula_units_Z   8
loop_
 _symmetry_equiv_pos_site_id
 _symmetry_equiv_pos_as_xyz
  1  'x, y, z'
loop_
 _atom_site_type_symbol
 _atom_site_label
 _atom_site_symmetry_multiplicity
 _atom_site_fract_x
 _atom_site_fract_y
 _atom_site_fract_z
 _atom_site_occupancy
  Sr  Sr0  1  0.21083501  0.02435867  0.71460588  1
  Sr  Sr1  1  0.31262744  0.48174507  0.66411527  1
  Sr  Sr2  1  0.21083501  0.47564133  0.21460588  1
  Sr  Sr3  1  0.31262744  0.01825493  0.16411527  1
  Sr  Sr4  1  0.68737256  0.98174507  0.83588473  1
  Sr  Sr5  1  0.78916499  0.52435867  0.78539412  1
  Sr  Sr6  1  0.68737256  0.51825493  0.33588473  1
  Sr  Sr7  1  0.78916499  0.97564133  0.28539412  1
  La  La8  1  0.00669881  0.76606555  0.61216365  1
  La  La9  1  0.00669881  0.73393445  0.11216365  1
  La  La10  1  0.43629960  0.73647722  0.95948587  1
  La  La11  1  0.43629960  0.76352278  0.45948587  1
  La  La12  1  0.56370040  0.23647722  0.54051413  1
  La  La13  1  0.56370040  0.26352278  0.04051413  1
  La  La14  1  0.99330119  0.26606555  0.88783635  1
  La  La15  1  0.99330119  0.23393445  0.38783635  1
  Cl  Cl16  1  0.09367081  0.08279523  0.94821480  1
  Cl  Cl17  1  0.07858220  0.44405561  0.85285075  1
  Cl  Cl18  1  0.09367081  0.41720477  0.44821480  1
  Cl  Cl19  1  0.07615121  0.19770860  0.66385020  1
  Cl  Cl20  1  0.07858220  0.05594439  0.35285075  1
  Cl  Cl21  1  0.19806271  0.85257023  0.86134791  1
  Cl  Cl22  1  0.07615121  0.30229140  0.16385020  1
  Cl  Cl23  1  0.28020756  0.26994049  0.96179929  1
  Cl  Cl24  1  0.19806271  0.64742977  0.36134791  1
  Cl  Cl25  1  0.22115403  0.87108746  0.53004632  1
  Cl  Cl26  1  0.25628995  0.66851973  0.69932047  1
  Cl  Cl27  1  0.28020756  0.23005951  0.46179929  1
  Cl  Cl28  1  0.22115403  0.62891254  0.03004632  1
  Cl  Cl29  1  0.25628995  0.83148027  0.19932047  1
  Cl  Cl30  1  0.47928677  0.32732707  0.75521654  1
  Cl  Cl31  1  0.46291847  0.09268898  0.93409864  1
  Cl  Cl32  1  0.52778667  0.56714341  0.88034198  1
  Cl  Cl33  1  0.47221333  0.06714341  0.61965802  1
  Cl  Cl34  1  0.53708153  0.59268898  0.56590136  1
  Cl  Cl35  1  0.52071323  0.82732707  0.74478346  1
  Cl  Cl36  1  0.47928677  0.17267293  0.25521654  1
  Cl  Cl37  1  0.46291847  0.40731102  0.43409864  1
  Cl  Cl38  1  0.52778667  0.93285659  0.38034198  1
  Cl  Cl39  1  0.47221333  0.43285659  0.11965802  1
  Cl  Cl40  1  0.53708153  0.90731102  0.06590136  1
  Cl  Cl41  1  0.52071323  0.67267293  0.24478346  1
  Cl  Cl42  1  0.74371005  0.16851973  0.80067953  1
  Cl  Cl43  1  0.77884597  0.37108746  0.96995368  1
  Cl  Cl44  1  0.71979244  0.76994049  0.53820071  1
  Cl  Cl45  1  0.74371005  0.33148027  0.30067953  1
  Cl  Cl46  1  0.77884597  0.12891254  0.46995368  1
  Cl  Cl47  1  0.80193729  0.35257023  0.63865209  1
  Cl  Cl48  1  0.71979244  0.73005951  0.03820071  1
  Cl  Cl49  1  0.92384879  0.69770860  0.83614980  1
  Cl  Cl50  1  0.80193729  0.14742977  0.13865209  1
  Cl  Cl51  1  0.92141780  0.94405561  0.64714925  1
  Cl  Cl52  1  0.92384879  0.80229140  0.33614980  1
  Cl  Cl53  1  0.90632919  0.58279523  0.55178520  1
  Cl  Cl54  1  0.92141780  0.55594439  0.14714925  1
  Cl  Cl55  1  0.90632919  0.91720477  0.05178520  1
