# generated using pymatgen
data_LiNiPO4
_symmetry_space_group_name_H-M   'P 1'
_cell_length_a   9.64312124
_cell_length_b   9.64312099
_cell_length_c   22.66705436
_cell_angle_alpha   90.00000000
_cell_angle_beta   90.00000000
_cell_angle_gamma   119.99999929
_symmetry_Int_Tables_number   1
_chemical_formula_structural   LiNiPO4
_chemical_formula_sum   'Li24 Ni24 P24 O96'
_cell_volume   1825.41226333
_cell_formula_units_Z   24
loop_
 _symmetry_equiv_pos_site_id
 _symmetry_equiv_pos_as_xyz
  1  'x, y, z'
loop_
 _atom_site_type_symbol
 _atom_site_label
 _atom_site_symmetry_multiplicity
 _atom_site_fract_x
 _atom_site_fract_y
 _atom_site_fract_z
 _atom_site_occupancy
  Li  Li0  1  0.10125971  0.81739854  0.27787861  1
  Li  Li1  1  0.09174892  0.75897317  0.91947134  1
  Li  Li2  1  0.13015078  0.75940560  0.59608097  1
  Li  Li3  1  0.30763361  0.66516463  0.75411534  1
  Li  Li4  1  0.33483537  0.64246998  0.08744934  1
  Li  Li5  1  0.35753002  0.69236639  0.42078234  1
  Li  Li6  1  0.18260146  0.28386117  0.61121161  1
  Li  Li7  1  0.24059440  0.37074517  0.92941397  1
  Li  Li8  1  0.24102683  0.33277575  0.25280534  1
  Li  Li9  1  0.62925483  0.86984922  0.26274797  1
  Li  Li10  1  0.66722425  0.90825108  0.58613834  1
  Li  Li11  1  0.28386117  0.10125971  0.44454461  1
  Li  Li12  1  0.71613883  0.89874029  0.94454461  1
  Li  Li13  1  0.33277575  0.09174892  0.08613834  1
  Li  Li14  1  0.37074517  0.13015078  0.76274797  1
  Li  Li15  1  0.75897317  0.66722425  0.75280534  1
  Li  Li16  1  0.75940560  0.62925483  0.42941397  1
  Li  Li17  1  0.81739854  0.71613883  0.11121161  1
  Li  Li18  1  0.64246998  0.30763361  0.92078234  1
  Li  Li19  1  0.66516463  0.35753002  0.58744934  1
  Li  Li20  1  0.69236639  0.33483537  0.25411534  1
  Li  Li21  1  0.86984922  0.24059440  0.09608097  1
  Li  Li22  1  0.90825108  0.24102683  0.41947134  1
  Li  Li23  1  0.89874029  0.18260146  0.77787861  1
  Ni  Ni24  1  0.99274540  0.02318550  0.71360539  1
  Ni  Ni25  1  0.02136515  0.56593213  0.04548901  1
  Ni  Ni26  1  0.05102942  0.46277625  0.19243319  1
  Ni  Ni27  1  0.05751822  0.49788372  0.85153859  1
  Ni  Ni28  1  0.41174683  0.94897058  0.85910019  1
  Ni  Ni29  1  0.44036550  0.94248178  0.51820459  1
  Ni  Ni30  1  0.97681450  0.96955990  0.04693839  1
  Ni  Ni31  1  0.96955990  0.99274540  0.88027139  1
  Ni  Ni32  1  0.54456698  0.97863485  0.71215601  1
  Ni  Ni33  1  0.43406787  0.45543302  0.37882301  1
  Ni  Ni34  1  0.50211628  0.55963450  0.18487159  1
  Ni  Ni35  1  0.53722375  0.58825317  0.52576719  1
  Ni  Ni36  1  0.46277625  0.41174683  0.02576719  1
  Ni  Ni37  1  0.49788372  0.44036550  0.68487159  1
  Ni  Ni38  1  0.56593213  0.54456698  0.87882301  1
  Ni  Ni39  1  0.45543302  0.02136515  0.21215601  1
  Ni  Ni40  1  0.03044010  0.00725460  0.38027139  1
  Ni  Ni41  1  0.02318550  0.03044010  0.54693839  1
  Ni  Ni42  1  0.55963450  0.05751822  0.01820459  1
  Ni  Ni43  1  0.58825317  0.05102942  0.35910019  1
  Ni  Ni44  1  0.94248178  0.50211628  0.35153859  1
  Ni  Ni45  1  0.94897058  0.53722375  0.69243319  1
  Ni  Ni46  1  0.97863485  0.43406787  0.54548901  1
  Ni  Ni47  1  0.00725460  0.97681450  0.21360539  1
  P  P48  1  0.08970730  0.79170706  0.78813513  1
  P  P49  1  0.08238059  0.75407613  0.46884423  1
  P  P50  1  0.13986104  0.79348337  0.13758718  1
  P  P51  1  0.28838185  0.65112236  0.29222402  1
  P  P52  1  0.36274051  0.71161815  0.95889102  1
  P  P53  1  0.34887764  0.63725949  0.62555702  1
  P  P54  1  0.20651663  0.34637766  0.47092118  1
  P  P55  1  0.20829294  0.29800025  0.12146913  1
  P  P56  1  0.24592387  0.32830446  0.80217723  1
  P  P57  1  0.65362234  0.86013896  0.80425418  1
  P  P58  1  0.67169554  0.91761941  0.13551123  1
  P  P59  1  0.70199975  0.91029270  0.45480213  1
  P  P60  1  0.29800025  0.08970730  0.95480213  1
  P  P61  1  0.32830446  0.08238059  0.63551123  1
  P  P62  1  0.34637766  0.13986104  0.30425418  1
  P  P63  1  0.75407613  0.67169554  0.30217723  1
  P  P64  1  0.79170706  0.70199975  0.62146913  1
  P  P65  1  0.79348337  0.65362234  0.97092118  1
  P  P66  1  0.65112236  0.36274051  0.12555702  1
  P  P67  1  0.63725949  0.28838185  0.45889102  1
  P  P68  1  0.71161815  0.34887764  0.79222402  1
  P  P69  1  0.86013896  0.20651663  0.63758718  1
  P  P70  1  0.91761941  0.24592387  0.96884423  1
  P  P71  1  0.91029270  0.20829294  0.28813513  1
  O  O72  1  0.05040788  0.79453292  0.08038146  1
  O  O73  1  0.07858101  0.91722011  0.47403231  1
  O  O74  1  0.01182305  0.67915357  0.84157130  1
  O  O75  1  0.12746448  0.97264012  0.93051878  1
  O  O76  1  0.03689424  0.79044303  0.19064908  1
  O  O77  1  0.01411626  0.65577589  0.52545086  1
  O  O78  1  0.24372483  0.94282252  0.80799878  1
  O  O79  1  0.12617733  0.64643136  0.30120919  1
  O  O80  1  0.12216037  0.69412968  0.74132052  1
  O  O81  1  0.31321413  0.97498496  0.58188980  1
  O  O82  1  0.31494723  0.93134464  0.13976525  1
  O  O83  1  0.14517418  0.63317752  0.13291389  1
  O  O84  1  0.25985243  0.79700155  0.46086335  1
  O  O85  1  0.17243909  0.58755165  0.61181161  1
  O  O86  1  0.06865536  0.38360258  0.47309825  1
  O  O87  1  0.27469264  0.73207925  0.90367203  1
  O  O88  1  0.02501504  0.33822917  0.91522380  1
  O  O89  1  0.05717748  0.30090231  0.14133278  1
  O  O90  1  0.02735988  0.15482436  0.26385278  1
  O  O91  1  0.08277989  0.16136090  0.80736531  1
  O  O92  1  0.25486899  0.66908059  0.01349278  1
  O  O93  1  0.26792075  0.54261240  0.23700503  1
  O  O94  1  0.33091941  0.58578840  0.34682578  1
  O  O95  1  0.20299845  0.46285187  0.79419635  1
  O  O96  1  0.41421160  0.74513101  0.68015978  1
  O  O97  1  0.41511256  0.82756091  0.27847861  1
  O  O98  1  0.48800434  0.85482582  0.79958089  1
  O  O99  1  0.30587032  0.42803069  0.07465452  1
  O  O100  1  0.35356864  0.47974697  0.63454319  1
  O  O101  1  0.36682248  0.51199566  0.46624789  1
  O  O102  1  0.20955697  0.24645122  0.52398208  1
  O  O103  1  0.41244835  0.58488744  0.94514461  1
  O  O104  1  0.45738760  0.72530736  0.57033903  1
  O  O105  1  0.52025303  0.87382267  0.96787619  1
  O  O106  1  0.57196931  0.87783963  0.40798752  1
  O  O107  1  0.15482436  0.12746448  0.09718578  1
  O  O108  1  0.20546708  0.25587496  0.41371546  1
  O  O109  1  0.32084643  0.33266948  0.17490530  1
  O  O110  1  0.16136090  0.07858101  0.64069831  1
  O  O111  1  0.34422411  0.35834037  0.85878486  1
  O  O112  1  0.53714813  0.74014757  0.12752935  1
  O  O113  1  0.30090231  0.24372483  0.97466578  1
  O  O114  1  0.64165963  0.98588374  0.19211786  1
  O  O115  1  0.33822917  0.31321413  0.74855680  1
  O  O116  1  0.38360258  0.31494723  0.30643125  1
  O  O117  1  0.66733052  0.98817695  0.50823830  1
  O  O118  1  0.75354878  0.96310576  0.85731508  1
  O  O119  1  0.25587496  0.05040788  0.24704846  1
  O  O120  1  0.74412504  0.94959212  0.74704846  1
  O  O121  1  0.24645122  0.03689424  0.35731508  1
  O  O122  1  0.33266948  0.01182305  0.00823830  1
  O  O123  1  0.61639742  0.68505277  0.80643125  1
  O  O124  1  0.66177083  0.68678587  0.24855680  1
  O  O125  1  0.35834037  0.01411626  0.69211786  1
  O  O126  1  0.69909769  0.75627517  0.47466578  1
  O  O127  1  0.46285187  0.25985243  0.62752935  1
  O  O128  1  0.65577589  0.64165963  0.35878486  1
  O  O129  1  0.83863910  0.92141899  0.14069831  1
  O  O130  1  0.67915357  0.66733052  0.67490530  1
  O  O131  1  0.79453292  0.74412504  0.91371546  1
  O  O132  1  0.84517564  0.87253552  0.59718578  1
  O  O133  1  0.42803069  0.12216037  0.90798752  1
  O  O134  1  0.47974697  0.12617733  0.46787619  1
  O  O135  1  0.54261240  0.27469264  0.07033903  1
  O  O136  1  0.58755165  0.41511256  0.44514461  1
  O  O137  1  0.79044303  0.75354878  0.02398208  1
  O  O138  1  0.63317752  0.48800434  0.96624789  1
  O  O139  1  0.64643136  0.52025303  0.13454319  1
  O  O140  1  0.69412968  0.57196931  0.57465452  1
  O  O141  1  0.51199566  0.14517418  0.29958089  1
  O  O142  1  0.58488744  0.17243909  0.77847861  1
  O  O143  1  0.58578840  0.25486899  0.18015978  1
  O  O144  1  0.79700155  0.53714813  0.29419635  1
  O  O145  1  0.66908059  0.41421160  0.84682578  1
  O  O146  1  0.73207925  0.45738760  0.73700503  1
  O  O147  1  0.74513101  0.33091941  0.51349278  1
  O  O148  1  0.91722011  0.83863910  0.30736531  1
  O  O149  1  0.97264012  0.84517564  0.76385278  1
  O  O150  1  0.94282252  0.69909769  0.64133278  1
  O  O151  1  0.97498496  0.66177083  0.41522380  1
  O  O152  1  0.72530736  0.26792075  0.40367203  1
  O  O153  1  0.93134464  0.61639742  0.97309825  1
  O  O154  1  0.82756091  0.41244835  0.11181161  1
  O  O155  1  0.74014757  0.20299845  0.96086335  1
  O  O156  1  0.85482582  0.36682248  0.63291389  1
  O  O157  1  0.68505277  0.06865536  0.63976525  1
  O  O158  1  0.68678587  0.02501504  0.08188980  1
  O  O159  1  0.87783963  0.30587032  0.24132052  1
  O  O160  1  0.87382267  0.35356864  0.80120919  1
  O  O161  1  0.75627517  0.05717748  0.30799878  1
  O  O162  1  0.98588374  0.34422411  0.02545086  1
  O  O163  1  0.96310576  0.20955697  0.69064908  1
  O  O164  1  0.87253552  0.02735988  0.43051878  1
  O  O165  1  0.98817695  0.32084643  0.34157130  1
  O  O166  1  0.92141899  0.08277989  0.97403231  1
  O  O167  1  0.94959212  0.20546708  0.58038146  1
