# generated using pymatgen
data_V3CoO8
_symmetry_space_group_name_H-M   'P 1'
_cell_length_a   8.34562429
_cell_length_b   8.33580649
_cell_length_c   8.34244141
_cell_angle_alpha   90.00816763
_cell_angle_beta   89.99520773
_cell_angle_gamma   90.31673219
_symmetry_Int_Tables_number   1
_chemical_formula_structural   V3CoO8
_chemical_formula_sum   'V12 Co4 O32'
_cell_volume   580.35399398
_cell_formula_units_Z   4
loop_
 _symmetry_equiv_pos_site_id
 _symmetry_equiv_pos_as_xyz
  1  'x, y, z'
loop_
 _atom_site_type_symbol
 _atom_site_label
 _atom_site_symmetry_multiplicity
 _atom_site_fract_x
 _atom_site_fract_y
 _atom_site_fract_z
 _atom_site_occupancy
  V  V0  1  0.10558881  0.62317623  0.12973110  1
  V  V1  1  0.12571195  0.37893166  0.88282221  1
  V  V2  1  0.13272560  0.10175731  0.63648637  1
  V  V3  1  0.36780173  0.89839411  0.13647633  1
  V  V4  1  0.37412415  0.62091810  0.38212084  1
  V  V5  1  0.39398647  0.37747190  0.63007697  1
  V  V6  1  0.60656419  0.87292611  0.87864614  1
  V  V7  1  0.64317968  0.12630254  0.10889884  1
  V  V8  1  0.63139522  0.38962129  0.36866657  1
  V  V9  1  0.86821258  0.61064788  0.86822971  1
  V  V10  1  0.85717626  0.87407420  0.60856636  1
  V  V11  1  0.89342037  0.12723090  0.37871577  1
  Co  Co12  1  0.00455242  0.49757226  0.50498831  1
  Co  Co13  1  0.49557712  0.50214768  0.00505668  1
  Co  Co14  1  0.50128851  0.00703843  0.49352920  1
  Co  Co15  1  0.99888635  0.99283189  0.99359682  1
  O  O16  1  0.09894667  0.13858138  0.39978626  1
  O  O17  1  0.10949847  0.89980824  0.63283769  1
  O  O18  1  0.10590617  0.61617056  0.89041077  1
  O  O19  1  0.13437380  0.39938799  0.09573945  1
  O  O20  1  0.11615122  0.14036960  0.85336638  1
  O  O21  1  0.13730565  0.36396045  0.64286548  1
  O  O22  1  0.13364630  0.61351693  0.34569456  1
  O  O23  1  0.15028587  0.85599692  0.11146664  1
  O  O24  1  0.34982161  0.14394448  0.61122928  1
  O  O25  1  0.36640089  0.38600993  0.84594391  1
  O  O26  1  0.36288817  0.63576031  0.14285478  1
  O  O27  1  0.38404465  0.85939621  0.35334857  1
  O  O28  1  0.36524247  0.60042704  0.59562310  1
  O  O29  1  0.39431626  0.38370919  0.39008777  1
  O  O30  1  0.39027735  0.10027655  0.13302015  1
  O  O31  1  0.40104306  0.86138760  0.89984779  1
  O  O32  1  0.59883447  0.36539439  0.60561759  1
  O  O33  1  0.61147782  0.59519348  0.36476221  1
  O  O34  1  0.60890556  0.89700875  0.11681274  1
  O  O35  1  0.63204011  0.11208306  0.90414933  1
  O  O36  1  0.61096423  0.34919879  0.14378326  1
  O  O37  1  0.64288995  0.13795850  0.36089182  1
  O  O38  1  0.64263219  0.88485755  0.63953825  1
  O  O39  1  0.65263517  0.63406548  0.88883107  1
  O  O40  1  0.84704060  0.36584910  0.38921876  1
  O  O41  1  0.85767177  0.11532746  0.13952428  1
  O  O42  1  0.85709525  0.86176875  0.86124746  1
  O  O43  1  0.88927873  0.65086819  0.64372626  1
  O  O44  1  0.86792444  0.88784696  0.40387824  1
  O  O45  1  0.89102928  0.10298475  0.61688500  1
  O  O46  1  0.88838970  0.40515123  0.86478960  1
  O  O47  1  0.90085168  0.63477870  0.10569231  1
