# generated using pymatgen
data_Li2MnPO5
_symmetry_space_group_name_H-M   'P 1'
_cell_length_a   13.36605810
_cell_length_b   12.87840999
_cell_length_c   5.08671331
_cell_angle_alpha   90.00000000
_cell_angle_beta   90.00000000
_cell_angle_gamma   60.26310807
_symmetry_Int_Tables_number   1
_chemical_formula_structural   Li2MnPO5
_chemical_formula_sum   'Li16 Mn8 P8 O40'
_cell_volume   760.28918619
_cell_formula_units_Z   8
loop_
 _symmetry_equiv_pos_site_id
 _symmetry_equiv_pos_as_xyz
  1  'x, y, z'
loop_
 _atom_site_type_symbol
 _atom_site_label
 _atom_site_symmetry_multiplicity
 _atom_site_fract_x
 _atom_site_fract_y
 _atom_site_fract_z
 _atom_site_occupancy
  Li  Li0  1  0.36071768  0.81760546  0.72586723  1
  Li  Li1  1  0.08490807  0.57514708  0.75372135  1
  Li  Li2  1  0.14303760  0.67524404  0.21078158  1
  Li  Li3  1  0.58050582  0.83383293  0.73340611  1
  Li  Li4  1  0.41949418  0.66616707  0.23340611  1
  Li  Li5  1  0.85696240  0.82475596  0.71078158  1
  Li  Li6  1  0.36071768  0.31760546  0.77413277  1
  Li  Li7  1  0.08490807  0.07514708  0.74627865  1
  Li  Li8  1  0.91509193  0.92485292  0.25372135  1
  Li  Li9  1  0.63928232  0.68239454  0.22586723  1
  Li  Li10  1  0.14303760  0.17524404  0.28921842  1
  Li  Li11  1  0.58050582  0.33383293  0.76659389  1
  Li  Li12  1  0.41949418  0.16616707  0.26659389  1
  Li  Li13  1  0.85696240  0.32475596  0.78921842  1
  Li  Li14  1  0.91509193  0.42485292  0.24627865  1
  Li  Li15  1  0.63928232  0.18239454  0.27413277  1
  Mn  Mn16  1  0.06223357  0.81206221  0.72470269  1
  Mn  Mn17  1  0.43520821  0.87828074  0.26548681  1
  Mn  Mn18  1  0.06223357  0.31206221  0.77529731  1
  Mn  Mn19  1  0.56479179  0.62171926  0.76548681  1
  Mn  Mn20  1  0.43520821  0.37828074  0.23451319  1
  Mn  Mn21  1  0.93776643  0.68793779  0.22470269  1
  Mn  Mn22  1  0.56479179  0.12171926  0.73451319  1
  Mn  Mn23  1  0.93776643  0.18793779  0.27529731  1
  P  P24  1  0.16316794  0.90877531  0.23098563  1
  P  P25  1  0.66424027  0.92281303  0.23336715  1
  P  P26  1  0.16316794  0.40877531  0.26901437  1
  P  P27  1  0.33575973  0.57718697  0.73336715  1
  P  P28  1  0.66424027  0.42281303  0.26663285  1
  P  P29  1  0.83683206  0.59122469  0.73098563  1
  P  P30  1  0.33575973  0.07718697  0.76663285  1
  P  P31  1  0.83683206  0.09122469  0.76901437  1
  O  O32  1  0.13714888  0.91367466  0.93165269  1
  O  O33  1  0.99229910  0.78646020  0.01063408  1
  O  O34  1  0.12091517  0.83119251  0.37387220  1
  O  O35  1  0.39053396  0.95591557  0.61914614  1
  O  O36  1  0.29495994  0.84801459  0.28132858  1
  O  O37  1  0.10266976  0.53658480  0.14650435  1
  O  O38  1  0.20624931  0.64540971  0.80727325  1
  O  O39  1  0.64478862  0.94744593  0.93198412  1
  O  O40  1  0.49359953  0.78108337  0.97868898  1
  O  O41  1  0.13714888  0.41367466  0.56834731  1
  O  O42  1  0.99229910  0.28646020  0.48936592  1
  O  O43  1  0.60664533  0.85024283  0.33027291  1
  O  O44  1  0.39335467  0.64975717  0.83027291  1
  O  O45  1  0.12091517  0.33119251  0.12612780  1
  O  O46  1  0.50640047  0.71891663  0.47868898  1
  O  O47  1  0.35521138  0.55255407  0.43198412  1
  O  O48  1  0.39053396  0.45591557  0.88085386  1
  O  O49  1  0.29495994  0.34801459  0.21867142  1
  O  O50  1  0.79375069  0.85459029  0.30727325  1
  O  O51  1  0.89733024  0.96341520  0.64650435  1
  O  O52  1  0.10266976  0.03658480  0.35349565  1
  O  O53  1  0.20624931  0.14540971  0.69272675  1
  O  O54  1  0.70504006  0.65198541  0.78132858  1
  O  O55  1  0.60946604  0.54408443  0.11914614  1
  O  O56  1  0.64478862  0.44744593  0.56801588  1
  O  O57  1  0.49359953  0.28108337  0.52131102  1
  O  O58  1  0.87908483  0.66880749  0.87387220  1
  O  O59  1  0.60664533  0.35024283  0.16972709  1
  O  O60  1  0.39335467  0.14975717  0.66972709  1
  O  O61  1  0.00770090  0.71353980  0.51063408  1
  O  O62  1  0.86285112  0.58632534  0.43165269  1
  O  O63  1  0.50640047  0.21891663  0.02131102  1
  O  O64  1  0.35521138  0.05255407  0.06801588  1
  O  O65  1  0.79375069  0.35459029  0.19272675  1
  O  O66  1  0.89733024  0.46341520  0.85349565  1
  O  O67  1  0.70504006  0.15198541  0.71867142  1
  O  O68  1  0.60946604  0.04408443  0.38085386  1
  O  O69  1  0.87908483  0.16880749  0.62612780  1
  O  O70  1  0.00770090  0.21353980  0.98936592  1
  O  O71  1  0.86285112  0.08632534  0.06834731  1
