# generated using pymatgen
data_MnH14C8(NO3)2
_symmetry_space_group_name_H-M   'P 1'
_cell_length_a   8.03307066
_cell_length_b   10.25722683
_cell_length_c   16.40223209
_cell_angle_alpha   90.00000000
_cell_angle_beta   90.00000000
_cell_angle_gamma   90.00000000
_symmetry_Int_Tables_number   1
_chemical_formula_structural   MnH14C8(NO3)2
_chemical_formula_sum   'Mn4 H56 C32 N8 O24'
_cell_volume   1351.49517516
_cell_formula_units_Z   4
loop_
 _symmetry_equiv_pos_site_id
 _symmetry_equiv_pos_as_xyz
  1  'x, y, z'
loop_
 _atom_site_type_symbol
 _atom_site_label
 _atom_site_symmetry_multiplicity
 _atom_site_fract_x
 _atom_site_fract_y
 _atom_site_fract_z
 _atom_site_occupancy
  Mn  Mn0  1  0.83810473  0.25000000  0.50000000  1
  Mn  Mn1  1  0.66189527  0.75000000  0.00000000  1
  Mn  Mn2  1  0.16189527  0.75000000  0.50000000  1
  Mn  Mn3  1  0.33810473  0.25000000  0.00000000  1
  H  H4  1  0.51850906  0.37955135  0.42312528  1
  H  H5  1  0.98149094  0.87955135  0.07687472  1
  H  H6  1  0.98149094  0.62044865  0.92312528  1
  H  H7  1  0.51850906  0.12044865  0.57687472  1
  H  H8  1  0.48149094  0.62044865  0.57687472  1
  H  H9  1  0.01850906  0.12044865  0.92312528  1
  H  H10  1  0.01850906  0.37955135  0.07687472  1
  H  H11  1  0.48149094  0.87955135  0.42312528  1
  H  H12  1  0.30134170  0.44832089  0.36401282  1
  H  H13  1  0.19865830  0.94832089  0.13598718  1
  H  H14  1  0.19865830  0.55167911  0.86401282  1
  H  H15  1  0.30134170  0.05167911  0.63598718  1
  H  H16  1  0.69865830  0.55167911  0.63598718  1
  H  H17  1  0.80134170  0.05167911  0.86401282  1
  H  H18  1  0.80134170  0.44832089  0.13598718  1
  H  H19  1  0.69865830  0.94832089  0.36401282  1
  H  H20  1  0.28369158  0.39645083  0.26026212  1
  H  H21  1  0.21630842  0.89645083  0.23973788  1
  H  H22  1  0.21630842  0.60354917  0.76026212  1
  H  H23  1  0.28369158  0.10354917  0.73973788  1
  H  H24  1  0.71630842  0.60354917  0.73973788  1
  H  H25  1  0.78369158  0.10354917  0.76026212  1
  H  H26  1  0.78369158  0.39645083  0.23973788  1
  H  H27  1  0.71630842  0.89645083  0.26026212  1
  H  H28  1  0.15689095  0.32179816  0.33715952  1
  H  H29  1  0.34310905  0.82179816  0.16284048  1
  H  H30  1  0.34310905  0.67820184  0.83715952  1
  H  H31  1  0.15689095  0.17820184  0.66284048  1
  H  H32  1  0.84310905  0.67820184  0.66284048  1
  H  H33  1  0.65689095  0.17820184  0.83715952  1
  H  H34  1  0.65689095  0.32179816  0.16284048  1
  H  H35  1  0.84310905  0.82179816  0.33715952  1
  H  H36  1  0.27955254  0.09068891  0.31497100  1
  H  H37  1  0.22044746  0.59068891  0.18502900  1
  H  H38  1  0.22044746  0.90931109  0.81497100  1
  H  H39  1  0.27955254  0.40931109  0.68502900  1
  H  H40  1  0.72044746  0.90931109  0.68502900  1
  H  H41  1  0.77955254  0.40931109  0.81497100  1
  H  H42  1  0.77955254  0.09068891  0.18502900  1
  H  H43  1  0.72044746  0.59068891  0.31497100  1
  H  H44  1  0.36349819  0.17094716  0.22689729  1
  H  H45  1  0.13650181  0.67094716  0.27310271  1
  H  H46  1  0.13650181  0.82905284  0.72689729  1
  H  H47  1  0.36349819  0.32905284  0.77310271  1
  H  H48  1  0.63650181  0.82905284  0.77310271  1
  H  H49  1  0.86349819  0.32905284  0.72689729  1
  H  H50  1  0.86349819  0.17094716  0.27310271  1
  H  H51  1  0.63650181  0.67094716  0.22689729  1
  H  H52  1  0.49959474  0.08635701  0.29545721  1
  H  H53  1  0.00040526  0.58635701  0.20454279  1
  H  H54  1  0.00040526  0.91364299  0.79545721  1
  H  H55  1  0.49959474  0.41364299  0.70454279  1
  H  H56  1  0.50040526  0.91364299  0.70454279  1
  H  H57  1  0.99959474  0.41364299  0.79545721  1
  H  H58  1  0.99959474  0.08635701  0.20454279  1
  H  H59  1  0.50040526  0.58635701  0.29545721  1
  C  C60  1  0.95282732  0.51894470  0.45999666  1
  C  C61  1  0.54717268  0.01894470  0.04000334  1
  C  C62  1  0.54717268  0.48105530  0.95999666  1
  C  C63  1  0.95282732  0.98105530  0.54000334  1
  C  C64  1  0.04717268  0.48105530  0.54000334  1
  C  C65  1  0.45282732  0.98105530  0.95999666  1
  C  C66  1  0.45282732  0.51894470  0.04000334  1
  C  C67  1  0.04717268  0.01894470  0.45999666  1
  C  C68  1  0.52548462  0.28323580  0.39320564  1
  C  C69  1  0.97451538  0.78323580  0.10679436  1
  C  C70  1  0.97451538  0.71676420  0.89320564  1
  C  C71  1  0.52548462  0.21676420  0.60679436  1
  C  C72  1  0.47451538  0.71676420  0.60679436  1
  C  C73  1  0.02548462  0.21676420  0.89320564  1
  C  C74  1  0.02548462  0.28323580  0.10679436  1
  C  C75  1  0.47451538  0.78323580  0.39320564  1
  C  C76  1  0.27970540  0.36413536  0.32413774  1
  C  C77  1  0.22029460  0.86413536  0.17586226  1
  C  C78  1  0.22029460  0.63586464  0.82413774  1
  C  C79  1  0.27970540  0.13586464  0.67586226  1
  C  C80  1  0.72029460  0.63586464  0.67586226  1
  C  C81  1  0.77970540  0.13586464  0.82413774  1
  C  C82  1  0.77970540  0.36413536  0.17586226  1
  C  C83  1  0.72029460  0.86413536  0.32413774  1
  C  C84  1  0.38673215  0.14557499  0.29095849  1
  C  C85  1  0.11326785  0.64557499  0.20904151  1
  C  C86  1  0.11326785  0.85442501  0.79095849  1
  C  C87  1  0.38673215  0.35442501  0.70904151  1
  C  C88  1  0.61326785  0.85442501  0.70904151  1
  C  C89  1  0.88673215  0.35442501  0.79095849  1
  C  C90  1  0.88673215  0.14557499  0.20904151  1
  C  C91  1  0.61326785  0.64557499  0.29095849  1
  N  N92  1  0.40689361  0.26541997  0.33754342  1
  N  N93  1  0.09310639  0.76541997  0.16245658  1
  N  N94  1  0.09310639  0.73458003  0.83754342  1
  N  N95  1  0.40689361  0.23458003  0.66245658  1
  N  N96  1  0.59310639  0.73458003  0.66245658  1
  N  N97  1  0.90689361  0.23458003  0.83754342  1
  N  N98  1  0.90689361  0.26541997  0.16245658  1
  N  N99  1  0.59310639  0.76541997  0.33754342  1
  O  O100  1  0.85403610  0.43437971  0.43078379  1
  O  O101  1  0.64596390  0.93437971  0.06921621  1
  O  O102  1  0.64596390  0.56562029  0.93078379  1
  O  O103  1  0.85403610  0.06562029  0.56921621  1
  O  O104  1  0.14596390  0.56562029  0.56921621  1
  O  O105  1  0.35403610  0.06562029  0.93078379  1
  O  O106  1  0.35403610  0.43437971  0.06921621  1
  O  O107  1  0.14596390  0.93437971  0.43078379  1
  O  O108  1  0.98224824  0.63072209  0.43031755  1
  O  O109  1  0.51775176  0.13072209  0.06968245  1
  O  O110  1  0.51775176  0.36927791  0.93031755  1
  O  O111  1  0.98224824  0.86927791  0.56968245  1
  O  O112  1  0.01775176  0.36927791  0.56968245  1
  O  O113  1  0.48224824  0.86927791  0.93031755  1
  O  O114  1  0.48224824  0.63072209  0.06968245  1
  O  O115  1  0.01775176  0.13072209  0.43031755  1
  O  O116  1  0.63645250  0.20105858  0.41119690  1
  O  O117  1  0.86354750  0.70105858  0.08880310  1
  O  O118  1  0.86354750  0.79894142  0.91119690  1
  O  O119  1  0.63645250  0.29894142  0.58880310  1
  O  O120  1  0.36354750  0.79894142  0.58880310  1
  O  O121  1  0.13645250  0.29894142  0.91119690  1
  O  O122  1  0.13645250  0.20105858  0.08880310  1
  O  O123  1  0.36354750  0.70105858  0.41119690  1
