# generated using pymatgen
data_Li3Mn2(PO4)3
_symmetry_space_group_name_H-M   'P 1'
_cell_length_a   10.25347394
_cell_length_b   10.25347394
_cell_length_c   10.25347394
_cell_angle_alpha   109.47122063
_cell_angle_beta   109.47122063
_cell_angle_gamma   109.47122063
_symmetry_Int_Tables_number   1
_chemical_formula_structural   Li3Mn2(PO4)3
_chemical_formula_sum   'Li12 Mn8 P12 O48'
_cell_volume   829.83396271
_cell_formula_units_Z   4
loop_
 _symmetry_equiv_pos_site_id
 _symmetry_equiv_pos_as_xyz
  1  'x, y, z'
loop_
 _atom_site_type_symbol
 _atom_site_label
 _atom_site_symmetry_multiplicity
 _atom_site_fract_x
 _atom_site_fract_y
 _atom_site_fract_z
 _atom_site_occupancy
  Li  Li0  1  0.75000000  0.12500000  0.37500000  1
  Li  Li1  1  0.37500000  0.12500000  0.25000000  1
  Li  Li2  1  0.87500000  0.62500000  0.25000000  1
  Li  Li3  1  0.25000000  0.37500000  0.12500000  1
  Li  Li4  1  0.62500000  0.25000000  0.87500000  1
  Li  Li5  1  0.12500000  0.25000000  0.37500000  1
  Li  Li6  1  0.37500000  0.75000000  0.12500000  1
  Li  Li7  1  0.87500000  0.75000000  0.62500000  1
  Li  Li8  1  0.75000000  0.62500000  0.87500000  1
  Li  Li9  1  0.12500000  0.37500000  0.75000000  1
  Li  Li10  1  0.62500000  0.87500000  0.75000000  1
  Li  Li11  1  0.25000000  0.87500000  0.62500000  1
  Mn  Mn12  1  0.50000000  0.00000000  0.00000000  1
  Mn  Mn13  1  0.00000000  0.00000000  0.00000000  1
  Mn  Mn14  1  0.50000000  0.00000000  0.50000000  1
  Mn  Mn15  1  0.50000000  0.50000000  0.00000000  1
  Mn  Mn16  1  0.00000000  0.50000000  0.00000000  1
  Mn  Mn17  1  0.50000000  0.50000000  0.50000000  1
  Mn  Mn18  1  0.00000000  0.00000000  0.50000000  1
  Mn  Mn19  1  0.00000000  0.50000000  0.50000000  1
  P  P20  1  0.87500000  0.25000000  0.12500000  1
  P  P21  1  0.62500000  0.37500000  0.25000000  1
  P  P22  1  0.87500000  0.12500000  0.75000000  1
  P  P23  1  0.75000000  0.87500000  0.12500000  1
  P  P24  1  0.75000000  0.37500000  0.62500000  1
  P  P25  1  0.62500000  0.75000000  0.37500000  1
  P  P26  1  0.37500000  0.25000000  0.62500000  1
  P  P27  1  0.25000000  0.62500000  0.37500000  1
  P  P28  1  0.25000000  0.12500000  0.87500000  1
  P  P29  1  0.12500000  0.87500000  0.25000000  1
  P  P30  1  0.37500000  0.62500000  0.75000000  1
  P  P31  1  0.12500000  0.75000000  0.87500000  1
  O  O32  1  0.88939872  0.00733860  0.29762336  1
  O  O33  1  0.88206013  0.38939872  0.09177536  1
  O  O34  1  0.90822464  0.29028576  0.29762336  1
  O  O35  1  0.99266140  0.70237664  0.11060128  1
  O  O36  1  0.90822464  0.11793987  0.61060128  1
  O  O37  1  0.59177536  0.20237664  0.20971424  1
  O  O38  1  0.61793987  0.40822464  0.11060128  1
  O  O39  1  0.20971424  0.11793987  0.00733860  1
  O  O40  1  0.70971424  0.70237664  0.09177536  1
  O  O41  1  0.61060128  0.20237664  0.49266140  1
  O  O42  1  0.88939872  0.38206013  0.59177536  1
  O  O43  1  0.79762336  0.50733860  0.38939872  1
  O  O44  1  0.70237664  0.09177536  0.70971424  1
  O  O45  1  0.11793987  0.00733860  0.20971424  1
  O  O46  1  0.49266140  0.38206013  0.29028576  1
  O  O47  1  0.00733860  0.20971424  0.11793987  1
  O  O48  1  0.40822464  0.11060128  0.61793987  1
  O  O49  1  0.49266140  0.61060128  0.20237664  1
  O  O50  1  0.38206013  0.29028576  0.49266140  1
  O  O51  1  0.79762336  0.79028576  0.40822464  1
  O  O52  1  0.70237664  0.11060128  0.99266140  1
  O  O53  1  0.79028576  0.40822464  0.79762336  1
  O  O54  1  0.70971424  0.50733860  0.61793987  1
  O  O55  1  0.61060128  0.90822464  0.11793987  1
  O  O56  1  0.29028576  0.49266140  0.38206013  1
  O  O57  1  0.20971424  0.59177536  0.20237664  1
  O  O58  1  0.38939872  0.09177536  0.88206013  1
  O  O59  1  0.20237664  0.20971424  0.59177536  1
  O  O60  1  0.29762336  0.88939872  0.00733860  1
  O  O61  1  0.61793987  0.70971424  0.50733860  1
  O  O62  1  0.99266140  0.79028576  0.88206013  1
  O  O63  1  0.59177536  0.88939872  0.38206013  1
  O  O64  1  0.50733860  0.38939872  0.79762336  1
  O  O65  1  0.50733860  0.61793987  0.70971424  1
  O  O66  1  0.20237664  0.49266140  0.61060128  1
  O  O67  1  0.29762336  0.90822464  0.29028576  1
  O  O68  1  0.88206013  0.99266140  0.79028576  1
  O  O69  1  0.11060128  0.61793987  0.40822464  1
  O  O70  1  0.29028576  0.29762336  0.90822464  1
  O  O71  1  0.38939872  0.79762336  0.50733860  1
  O  O72  1  0.79028576  0.88206013  0.99266140  1
  O  O73  1  0.38206013  0.59177536  0.88939872  1
  O  O74  1  0.09177536  0.88206013  0.38939872  1
  O  O75  1  0.40822464  0.79762336  0.79028576  1
  O  O76  1  0.00733860  0.29762336  0.88939872  1
  O  O77  1  0.09177536  0.70971424  0.70237664  1
  O  O78  1  0.11793987  0.61060128  0.90822464  1
  O  O79  1  0.11060128  0.99266140  0.70237664  1
