# generated using pymatgen
data_Li6Mn3Cr2Fe3O16
_symmetry_space_group_name_H-M   'P 1'
_cell_length_a   5.91328447
_cell_length_b   5.86448769
_cell_length_c   9.56081772
_cell_angle_alpha   90.80106309
_cell_angle_beta   90.21480208
_cell_angle_gamma   59.80005708
_symmetry_Int_Tables_number   1
_chemical_formula_structural   Li6Mn3Cr2Fe3O16
_chemical_formula_sum   'Li6 Mn3 Cr2 Fe3 O16'
_cell_volume   286.52360728
_cell_formula_units_Z   1
loop_
 _symmetry_equiv_pos_site_id
 _symmetry_equiv_pos_as_xyz
  1  'x, y, z'
loop_
 _atom_site_type_symbol
 _atom_site_label
 _atom_site_symmetry_multiplicity
 _atom_site_fract_x
 _atom_site_fract_y
 _atom_site_fract_z
 _atom_site_occupancy
  Li  Li0  1  0.83131425  0.82353542  0.94321751  1
  Li  Li1  1  0.34341779  0.82203523  0.94254008  1
  Li  Li2  1  0.82788578  0.34360307  0.94477339  1
  Li  Li3  1  0.17363581  0.65155343  0.44115015  1
  Li  Li4  1  0.65534706  0.16913534  0.44432401  1
  Li  Li5  1  0.17389251  0.17175435  0.44547769  1
  Mn  Mn6  1  0.83092045  0.33816026  0.21482216  1
  Mn  Mn7  1  0.66282696  0.16594422  0.71458637  1
  Mn  Mn8  1  0.16709179  0.16965745  0.71420643  1
  Cr  Cr9  1  0.66924302  0.67056456  0.48824132  1
  Cr  Cr10  1  0.33071218  0.33485516  0.98746088  1
  Fe  Fe11  1  0.83096142  0.83542158  0.21246694  1
  Fe  Fe12  1  0.33357522  0.83555119  0.21268257  1
  Fe  Fe13  1  0.16845063  0.66656932  0.71131866  1
  O  O14  1  0.83502780  0.84878059  0.59539476  1
  O  O15  1  0.51724628  0.96528095  0.34603449  1
  O  O16  1  0.67319635  0.65278213  0.09878273  1
  O  O17  1  0.32169204  0.84454337  0.59529629  1
  O  O18  1  0.96506095  0.51052850  0.34151358  1
  O  O19  1  0.52637285  0.50887821  0.34332342  1
  O  O20  1  0.15950820  0.68062746  0.09216096  1
  O  O21  1  0.85135685  0.32549324  0.59885046  1
  O  O22  1  0.48896341  0.46926691  0.84233568  1
  O  O23  1  0.67768268  0.16881869  0.09721982  1
  O  O24  1  0.99268104  0.01427559  0.32395461  1
  O  O25  1  0.03643843  0.47538260  0.84249845  1
  O  O26  1  0.01618214  0.00307862  0.82460346  1
  O  O27  1  0.31737919  0.33054508  0.59714279  1
  O  O28  1  0.47345935  0.02707037  0.84479544  1
  O  O29  1  0.15108456  0.17156810  0.09954692  1
