# generated using pymatgen
data_Li3Co13O16
_symmetry_space_group_name_H-M   'P 1'
_cell_length_a   5.98102961
_cell_length_b   5.15519873
_cell_length_c   9.90461412
_cell_angle_alpha   85.38543755
_cell_angle_beta   98.73530371
_cell_angle_gamma   90.15395235
_symmetry_Int_Tables_number   1
_chemical_formula_structural   Li3Co13O16
_chemical_formula_sum   'Li3 Co13 O16'
_cell_volume   300.85794555
_cell_formula_units_Z   1
loop_
 _symmetry_equiv_pos_site_id
 _symmetry_equiv_pos_as_xyz
  1  'x, y, z'
loop_
 _atom_site_type_symbol
 _atom_site_label
 _atom_site_symmetry_multiplicity
 _atom_site_fract_x
 _atom_site_fract_y
 _atom_site_fract_z
 _atom_site_occupancy
  Li  Li0  1  0.87585592  0.74816444  0.50276998  1
  Li  Li1  1  0.43750000  0.37500000  0.75000000  1
  Li  Li2  1  0.99914408  0.00183556  0.99723002  1
  Co  Co3  1  0.18781864  0.87457239  0.74961755  1
  Co  Co4  1  0.68718136  0.87542761  0.75038245  1
  Co  Co5  1  0.37791725  0.74473729  0.50426133  1
  Co  Co6  1  0.93750000  0.37500000  0.75000000  1
  Co  Co7  1  0.05943706  0.63124904  0.24895244  1
  Co  Co8  1  0.56530401  0.62846157  0.25094290  1
  Co  Co9  1  0.12341464  0.25422339  0.50322716  1
  Co  Co10  1  0.62771748  0.25485921  0.50340956  1
  Co  Co11  1  0.30969599  0.12153843  0.24905710  1
  Co  Co12  1  0.81556294  0.11875096  0.25104756  1
  Co  Co13  1  0.24728252  0.49514079  0.99659044  1
  Co  Co14  1  0.75158536  0.49577661  0.99677284  1
  Co  Co15  1  0.49708275  0.00526271  0.99573867  1
  O  O16  1  0.47015089  0.69597155  0.87690691  1
  O  O17  1  0.96680289  0.66363264  0.86616410  1
  O  O18  1  0.59022401  0.94518590  0.37605546  1
  O  O19  1  0.09864340  0.94204840  0.37643748  1
  O  O20  1  0.67330953  0.55770583  0.63368130  1
  O  O21  1  0.20169047  0.19229417  0.86631870  1
  O  O22  1  0.14349439  0.55780890  0.63388557  1
  O  O23  1  0.73150561  0.19219110  0.86611443  1
  O  O24  1  0.84261803  0.43111911  0.37376926  1
  O  O25  1  0.34502054  0.44084779  0.37989783  1
  O  O26  1  0.28477599  0.80481410  0.12394454  1
  O  O27  1  0.90819711  0.08636736  0.63383590  1
  O  O28  1  0.77635660  0.80795160  0.12356252  1
  O  O29  1  0.40484911  0.05402845  0.62309309  1
  O  O30  1  0.52997946  0.30915221  0.12010217  1
  O  O31  1  0.03238197  0.31888089  0.12623074  1
