# generated using pymatgen
data_K2Al2Si2O9
_symmetry_space_group_name_H-M   'P 1'
_cell_length_a   9.56199798
_cell_length_b   9.66356068
_cell_length_c   10.00927045
_cell_angle_alpha   90.00000000
_cell_angle_beta   90.00000000
_cell_angle_gamma   90.00000000
_symmetry_Int_Tables_number   1
_chemical_formula_structural   K2Al2Si2O9
_chemical_formula_sum   'K8 Al8 Si8 O36'
_cell_volume   924.88609392
_cell_formula_units_Z   4
loop_
 _symmetry_equiv_pos_site_id
 _symmetry_equiv_pos_as_xyz
  1  'x, y, z'
loop_
 _atom_site_type_symbol
 _atom_site_label
 _atom_site_symmetry_multiplicity
 _atom_site_fract_x
 _atom_site_fract_y
 _atom_site_fract_z
 _atom_site_occupancy
  K  K0  1  0.69852423  0.74198261  0.13613344  1
  K  K1  1  0.80147577  0.25801739  0.63613344  1
  K  K2  1  0.19852423  0.75801739  0.86386656  1
  K  K3  1  0.30147577  0.24198261  0.36386656  1
  K  K4  1  0.97627046  0.95439005  0.37016798  1
  K  K5  1  0.52372954  0.04560995  0.87016798  1
  K  K6  1  0.47627046  0.54560995  0.62983202  1
  K  K7  1  0.02372954  0.45439005  0.12983202  1
  Al  Al8  1  0.38014584  0.89685644  0.19711433  1
  Al  Al9  1  0.11985416  0.10314356  0.69711433  1
  Al  Al10  1  0.88014584  0.60314356  0.80288567  1
  Al  Al11  1  0.61985416  0.39685644  0.30288567  1
  Al  Al12  1  0.12995041  0.63030581  0.47056530  1
  Al  Al13  1  0.37004959  0.36969419  0.97056530  1
  Al  Al14  1  0.62995041  0.86969419  0.52943470  1
  Al  Al15  1  0.87004959  0.13030581  0.02943470  1
  Si  Si16  1  0.64797904  0.07078226  0.26862216  1
  Si  Si17  1  0.85202096  0.92921774  0.76862216  1
  Si  Si18  1  0.14797904  0.42921774  0.73137784  1
  Si  Si19  1  0.35202096  0.57078226  0.23137784  1
  Si  Si20  1  0.29909129  0.91493204  0.50202727  1
  Si  Si21  1  0.20090871  0.08506796  0.00202727  1
  Si  Si22  1  0.79909129  0.58506796  0.49797273  1
  Si  Si23  1  0.70090871  0.41493204  0.99797273  1
  O  O24  1  0.68198236  0.70441724  0.47249532  1
  O  O25  1  0.81801764  0.29558276  0.97249532  1
  O  O26  1  0.18198236  0.79558276  0.52750468  1
  O  O27  1  0.31801764  0.20441724  0.02750468  1
  O  O28  1  0.44921094  0.86806749  0.56182568  1
  O  O29  1  0.05078906  0.13193251  0.06182568  1
  O  O30  1  0.94921094  0.63193251  0.43817432  1
  O  O31  1  0.55078906  0.36806749  0.93817432  1
  O  O32  1  0.70424251  0.91267351  0.68606444  1
  O  O33  1  0.79575749  0.08732649  0.18606444  1
  O  O34  1  0.20424251  0.58732649  0.31393556  1
  O  O35  1  0.29575749  0.41267351  0.81393556  1
  O  O36  1  0.75899124  0.56110231  0.93009969  1
  O  O37  1  0.74100876  0.43889769  0.43009969  1
  O  O38  1  0.25899124  0.93889769  0.06990031  1
  O  O39  1  0.24100876  0.06110231  0.56990031  1
  O  O40  1  0.30351879  0.95653508  0.34386692  1
  O  O41  1  0.19648121  0.04346492  0.84386692  1
  O  O42  1  0.80351879  0.54346492  0.65613308  1
  O  O43  1  0.69648121  0.45653508  0.15613308  1
  O  O44  1  0.45771822  0.48045582  0.32756531  1
  O  O45  1  0.04228178  0.51954418  0.82756531  1
  O  O46  1  0.95771822  0.01954418  0.67243469  1
  O  O47  1  0.54228178  0.98045582  0.17243469  1
  O  O48  1  0.41970458  0.72046925  0.19312615  1
  O  O49  1  0.08029542  0.27953075  0.69312615  1
  O  O50  1  0.91970458  0.77953075  0.80687385  1
  O  O51  1  0.58029542  0.22046925  0.30687385  1
  O  O52  1  0.31423359  0.48688488  0.09385835  1
  O  O53  1  0.18576641  0.51311512  0.59385835  1
  O  O54  1  0.81423359  0.01311512  0.90614165  1
  O  O55  1  0.68576641  0.98688488  0.40614165  1
  O  O56  1  0.05971451  0.77871091  0.13348901  1
  O  O57  1  0.44028549  0.22128909  0.63348901  1
  O  O58  1  0.55971451  0.72128909  0.86651099  1
  O  O59  1  0.94028549  0.27871091  0.36651099  1
