# generated using pymatgen
data_SnH4
_symmetry_space_group_name_H-M   'P 1'
_cell_length_a   6.21304103
_cell_length_b   4.05011191
_cell_length_c   4.64417962
_cell_angle_alpha   90.00000000
_cell_angle_beta   87.46642863
_cell_angle_gamma   90.00000000
_symmetry_Int_Tables_number   1
_chemical_formula_structural   SnH4
_chemical_formula_sum   'Sn2 H8'
_cell_volume   116.74963181
_cell_formula_units_Z   2
loop_
 _symmetry_equiv_pos_site_id
 _symmetry_equiv_pos_as_xyz
  1  'x, y, z'
loop_
 _atom_site_type_symbol
 _atom_site_label
 _atom_site_symmetry_multiplicity
 _atom_site_fract_x
 _atom_site_fract_y
 _atom_site_fract_z
 _atom_site_occupancy
  Sn  Sn0  1  0.42775155  0.74999900  0.26042688  1
  Sn  Sn1  1  0.57224745  0.25000200  0.73956812  1
  H  H2  1  0.99033379  0.74999900  0.12951541  1
  H  H3  1  0.86907524  0.74999900  0.13670514  1
  H  H4  1  0.06745228  0.25000200  0.36528216  1
  H  H5  1  0.94537932  0.25000200  0.37583985  1
  H  H6  1  0.05462268  0.74999900  0.62416315  1
  H  H7  1  0.93254472  0.74999900  0.63471684  1
  H  H8  1  0.13092676  0.25000200  0.86329886  1
  H  H9  1  0.00966521  0.25000200  0.87048759  1
