# generated using pymatgen
data_Tm2CuTc
_symmetry_space_group_name_H-M   'P 1'
_cell_length_a   4.77098930
_cell_length_b   4.77099239
_cell_length_c   4.77098159
_cell_angle_alpha   59.99894861
_cell_angle_beta   59.99969019
_cell_angle_gamma   59.99935068
_symmetry_Int_Tables_number   1
_chemical_formula_structural   Tm2CuTc
_chemical_formula_sum   'Tm2 Cu1 Tc1'
_cell_volume   76.78976004
_cell_formula_units_Z   1
loop_
 _symmetry_equiv_pos_site_id
 _symmetry_equiv_pos_as_xyz
  1  'x, y, z'
loop_
 _atom_site_type_symbol
 _atom_site_label
 _atom_site_symmetry_multiplicity
 _atom_site_fract_x
 _atom_site_fract_y
 _atom_site_fract_z
 _atom_site_occupancy
  Tm  Tm0  1  0.00000013  0.99999981  -0.00000081  1
  Tm  Tm1  1  0.49999603  0.50000206  0.50000141  1
  Cu  Cu2  1  0.25000208  0.24999753  0.24999675  1
  Tc  Tc3  1  0.74999976  0.74999859  0.75000065  1
