# generated using pymatgen
data_C3N4
_symmetry_space_group_name_H-M   'P 1'
_cell_length_a   7.13293097
_cell_length_b   7.13293124
_cell_length_c   7.13764531
_cell_angle_alpha   90.00000000
_cell_angle_beta   90.00000000
_cell_angle_gamma   119.98104268
_symmetry_Int_Tables_number   1
_chemical_formula_structural   C3N4
_chemical_formula_sum   'C12 N16'
_cell_volume   314.56078721
_cell_formula_units_Z   4
loop_
 _symmetry_equiv_pos_site_id
 _symmetry_equiv_pos_as_xyz
  1  'x, y, z'
loop_
 _atom_site_type_symbol
 _atom_site_label
 _atom_site_symmetry_multiplicity
 _atom_site_fract_x
 _atom_site_fract_y
 _atom_site_fract_z
 _atom_site_occupancy
  C  C0  1  0.23870648  0.11909310  0.00000000  1
  C  C1  1  0.55437714  0.10822555  0.00000000  1
  C  C2  1  0.55430443  0.44569557  0.00000000  1
  C  C3  1  0.88043587  0.11956413  0.00000000  1
  C  C4  1  0.89177445  0.44562286  0.00000000  1
  C  C5  1  0.88090690  0.76129352  0.00000000  1
  C  C6  1  0.88080452  0.76139590  0.50000000  1
  C  C7  1  0.56513486  0.77226245  0.50000000  1
  C  C8  1  0.56520757  0.43479243  0.50000000  1
  C  C9  1  0.23907513  0.76092487  0.50000000  1
  C  C10  1  0.22773755  0.43486514  0.50000000  1
  C  C11  1  0.23860410  0.11919548  0.50000000  1
  N  N12  1  -0.00000872  0.00000872  0.00000000  1
  N  N13  1  0.33878286  0.33533626  0.00000000  1
  N  N14  1  0.33863510  0.00358971  0.00000000  1
  N  N15  1  0.66681235  0.33318765  0.00000000  1
  N  N16  1  0.66492474  0.00374505  0.00000000  1
  N  N17  1  0.99625495  0.33507526  0.00000000  1
  N  N18  1  0.99641029  0.66136490  0.00000000  1
  N  N19  1  0.66466374  0.66121714  0.00000000  1
  N  N20  1  0.11951972  0.88048028  0.50000000  1
  N  N21  1  0.78072814  0.54515274  0.50000000  1
  N  N22  1  0.78087590  0.87689929  0.50000000  1
  N  N23  1  0.45269865  0.54730135  0.50000000  1
  N  N24  1  0.45458626  0.87674395  0.50000000  1
  N  N25  1  0.12325605  0.54541374  0.50000000  1
  N  N26  1  0.12310071  0.21912410  0.50000000  1
  N  N27  1  0.45484726  0.21927186  0.50000000  1
