# generated using pymatgen
data_SmBi3
_symmetry_space_group_name_H-M   'P 1'
_cell_length_a   6.87508075
_cell_length_b   6.87507971
_cell_length_c   6.07473411
_cell_angle_alpha   90.00000000
_cell_angle_beta   90.00000000
_cell_angle_gamma   120.00000016
_symmetry_Int_Tables_number   1
_chemical_formula_structural   SmBi3
_chemical_formula_sum   'Sm2 Bi6'
_cell_volume   248.66430365
_cell_formula_units_Z   2
loop_
 _symmetry_equiv_pos_site_id
 _symmetry_equiv_pos_as_xyz
  1  'x, y, z'
loop_
 _atom_site_type_symbol
 _atom_site_label
 _atom_site_symmetry_multiplicity
 _atom_site_fract_x
 _atom_site_fract_y
 _atom_site_fract_z
 _atom_site_occupancy
  Sm  Sm0  1  0.66666800  0.33333400  0.25000100  1
  Sm  Sm1  1  0.33333300  0.66666700  0.75000000  1
  Bi  Bi2  1  0.82741846  0.17257954  0.75000000  1
  Bi  Bi3  1  0.34516209  0.17257954  0.75000000  1
  Bi  Bi4  1  0.82741846  0.65483891  0.75000000  1
  Bi  Bi5  1  0.17258054  0.82741846  0.25000100  1
  Bi  Bi6  1  0.65483891  0.82741846  0.25000100  1
  Bi  Bi7  1  0.17258054  0.34516109  0.25000100  1
