# generated using pymatgen
data_Ni3As
_symmetry_space_group_name_H-M   'P 1'
_cell_length_a   5.09310748
_cell_length_b   5.09489877
_cell_length_c   4.10956439
_cell_angle_alpha   90.00023779
_cell_angle_beta   89.99899855
_cell_angle_gamma   120.00294233
_symmetry_Int_Tables_number   1
_chemical_formula_structural   Ni3As
_chemical_formula_sum   'Ni6 As2'
_cell_volume   92.34894636
_cell_formula_units_Z   2
loop_
 _symmetry_equiv_pos_site_id
 _symmetry_equiv_pos_as_xyz
  1  'x, y, z'
loop_
 _atom_site_type_symbol
 _atom_site_label
 _atom_site_symmetry_multiplicity
 _atom_site_fract_x
 _atom_site_fract_y
 _atom_site_fract_z
 _atom_site_occupancy
  Ni  Ni0  1  0.16704694  0.33410009  0.25000865  1
  Ni  Ni1  1  0.66590304  0.83298726  0.25000841  1
  Ni  Ni2  1  0.16708286  0.83298028  0.24995947  1
  Ni  Ni3  1  0.83290929  0.66585032  0.74999089  1
  Ni  Ni4  1  0.33415455  0.16706970  0.74999039  1
  Ni  Ni5  1  0.83292815  0.16703257  0.75003781  1
  As  As6  1  0.33331764  0.66664027  0.74999847  1
  As  As7  1  0.66665354  0.33333051  0.24999791  1
