# generated using pymatgen
data_BaZrSe3
_symmetry_space_group_name_H-M   'P 1'
_cell_length_a   5.28738293
_cell_length_b   5.29639285
_cell_length_c   5.30947762
_cell_angle_alpha   89.89145236
_cell_angle_beta   89.91420688
_cell_angle_gamma   89.96131186
_symmetry_Int_Tables_number   1
_chemical_formula_structural   BaZrSe3
_chemical_formula_sum   'Ba1 Zr1 Se3'
_cell_volume   148.68644754
_cell_formula_units_Z   1
loop_
 _symmetry_equiv_pos_site_id
 _symmetry_equiv_pos_as_xyz
  1  'x, y, z'
loop_
 _atom_site_type_symbol
 _atom_site_label
 _atom_site_symmetry_multiplicity
 _atom_site_fract_x
 _atom_site_fract_y
 _atom_site_fract_z
 _atom_site_occupancy
  Ba  Ba0  1  0.99864319  0.99847771  0.99867273  1
  Zr  Zr1  1  0.47657789  0.49006880  0.47672671  1
  Se  Se2  1  0.48831727  0.99850566  0.50269286  1
  Se  Se3  1  0.98384525  0.51163606  0.51853980  1
  Se  Se4  1  0.49261440  0.50130977  0.99336990  1
