# generated using pymatgen
data_Al5(FeO4)3
_symmetry_space_group_name_H-M   'P 1'
_cell_length_a   5.78040665
_cell_length_b   5.77994892
_cell_length_c   17.41957685
_cell_angle_alpha   60.23601544
_cell_angle_beta   60.23394824
_cell_angle_gamma   59.98578354
_symmetry_Int_Tables_number   1
_chemical_formula_structural   Al5(FeO4)3
_chemical_formula_sum   'Al10 Fe6 O24'
_cell_volume   412.94422084
_cell_formula_units_Z   2
loop_
 _symmetry_equiv_pos_site_id
 _symmetry_equiv_pos_as_xyz
  1  'x, y, z'
loop_
 _atom_site_type_symbol
 _atom_site_label
 _atom_site_symmetry_multiplicity
 _atom_site_fract_x
 _atom_site_fract_y
 _atom_site_fract_z
 _atom_site_occupancy
  Al  Al0  1  0.50211552  0.50437430  0.16683463  1
  Al  Al1  1  0.49935761  0.99779165  0.50257555  1
  Al  Al2  1  0.50188283  0.99397961  0.16666871  1
  Al  Al3  1  0.49887786  0.49799311  0.34072406  1
  Al  Al4  1  0.99191385  0.50417602  0.16658731  1
  Al  Al5  1  0.99440719  0.50326235  0.83296950  1
  Al  Al6  1  0.49928508  0.49799155  0.66164479  1
  Al  Al7  1  0.99982112  0.49728475  0.50261150  1
  Al  Al8  1  0.50319369  0.50363979  0.83261161  1
  Al  Al9  1  0.50271644  0.99492800  0.83297970  1
  Fe  Fe10  1  0.12626014  0.12853586  0.03833841  1
  Fe  Fe11  1  0.51147618  0.51266563  0.98780456  1
  Fe  Fe12  1  0.11879714  0.11726154  0.37755389  1
  Fe  Fe13  1  0.12180157  0.12154337  0.70800680  1
  Fe  Fe14  1  0.86817816  0.86928346  0.30117264  1
  Fe  Fe15  1  0.88767798  0.88568779  0.61967500  1
  O  O16  1  0.24710359  0.24940277  0.09454872  1
  O  O17  1  0.26109789  0.26243662  0.23760858  1
  O  O18  1  0.24682560  0.71884123  0.09486730  1
  O  O19  1  0.71656729  0.24926193  0.09477115  1
  O  O20  1  0.26031473  0.25846697  0.42199002  1
  O  O21  1  0.28055633  0.73210303  0.25018943  1
  O  O22  1  0.73064047  0.28213936  0.25008846  1
  O  O23  1  0.24638559  0.24418643  0.57686679  1
  O  O24  1  0.24123673  0.72365389  0.41472627  1
  O  O25  1  0.72510908  0.72741661  0.10746473  1
  O  O26  1  0.72550140  0.23952332  0.41451870  1
  O  O27  1  0.73277391  0.73411128  0.25226023  1
  O  O28  1  0.26567630  0.26588789  0.75104464  1
  O  O29  1  0.28032547  0.75687512  0.58544482  1
  O  O30  1  0.75897807  0.27831975  0.58561000  1
  O  O31  1  0.26212946  0.26276315  0.90349100  1
  O  O32  1  0.26810355  0.70763054  0.75270824  1
  O  O33  1  0.75036379  0.74832902  0.42897228  1
  O  O34  1  0.70764826  0.26817303  0.75277652  1
  O  O35  1  0.74206036  0.74006143  0.57910513  1
  O  O36  1  0.29694857  0.75000051  0.90125421  1
  O  O37  1  0.74917262  0.29776657  0.90134129  1
  O  O38  1  0.74589378  0.74628705  0.75382273  1
  O  O39  1  0.74877181  0.74945072  0.90159110  1
