# generated using pymatgen
data_Ba3Mo2(IO9)2
_symmetry_space_group_name_H-M   'P 1'
_cell_length_a   5.05474852
_cell_length_b   7.38700608
_cell_length_c   22.90496338
_cell_angle_alpha   87.83645015
_cell_angle_beta   83.66498237
_cell_angle_gamma   69.99282389
_symmetry_Int_Tables_number   1
_chemical_formula_structural   Ba3Mo2(IO9)2
_chemical_formula_sum   'Ba6 Mo4 I4 O36'
_cell_volume   798.73656438
_cell_formula_units_Z   2
loop_
 _symmetry_equiv_pos_site_id
 _symmetry_equiv_pos_as_xyz
  1  'x, y, z'
loop_
 _atom_site_type_symbol
 _atom_site_label
 _atom_site_symmetry_multiplicity
 _atom_site_fract_x
 _atom_site_fract_y
 _atom_site_fract_z
 _atom_site_occupancy
  Ba  Ba0  1  0.47388354  -0.00000000  0.00000000  1
  Ba  Ba1  1  0.22388354  0.50000000  0.50000000  1
  Ba  Ba2  1  0.71814553  0.78705253  0.19224517  1
  Ba  Ba3  1  0.69744323  0.21294747  0.80775483  1
  Ba  Ba4  1  0.25519806  0.71294747  0.69224517  1
  Ba  Ba5  1  0.66039070  0.28705253  0.30775483  1
  Mo  Mo6  1  0.57128103  0.40813786  0.09505674  1
  Mo  Mo7  1  0.07447563  0.59186214  0.90494326  1
  Mo  Mo8  1  0.72941889  0.09186214  0.59505674  1
  Mo  Mo9  1  0.41633777  0.90813786  0.40494326  1
  I  I10  1  0.13450924  0.21969478  0.16124843  1
  I  I11  1  0.51545245  0.78030522  0.83875157  1
  I  I12  1  0.10420402  0.28030522  0.66124843  1
  I  I13  1  0.04575767  0.71969478  0.33875157  1
  O  O14  1  0.56816083  0.64670457  0.09538236  1
  O  O15  1  0.31024775  0.35329543  0.90461764  1
  O  O16  1  0.96486539  0.85329543  0.59538236  1
  O  O17  1  0.41354318  0.14670457  0.40461764  1
  O  O18  1  0.50491817  0.37194672  0.02459307  1
  O  O19  1  0.90145795  0.62805328  0.97540693  1
  O  O20  1  0.62686489  0.12805328  0.52459307  1
  O  O21  1  0.27951123  0.87194672  0.47540693  1
  O  O22  1  0.50254461  0.12480101  0.12044633  1
  O  O23  1  0.74779195  0.87519899  0.87955367  1
  O  O24  1  0.37734562  0.37519899  0.62044633  1
  O  O25  1  0.37299094  0.62480101  0.37955367  1
  O  O26  1  0.19904337  0.46823669  0.14428535  1
  O  O27  1  0.81156541  0.53176331  0.85571465  1
  O  O28  1  0.41728006  0.03176331  0.64428535  1
  O  O29  1  0.09332873  0.96823669  0.35571465  1
  O  O30  1  0.97942127  0.24791735  0.08362906  1
  O  O31  1  0.31096769  0.75208265  0.91637094  1
  O  O32  1  0.97733862  0.25208265  0.58362906  1
  O  O33  1  0.81305033  0.74791735  0.41637094  1
  O  O34  1  0.10712258  0.97644890  0.16883196  1
  O  O35  1  0.25240344  0.02355110  0.83116804  1
  O  O36  1  0.83357148  0.52355110  0.66883196  1
  O  O37  1  0.02595454  0.47644890  0.33116804  1
  O  O38  1  0.24972609  0.19890733  0.23560591  1
  O  O39  1  0.68423933  0.80109267  0.76439409  1
  O  O40  1  0.19863341  0.30109267  0.73560591  1
  O  O41  1  0.23533200  0.69890733  0.26439409  1
  O  O42  1  0.99785507  0.91780422  0.04047485  1
  O  O43  1  0.95613414  0.08219578  0.95952515  1
  O  O44  1  0.66565929  0.58219578  0.54047485  1
  O  O45  1  0.78832992  0.41780422  0.45952515  1
  O  O46  1  0.75300911  0.36876610  0.18580538  1
  O  O47  1  0.30758060  0.63123390  0.81419462  1
  O  O48  1  0.87177521  0.13123390  0.68580538  1
  O  O49  1  0.68881450  0.86876610  0.31419462  1
