# generated using pymatgen
data_La2ZnCrO6
_symmetry_space_group_name_H-M   'P 1'
_cell_length_a   5.53358826
_cell_length_b   5.53358791
_cell_length_c   5.53358848
_cell_angle_alpha   61.23659262
_cell_angle_beta   61.23659373
_cell_angle_gamma   61.23659656
_symmetry_Int_Tables_number   1
_chemical_formula_structural   La2ZnCrO6
_chemical_formula_sum   'La2 Zn1 Cr1 O6'
_cell_volume   123.14534877
_cell_formula_units_Z   1
loop_
 _symmetry_equiv_pos_site_id
 _symmetry_equiv_pos_as_xyz
  1  'x, y, z'
loop_
 _atom_site_type_symbol
 _atom_site_label
 _atom_site_symmetry_multiplicity
 _atom_site_fract_x
 _atom_site_fract_y
 _atom_site_fract_z
 _atom_site_occupancy
  La  La0  1  0.75102724  0.75102724  0.75102724  1
  La  La1  1  0.24897276  0.24897276  0.24897276  1
  Zn  Zn2  1  0.50000000  0.50000000  0.50000000  1
  Cr  Cr3  1  0.00000000  0.00000000  0.00000000  1
  O  O4  1  0.31672934  0.76362398  0.16501360  1
  O  O5  1  0.76362398  0.16501360  0.31672934  1
  O  O6  1  0.16501360  0.31672934  0.76362398  1
  O  O7  1  0.68327066  0.23637602  0.83498640  1
  O  O8  1  0.83498640  0.68327066  0.23637602  1
  O  O9  1  0.23637602  0.83498640  0.68327066  1
