# generated using pymatgen
data_PrGe5
_symmetry_space_group_name_H-M   'P 1'
_cell_length_a   6.22652993
_cell_length_b   6.22652993
_cell_length_c   6.22652993
_cell_angle_alpha   142.23604572
_cell_angle_beta   119.37094322
_cell_angle_gamma   73.67996507
_symmetry_Int_Tables_number   1
_chemical_formula_structural   PrGe5
_chemical_formula_sum   'Pr1 Ge5'
_cell_volume   126.23117581
_cell_formula_units_Z   1
loop_
 _symmetry_equiv_pos_site_id
 _symmetry_equiv_pos_as_xyz
  1  'x, y, z'
loop_
 _atom_site_type_symbol
 _atom_site_label
 _atom_site_symmetry_multiplicity
 _atom_site_fract_x
 _atom_site_fract_y
 _atom_site_fract_z
 _atom_site_occupancy
  Pr  Pr0  1  0.00000000  0.00000000  0.00000000  1
  Ge  Ge1  1  0.53365335  0.32970264  0.20395070  1
  Ge  Ge2  1  0.12575194  0.32970464  0.79604930  1
  Ge  Ge3  1  0.46634565  0.67029736  0.79604930  1
  Ge  Ge4  1  0.87424706  0.67029636  0.20395070  1
  Ge  Ge5  1  0.50000000  0.00000000  0.50000000  1
