# generated using pymatgen
data_Sr2ZnNi2(PO4)4
_symmetry_space_group_name_H-M   'P 1'
_cell_length_a   5.55054298
_cell_length_b   6.88480828
_cell_length_c   9.23982236
_cell_angle_alpha   110.26612308
_cell_angle_beta   101.49657334
_cell_angle_gamma   98.40807226
_symmetry_Int_Tables_number   1
_chemical_formula_structural   Sr2ZnNi2(PO4)4
_chemical_formula_sum   'Sr2 Zn1 Ni2 P4 O16'
_cell_volume   315.56563854
_cell_formula_units_Z   1
loop_
 _symmetry_equiv_pos_site_id
 _symmetry_equiv_pos_as_xyz
  1  'x, y, z'
loop_
 _atom_site_type_symbol
 _atom_site_label
 _atom_site_symmetry_multiplicity
 _atom_site_fract_x
 _atom_site_fract_y
 _atom_site_fract_z
 _atom_site_occupancy
  Sr  Sr0  1  0.25421431  0.79487763  0.05936572  1
  Sr  Sr1  1  0.74247163  0.20531570  0.94600327  1
  Zn  Zn2  1  0.99432639  0.44845873  0.63360180  1
  Ni  Ni3  1  0.65764270  0.84532262  0.55411479  1
  Ni  Ni4  1  0.35220105  0.13834827  0.44418295  1
  P  P5  1  0.39607585  0.42393377  0.23794854  1
  P  P6  1  0.59446413  0.57314625  0.76196891  1
  P  P7  1  0.84901344  0.02548588  0.30340584  1
  P  P8  1  0.15729905  0.97042916  0.70161209  1
  O  O9  1  0.81307268  0.56003577  0.88813337  1
  O  O10  1  0.63473389  0.46292664  0.18325098  1
  O  O11  1  0.63882328  0.79515031  0.75506389  1
  O  O12  1  0.95206711  0.10514895  0.69162299  1
  O  O13  1  0.33331386  0.51770557  0.79403033  1
  O  O14  1  0.00483134  0.73655307  0.59737889  1
  O  O15  1  0.00830964  0.25244269  0.42381297  1
  O  O16  1  0.27197157  0.00962961  0.87719114  1
  O  O17  1  0.35772691  0.20063800  0.24768931  1
  O  O18  1  0.73851345  0.00175028  0.13173534  1
  O  O19  1  0.17315211  0.43730625  0.11386339  1
  O  O20  1  0.39913003  0.59500039  0.39997425  1
  O  O21  1  0.60826252  0.40124950  0.59849240  1
  O  O22  1  0.62611516  0.95122829  0.36752237  1
  O  O23  1  0.05723728  0.89364052  0.30510643  1
  O  O24  1  0.37485061  0.03841715  0.63016105  1
