# generated using pymatgen
data_Mg3V2O7
_symmetry_space_group_name_H-M   'P 1'
_cell_length_a   5.35547870
_cell_length_b   5.19862472
_cell_length_c   9.21400766
_cell_angle_alpha   106.38583908
_cell_angle_beta   90.00000000
_cell_angle_gamma   90.00000000
_symmetry_Int_Tables_number   1
_chemical_formula_structural   Mg3V2O7
_chemical_formula_sum   'Mg6 V4 O14'
_cell_volume   246.10910497
_cell_formula_units_Z   2
loop_
 _symmetry_equiv_pos_site_id
 _symmetry_equiv_pos_as_xyz
  1  'x, y, z'
loop_
 _atom_site_type_symbol
 _atom_site_label
 _atom_site_symmetry_multiplicity
 _atom_site_fract_x
 _atom_site_fract_y
 _atom_site_fract_z
 _atom_site_occupancy
  Mg  Mg0  1  0.69908706  0.75608147  1.00000000  1
  Mg  Mg1  1  0.19908706  0.24391853  0.00000000  1
  Mg  Mg2  1  0.81599034  0.57674237  0.61542695  1
  Mg  Mg3  1  0.31599034  0.42325763  0.38457305  1
  Mg  Mg4  1  0.81599034  0.96131442  0.38457305  1
  Mg  Mg5  1  0.31599034  0.03868558  0.61542695  1
  V  V6  1  0.75364493  0.35581732  0.20985973  1
  V  V7  1  0.25364493  0.64418268  0.79014027  1
  V  V8  1  0.25364493  0.85404240  0.20985972  1
  V  V9  1  0.75364493  0.14595760  0.79014028  1
  O  O10  1  0.69698262  0.93477651  0.58875868  1
  O  O11  1  0.19698262  0.06522349  0.41124132  1
  O  O12  1  0.19698262  0.65398117  0.58875868  1
  O  O13  1  0.69698262  0.34601883  0.41124132  1
  O  O14  1  0.06212419  0.30216601  0.74040334  1
  O  O15  1  0.56212419  0.69783399  0.25959666  1
  O  O16  1  0.56212419  0.43823733  0.74040334  1
  O  O17  1  0.06212419  0.56176267  0.25959666  1
  O  O18  1  0.93034407  0.84857834  0.84150875  1
  O  O19  1  0.43034407  0.15142166  0.15849125  1
  O  O20  1  0.80274265  0.36641781  0.00000000  1
  O  O21  1  0.30274265  0.63358219  1.00000000  1
  O  O22  1  0.93034407  0.00706960  0.15849125  1
  O  O23  1  0.43034407  0.99293040  0.84150875  1
