# generated using pymatgen
data_LiCeS2O9
_symmetry_space_group_name_H-M   'P 1'
_cell_length_a   4.64807273
_cell_length_b   8.18298079
_cell_length_c   18.31941515
_cell_angle_alpha   97.94680651
_cell_angle_beta   90.00000000
_cell_angle_gamma   90.00000000
_symmetry_Int_Tables_number   1
_chemical_formula_structural   LiCeS2O9
_chemical_formula_sum   'Li4 Ce4 S8 O36'
_cell_volume   690.08931299
_cell_formula_units_Z   4
loop_
 _symmetry_equiv_pos_site_id
 _symmetry_equiv_pos_as_xyz
  1  'x, y, z'
loop_
 _atom_site_type_symbol
 _atom_site_label
 _atom_site_symmetry_multiplicity
 _atom_site_fract_x
 _atom_site_fract_y
 _atom_site_fract_z
 _atom_site_occupancy
  Li  Li0  1  0.93210921  0.11422506  0.29435715  1
  Li  Li1  1  0.43210921  0.88577494  0.20564285  1
  Li  Li2  1  0.06789079  0.88577494  0.70564285  1
  Li  Li3  1  0.56789079  0.11422506  0.79435715  1
  Ce  Ce4  1  0.51271420  0.61683155  0.39948243  1
  Ce  Ce5  1  0.01271420  0.38316845  0.10051757  1
  Ce  Ce6  1  0.48728580  0.38316845  0.60051757  1
  Ce  Ce7  1  0.98728580  0.61683155  0.89948243  1
  S  S8  1  0.96623329  0.29114949  0.44716908  1
  S  S9  1  0.46623329  0.70885051  0.05283092  1
  S  S10  1  0.03376671  0.70885051  0.55283092  1
  S  S11  1  0.53376671  0.29114949  0.94716908  1
  S  S12  1  0.94772627  0.72528792  0.26412916  1
  S  S13  1  0.44772627  0.27471208  0.23587084  1
  S  S14  1  0.05227373  0.27471208  0.73587084  1
  S  S15  1  0.55227373  0.72528792  0.76412916  1
  O  O16  1  0.92919512  0.13336117  0.40118579  1
  O  O17  1  0.42919512  0.86663883  0.09881421  1
  O  O18  1  0.07080488  0.86663883  0.59881421  1
  O  O19  1  0.57080488  0.13336117  0.90118579  1
  O  O20  1  0.67612139  0.36852995  0.47030953  1
  O  O21  1  0.17612139  0.63147005  0.02969047  1
  O  O22  1  0.32387861  0.63147005  0.52969047  1
  O  O23  1  0.82387861  0.36852995  0.97030953  1
  O  O24  1  0.12218571  0.27168327  0.51705975  1
  O  O25  1  0.62218571  0.72831673  0.98294025  1
  O  O26  1  0.87781429  0.72831673  0.48294025  1
  O  O27  1  0.37781429  0.27168327  0.01705975  1
  O  O28  1  0.11406987  0.41270514  0.40683323  1
  O  O29  1  0.61406987  0.58729486  0.09316677  1
  O  O30  1  0.88593013  0.58729486  0.59316677  1
  O  O31  1  0.38593013  0.41270514  0.90683323  1
  O  O32  1  0.06280257  0.88996467  0.25608959  1
  O  O33  1  0.56280257  0.11003533  0.24391041  1
  O  O34  1  0.93719743  0.11003533  0.74391041  1
  O  O35  1  0.43719743  0.88996467  0.75608959  1
  O  O36  1  0.05229363  0.60534655  0.20155172  1
  O  O37  1  0.55229363  0.39465345  0.29844828  1
  O  O38  1  0.94770637  0.39465345  0.79844828  1
  O  O39  1  0.44770637  0.60534655  0.70155172  1
  O  O40  1  0.62945022  0.72998388  0.26868525  1
  O  O41  1  0.12945022  0.27001612  0.23131475  1
  O  O42  1  0.37054978  0.27001612  0.73131475  1
  O  O43  1  0.87054978  0.72998388  0.76868525  1
  O  O44  1  0.04859103  0.67192203  0.33550388  1
  O  O45  1  0.54859103  0.32807797  0.16449612  1
  O  O46  1  0.95140897  0.32807797  0.66449612  1
  O  O47  1  0.45140897  0.67192203  0.83550388  1
  O  O48  1  0.93712549  0.13602057  0.08158935  1
  O  O49  1  0.43712549  0.86397943  0.41841065  1
  O  O50  1  0.06287451  0.86397943  0.91841065  1
  O  O51  1  0.56287451  0.13602057  0.58158935  1
