# generated using pymatgen
data_Ta2O5
_symmetry_space_group_name_H-M   'P 1'
_cell_length_a   5.99826544
_cell_length_b   10.40700301
_cell_length_c   3.68188304
_cell_angle_alpha   89.99998694
_cell_angle_beta   90.00000542
_cell_angle_gamma   89.97546576
_symmetry_Int_Tables_number   1
_chemical_formula_structural   Ta2O5
_chemical_formula_sum   'Ta4 O10'
_cell_volume   229.83772231
_cell_formula_units_Z   2
loop_
 _symmetry_equiv_pos_site_id
 _symmetry_equiv_pos_as_xyz
  1  'x, y, z'
loop_
 _atom_site_type_symbol
 _atom_site_label
 _atom_site_symmetry_multiplicity
 _atom_site_fract_x
 _atom_site_fract_y
 _atom_site_fract_z
 _atom_site_occupancy
  Ta  Ta0  1  0.71268961  0.36166023  -0.00000061  1
  Ta  Ta1  1  0.28731016  0.63833901  -0.00000020  1
  Ta  Ta2  1  0.21258065  0.13850034  -0.00000042  1
  Ta  Ta3  1  0.78742016  0.86150036  0.00000039  1
  O  O4  1  0.78651890  0.40157685  0.49999927  1
  O  O5  1  0.21348106  0.59842381  0.49999995  1
  O  O6  1  0.28652258  0.09841146  0.49999981  1
  O  O7  1  0.71347757  0.90158792  0.50000014  1
  O  O8  1  0.02714309  0.27833990  0.00000084  1
  O  O9  1  0.97285790  0.72166052  0.00000087  1
  O  O10  1  0.52700313  0.22155104  -0.00000009  1
  O  O11  1  0.47299813  0.77844870  0.99999930  1
  O  O12  1  0.49999848  0.49999981  -0.00000012  1
  O  O13  1  -0.00000143  0.00000005  0.00000088  1
