# generated using pymatgen
data_Mg3Fe2O7
_symmetry_space_group_name_H-M   'P 1'
_cell_length_a   5.37520156
_cell_length_b   5.12959105
_cell_length_c   9.21401532
_cell_angle_alpha   106.16222910
_cell_angle_beta   90.00000000
_cell_angle_gamma   90.00000000
_symmetry_Int_Tables_number   1
_chemical_formula_structural   Mg3Fe2O7
_chemical_formula_sum   'Mg6 Fe4 O14'
_cell_volume   244.01334328
_cell_formula_units_Z   2
loop_
 _symmetry_equiv_pos_site_id
 _symmetry_equiv_pos_as_xyz
  1  'x, y, z'
loop_
 _atom_site_type_symbol
 _atom_site_label
 _atom_site_symmetry_multiplicity
 _atom_site_fract_x
 _atom_site_fract_y
 _atom_site_fract_z
 _atom_site_occupancy
  Mg  Mg0  1  0.68392123  0.76838818  1.00000000  1
  Mg  Mg1  1  0.18392123  0.23161182  0.00000000  1
  Mg  Mg2  1  0.82691396  0.56660455  0.61366392  1
  Mg  Mg3  1  0.32691396  0.43339545  0.38633608  1
  Mg  Mg4  1  0.82691396  0.95293963  0.38633608  1
  Mg  Mg5  1  0.32691396  0.04706037  0.61366392  1
  Fe  Fe6  1  0.75160325  0.35526450  0.20814484  1
  Fe  Fe7  1  0.25160325  0.64473550  0.79185516  1
  Fe  Fe8  1  0.25160325  0.85288033  0.20814484  1
  Fe  Fe9  1  0.75160325  0.14711967  0.79185516  1
  O  O10  1  0.69947800  0.92404869  0.58832367  1
  O  O11  1  0.19947800  0.07595131  0.41167633  1
  O  O12  1  0.19947800  0.66427398  0.58832367  1
  O  O13  1  0.69947800  0.33572602  0.41167633  1
  O  O14  1  0.05270372  0.31103311  0.73164800  1
  O  O15  1  0.55270372  0.68896689  0.26835200  1
  O  O16  1  0.55270372  0.42061488  0.73164800  1
  O  O17  1  0.05270372  0.57938512  0.26835200  1
  O  O18  1  0.93309989  0.85948023  0.84573181  1
  O  O19  1  0.43309989  0.14051977  0.15426819  1
  O  O20  1  0.80848316  0.37962001  0.00000000  1
  O  O21  1  0.30848316  0.62037999  1.00000000  1
  O  O22  1  0.93309989  0.01374842  0.15426819  1
  O  O23  1  0.43309989  0.98625158  0.84573181  1
