# generated using pymatgen
data_Mn2Zn3O7
_symmetry_space_group_name_H-M   'P 1'
_cell_length_a   5.18206295
_cell_length_b   5.16251943
_cell_length_c   9.40707892
_cell_angle_alpha   105.92598579
_cell_angle_beta   90.00000000
_cell_angle_gamma   90.00000000
_symmetry_Int_Tables_number   1
_chemical_formula_structural   Mn2Zn3O7
_chemical_formula_sum   'Mn4 Zn6 O14'
_cell_volume   242.00329844
_cell_formula_units_Z   2
loop_
 _symmetry_equiv_pos_site_id
 _symmetry_equiv_pos_as_xyz
  1  'x, y, z'
loop_
 _atom_site_type_symbol
 _atom_site_label
 _atom_site_symmetry_multiplicity
 _atom_site_fract_x
 _atom_site_fract_y
 _atom_site_fract_z
 _atom_site_occupancy
  Mn  Mn0  1  0.75158984  0.35380636  0.20371783  1
  Mn  Mn1  1  0.25158984  0.64619364  0.79628217  1
  Mn  Mn2  1  0.25158984  0.84991147  0.20371783  1
  Mn  Mn3  1  0.75158984  0.15008853  0.79628217  1
  Zn  Zn4  1  0.70725344  0.75004690  1.00000000  1
  Zn  Zn5  1  0.20725344  0.24995310  0.00000000  1
  Zn  Zn6  1  0.80251763  0.57661625  0.60696952  1
  Zn  Zn7  1  0.30251763  0.42338375  0.39303048  1
  Zn  Zn8  1  0.80251763  0.96964573  0.39303048  1
  Zn  Zn9  1  0.30251763  0.03035427  0.60696952  1
  O  O10  1  0.69296704  0.94574346  0.59428996  1
  O  O11  1  0.19296704  0.05425654  0.40571004  1
  O  O12  1  0.19296704  0.64854550  0.59428996  1
  O  O13  1  0.69296704  0.35145450  0.40571004  1
  O  O14  1  0.06807279  0.30027949  0.74326466  1
  O  O15  1  0.56807279  0.69972051  0.25673534  1
  O  O16  1  0.56807279  0.44298518  0.74326466  1
  O  O17  1  0.06807279  0.55701482  0.25673534  1
  O  O18  1  0.93416279  0.85313676  0.84570002  1
  O  O19  1  0.43416279  0.14686324  0.15429998  1
  O  O20  1  0.81412838  0.36670090  0.00000000  1
  O  O21  1  0.31412838  0.63329910  1.00000000  1
  O  O22  1  0.93416279  0.00743673  0.15429998  1
  O  O23  1  0.43416279  0.99256327  0.84570002  1
