# generated using pymatgen
data_Ge3(TeO6)2
_symmetry_space_group_name_H-M   'P 1'
_cell_length_a   10.59733657
_cell_length_b   10.59733620
_cell_length_c   10.59733591
_cell_angle_alpha   109.47121828
_cell_angle_beta   109.47121751
_cell_angle_gamma   109.47122180
_symmetry_Int_Tables_number   1
_chemical_formula_structural   Ge3(TeO6)2
_chemical_formula_sum   'Ge12 Te8 O48'
_cell_volume   916.15355927
_cell_formula_units_Z   4
loop_
 _symmetry_equiv_pos_site_id
 _symmetry_equiv_pos_as_xyz
  1  'x, y, z'
loop_
 _atom_site_type_symbol
 _atom_site_label
 _atom_site_symmetry_multiplicity
 _atom_site_fract_x
 _atom_site_fract_y
 _atom_site_fract_z
 _atom_site_occupancy
  Ge  Ge0  1  0.87500000  0.12500000  0.75000000  1
  Ge  Ge1  1  0.12500000  0.87500000  0.25000000  1
  Ge  Ge2  1  0.25000000  0.62500000  0.37500000  1
  Ge  Ge3  1  0.12500000  0.75000000  0.87500000  1
  Ge  Ge4  1  0.75000000  0.87500000  0.12500000  1
  Ge  Ge5  1  0.37500000  0.25000000  0.62500000  1
  Ge  Ge6  1  0.62500000  0.75000000  0.37500000  1
  Ge  Ge7  1  0.87500000  0.25000000  0.12500000  1
  Ge  Ge8  1  0.25000000  0.12500000  0.87500000  1
  Ge  Ge9  1  0.75000000  0.37500000  0.62500000  1
  Ge  Ge10  1  0.37500000  0.62500000  0.75000000  1
  Ge  Ge11  1  0.62500000  0.37500000  0.25000000  1
  Te  Te12  1  0.50000000  0.50000000  0.50000000  1
  Te  Te13  1  0.50000000  0.50000000  0.00000000  1
  Te  Te14  1  0.50000000  0.00000000  0.50000000  1
  Te  Te15  1  0.00000000  0.50000000  0.50000000  1
  Te  Te16  1  0.50000000  0.00000000  0.00000000  1
  Te  Te17  1  0.00000000  0.00000000  0.50000000  1
  Te  Te18  1  0.00000000  0.50000000  0.00000000  1
  Te  Te19  1  0.00000000  0.00000000  0.00000000  1
  O  O20  1  0.80446314  0.41939517  0.81886202  1
  O  O21  1  0.08060483  0.88506798  0.39946685  1
  O  O22  1  0.68113798  0.10053315  0.98560013  1
  O  O23  1  0.69553686  0.51439987  0.61493202  1
  O  O24  1  0.69553686  0.68113798  0.08060483  1
  O  O25  1  0.51439987  0.61493202  0.69553686  1
  O  O26  1  0.10053315  0.61493202  0.41939517  1
  O  O27  1  0.61493202  0.69553686  0.51439987  1
  O  O28  1  0.39946685  0.81886202  0.51439987  1
  O  O29  1  0.88506798  0.98560013  0.80446314  1
  O  O30  1  0.98560013  0.80446314  0.88506798  1
  O  O31  1  0.08060483  0.69553686  0.68113798  1
  O  O32  1  0.61493202  0.41939517  0.10053315  1
  O  O33  1  0.51439987  0.39946685  0.81886202  1
  O  O34  1  0.68113798  0.08060483  0.69553686  1
  O  O35  1  0.41939517  0.10053315  0.61493202  1
  O  O36  1  0.81886202  0.51439987  0.39946685  1
  O  O37  1  0.39946685  0.08060483  0.88506798  1
  O  O38  1  0.10053315  0.98560013  0.68113798  1
  O  O39  1  0.60053315  0.18113798  0.48560013  1
  O  O40  1  0.98560013  0.68113798  0.10053315  1
  O  O41  1  0.81886202  0.80446314  0.41939517  1
  O  O42  1  0.88506798  0.39946685  0.08060483  1
  O  O43  1  0.80446314  0.88506798  0.98560013  1
  O  O44  1  0.19553686  0.58060483  0.18113798  1
  O  O45  1  0.91939517  0.11493202  0.60053315  1
  O  O46  1  0.31886202  0.89946685  0.01439987  1
  O  O47  1  0.30446314  0.48560013  0.38506798  1
  O  O48  1  0.30446314  0.31886202  0.91939517  1
  O  O49  1  0.48560013  0.38506798  0.30446314  1
  O  O50  1  0.89946685  0.38506798  0.58060483  1
  O  O51  1  0.38506798  0.30446314  0.48560013  1
  O  O52  1  0.19553686  0.11493202  0.01439987  1
  O  O53  1  0.11493202  0.60053315  0.91939517  1
  O  O54  1  0.18113798  0.19553686  0.58060483  1
  O  O55  1  0.58060483  0.18113798  0.19553686  1
  O  O56  1  0.01439987  0.31886202  0.89946685  1
  O  O57  1  0.89946685  0.01439987  0.31886202  1
  O  O58  1  0.60053315  0.91939517  0.11493202  1
  O  O59  1  0.18113798  0.48560013  0.60053315  1
  O  O60  1  0.58060483  0.89946685  0.38506798  1
  O  O61  1  0.31886202  0.91939517  0.30446314  1
  O  O62  1  0.48560013  0.60053315  0.18113798  1
  O  O63  1  0.38506798  0.58060483  0.89946685  1
  O  O64  1  0.91939517  0.30446314  0.31886202  1
  O  O65  1  0.01439987  0.19553686  0.11493202  1
  O  O66  1  0.11493202  0.01439987  0.19553686  1
  O  O67  1  0.41939517  0.81886202  0.80446314  1
