# generated using pymatgen
data_Ca2TaWO6
_symmetry_space_group_name_H-M   'P 1'
_cell_length_a   5.57214405
_cell_length_b   5.75036081
_cell_length_c   7.99485991
_cell_angle_alpha   90.00000000
_cell_angle_beta   89.98027244
_cell_angle_gamma   90.00000000
_symmetry_Int_Tables_number   1
_chemical_formula_structural   Ca2TaWO6
_chemical_formula_sum   'Ca4 Ta2 W2 O12'
_cell_volume   256.16999687
_cell_formula_units_Z   2
loop_
 _symmetry_equiv_pos_site_id
 _symmetry_equiv_pos_as_xyz
  1  'x, y, z'
loop_
 _atom_site_type_symbol
 _atom_site_label
 _atom_site_symmetry_multiplicity
 _atom_site_fract_x
 _atom_site_fract_y
 _atom_site_fract_z
 _atom_site_occupancy
  Ca  Ca0  1  0.98743018  0.05116916  0.24829377  1
  Ca  Ca1  1  0.51256982  0.55117016  0.25170623  1
  Ca  Ca2  1  0.01257082  0.94883184  0.75170623  1
  Ca  Ca3  1  0.48742918  0.44883084  0.74829377  1
  Ta  Ta4  1  0.50000000  0.00000000  0.00000000  1
  Ta  Ta5  1  0.00000100  0.49999900  0.50000000  1
  W  W6  1  0.50000000  0.00000000  0.49999900  1
  W  W7  1  0.00000000  0.49999900  0.00000000  1
  O  O8  1  0.70869048  0.30885972  0.44889854  1
  O  O9  1  0.79130952  0.80886072  0.05110146  1
  O  O10  1  0.29130852  0.69114028  0.55110146  1
  O  O11  1  0.20869148  0.19113928  0.94889854  1
  O  O12  1  0.18714018  0.21151603  0.55707697  1
  O  O13  1  0.31285982  0.71151503  0.94292303  1
  O  O14  1  0.81286082  0.78848397  0.44292303  1
  O  O15  1  0.68713918  0.28848497  0.05707697  1
  O  O16  1  0.10274421  0.46292409  0.26035778  1
  O  O17  1  0.39725679  0.96292509  0.23964122  1
  O  O18  1  0.60274421  0.03707491  0.76035878  1
  O  O19  1  0.89725679  0.53707591  0.73964222  1
