# generated using pymatgen
data_CaAgAsO5
_symmetry_space_group_name_H-M   'P 1'
_cell_length_a   7.60872222
_cell_length_b   6.01956607
_cell_length_c   9.86286597
_cell_angle_alpha   89.99797364
_cell_angle_beta   89.99652382
_cell_angle_gamma   90.00959608
_symmetry_Int_Tables_number   1
_chemical_formula_structural   CaAgAsO5
_chemical_formula_sum   'Ca4 Ag4 As4 O20'
_cell_volume   451.73115015
_cell_formula_units_Z   4
loop_
 _symmetry_equiv_pos_site_id
 _symmetry_equiv_pos_as_xyz
  1  'x, y, z'
loop_
 _atom_site_type_symbol
 _atom_site_label
 _atom_site_symmetry_multiplicity
 _atom_site_fract_x
 _atom_site_fract_y
 _atom_site_fract_z
 _atom_site_occupancy
  Ca  Ca0  1  0.92735797  0.75527861  0.08376599  1
  Ca  Ca1  1  0.57311229  0.24475692  0.58342991  1
  Ca  Ca2  1  0.42735876  0.74466398  0.91615179  1
  Ca  Ca3  1  0.07308239  0.25524776  0.41648942  1
  Ag  Ag4  1  0.00069674  0.50260913  0.75040946  1
  Ag  Ag5  1  0.49887554  0.49752283  0.25022562  1
  Ag  Ag6  1  0.50066161  0.99734739  0.24955418  1
  Ag  Ag7  1  0.99891053  0.00251751  0.74973824  1
  As  As8  1  0.64318996  0.27862057  0.91649978  1
  As  As9  1  0.85668420  0.72117143  0.41649621  1
  As  As10  1  0.14322046  0.22142626  0.08354234  1
  As  As11  1  0.35673164  0.77880156  0.58353856  1
  O  O12  1  0.80653982  0.25103542  0.78218126  1
  O  O13  1  0.69337939  0.74893240  0.28207596  1
  O  O14  1  0.30656435  0.24893748  0.21781640  1
  O  O15  1  0.19335185  0.75110099  0.71793278  1
  O  O16  1  0.47275406  0.36183663  0.81620690  1
  O  O17  1  0.02759902  0.63808081  0.31627293  1
  O  O18  1  0.97275460  0.13817308  0.18381414  1
  O  O19  1  0.52755326  0.86192394  0.68373040  1
  O  O20  1  0.62988571  0.02434204  0.99235783  1
  O  O21  1  0.87035988  0.97559474  0.49235351  1
  O  O22  1  0.12995763  0.47564960  0.00768530  1
  O  O23  1  0.37033261  0.52441630  0.50766173  1
  O  O24  1  0.68650272  0.49662185  0.02227364  1
  O  O25  1  0.81362072  0.50349274  0.52215998  1
  O  O26  1  0.18650316  0.00335135  0.97775180  1
  O  O27  1  0.31363353  0.99653819  0.47784089  1
  O  O28  1  0.87665931  0.75364945  0.84569977  1
  O  O29  1  0.62275730  0.24639299  0.34545027  1
  O  O30  1  0.37649880  0.74634850  0.15433267  1
  O  O31  1  0.12290819  0.25361957  0.65456033  1
