# generated using pymatgen
data_Mg6CdBi
_symmetry_space_group_name_H-M   'P 1'
_cell_length_a   6.35754240
_cell_length_b   6.50968634
_cell_length_c   5.38193182
_cell_angle_alpha   90.00000000
_cell_angle_beta   90.00000000
_cell_angle_gamma   120.79485342
_symmetry_Int_Tables_number   1
_chemical_formula_structural   Mg6CdBi
_chemical_formula_sum   'Mg6 Cd1 Bi1'
_cell_volume   191.33025941
_cell_formula_units_Z   1
loop_
 _symmetry_equiv_pos_site_id
 _symmetry_equiv_pos_as_xyz
  1  'x, y, z'
loop_
 _atom_site_type_symbol
 _atom_site_label
 _atom_site_symmetry_multiplicity
 _atom_site_fract_x
 _atom_site_fract_y
 _atom_site_fract_z
 _atom_site_occupancy
  Mg  Mg0  1  0.66745606  0.33325225  0.25000000  1
  Mg  Mg1  1  0.66745606  0.83420281  0.25000000  1
  Mg  Mg2  1  0.33513531  0.17136921  0.75000000  1
  Mg  Mg3  1  0.33513531  0.66376710  0.75000000  1
  Mg  Mg4  1  0.83370839  0.16685469  0.75000000  1
  Mg  Mg5  1  0.82924295  0.66462198  0.75000000  1
  Cd  Cd6  1  0.16500230  0.33250065  0.25000000  1
  Bi  Bi7  1  0.16686364  0.83343132  0.25000000  1
