# generated using pymatgen
data_Co2H22C(N2O3)4
_symmetry_space_group_name_H-M   'P 1'
_cell_length_a   7.91370190
_cell_length_b   9.97887586
_cell_length_c   11.05843429
_cell_angle_alpha   103.90551121
_cell_angle_beta   108.99797446
_cell_angle_gamma   91.76212417
_symmetry_Int_Tables_number   1
_chemical_formula_structural   Co2H22C(N2O3)4
_chemical_formula_sum   'Co4 H44 C2 N16 O24'
_cell_volume   795.84577529
_cell_formula_units_Z   2
loop_
 _symmetry_equiv_pos_site_id
 _symmetry_equiv_pos_as_xyz
  1  'x, y, z'
loop_
 _atom_site_type_symbol
 _atom_site_label
 _atom_site_symmetry_multiplicity
 _atom_site_fract_x
 _atom_site_fract_y
 _atom_site_fract_z
 _atom_site_occupancy
  Co  Co0  1  0.23800122  0.85426495  0.13916565  1
  Co  Co1  1  0.76199878  0.14573505  0.86083435  1
  Co  Co2  1  0.17844337  0.78089554  0.35514194  1
  Co  Co3  1  0.82155663  0.21910446  0.64485806  1
  H  H4  1  0.01030591  0.66826511  0.11865448  1
  H  H5  1  0.98969409  0.33173489  0.88134552  1
  H  H6  1  0.29870985  0.00690723  0.35851625  1
  H  H7  1  0.70129015  0.99309277  0.64148375  1
  H  H8  1  0.48274396  0.69712940  0.19133134  1
  H  H9  1  0.51725604  0.30287060  0.80866866  1
  H  H10  1  0.43208780  0.70081299  0.03651404  1
  H  H11  1  0.56791220  0.29918701  0.96348596  1
  H  H12  1  0.56708542  0.83157398  0.15556991  1
  H  H13  1  0.43291458  0.16842602  0.84443009  1
  H  H14  1  0.20199614  0.76261402  0.89195487  1
  H  H15  1  0.79800386  0.23738598  0.10804513  1
  H  H16  1  0.02536336  0.70399302  0.92475289  1
  H  H17  1  0.97463664  0.29600698  0.07524711  1
  H  H18  1  0.05078576  0.86673313  0.91757970  1
  H  H19  1  0.94921424  0.13326687  0.08242030  1
  H  H20  1  0.48097692  0.02817731  0.14435180  1
  H  H21  1  0.51902308  0.97182269  0.85564820  1
  H  H22  1  0.29220686  0.03224024  0.02348088  1
  H  H23  1  0.70779314  0.96775976  0.97651912  1
  H  H24  1  0.31848434  0.10904729  0.18196145  1
  H  H25  1  0.68151566  0.89095271  0.81803855  1
  H  H26  1  0.37132491  0.58615000  0.34269526  1
  H  H27  1  0.62867509  0.41385000  0.65730474  1
  H  H28  1  0.50091834  0.73184304  0.43899730  1
  H  H29  1  0.49908166  0.26815696  0.56100270  1
  H  H30  1  0.37901080  0.64292599  0.49723207  1
  H  H31  1  0.62098920  0.35707401  0.50276793  1
  H  H32  1  0.89032324  0.64169704  0.30214645  1
  H  H33  1  0.10967676  0.35830296  0.69785355  1
  H  H34  1  0.04795762  0.54016380  0.34952240  1
  H  H35  1  0.95204238  0.45983620  0.65047760  1
  H  H36  1  0.99942466  0.66031116  0.46116065  1
  H  H37  1  0.00057534  0.33968884  0.53883935  1
  H  H38  1  0.14116766  0.95621948  0.54599431  1
  H  H39  1  0.85883234  0.04378052  0.45400569  1
  H  H40  1  0.23309135  0.82760994  0.60401447  1
  H  H41  1  0.76690865  0.17239006  0.39598553  1
  H  H42  1  0.35660328  0.94312981  0.57257715  1
  H  H43  1  0.64339672  0.05687019  0.42742285  1
  H  H44  1  0.68091134  0.57808281  0.94756925  1
  H  H45  1  0.31908866  0.42191719  0.05243075  1
  H  H46  1  0.82465017  0.48243080  0.92315762  1
  H  H47  1  0.17534983  0.51756920  0.07684238  1
  C  C48  1  0.91649724  0.92787359  0.20063614  1
  C  C49  1  0.08350276  0.07212641  0.79936386  1
  N  N50  1  0.45289458  0.76221057  0.13030198  1
  N  N51  1  0.54710542  0.23778943  0.86969802  1
  N  N52  1  0.11928156  0.78760811  0.94722094  1
  N  N53  1  0.88071844  0.21239189  0.05277906  1
  N  N54  1  0.34387753  0.02333233  0.11983503  1
  N  N55  1  0.65612247  0.97666767  0.88016497  1
  N  N56  1  0.37844579  0.67470041  0.41478576  1
  N  N57  1  0.62155421  0.32529959  0.58521424  1
  N  N58  1  0.01446456  0.63983417  0.36916533  1
  N  N59  1  0.98553544  0.36016583  0.63083467  1
  N  N60  1  0.23226846  0.88631786  0.53917731  1
  N  N61  1  0.76773154  0.11368214  0.46082269  1
  N  N62  1  0.37665270  0.59913491  0.74364031  1
  N  N63  1  0.62334730  0.40086509  0.25635969  1
  N  N64  1  0.81725996  0.73428405  0.62628811  1
  N  N65  1  0.18274004  0.26571595  0.37371189  1
  O  O66  1  0.14082762  0.68867521  0.17072988  1
  O  O67  1  0.85917238  0.31132479  0.82927012  1
  O  O68  1  0.33957572  0.91540128  0.33072149  1
  O  O69  1  0.66042428  0.08459872  0.66927851  1
  O  O70  1  0.02483184  0.94624247  0.13606734  1
  O  O71  1  0.97516816  0.05375753  0.86393266  1
  O  O72  1  0.96743009  0.87660723  0.30338072  1
  O  O73  1  0.03256991  0.12339277  0.69661928  1
  O  O74  1  0.75777714  0.96317028  0.16153997  1
  O  O75  1  0.24222286  0.03682972  0.83846003  1
  O  O76  1  0.36405653  0.72777688  0.78127026  1
  O  O77  1  0.63594347  0.27222312  0.21872974  1
  O  O78  1  0.42436663  0.52929547  0.83046038  1
  O  O79  1  0.57563337  0.47070453  0.16953962  1
  O  O80  1  0.34141411  0.53913388  0.62278897  1
  O  O81  1  0.65858589  0.46086612  0.37721103  1
  O  O82  1  0.95321446  0.67070487  0.62349406  1
  O  O83  1  0.04678554  0.32929513  0.37650594  1
  O  O84  1  0.77152915  0.82141029  0.55689471  1
  O  O85  1  0.22847085  0.17858971  0.44310529  1
  O  O86  1  0.72823487  0.71141814  0.69705235  1
  O  O87  1  0.27176513  0.28858186  0.30294765  1
  O  O88  1  0.81105456  0.57233335  0.97926273  1
  O  O89  1  0.18894544  0.42766665  0.02073727  1
