# generated using pymatgen
data_Mg2TaMoO6
_symmetry_space_group_name_H-M   'P 1'
_cell_length_a   5.34384163
_cell_length_b   5.46176961
_cell_length_c   7.74334425
_cell_angle_alpha   90.00000000
_cell_angle_beta   90.00000000
_cell_angle_gamma   88.63400487
_symmetry_Int_Tables_number   1
_chemical_formula_structural   Mg2TaMoO6
_chemical_formula_sum   'Mg4 Ta2 Mo2 O12'
_cell_volume   225.93945894
_cell_formula_units_Z   2
loop_
 _symmetry_equiv_pos_site_id
 _symmetry_equiv_pos_as_xyz
  1  'x, y, z'
loop_
 _atom_site_type_symbol
 _atom_site_label
 _atom_site_symmetry_multiplicity
 _atom_site_fract_x
 _atom_site_fract_y
 _atom_site_fract_z
 _atom_site_occupancy
  Mg  Mg0  1  0.99413549  0.96510217  0.25000000  1
  Mg  Mg1  1  0.50093159  0.45089165  0.25000000  1
  Mg  Mg2  1  0.49906841  0.54910835  0.75000000  1
  Mg  Mg3  1  0.00586451  0.03489783  0.75000000  1
  Ta  Ta4  1  0.00000000  0.50000000  0.00000000  1
  Ta  Ta5  1  0.00000000  0.50000000  0.50000000  1
  Mo  Mo6  1  0.50000000  0.00000000  0.00000000  1
  Mo  Mo7  1  0.50000000  0.00000000  0.50000000  1
  O  O8  1  0.84298916  0.81324112  0.56975763  1
  O  O9  1  0.31173153  0.66527922  0.43105382  1
  O  O10  1  0.15701084  0.18675888  0.43024237  1
  O  O11  1  0.68826847  0.33472078  0.93105382  1
  O  O12  1  0.12889880  0.42742161  0.75000000  1
  O  O13  1  0.68826847  0.33472078  0.56894618  1
  O  O14  1  0.31173153  0.66527922  0.06894618  1
  O  O15  1  0.84298916  0.81324112  0.93024237  1
  O  O16  1  0.63805451  0.09378812  0.25000000  1
  O  O17  1  0.15701084  0.18675888  0.06975763  1
  O  O18  1  0.36194549  0.90621188  0.75000000  1
  O  O19  1  0.87110120  0.57257839  0.25000000  1
