# generated using pymatgen
data_Mn2ZnO4
_symmetry_space_group_name_H-M   'P 1'
_cell_length_a   6.08125376
_cell_length_b   6.05294093
_cell_length_c   18.26618371
_cell_angle_alpha   60.19973660
_cell_angle_beta   59.40570835
_cell_angle_gamma   60.10825540
_symmetry_Int_Tables_number   1
_chemical_formula_structural   Mn2ZnO4
_chemical_formula_sum   'Mn12 Zn6 O24'
_cell_volume   474.35258379
_cell_formula_units_Z   6
loop_
 _symmetry_equiv_pos_site_id
 _symmetry_equiv_pos_as_xyz
  1  'x, y, z'
loop_
 _atom_site_type_symbol
 _atom_site_label
 _atom_site_symmetry_multiplicity
 _atom_site_fract_x
 _atom_site_fract_y
 _atom_site_fract_z
 _atom_site_occupancy
  Mn  Mn0  1  0.50328835  0.99948173  0.16579839  1
  Mn  Mn1  1  0.13655885  0.11481615  0.37812379  1
  Mn  Mn2  1  0.49977655  0.49980034  0.00024250  1
  Mn  Mn3  1  0.50330483  0.49996673  0.16576931  1
  Mn  Mn4  1  0.50019589  0.00017423  0.49980494  1
  Mn  Mn5  1  0.13883881  0.11635435  0.70976503  1
  Mn  Mn6  1  0.50015930  0.50019332  0.49981696  1
  Mn  Mn7  1  0.49641074  0.00049555  0.83457025  1
  Mn  Mn8  1  0.86211069  0.88475398  0.28919099  1
  Mn  Mn9  1  0.49644631  0.49921494  0.83460559  1
  Mn  Mn10  1  0.86322698  0.88503268  0.62200969  1
  Mn  Mn11  1  0.86266926  0.88211911  0.95736902  1
  Zn  Zn12  1  0.14165643  0.11586016  0.04267012  1
  Zn  Zn13  1  0.49686357  0.50185252  0.33310784  1
  Zn  Zn14  1  0.99838981  0.49825299  0.16835873  1
  Zn  Zn15  1  0.50282795  0.49830046  0.66690103  1
  Zn  Zn16  1  0.99997934  0.50019059  0.49986476  1
  Zn  Zn17  1  0.00216706  0.50137074  0.83170629  1
  O  O18  1  0.28530354  0.25172573  0.08505560  1
  O  O19  1  0.28327156  0.25369365  0.23706516  1
  O  O20  1  0.28476019  0.70876679  0.08496675  1
  O  O21  1  0.73129116  0.25621596  0.08665634  1
  O  O22  1  0.27683201  0.24111379  0.42472908  1
  O  O23  1  0.27424149  0.75278653  0.23858969  1
  O  O24  1  0.28327548  0.25031620  0.57226108  1
  O  O25  1  0.72523699  0.29121963  0.24050335  1
  O  O26  1  0.27667348  0.70822545  0.42468177  1
  O  O27  1  0.71751964  0.74809634  0.09480869  1
  O  O28  1  0.71903383  0.24982514  0.42722296  1
  O  O29  1  0.72501226  0.76161572  0.24054734  1
  O  O30  1  0.27364563  0.23794719  0.76001684  1
  O  O31  1  0.28122337  0.75052364  0.57247569  1
  O  O32  1  0.72331872  0.29194614  0.57516945  1
  O  O33  1  0.27328056  0.70897014  0.76000546  1
  O  O34  1  0.27814410  0.25130334  0.90741406  1
  O  O35  1  0.71726364  0.75035580  0.42710881  1
  O  O36  1  0.72496886  0.24694670  0.76182504  1
  O  O37  1  0.72318275  0.75912572  0.57510920  1
  O  O38  1  0.27608739  0.74157062  0.91229251  1
  O  O39  1  0.71247140  0.29588079  0.91476316  1
  O  O40  1  0.71703177  0.74622463  0.76243255  1
  O  O41  1  0.71205848  0.74737178  0.91462518  1
