# generated using pymatgen
data_MgCr2O7
_symmetry_space_group_name_H-M   'P 1'
_cell_length_a   6.58803716
_cell_length_b   6.40014730
_cell_length_c   8.25366161
_cell_angle_alpha   117.95780179
_cell_angle_beta   90.00000000
_cell_angle_gamma   90.00000000
_symmetry_Int_Tables_number   1
_chemical_formula_structural   MgCr2O7
_chemical_formula_sum   'Mg2 Cr4 O14'
_cell_volume   307.39550721
_cell_formula_units_Z   2
loop_
 _symmetry_equiv_pos_site_id
 _symmetry_equiv_pos_as_xyz
  1  'x, y, z'
loop_
 _atom_site_type_symbol
 _atom_site_label
 _atom_site_symmetry_multiplicity
 _atom_site_fract_x
 _atom_site_fract_y
 _atom_site_fract_z
 _atom_site_occupancy
  Mg  Mg0  1  0.87859804  0.54129095  0.65141932  1
  Mg  Mg1  1  0.37859804  0.45870905  0.34858068  1
  Cr  Cr2  1  0.86044346  0.31206366  0.20954884  1
  Cr  Cr3  1  0.36044346  0.68793634  0.79045116  1
  Cr  Cr4  1  0.31873583  0.86846996  0.21780652  1
  Cr  Cr5  1  0.81873583  0.13153004  0.78219348  1
  O  O6  1  0.63047358  0.05569143  0.64587812  1
  O  O7  1  0.13047258  0.94430857  0.35412188  1
  O  O8  1  0.23000964  0.53328262  0.59113649  1
  O  O9  1  0.73000964  0.46671738  0.40886351  1
  O  O10  1  0.96901153  0.30280096  0.73434267  1
  O  O11  1  0.46901153  0.69719904  0.26565733  1
  O  O12  1  0.59170226  0.57979938  0.76576951  1
  O  O13  1  0.09170226  0.42020062  0.23423049  1
  O  O14  1  0.93361025  0.89177847  0.76566008  1
  O  O15  1  0.43361025  0.10822153  0.23433992  1
  O  O16  1  0.73705564  0.30401881  0.01711365  1
  O  O17  1  0.23705564  0.69598119  0.98288635  1
  O  O18  1  0.87541578  0.04337284  0.16919875  1
  O  O19  1  0.37541578  0.95662716  0.83080125  1
