# generated using pymatgen
data_Te4Mo2WS2
_symmetry_space_group_name_H-M   'P 1'
_cell_length_a   3.41708875
_cell_length_b   3.41707305
_cell_length_c   31.74429133
_cell_angle_alpha   89.99981204
_cell_angle_beta   90.00000000
_cell_angle_gamma   120.00015188
_symmetry_Int_Tables_number   1
_chemical_formula_structural   Te4Mo2WS2
_chemical_formula_sum   'Te4 Mo2 W1 S2'
_cell_volume   321.00080773
_cell_formula_units_Z   1
loop_
 _symmetry_equiv_pos_site_id
 _symmetry_equiv_pos_as_xyz
  1  'x, y, z'
loop_
 _atom_site_type_symbol
 _atom_site_label
 _atom_site_symmetry_multiplicity
 _atom_site_fract_x
 _atom_site_fract_y
 _atom_site_fract_z
 _atom_site_occupancy
  Te  Te0  1  0.33336414  0.66672929  0.40584156  1
  Te  Te1  1  0.66664545  0.33328991  0.05682197  1
  Te  Te2  1  0.66664127  0.33328153  0.17440222  1
  Te  Te3  1  0.33336311  0.66672721  0.28829065  1
  Mo  Mo4  1  0.33330388  0.66660777  0.11555708  1
  Mo  Mo5  1  0.66668349  0.33336698  0.34702328  1
  W  W6  1  0.33330874  0.66661749  0.57828444  1
  S  S7  1  0.66664508  0.33328915  0.53096252  1
  S  S8  1  0.66664584  0.33329067  0.62565728  1
