# generated using pymatgen
data_ZnH20C4(N5O6)2
_symmetry_space_group_name_H-M   'P 1'
_cell_length_a   6.71386527
_cell_length_b   8.08081804
_cell_length_c   17.83093537
_cell_angle_alpha   90.00000000
_cell_angle_beta   90.00000000
_cell_angle_gamma   94.83030846
_symmetry_Int_Tables_number   1
_chemical_formula_structural   ZnH20C4(N5O6)2
_chemical_formula_sum   'Zn2 H40 C8 N20 O24'
_cell_volume   963.95534124
_cell_formula_units_Z   2
loop_
 _symmetry_equiv_pos_site_id
 _symmetry_equiv_pos_as_xyz
  1  'x, y, z'
loop_
 _atom_site_type_symbol
 _atom_site_label
 _atom_site_symmetry_multiplicity
 _atom_site_fract_x
 _atom_site_fract_y
 _atom_site_fract_z
 _atom_site_occupancy
  Zn  Zn0  1  0.50000000  0.50000000  0.50000000  1
  Zn  Zn1  1  -0.00000000  0.00000000  -0.00000000  1
  H  H2  1  0.05359307  0.15939491  0.30725623  1
  H  H3  1  0.55359307  0.65939491  0.19274377  1
  H  H4  1  0.94640693  0.84060509  0.69274377  1
  H  H5  1  0.44640693  0.34060509  0.80725623  1
  H  H6  1  0.23245753  0.31614120  0.28141983  1
  H  H7  1  0.73245753  0.81614120  0.21858017  1
  H  H8  1  0.76754247  0.68385880  0.71858017  1
  H  H9  1  0.26754247  0.18385880  0.78141983  1
  H  H10  1  0.15616232  0.23141487  0.50040518  1
  H  H11  1  0.65616232  0.73141487  0.99959482  1
  H  H12  1  0.84383768  0.76858513  0.49959482  1
  H  H13  1  0.34383768  0.26858513  0.00040518  1
  H  H14  1  0.99553112  0.12091846  0.43563643  1
  H  H15  1  0.49553112  0.62091846  0.06436357  1
  H  H16  1  0.00446888  0.87908154  0.56436357  1
  H  H17  1  0.50446888  0.37908154  0.93563643  1
  H  H18  1  0.09814039  0.67509495  0.39873217  1
  H  H19  1  0.59814039  0.17509495  0.10126783  1
  H  H20  1  0.90185961  0.32490505  0.60126783  1
  H  H21  1  0.40185961  0.82490505  0.89873217  1
  H  H22  1  0.08156112  0.60290969  0.30765623  1
  H  H23  1  0.58156112  0.10290969  0.19234377  1
  H  H24  1  0.91843888  0.39709031  0.69234377  1
  H  H25  1  0.41843888  0.89709031  0.80765623  1
  H  H26  1  0.58777375  0.41314111  0.33687202  1
  H  H27  1  0.08777375  0.91314111  0.16312798  1
  H  H28  1  0.41222625  0.58685889  0.66312798  1
  H  H29  1  0.91222625  0.08685889  0.83687202  1
  H  H30  1  0.78962925  0.43464109  0.27207006  1
  H  H31  1  0.28962925  0.93464109  0.22792994  1
  H  H32  1  0.21037075  0.56535891  0.72792994  1
  H  H33  1  0.71037075  0.06535891  0.77207006  1
  H  H34  1  0.57352974  0.20931268  0.57430013  1
  H  H35  1  0.07352974  0.70931268  0.92569987  1
  H  H36  1  0.42647026  0.79068732  0.42569987  1
  H  H37  1  0.92647026  0.29068732  0.07430013  1
  H  H38  1  0.64465276  0.19845494  0.49051496  1
  H  H39  1  0.14465276  0.69845494  0.00948504  1
  H  H40  1  0.35534724  0.80154506  0.50948504  1
  H  H41  1  0.85534724  0.30154506  0.99051496  1
  C  C42  1  0.23121120  0.26715766  0.39194261  1
  C  C43  1  0.73121120  0.76715766  0.10805739  1
  C  C44  1  0.76878880  0.73284234  0.60805739  1
  C  C45  1  0.26878880  0.23284234  0.89194261  1
  C  C46  1  0.82716027  0.56036238  0.37271854  1
  C  C47  1  0.32716027  0.06036238  0.12728146  1
  C  C48  1  0.17283973  0.43963762  0.62728146  1
  C  C49  1  0.67283973  0.93963762  0.87271854  1
  N  N50  1  0.18353568  0.22861140  0.31972987  1
  N  N51  1  0.68353568  0.72861140  0.18027013  1
  N  N52  1  0.81646432  0.77138860  0.68027013  1
  N  N53  1  0.31646432  0.27138860  0.81972987  1
  N  N54  1  0.12790013  0.18752902  0.44726515  1
  N  N55  1  0.62790013  0.68752902  0.05273485  1
  N  N56  1  0.87209987  0.81247098  0.55273485  1
  N  N57  1  0.37209987  0.31247098  0.94726515  1
  N  N58  1  0.00890012  0.63648634  0.35468311  1
  N  N59  1  0.50890012  0.13648634  0.14531689  1
  N  N60  1  0.99109988  0.36351366  0.64531689  1
  N  N61  1  0.49109988  0.86351366  0.85468311  1
  N  N62  1  0.72864656  0.46112602  0.32217672  1
  N  N63  1  0.22864656  0.96112602  0.17782328  1
  N  N64  1  0.27135344  0.53887398  0.67782328  1
  N  N65  1  0.77135344  0.03887398  0.82217672  1
  N  N66  1  0.16034026  0.48259637  0.15322893  1
  N  N67  1  0.66034026  0.98259637  0.34677107  1
  N  N68  1  0.83965974  0.51740363  0.84677107  1
  N  N69  1  0.33965974  0.01740363  0.65322893  1
  O  O70  1  0.37942963  0.37422607  0.40443124  1
  O  O71  1  0.87942963  0.87422607  0.09556876  1
  O  O72  1  0.62057037  0.62577393  0.59556876  1
  O  O73  1  0.12057037  0.12577393  0.90443124  1
  O  O74  1  0.75219000  0.58885189  0.43672295  1
  O  O75  1  0.25219000  0.08885189  0.06327705  1
  O  O76  1  0.24781000  0.41114811  0.56327705  1
  O  O77  1  0.74781000  0.91114811  0.93672295  1
  O  O78  1  0.25968320  0.53191641  0.21100924  1
  O  O79  1  0.75968320  0.03191641  0.28899076  1
  O  O80  1  0.74031680  0.46808359  0.78899076  1
  O  O81  1  0.24031680  0.96808359  0.71100924  1
  O  O82  1  0.99905859  0.38996779  0.16110289  1
  O  O83  1  0.49905859  0.88996779  0.33889711  1
  O  O84  1  0.00094141  0.61003221  0.83889711  1
  O  O85  1  0.50094141  0.11003221  0.66110289  1
  O  O86  1  0.22197423  0.52376468  0.08817567  1
  O  O87  1  0.72197423  0.02376468  0.41182433  1
  O  O88  1  0.77802577  0.47623532  0.91182433  1
  O  O89  1  0.27802577  0.97623532  0.58817567  1
  O  O90  1  0.64620201  0.27409886  0.53355804  1
  O  O91  1  0.14620201  0.77409886  0.96644196  1
  O  O92  1  0.35379799  0.72590114  0.46644196  1
  O  O93  1  0.85379799  0.22590114  0.03355804  1
