# generated using pymatgen
data_Te4Mo2WS2
_symmetry_space_group_name_H-M   'P 1'
_cell_length_a   3.42277365
_cell_length_b   3.42273851
_cell_length_c   31.60515853
_cell_angle_alpha   90.00000000
_cell_angle_beta   90.00000000
_cell_angle_gamma   120.00033951
_symmetry_Int_Tables_number   1
_chemical_formula_structural   Te4Mo2WS2
_chemical_formula_sum   'Te4 Mo2 W1 S2'
_cell_volume   320.65574126
_cell_formula_units_Z   1
loop_
 _symmetry_equiv_pos_site_id
 _symmetry_equiv_pos_as_xyz
  1  'x, y, z'
loop_
 _atom_site_type_symbol
 _atom_site_label
 _atom_site_symmetry_multiplicity
 _atom_site_fract_x
 _atom_site_fract_y
 _atom_site_fract_z
 _atom_site_occupancy
  Te  Te0  1  0.66664736  0.33329373  0.05682332  1
  Te  Te1  1  0.66663949  0.33327798  0.51945631  1
  Te  Te2  1  0.66663949  0.33327798  0.17450869  1
  Te  Te3  1  0.66664736  0.33329373  0.63714068  1
  Mo  Mo4  1  0.33331033  0.66662067  0.11566480  1
  Mo  Mo5  1  0.33331033  0.66662067  0.57830020  1
  W  W6  1  0.66669186  0.33338371  0.34698200  1
  S  S7  1  0.33335739  0.66671577  0.39449131  1
  S  S8  1  0.33335739  0.66671577  0.29947369  1
