# generated using pymatgen
data_Mg6ZrCd
_symmetry_space_group_name_H-M   'P 1'
_cell_length_a   6.46631255
_cell_length_b   6.29360005
_cell_length_c   5.03822006
_cell_angle_alpha   90.00000000
_cell_angle_beta   90.00000000
_cell_angle_gamma   119.12032382
_symmetry_Int_Tables_number   1
_chemical_formula_structural   Mg6ZrCd
_chemical_formula_sum   'Mg6 Zr1 Cd1'
_cell_volume   179.12055244
_cell_formula_units_Z   1
loop_
 _symmetry_equiv_pos_site_id
 _symmetry_equiv_pos_as_xyz
  1  'x, y, z'
loop_
 _atom_site_type_symbol
 _atom_site_label
 _atom_site_symmetry_multiplicity
 _atom_site_fract_x
 _atom_site_fract_y
 _atom_site_fract_z
 _atom_site_occupancy
  Mg  Mg0  1  0.65689539  0.32702548  0.25000000  1
  Mg  Mg1  1  0.65689539  0.82986891  0.25000000  1
  Mg  Mg2  1  0.33607585  0.17469961  0.75000000  1
  Mg  Mg3  1  0.33607585  0.66137725  0.75000000  1
  Mg  Mg4  1  0.84168085  0.17084093  0.75000000  1
  Mg  Mg5  1  0.84585072  0.67292586  0.75000000  1
  Zr  Zr6  1  0.15540200  0.32770050  0.25000000  1
  Cd  Cd7  1  0.17112394  0.83556147  0.25000000  1
