# generated using pymatgen
data_Na2Zn3S4
_symmetry_space_group_name_H-M   'P 1'
_cell_length_a   5.81026280
_cell_length_b   8.72099455
_cell_length_c   8.72099489
_cell_angle_alpha   71.39545257
_cell_angle_beta   70.54179059
_cell_angle_gamma   70.54178782
_symmetry_Int_Tables_number   1
_chemical_formula_structural   Na2Zn3S4
_chemical_formula_sum   'Na4 Zn6 S8'
_cell_volume   381.95571610
_cell_formula_units_Z   2
loop_
 _symmetry_equiv_pos_site_id
 _symmetry_equiv_pos_as_xyz
  1  'x, y, z'
loop_
 _atom_site_type_symbol
 _atom_site_label
 _atom_site_symmetry_multiplicity
 _atom_site_fract_x
 _atom_site_fract_y
 _atom_site_fract_z
 _atom_site_occupancy
  Na  Na0  1  0.73984632  0.62594664  0.37405336  1
  Na  Na1  1  0.26015368  0.37405336  0.62594664  1
  Na  Na2  1  0.76015368  0.12594664  0.87405336  1
  Na  Na3  1  0.23984632  0.87405336  0.12594664  1
  Zn  Zn4  1  0.75000000  0.75000000  0.75000000  1
  Zn  Zn5  1  0.25000000  0.25000000  0.25000000  1
  Zn  Zn6  1  0.25000000  0.96740706  0.53259294  1
  Zn  Zn7  1  0.25000000  0.53259294  0.96740706  1
  Zn  Zn8  1  0.75000000  0.03259294  0.46740706  1
  Zn  Zn9  1  0.75000000  0.46740706  0.03259294  1
  S  S10  1  0.58758463  0.00705314  0.27084418  1
  S  S11  1  0.13451805  0.27084418  0.00705314  1
  S  S12  1  0.91241537  0.22915582  0.49294686  1
  S  S13  1  0.36548195  0.49294686  0.22915582  1
  S  S14  1  0.41241537  0.99294686  0.72915582  1
  S  S15  1  0.86548195  0.72915582  0.99294686  1
  S  S16  1  0.08758463  0.77084418  0.50705314  1
  S  S17  1  0.63451805  0.50705314  0.77084418  1
