# generated using pymatgen
data_Mg6AlSn
_symmetry_space_group_name_H-M   'P 1'
_cell_length_a   6.23821964
_cell_length_b   6.23821916
_cell_length_c   5.30816642
_cell_angle_alpha   90.00000000
_cell_angle_beta   90.00000000
_cell_angle_gamma   120.28672846
_symmetry_Int_Tables_number   1
_chemical_formula_structural   Mg6AlSn
_chemical_formula_sum   'Mg6 Al1 Sn1'
_cell_volume   178.37516786
_cell_formula_units_Z   1
loop_
 _symmetry_equiv_pos_site_id
 _symmetry_equiv_pos_as_xyz
  1  'x, y, z'
loop_
 _atom_site_type_symbol
 _atom_site_label
 _atom_site_symmetry_multiplicity
 _atom_site_fract_x
 _atom_site_fract_y
 _atom_site_fract_z
 _atom_site_occupancy
  Mg  Mg0  1  0.16553128  0.83292490  0.25000000  1
  Mg  Mg1  1  0.66707510  0.33446872  0.25000000  1
  Mg  Mg2  1  0.66736817  0.83263183  0.25000000  1
  Mg  Mg3  1  0.33236809  0.66273159  0.75000000  1
  Mg  Mg4  1  0.83726841  0.16763191  0.75000000  1
  Mg  Mg5  1  0.83285156  0.66714844  0.75000000  1
  Al  Al6  1  0.16503019  0.33496981  0.25000000  1
  Sn  Sn7  1  0.33250719  0.16749281  0.75000000  1
