# generated using pymatgen
data_LiMg6Cu
_symmetry_space_group_name_H-M   'P 1'
_cell_length_a   6.13794524
_cell_length_b   6.13794478
_cell_length_c   4.97858923
_cell_angle_alpha   90.00000000
_cell_angle_beta   90.00000000
_cell_angle_gamma   120.13928797
_symmetry_Int_Tables_number   1
_chemical_formula_structural   LiMg6Cu
_chemical_formula_sum   'Li1 Mg6 Cu1'
_cell_volume   162.20776635
_cell_formula_units_Z   1
loop_
 _symmetry_equiv_pos_site_id
 _symmetry_equiv_pos_as_xyz
  1  'x, y, z'
loop_
 _atom_site_type_symbol
 _atom_site_label
 _atom_site_symmetry_multiplicity
 _atom_site_fract_x
 _atom_site_fract_y
 _atom_site_fract_z
 _atom_site_occupancy
  Li  Li0  1  0.33007026  0.16992974  0.75000000  1
  Mg  Mg1  1  0.16772832  0.83902870  0.25000000  1
  Mg  Mg2  1  0.66097130  0.33227168  0.25000000  1
  Mg  Mg3  1  0.66719501  0.83280499  0.25000000  1
  Mg  Mg4  1  0.32811199  0.65301477  0.75000000  1
  Mg  Mg5  1  0.84698523  0.17188801  0.75000000  1
  Mg  Mg6  1  0.83347776  0.66652224  0.75000000  1
  Cu  Cu7  1  0.16546014  0.33453986  0.25000000  1
