# generated using pymatgen
data_Te4Mo3W(SeS)2
_symmetry_space_group_name_H-M   'P 1'
_cell_length_a   3.39883232
_cell_length_b   3.39893863
_cell_length_c   40.01600925
_cell_angle_alpha   89.99908479
_cell_angle_beta   90.00000000
_cell_angle_gamma   119.99896534
_symmetry_Int_Tables_number   1
_chemical_formula_structural   Te4Mo3W(SeS)2
_chemical_formula_sum   'Te4 Mo3 W1 Se2 S2'
_cell_volume   400.35199507
_cell_formula_units_Z   1
loop_
 _symmetry_equiv_pos_site_id
 _symmetry_equiv_pos_as_xyz
  1  'x, y, z'
loop_
 _atom_site_type_symbol
 _atom_site_label
 _atom_site_symmetry_multiplicity
 _atom_site_fract_x
 _atom_site_fract_y
 _atom_site_fract_z
 _atom_site_occupancy
  Te  Te0  1  0.33330097  0.66660295  0.70549401  1
  Te  Te1  1  0.66668194  0.33336287  0.42191544  1
  Te  Te2  1  0.66666108  0.33332115  0.51570307  1
  Te  Te3  1  0.33331030  0.66662160  0.61171996  1
  Mo  Mo4  1  0.33337121  0.66674242  0.09404104  1
  Mo  Mo5  1  0.33334724  0.66669447  0.46881580  1
  Mo  Mo6  1  0.66663543  0.33327086  0.65863641  1
  W  W7  1  0.66663574  0.33327149  0.28143282  1
  Se  Se8  1  0.33328847  0.66657795  0.32280388  1
  Se  Se9  1  0.33331472  0.66663043  0.24010019  1
  S  S10  1  0.66672715  0.33345330  0.05647745  1
  S  S11  1  0.66672575  0.33345051  0.13160794  1
