# generated using pymatgen
data_Te4Mo3W(SeS)2
_symmetry_space_group_name_H-M   'P 1'
_cell_length_a   3.39784396
_cell_length_b   3.39787637
_cell_length_c   38.77638813
_cell_angle_alpha   90.00061789
_cell_angle_beta   90.00000000
_cell_angle_gamma   119.99968449
_symmetry_Int_Tables_number   1
_chemical_formula_structural   Te4Mo3W(SeS)2
_chemical_formula_sum   'Te4 Mo3 W1 Se2 S2'
_cell_volume   387.71300622
_cell_formula_units_Z   1
loop_
 _symmetry_equiv_pos_site_id
 _symmetry_equiv_pos_as_xyz
  1  'x, y, z'
loop_
 _atom_site_type_symbol
 _atom_site_label
 _atom_site_symmetry_multiplicity
 _atom_site_fract_x
 _atom_site_fract_y
 _atom_site_fract_z
 _atom_site_occupancy
  Te  Te0  1  0.33335811  0.66671723  0.33013913  1
  Te  Te1  1  0.33335732  0.66671564  0.70588149  1
  Te  Te2  1  0.33335151  0.66670403  0.23338313  1
  Te  Te3  1  0.33334902  0.66669904  0.60921875  1
  Mo  Mo4  1  0.33330106  0.66660212  0.09393676  1
  Mo  Mo5  1  0.66669338  0.33338676  0.28177363  1
  Mo  Mo6  1  0.66668965  0.33337930  0.65755732  1
  W  W7  1  0.33330821  0.66661642  0.46965711  1
  Se  Se8  1  0.66664309  0.33328519  0.42694155  1
  Se  Se9  1  0.66664224  0.33328348  0.51237438  1
  S  S10  1  0.66665358  0.33330616  0.05521856  1
  S  S11  1  0.66665281  0.33330462  0.13266617  1
