# generated using pymatgen
data_Te2Mo2W(SeS)2
_symmetry_space_group_name_H-M   'P 1'
_cell_length_a   3.34940173
_cell_length_b   3.34925004
_cell_length_c   30.95270529
_cell_angle_alpha   90.00023413
_cell_angle_beta   90.00000000
_cell_angle_gamma   120.00149836
_symmetry_Int_Tables_number   1
_chemical_formula_structural   Te2Mo2W(SeS)2
_chemical_formula_sum   'Te2 Mo2 W1 Se2 S2'
_cell_volume   300.70281795
_cell_formula_units_Z   1
loop_
 _symmetry_equiv_pos_site_id
 _symmetry_equiv_pos_as_xyz
  1  'x, y, z'
loop_
 _atom_site_type_symbol
 _atom_site_label
 _atom_site_symmetry_multiplicity
 _atom_site_fract_x
 _atom_site_fract_y
 _atom_site_fract_z
 _atom_site_occupancy
  Te  Te0  1  0.66664081  0.33328062  0.05445256  1
  Te  Te1  1  0.66664017  0.33327933  0.17686441  1
  Mo  Mo2  1  0.33330430  0.66660860  0.11562003  1
  Mo  Mo3  1  0.66669269  0.33338539  0.34698418  1
  W  W4  1  0.33330912  0.66661824  0.57830806  1
  Se  Se5  1  0.66665059  0.33330018  0.52424178  1
  Se  Se6  1  0.66665153  0.33330206  0.63239256  1
  S  S7  1  0.33335651  0.66671402  0.39594997  1
  S  S8  1  0.33335528  0.66671156  0.29802745  1
