# generated using pymatgen
data_Te4Mo3W(SeS)2
_symmetry_space_group_name_H-M   'P 1'
_cell_length_a   3.39915277
_cell_length_b   3.39908615
_cell_length_c   40.21176026
_cell_angle_alpha   90.00464190
_cell_angle_beta   90.00000000
_cell_angle_gamma   120.00064828
_symmetry_Int_Tables_number   1
_chemical_formula_structural   Te4Mo3W(SeS)2
_chemical_formula_sum   'Te4 Mo3 W1 Se2 S2'
_cell_volume   402.35901172
_cell_formula_units_Z   1
loop_
 _symmetry_equiv_pos_site_id
 _symmetry_equiv_pos_as_xyz
  1  'x, y, z'
loop_
 _atom_site_type_symbol
 _atom_site_label
 _atom_site_symmetry_multiplicity
 _atom_site_fract_x
 _atom_site_fract_y
 _atom_site_fract_z
 _atom_site_occupancy
  Te  Te0  1  0.33340892  0.66681884  0.32705161  1
  Te  Te1  1  0.66661871  0.33323641  0.42395412  1
  Te  Te2  1  0.66666524  0.33332947  0.51718080  1
  Te  Te3  1  0.33334548  0.66669196  0.23378735  1
  Mo  Mo4  1  0.33331447  0.66662893  0.09388525  1
  Mo  Mo5  1  0.33330042  0.66660083  0.47056480  1
  Mo  Mo6  1  0.66670213  0.33340426  0.28042728  1
  W  W7  1  0.66666906  0.33333812  0.65804680  1
  Se  Se8  1  0.33337845  0.66675791  0.69928268  1
  Se  Se9  1  0.33331526  0.66663153  0.61687149  1
  S  S10  1  0.66661586  0.33323071  0.05648252  1
  S  S11  1  0.66666601  0.33333102  0.13121331  1
