# generated using pymatgen
data_NiB10(H13O4)2
_symmetry_space_group_name_H-M   'P 1'
_cell_length_a   6.76245962
_cell_length_b   7.31690999
_cell_length_c   18.44776507
_cell_angle_alpha   80.63618959
_cell_angle_beta   79.43874009
_cell_angle_gamma   62.47654110
_symmetry_Int_Tables_number   1
_chemical_formula_structural   NiB10(H13O4)2
_chemical_formula_sum   'Ni2 B20 H52 O16'
_cell_volume   792.58684778
_cell_formula_units_Z   2
loop_
 _symmetry_equiv_pos_site_id
 _symmetry_equiv_pos_as_xyz
  1  'x, y, z'
loop_
 _atom_site_type_symbol
 _atom_site_label
 _atom_site_symmetry_multiplicity
 _atom_site_fract_x
 _atom_site_fract_y
 _atom_site_fract_z
 _atom_site_occupancy
  Ni  Ni0  1  -0.00000000  0.00000000  0.50000000  1
  Ni  Ni1  1  0.50000000  0.50000000  0.00000000  1
  B  B2  1  0.30970774  0.38070639  0.65449341  1
  B  B3  1  0.34490754  0.11929361  0.84550659  1
  B  B4  1  0.69029226  0.61929361  0.34550659  1
  B  B5  1  0.65509246  0.88070639  0.15449341  1
  B  B6  1  0.10319843  0.37138525  0.72145394  1
  B  B7  1  0.19603761  0.12861475  0.77854606  1
  B  B8  1  0.89680157  0.62861475  0.27854606  1
  B  B9  1  0.80396239  0.87138525  0.22145394  1
  B  B10  1  0.29921147  0.46887707  0.73599777  1
  B  B11  1  0.50408630  0.03112293  0.76400223  1
  B  B12  1  0.70078853  0.53112293  0.26400223  1
  B  B13  1  0.49591370  0.96887707  0.23599777  1
  B  B14  1  0.53632759  0.23422456  0.70113473  1
  B  B15  1  0.47168688  0.26577544  0.79886527  1
  B  B16  1  0.46367241  0.76577544  0.29886527  1
  B  B17  1  0.52831312  0.73422456  0.20113473  1
  B  B18  1  0.16499268  0.36209868  0.81327228  1
  B  B19  1  0.34036364  0.13790132  0.68672772  1
  B  B20  1  0.83500732  0.63790132  0.18672772  1
  B  B21  1  0.65963636  0.86209868  0.31327228  1
  H  H22  1  0.33682740  0.29101747  0.94270730  1
  H  H23  1  0.57055216  0.20898253  0.55729270  1
  H  H24  1  0.66317260  0.70898253  0.05729270  1
  H  H25  1  0.42944784  0.79101747  0.44270730  1
  H  H26  1  0.26618366  0.25716440  0.02876012  1
  H  H27  1  0.55210817  0.24283560  0.47123988  1
  H  H28  1  0.73381634  0.74283560  0.97123988  1
  H  H29  1  0.44789183  0.75716440  0.52876012  1
  H  H30  1  0.12398852  0.19393955  0.58116684  1
  H  H31  1  0.89909491  0.30606045  0.91883316  1
  H  H32  1  0.87601148  0.80606045  0.41883316  1
  H  H33  1  0.10090509  0.69393955  0.08116684  1
  H  H34  1  0.89035567  0.36334693  0.55581464  1
  H  H35  1  0.80951724  0.13665307  0.94418536  1
  H  H36  1  0.10964433  0.63665307  0.44418536  1
  H  H37  1  0.19048276  0.86334693  0.05581464  1
  H  H38  1  0.07253651  0.72504183  0.62480820  1
  H  H39  1  0.42238654  0.77495817  0.87519180  1
  H  H40  1  0.92746349  0.27495817  0.37519180  1
  H  H41  1  0.57761346  0.22504183  0.12480820  1
  H  H42  1  0.87559052  0.94462390  0.64564596  1
  H  H43  1  0.46586038  0.55537610  0.85435404  1
  H  H44  1  0.12440948  0.05537610  0.35435404  1
  H  H45  1  0.53413962  0.44462390  0.14564596  1
  H  H46  1  0.02356472  0.80561588  0.91458968  1
  H  H47  1  0.74377027  0.69438412  0.58541032  1
  H  H48  1  0.97643528  0.19438412  0.08541032  1
  H  H49  1  0.25622973  0.30561588  0.41458968  1
  H  H50  1  0.81877877  0.92272486  0.86847231  1
  H  H51  1  0.60997594  0.57727514  0.63152769  1
  H  H52  1  0.18122123  0.07727514  0.13152769  1
  H  H53  1  0.39002406  0.42272486  0.36847231  1
  H  H54  1  0.29923183  0.46407065  0.59244325  1
  H  H55  1  0.35574573  0.03592935  0.90755675  1
  H  H56  1  0.70076817  0.53592935  0.40755675  1
  H  H57  1  0.64425427  0.96407065  0.09244325  1
  H  H58  1  0.91018262  0.45960213  0.71020034  1
  H  H59  1  0.07998509  0.04039787  0.78979966  1
  H  H60  1  0.08981738  0.54039787  0.28979966  1
  H  H61  1  0.92001491  0.95960213  0.21020034  1
  H  H62  1  0.27835720  0.64121541  0.73703805  1
  H  H63  1  0.65661066  0.85878459  0.76296195  1
  H  H64  1  0.72164280  0.35878459  0.26296195  1
  H  H65  1  0.34338934  0.14121541  0.23703805  1
  H  H66  1  0.72350969  0.20305928  0.67257259  1
  H  H67  1  0.59914157  0.29694072  0.82742741  1
  H  H68  1  0.27649031  0.79694072  0.32742741  1
  H  H69  1  0.40085843  0.70305928  0.17257259  1
  H  H70  1  0.02120611  0.48036223  0.85534143  1
  H  H71  1  0.35690977  0.01963777  0.64465857  1
  H  H72  1  0.97879389  0.51963777  0.14465857  1
  H  H73  1  0.64309023  0.98036223  0.35534143  1
  O  O74  1  0.32861523  0.33664305  0.99084889  1
  O  O75  1  0.65610717  0.16335695  0.50915111  1
  O  O76  1  0.67138477  0.66335695  0.00915111  1
  O  O77  1  0.34389283  0.83664305  0.49084889  1
  O  O78  1  0.02482019  0.23268322  0.54287589  1
  O  O79  1  0.80037931  0.26731678  0.95712411  1
  O  O80  1  0.97517981  0.76731678  0.45712411  1
  O  O81  1  0.19962069  0.73268322  0.04287589  1
  O  O82  1  0.95101100  0.85352894  0.60529865  1
  O  O83  1  0.40983859  0.64647106  0.89470135  1
  O  O84  1  0.04898900  0.14647106  0.39470135  1
  O  O85  1  0.59016141  0.35352894  0.10529865  1
  O  O86  1  0.85990860  0.89094622  0.91883394  1
  O  O87  1  0.66968876  0.60905378  0.58116606  1
  O  O88  1  0.14009140  0.10905378  0.08116606  1
  O  O89  1  0.33031124  0.39094622  0.41883394  1
