# generated using pymatgen
data_Rb2UMo2O11
_symmetry_space_group_name_H-M   'P 1'
_cell_length_a   8.18704170
_cell_length_b   11.15065974
_cell_length_c   13.81123113
_cell_angle_alpha   90.00000000
_cell_angle_beta   97.01613222
_cell_angle_gamma   90.00000000
_symmetry_Int_Tables_number   1
_chemical_formula_structural   Rb2UMo2O11
_chemical_formula_sum   'Rb8 U4 Mo8 O44'
_cell_volume   1251.39852177
_cell_formula_units_Z   4
loop_
 _symmetry_equiv_pos_site_id
 _symmetry_equiv_pos_as_xyz
  1  'x, y, z'
loop_
 _atom_site_type_symbol
 _atom_site_label
 _atom_site_symmetry_multiplicity
 _atom_site_fract_x
 _atom_site_fract_y
 _atom_site_fract_z
 _atom_site_occupancy
  Rb  Rb0  1  0.76385077  0.07456229  0.62459441  1
  Rb  Rb1  1  0.23614923  0.57456229  0.87540559  1
  Rb  Rb2  1  0.23614923  0.92543771  0.37540559  1
  Rb  Rb3  1  0.76385077  0.42543771  0.12459441  1
  Rb  Rb4  1  0.05619301  0.33511158  0.41628493  1
  Rb  Rb5  1  0.94380699  0.83511158  0.08371507  1
  Rb  Rb6  1  0.94380699  0.66488842  0.58371507  1
  Rb  Rb7  1  0.05619301  0.16488842  0.91628493  1
  U  U8  1  0.52381363  0.26394470  0.35098187  1
  U  U9  1  0.47618637  0.76394470  0.14901813  1
  U  U10  1  0.47618637  0.73605530  0.64901813  1
  U  U11  1  0.52381363  0.23605530  0.85098187  1
  Mo  Mo12  1  0.49292834  0.39573367  0.59349542  1
  Mo  Mo13  1  0.50707166  0.89573367  0.90650458  1
  Mo  Mo14  1  0.50707166  0.60426633  0.40650458  1
  Mo  Mo15  1  0.49292834  0.10426633  0.09349542  1
  Mo  Mo16  1  0.24040955  0.46103429  0.14883312  1
  Mo  Mo17  1  0.75959045  0.96103429  0.35116688  1
  Mo  Mo18  1  0.75959045  0.53896571  0.85116688  1
  Mo  Mo19  1  0.24040955  0.03896571  0.64883312  1
  O  O20  1  0.09079825  0.50167756  0.22564122  1
  O  O21  1  0.90920175  0.00167756  0.27435878  1
  O  O22  1  0.90920175  0.49832244  0.77435878  1
  O  O23  1  0.09079825  0.99832244  0.72564122  1
  O  O24  1  0.40250039  0.36811820  0.21468982  1
  O  O25  1  0.59749961  0.86811820  0.28531018  1
  O  O26  1  0.59749961  0.63188180  0.78531018  1
  O  O27  1  0.40250039  0.13188180  0.71468982  1
  O  O28  1  0.33074316  0.59072475  0.09254819  1
  O  O29  1  0.66925684  0.09072475  0.40745181  1
  O  O30  1  0.66925684  0.40927525  0.90745181  1
  O  O31  1  0.33074316  0.90927525  0.59254819  1
  O  O32  1  0.13446090  0.37903279  0.05135526  1
  O  O33  1  0.86553910  0.87903279  0.44864474  1
  O  O34  1  0.86553910  0.62096721  0.94864474  1
  O  O35  1  0.13446090  0.12096721  0.55135526  1
  O  O36  1  0.27904430  0.39159425  0.58663235  1
  O  O37  1  0.72095570  0.89159425  0.91336765  1
  O  O38  1  0.72095570  0.60840575  0.41336765  1
  O  O39  1  0.27904430  0.10840575  0.08663235  1
  O  O40  1  0.57879983  0.27698325  0.52302549  1
  O  O41  1  0.42120017  0.77698325  0.97697451  1
  O  O42  1  0.42120017  0.72301675  0.47697451  1
  O  O43  1  0.57879983  0.22301675  0.02302549  1
  O  O44  1  0.56840313  0.35622114  0.71764256  1
  O  O45  1  0.43159687  0.85622114  0.78235744  1
  O  O46  1  0.43159687  0.64377886  0.28235744  1
  O  O47  1  0.56840313  0.14377886  0.21764256  1
  O  O48  1  0.57296482  0.55085522  0.58378355  1
  O  O49  1  0.42703518  0.05085522  0.91621645  1
  O  O50  1  0.42703518  0.44914478  0.41621645  1
  O  O51  1  0.57296482  0.94914478  0.08378355  1
  O  O52  1  0.71820695  0.33962037  0.33595297  1
  O  O53  1  0.28179305  0.83962037  0.16404703  1
  O  O54  1  0.28179305  0.66037963  0.66404703  1
  O  O55  1  0.71820695  0.16037963  0.83595297  1
  O  O56  1  0.32668392  0.19082525  0.36187780  1
  O  O57  1  0.67331608  0.69082525  0.13812220  1
  O  O58  1  0.67331608  0.80917475  0.63812220  1
  O  O59  1  0.32668392  0.30917475  0.86187780  1
  O  O60  1  0.96812749  0.31395103  0.65822256  1
  O  O61  1  0.03187251  0.81395103  0.84177744  1
  O  O62  1  0.03187251  0.68604897  0.34177744  1
  O  O63  1  0.96812749  0.18604897  0.15822256  1
