# generated using pymatgen
data_Te2MoW3(SeS2)2
_symmetry_space_group_name_H-M   'P 1'
_cell_length_a   3.30088458
_cell_length_b   3.30094900
_cell_length_c   41.56450067
_cell_angle_alpha   90.01800361
_cell_angle_beta   90.00000000
_cell_angle_gamma   119.99935439
_symmetry_Int_Tables_number   1
_chemical_formula_structural   Te2MoW3(SeS2)2
_chemical_formula_sum   'Te2 Mo1 W3 Se2 S4'
_cell_volume   392.21585879
_cell_formula_units_Z   1
loop_
 _symmetry_equiv_pos_site_id
 _symmetry_equiv_pos_as_xyz
  1  'x, y, z'
loop_
 _atom_site_type_symbol
 _atom_site_label
 _atom_site_symmetry_multiplicity
 _atom_site_fract_x
 _atom_site_fract_y
 _atom_site_fract_z
 _atom_site_occupancy
  Te  Te0  1  0.66658571  0.33317043  0.42444362  1
  Te  Te1  1  0.66678571  0.33357042  0.51713398  1
  Mo  Mo2  1  0.66681363  0.33362726  0.27946141  1
  W  W3  1  0.33327177  0.66654354  0.09370029  1
  W  W4  1  0.33333963  0.66667926  0.47079359  1
  W  W5  1  0.66659142  0.33318284  0.65895184  1
  Se  Se6  1  0.33362336  0.66724771  0.31997266  1
  Se  Se7  1  0.33329520  0.66659141  0.23901261  1
  S  S8  1  0.33331177  0.66662453  0.69588558  1
  S  S9  1  0.66651303  0.33302505  0.05672690  1
  S  S10  1  0.66668290  0.33336479  0.13070329  1
  S  S11  1  0.33318588  0.66637277  0.62196222  1
