# generated using pymatgen
data_Te2W2SeS
_symmetry_space_group_name_H-M   'P 1'
_cell_length_a   3.39626536
_cell_length_b   3.39626649
_cell_length_c   38.82675175
_cell_angle_alpha   90.00020095
_cell_angle_beta   90.00000000
_cell_angle_gamma   119.99998903
_symmetry_Int_Tables_number   1
_chemical_formula_structural   Te2W2SeS
_chemical_formula_sum   'Te4 W4 Se2 S2'
_cell_volume   387.85117705
_cell_formula_units_Z   2
loop_
 _symmetry_equiv_pos_site_id
 _symmetry_equiv_pos_as_xyz
  1  'x, y, z'
loop_
 _atom_site_type_symbol
 _atom_site_label
 _atom_site_symmetry_multiplicity
 _atom_site_fract_x
 _atom_site_fract_y
 _atom_site_fract_z
 _atom_site_occupancy
  Te  Te0  1  0.33335879  0.66671858  0.33029711  1
  Te  Te1  1  0.33335685  0.66671470  0.70600669  1
  Te  Te2  1  0.33336365  0.66672830  0.23334137  1
  Te  Te3  1  0.33335335  0.66670770  0.60904455  1
  W  W4  1  0.33330457  0.66660914  0.09389477  1
  W  W5  1  0.33330773  0.66661545  0.46966372  1
  W  W6  1  0.66669268  0.33338536  0.28179692  1
  W  W7  1  0.66668744  0.33337489  0.65755172  1
  Se  Se8  1  0.66664200  0.33328300  0.05132112  1
  Se  Se9  1  0.66664537  0.33328974  0.13650017  1
  S  S10  1  0.66664405  0.33328709  0.43084615  1
  S  S11  1  0.66664352  0.33328604  0.50848371  1
