# generated using pymatgen
data_Te2W2SeS
_symmetry_space_group_name_H-M   'P 1'
_cell_length_a   3.39817431
_cell_length_b   3.39815955
_cell_length_c   38.84726069
_cell_angle_alpha   90.00044629
_cell_angle_beta   90.00000000
_cell_angle_gamma   120.00014380
_symmetry_Int_Tables_number   1
_chemical_formula_structural   Te2W2SeS
_chemical_formula_sum   'Te4 W4 Se2 S2'
_cell_volume   388.48997863
_cell_formula_units_Z   2
loop_
 _symmetry_equiv_pos_site_id
 _symmetry_equiv_pos_as_xyz
  1  'x, y, z'
loop_
 _atom_site_type_symbol
 _atom_site_label
 _atom_site_symmetry_multiplicity
 _atom_site_fract_x
 _atom_site_fract_y
 _atom_site_fract_z
 _atom_site_occupancy
  Te  Te0  1  0.33336446  0.66672992  0.33026280  1
  Te  Te1  1  0.33335994  0.66672088  0.70601940  1
  Te  Te2  1  0.33335060  0.66670219  0.23330159  1
  Te  Te3  1  0.33335644  0.66671389  0.60905883  1
  W  W4  1  0.33331065  0.66662130  0.09393591  1
  W  W5  1  0.33331087  0.66662175  0.46966021  1
  W  W6  1  0.66669558  0.33339115  0.28179411  1
  W  W7  1  0.66669048  0.33338095  0.65755185  1
  Se  Se8  1  0.66662110  0.33324119  0.42705426  1
  Se  Se9  1  0.66664827  0.33329553  0.51225198  1
  S  S10  1  0.66664465  0.33328829  0.05512156  1
  S  S11  1  0.66664697  0.33329295  0.13273550  1
