# generated using pymatgen
data_Te2MoW3(SeS2)2
_symmetry_space_group_name_H-M   'P 1'
_cell_length_a   3.30755417
_cell_length_b   3.30748107
_cell_length_c   39.66865537
_cell_angle_alpha   90.01152677
_cell_angle_beta   90.00000000
_cell_angle_gamma   120.00073101
_symmetry_Int_Tables_number   1
_chemical_formula_structural   Te2MoW3(SeS2)2
_chemical_formula_sum   'Te2 Mo1 W3 Se2 S4'
_cell_volume   375.81943337
_cell_formula_units_Z   1
loop_
 _symmetry_equiv_pos_site_id
 _symmetry_equiv_pos_as_xyz
  1  'x, y, z'
loop_
 _atom_site_type_symbol
 _atom_site_label
 _atom_site_symmetry_multiplicity
 _atom_site_fract_x
 _atom_site_fract_y
 _atom_site_fract_z
 _atom_site_occupancy
  Te  Te0  1  0.33369876  0.66739853  0.33105885  1
  Te  Te1  1  0.33337020  0.66674139  0.23393981  1
  Mo  Mo2  1  0.33324823  0.66649646  0.09247254  1
  W  W3  1  0.33323496  0.66646991  0.47034121  1
  W  W4  1  0.66687963  0.33375925  0.28249984  1
  W  W5  1  0.66665007  0.33330013  0.65761217  1
  Se  Se6  1  0.66654440  0.33308780  0.05014379  1
  Se  Se7  1  0.66662233  0.33324367  0.13485146  1
  S  S8  1  0.33332463  0.66665026  0.69624537  1
  S  S9  1  0.66652271  0.33304442  0.43166588  1
  S  S10  1  0.66662407  0.33324714  0.50893986  1
  S  S11  1  0.33328002  0.66656104  0.61897721  1
