# generated using pymatgen
data_H10PtC2(NCl)2
_symmetry_space_group_name_H-M   'P 1'
_cell_length_a   6.48477923
_cell_length_b   7.76661122
_cell_length_c   16.67513878
_cell_angle_alpha   90.00000000
_cell_angle_beta   90.00000000
_cell_angle_gamma   100.05494929
_symmetry_Int_Tables_number   1
_chemical_formula_structural   H10PtC2(NCl)2
_chemical_formula_sum   'H40 Pt4 C8 N8 Cl8'
_cell_volume   826.94005715
_cell_formula_units_Z   4
loop_
 _symmetry_equiv_pos_site_id
 _symmetry_equiv_pos_as_xyz
  1  'x, y, z'
loop_
 _atom_site_type_symbol
 _atom_site_label
 _atom_site_symmetry_multiplicity
 _atom_site_fract_x
 _atom_site_fract_y
 _atom_site_fract_z
 _atom_site_occupancy
  H  H0  1  0.65719402  0.89319345  0.52569083  1
  H  H1  1  0.15719402  0.39319345  0.97430917  1
  H  H2  1  0.34280598  0.10680655  0.47430917  1
  H  H3  1  0.84280598  0.60680655  0.02569083  1
  H  H4  1  0.85621302  0.79948767  0.54974494  1
  H  H5  1  0.35621302  0.29948767  0.95025506  1
  H  H6  1  0.14378698  0.20051233  0.45025506  1
  H  H7  1  0.64378698  0.70051233  0.04974494  1
  H  H8  1  0.88760648  0.53367795  0.60347295  1
  H  H9  1  0.38760648  0.03367795  0.89652705  1
  H  H10  1  0.11239352  0.46632205  0.39652705  1
  H  H11  1  0.61239352  0.96632205  0.10347295  1
  H  H12  1  0.70554813  0.35941770  0.60655187  1
  H  H13  1  0.20554813  0.85941770  0.89344813  1
  H  H14  1  0.29445187  0.64058230  0.39344813  1
  H  H15  1  0.79445187  0.14058230  0.10655187  1
  H  H16  1  0.91934291  0.39438499  0.72703251  1
  H  H17  1  0.41934291  0.89438499  0.77296749  1
  H  H18  1  0.08065709  0.60561501  0.27296749  1
  H  H19  1  0.58065709  0.10561501  0.22703251  1
  H  H20  1  0.82732472  0.59618777  0.74548113  1
  H  H21  1  0.32732472  0.09618777  0.75451887  1
  H  H22  1  0.17267528  0.40381223  0.25451887  1
  H  H23  1  0.67267528  0.90381223  0.24548113  1
  H  H24  1  0.64844049  0.39504625  0.74752390  1
  H  H25  1  0.14844049  0.89504625  0.75247610  1
  H  H26  1  0.35155951  0.60495375  0.25247610  1
  H  H27  1  0.85155951  0.10495375  0.24752390  1
  H  H28  1  0.89322838  0.07642507  0.61570886  1
  H  H29  1  0.39322838  0.57642507  0.88429114  1
  H  H30  1  0.10677162  0.92357493  0.38429114  1
  H  H31  1  0.60677162  0.42357493  0.11570886  1
  H  H32  1  0.63671490  0.01091172  0.65766899  1
  H  H33  1  0.13671490  0.51091172  0.84233101  1
  H  H34  1  0.36328510  0.98908828  0.34233101  1
  H  H35  1  0.86328510  0.48908828  0.15766899  1
  H  H36  1  0.84461885  0.90467817  0.68858406  1
  H  H37  1  0.34461885  0.40467817  0.81141594  1
  H  H38  1  0.15538115  0.09532183  0.31141594  1
  H  H39  1  0.65538115  0.59532183  0.18858406  1
  Pt  Pt40  1  0.50994976  0.61145402  0.59870817  1
  Pt  Pt41  1  0.00994976  0.11145402  0.90129183  1
  Pt  Pt42  1  0.49005024  0.38854598  0.40129183  1
  Pt  Pt43  1  0.99005024  0.88854598  0.09870817  1
  C  C44  1  0.78907572  0.46582560  0.71838744  1
  C  C45  1  0.28907572  0.96582560  0.78161256  1
  C  C46  1  0.21092428  0.53417440  0.28161256  1
  C  C47  1  0.71092428  0.03417440  0.21838744  1
  C  C48  1  0.77856815  0.96514014  0.63757044  1
  C  C49  1  0.27856815  0.46514014  0.86242956  1
  C  C50  1  0.22143185  0.03485986  0.36242956  1
  C  C51  1  0.72143185  0.53485986  0.13757044  1
  N  N52  1  0.72208747  0.83533244  0.57235779  1
  N  N53  1  0.22208747  0.33533244  0.92764221  1
  N  N54  1  0.27791253  0.16466756  0.42764221  1
  N  N55  1  0.77791253  0.66466756  0.07235779  1
  N  N56  1  0.74882142  0.48152474  0.63119128  1
  N  N57  1  0.24882142  0.98152474  0.86880872  1
  N  N58  1  0.25117858  0.51847526  0.36880872  1
  N  N59  1  0.75117858  0.01847526  0.13119128  1
  Cl  Cl60  1  0.28066213  0.35249932  0.62524134  1
  Cl  Cl61  1  0.78066213  0.85249932  0.87475866  1
  Cl  Cl62  1  0.71933787  0.64750068  0.37475866  1
  Cl  Cl63  1  0.21933787  0.14750068  0.12524134  1
  Cl  Cl64  1  0.24609953  0.76339043  0.55857759  1
  Cl  Cl65  1  0.74609953  0.26339043  0.94142241  1
  Cl  Cl66  1  0.75390047  0.23660957  0.44142241  1
  Cl  Cl67  1  0.25390047  0.73660957  0.05857759  1
