# generated using pymatgen
data_Te2W2SeS
_symmetry_space_group_name_H-M   'P 1'
_cell_length_a   3.39715289
_cell_length_b   3.39717494
_cell_length_c   38.82247951
_cell_angle_alpha   90.00014347
_cell_angle_beta   89.99998485
_cell_angle_gamma   119.99974810
_symmetry_Int_Tables_number   1
_chemical_formula_structural   Te2W2SeS
_chemical_formula_sum   'Te4 W4 Se2 S2'
_cell_volume   388.01454753
_cell_formula_units_Z   2
loop_
 _symmetry_equiv_pos_site_id
 _symmetry_equiv_pos_as_xyz
  1  'x, y, z'
loop_
 _atom_site_type_symbol
 _atom_site_label
 _atom_site_symmetry_multiplicity
 _atom_site_fract_x
 _atom_site_fract_y
 _atom_site_fract_z
 _atom_site_occupancy
  Te  Te0  1  0.33335992  0.66672030  0.70603078  1
  Te  Te1  1  0.66664260  0.33328439  0.04544063  1
  Te  Te2  1  0.66664539  0.33329012  0.14242327  1
  Te  Te3  1  0.33336668  0.66673354  0.60904994  1
  W  W4  1  0.33330889  0.66661684  0.09390180  1
  W  W5  1  0.33330621  0.66661137  0.46964770  1
  W  W6  1  0.66668775  0.33337647  0.28178764  1
  W  W7  1  0.66669110  0.33338273  0.65757512  1
  Se  Se8  1  0.66663558  0.33327042  0.42703999  1
  Se  Se9  1  0.66664515  0.33328956  0.51224697  1
  S  S10  1  0.33335507  0.66671003  0.32061914  1
  S  S11  1  0.33335568  0.66671423  0.24298500  1
