# generated using pymatgen
data_Te4Mo3W(SeS)2
_symmetry_space_group_name_H-M   'P 1'
_cell_length_a   3.39805921
_cell_length_b   3.39795159
_cell_length_c   38.69759025
_cell_angle_alpha   90.00056815
_cell_angle_beta   90.00000000
_cell_angle_gamma   120.00104778
_symmetry_Int_Tables_number   1
_chemical_formula_structural   Te4Mo3W(SeS)2
_chemical_formula_sum   'Te4 Mo3 W1 Se2 S2'
_cell_volume   386.95289273
_cell_formula_units_Z   1
loop_
 _symmetry_equiv_pos_site_id
 _symmetry_equiv_pos_as_xyz
  1  'x, y, z'
loop_
 _atom_site_type_symbol
 _atom_site_label
 _atom_site_symmetry_multiplicity
 _atom_site_fract_x
 _atom_site_fract_y
 _atom_site_fract_z
 _atom_site_occupancy
  Te  Te0  1  0.33334936  0.66669971  0.70598071  1
  Te  Te1  1  0.66664099  0.33328097  0.04550819  1
  Te  Te2  1  0.66665253  0.33330405  0.14237953  1
  Te  Te3  1  0.33334692  0.66669483  0.60912000  1
  Mo  Mo4  1  0.33331152  0.66662303  0.09391053  1
  Mo  Mo5  1  0.66667805  0.33335611  0.28178348  1
  Mo  Mo6  1  0.66668730  0.33337460  0.65758026  1
  W  W7  1  0.33330934  0.66661868  0.46963837  1
  Se  Se8  1  0.66664074  0.33328048  0.42681749  1
  Se  Se9  1  0.66665176  0.33330251  0.51245414  1
  S  S10  1  0.33336419  0.66672937  0.32059510  1
  S  S11  1  0.33336733  0.66673565  0.24298022  1
