# generated using pymatgen
data_Mg30NbCuO32
_symmetry_space_group_name_H-M   'P 1'
_cell_length_a   8.56961187
_cell_length_b   8.56961187
_cell_length_c   8.56949411
_cell_angle_alpha   90.00000000
_cell_angle_beta   90.00000000
_cell_angle_gamma   90.00000000
_symmetry_Int_Tables_number   1
_chemical_formula_structural   Mg30NbCuO32
_chemical_formula_sum   'Mg30 Nb1 Cu1 O32'
_cell_volume   629.32863028
_cell_formula_units_Z   1
loop_
 _symmetry_equiv_pos_site_id
 _symmetry_equiv_pos_as_xyz
  1  'x, y, z'
loop_
 _atom_site_type_symbol
 _atom_site_label
 _atom_site_symmetry_multiplicity
 _atom_site_fract_x
 _atom_site_fract_y
 _atom_site_fract_z
 _atom_site_occupancy
  Mg  Mg0  1  -0.00000000  0.50000000  -0.00000000  1
  Mg  Mg1  1  -0.00000000  0.50000000  0.50000000  1
  Mg  Mg2  1  0.50000000  0.00000000  -0.00000000  1
  Mg  Mg3  1  0.50000000  0.00000000  0.50000000  1
  Mg  Mg4  1  0.50000000  0.50000000  -0.00000000  1
  Mg  Mg5  1  0.50000000  0.50000000  0.50000000  1
  Mg  Mg6  1  -0.00000000  0.25238912  0.24322884  1
  Mg  Mg7  1  -0.00000000  0.25238912  0.75677116  1
  Mg  Mg8  1  -0.00000000  0.74761088  0.24322884  1
  Mg  Mg9  1  -0.00000000  0.74761088  0.75677116  1
  Mg  Mg10  1  0.50000000  0.25001985  0.24878064  1
  Mg  Mg11  1  0.50000000  0.25001985  0.75121936  1
  Mg  Mg12  1  0.50000000  0.74998015  0.24878064  1
  Mg  Mg13  1  0.50000000  0.74998015  0.75121936  1
  Mg  Mg14  1  0.25238912  0.00000000  0.24322884  1
  Mg  Mg15  1  0.25238912  0.00000000  0.75677116  1
  Mg  Mg16  1  0.25001985  0.50000000  0.24878064  1
  Mg  Mg17  1  0.25001985  0.50000000  0.75121936  1
  Mg  Mg18  1  0.74761088  0.00000000  0.24322884  1
  Mg  Mg19  1  0.74761088  0.00000000  0.75677116  1
  Mg  Mg20  1  0.74998015  0.50000000  0.24878064  1
  Mg  Mg21  1  0.74998015  0.50000000  0.75121936  1
  Mg  Mg22  1  0.24812626  0.24812626  -0.00000000  1
  Mg  Mg23  1  0.25275653  0.25275653  0.50000000  1
  Mg  Mg24  1  0.24812626  0.75187374  0.00000000  1
  Mg  Mg25  1  0.25275653  0.74724347  0.50000000  1
  Mg  Mg26  1  0.75187374  0.24812626  -0.00000000  1
  Mg  Mg27  1  0.74724347  0.25275653  0.50000000  1
  Mg  Mg28  1  0.75187374  0.75187374  0.00000000  1
  Mg  Mg29  1  0.74724347  0.74724347  0.50000000  1
  Nb  Nb30  1  -0.00000000  0.00000000  0.50000000  1
  Cu  Cu31  1  -0.00000000  0.00000000  -0.00000000  1
  O  O32  1  0.26328721  0.00000000  -0.00000000  1
  O  O33  1  0.25650985  0.00000000  0.50000000  1
  O  O34  1  0.25159949  0.50000000  0.00000000  1
  O  O35  1  0.25074585  0.50000000  0.50000000  1
  O  O36  1  0.73671279  0.00000000  0.00000000  1
  O  O37  1  0.74349015  0.00000000  0.50000000  1
  O  O38  1  0.74840051  0.50000000  -0.00000000  1
  O  O39  1  0.74925415  0.50000000  0.50000000  1
  O  O40  1  0.24907444  0.24907444  0.25087526  1
  O  O41  1  0.24907444  0.24907444  0.74912474  1
  O  O42  1  0.24907444  0.75092556  0.25087526  1
  O  O43  1  0.24907444  0.75092556  0.74912474  1
  O  O44  1  0.75092556  0.24907444  0.25087526  1
  O  O45  1  0.75092556  0.24907444  0.74912474  1
  O  O46  1  0.75092556  0.75092556  0.25087526  1
  O  O47  1  0.75092556  0.75092556  0.74912474  1
  O  O48  1  -0.00000000  0.00000000  0.25558740  1
  O  O49  1  -0.00000000  0.00000000  0.74441260  1
  O  O50  1  -0.00000000  0.50000000  0.25201601  1
  O  O51  1  -0.00000000  0.50000000  0.74798399  1
  O  O52  1  0.50000000  0.00000000  0.25201601  1
  O  O53  1  0.50000000  0.00000000  0.74798399  1
  O  O54  1  0.50000000  0.50000000  0.25095918  1
  O  O55  1  0.50000000  0.50000000  0.74904082  1
  O  O56  1  -0.00000000  0.26328721  0.00000000  1
  O  O57  1  -0.00000000  0.25650985  0.50000000  1
  O  O58  1  -0.00000000  0.73671279  -0.00000000  1
  O  O59  1  -0.00000000  0.74349015  0.50000000  1
  O  O60  1  0.50000000  0.25159949  0.00000000  1
  O  O61  1  0.50000000  0.25074585  0.50000000  1
  O  O62  1  0.50000000  0.74840051  -0.00000000  1
  O  O63  1  0.50000000  0.74925415  0.50000000  1
