# generated using pymatgen
data_B3H20(CN)3
_symmetry_space_group_name_H-M   'P 1'
_cell_length_a   6.18858936
_cell_length_b   10.73561441
_cell_length_c   18.33284738
_cell_angle_alpha   90.00000000
_cell_angle_beta   90.00000000
_cell_angle_gamma   102.85336555
_symmetry_Int_Tables_number   1
_chemical_formula_structural   B3H20(CN)3
_chemical_formula_sum   'B12 H80 C12 N12'
_cell_volume   1187.48335926
_cell_formula_units_Z   4
loop_
 _symmetry_equiv_pos_site_id
 _symmetry_equiv_pos_as_xyz
  1  'x, y, z'
loop_
 _atom_site_type_symbol
 _atom_site_label
 _atom_site_symmetry_multiplicity
 _atom_site_fract_x
 _atom_site_fract_y
 _atom_site_fract_z
 _atom_site_occupancy
  B  B0  1  0.31888994  0.80458243  0.54889333  1
  B  B1  1  0.68111006  0.69541757  0.04889333  1
  B  B2  1  0.68111006  0.19541757  0.45110667  1
  B  B3  1  0.31888994  0.30458243  0.95110667  1
  B  B4  1  0.18778864  0.96410134  0.64635655  1
  B  B5  1  0.81221136  0.53589866  0.14635655  1
  B  B6  1  0.81221136  0.03589866  0.35364345  1
  B  B7  1  0.18778864  0.46410134  0.85364345  1
  B  B8  1  0.39902894  0.20557215  0.65292096  1
  B  B9  1  0.60097106  0.29442785  0.15292096  1
  B  B10  1  0.60097106  0.79442785  0.34707904  1
  B  B11  1  0.39902894  0.70557215  0.84707904  1
  H  H12  1  0.50771632  0.87248145  0.54733975  1
  H  H13  1  0.49228368  0.62751855  0.04733975  1
  H  H14  1  0.49228368  0.12751855  0.45266025  1
  H  H15  1  0.50771632  0.37248145  0.95266025  1
  H  H16  1  0.20320539  0.83516891  0.50073151  1
  H  H17  1  0.79679461  0.66483109  0.00073151  1
  H  H18  1  0.79679461  0.16483109  0.49926849  1
  H  H19  1  0.20320539  0.33516891  0.99926849  1
  H  H20  1  0.32504752  0.69108986  0.54388274  1
  H  H21  1  0.67495248  0.80891014  0.04388274  1
  H  H22  1  0.67495248  0.30891014  0.45611726  1
  H  H23  1  0.32504752  0.19108986  0.95611726  1
  H  H24  1  0.30676383  0.79495999  0.66470157  1
  H  H25  1  0.69323617  0.70504001  0.16470157  1
  H  H26  1  0.69323617  0.20504001  0.33529843  1
  H  H27  1  0.30676383  0.29495999  0.83529843  1
  H  H28  1  0.11938586  0.96242694  0.70884869  1
  H  H29  1  0.88061414  0.53757306  0.20884869  1
  H  H30  1  0.88061414  0.03757306  0.29115131  1
  H  H31  1  0.11938586  0.46242694  0.79115131  1
  H  H32  1  0.06135311  0.99568294  0.60247015  1
  H  H33  1  0.93864689  0.50431706  0.10247015  1
  H  H34  1  0.93864689  0.00431706  0.39752985  1
  H  H35  1  0.06135311  0.49568294  0.89752985  1
  H  H36  1  0.48845542  0.05313049  0.59214548  1
  H  H37  1  0.51154458  0.44686951  0.09214548  1
  H  H38  1  0.51154458  0.94686951  0.40785452  1
  H  H39  1  0.48845542  0.55313049  0.90785452  1
  H  H40  1  0.29113212  0.21448599  0.70746247  1
  H  H41  1  0.70886788  0.28551401  0.20746247  1
  H  H42  1  0.70886788  0.78551401  0.29253753  1
  H  H43  1  0.29113212  0.71448599  0.79253753  1
  H  H44  1  0.58233727  0.27625486  0.65328993  1
  H  H45  1  0.41766273  0.22374514  0.15328993  1
  H  H46  1  0.41766273  0.72374514  0.34671007  1
  H  H47  1  0.58233727  0.77625486  0.84671007  1
  H  H48  1  0.12033036  0.18004659  0.57816285  1
  H  H49  1  0.87966964  0.31995341  0.07816285  1
  H  H50  1  0.87966964  0.81995341  0.42183715  1
  H  H51  1  0.12033036  0.68004659  0.92183715  1
  H  H52  1  0.35901300  0.23556723  0.53753687  1
  H  H53  1  0.64098700  0.26443277  0.03753687  1
  H  H54  1  0.64098700  0.76443277  0.46246313  1
  H  H55  1  0.35901300  0.73556723  0.96246313  1
  H  H56  1  0.87660295  0.76461937  0.59273253  1
  H  H57  1  0.12339705  0.73538063  0.09273253  1
  H  H58  1  0.12339705  0.23538063  0.40726747  1
  H  H59  1  0.87660295  0.26461937  0.90726747  1
  H  H60  1  0.99811870  0.63798051  0.62435992  1
  H  H61  1  0.00188130  0.86201949  0.12435992  1
  H  H62  1  0.00188130  0.36201949  0.37564008  1
  H  H63  1  0.99811870  0.13798051  0.87564008  1
  H  H64  1  0.92072813  0.74788450  0.68806631  1
  H  H65  1  0.07927187  0.75211550  0.18806631  1
  H  H66  1  0.07927187  0.25211550  0.31193369  1
  H  H67  1  0.92072813  0.24788450  0.81193369  1
  H  H68  1  0.61263750  0.94086571  0.69047621  1
  H  H69  1  0.38736250  0.55913429  0.19047621  1
  H  H70  1  0.38736250  0.05913429  0.30952379  1
  H  H71  1  0.61263750  0.44086571  0.80952379  1
  H  H72  1  0.51149421  0.04435014  0.75194046  1
  H  H73  1  0.48850579  0.45564986  0.25194046  1
  H  H74  1  0.48850579  0.95564986  0.24805954  1
  H  H75  1  0.51149421  0.54435014  0.74805954  1
  H  H76  1  0.73800860  0.10711858  0.69199051  1
  H  H77  1  0.26199140  0.39288142  0.19199051  1
  H  H78  1  0.26199140  0.89288142  0.30800949  1
  H  H79  1  0.73800860  0.60711858  0.80800949  1
  H  H80  1  0.13647181  0.39640006  0.54223483  1
  H  H81  1  0.86352819  0.10359994  0.04223483  1
  H  H82  1  0.86352819  0.60359994  0.45776517  1
  H  H83  1  0.13647181  0.89640006  0.95776517  1
  H  H84  1  0.39406355  0.44395114  0.59042657  1
  H  H85  1  0.60593645  0.05604886  0.09042657  1
  H  H86  1  0.60593645  0.55604886  0.40957343  1
  H  H87  1  0.39406355  0.94395114  0.90957343  1
  H  H88  1  0.14472015  0.38616599  0.63982716  1
  H  H89  1  0.85527985  0.11383401  0.13982716  1
  H  H90  1  0.85527985  0.61383401  0.36017284  1
  H  H91  1  0.14472015  0.88616599  0.86017284  1
  C  C92  1  0.98757642  0.73744536  0.63347866  1
  C  C93  1  0.01242358  0.76255464  0.13347866  1
  C  C94  1  0.01242358  0.26255464  0.36652134  1
  C  C95  1  0.98757642  0.23744536  0.86652134  1
  C  C96  1  0.58093314  0.03654581  0.69749869  1
  C  C97  1  0.41906686  0.46345419  0.19749869  1
  C  C98  1  0.41906686  0.96345419  0.30250131  1
  C  C99  1  0.58093314  0.53654581  0.80250131  1
  C  C100  1  0.23317572  0.37629048  0.58903662  1
  C  C101  1  0.76682428  0.12370952  0.08903662  1
  C  C102  1  0.76682428  0.62370952  0.41096338  1
  C  C103  1  0.23317572  0.87629048  0.91096338  1
  N  N104  1  0.20950074  0.82376980  0.62567758  1
  N  N105  1  0.79049926  0.67623020  0.12567758  1
  N  N106  1  0.79049926  0.17623020  0.37432242  1
  N  N107  1  0.20950074  0.32376980  0.87432242  1
  N  N108  1  0.41999909  0.06250758  0.64264036  1
  N  N109  1  0.58000091  0.43749242  0.14264036  1
  N  N110  1  0.58000091  0.93749242  0.35735964  1
  N  N111  1  0.41999909  0.56250758  0.85735964  1
  N  N112  1  0.26957784  0.24419011  0.58428923  1
  N  N113  1  0.73042216  0.25580989  0.08428923  1
  N  N114  1  0.73042216  0.75580989  0.41571077  1
  N  N115  1  0.26957784  0.74419011  0.91571077  1
