# generated using pymatgen
data_BaMg30NiO32
_symmetry_space_group_name_H-M   'P 1'
_cell_length_a   8.65543974
_cell_length_b   8.65543974
_cell_length_c   8.63346015
_cell_angle_alpha   90.00000000
_cell_angle_beta   90.00000000
_cell_angle_gamma   90.00000000
_symmetry_Int_Tables_number   1
_chemical_formula_structural   BaMg30NiO32
_chemical_formula_sum   'Ba1 Mg30 Ni1 O32'
_cell_volume   646.78980091
_cell_formula_units_Z   1
loop_
 _symmetry_equiv_pos_site_id
 _symmetry_equiv_pos_as_xyz
  1  'x, y, z'
loop_
 _atom_site_type_symbol
 _atom_site_label
 _atom_site_symmetry_multiplicity
 _atom_site_fract_x
 _atom_site_fract_y
 _atom_site_fract_z
 _atom_site_occupancy
  Ba  Ba0  1  0.00000000  0.00000000  0.50000000  1
  Mg  Mg1  1  0.00000000  0.50000000  0.00000000  1
  Mg  Mg2  1  0.00000000  0.50000000  0.50000000  1
  Mg  Mg3  1  0.50000000  0.00000000  0.00000000  1
  Mg  Mg4  1  0.50000000  0.00000000  0.50000000  1
  Mg  Mg5  1  0.50000000  0.50000000  0.00000000  1
  Mg  Mg6  1  0.50000000  0.50000000  0.50000000  1
  Mg  Mg7  1  0.00000000  0.25758318  0.24236581  1
  Mg  Mg8  1  0.00000000  0.25758318  0.75763419  1
  Mg  Mg9  1  0.00000000  0.74241682  0.24236581  1
  Mg  Mg10  1  0.00000000  0.74241682  0.75763419  1
  Mg  Mg11  1  0.50000000  0.25079350  0.24885049  1
  Mg  Mg12  1  0.50000000  0.25079350  0.75114951  1
  Mg  Mg13  1  0.50000000  0.74920650  0.24885049  1
  Mg  Mg14  1  0.50000000  0.74920650  0.75114951  1
  Mg  Mg15  1  0.25758318  0.00000000  0.24236581  1
  Mg  Mg16  1  0.25758318  0.00000000  0.75763419  1
  Mg  Mg17  1  0.25079350  0.50000000  0.24885049  1
  Mg  Mg18  1  0.25079350  0.50000000  0.75114951  1
  Mg  Mg19  1  0.74241682  0.00000000  0.24236581  1
  Mg  Mg20  1  0.74241682  0.00000000  0.75763419  1
  Mg  Mg21  1  0.74920650  0.50000000  0.24885049  1
  Mg  Mg22  1  0.74920650  0.50000000  0.75114951  1
  Mg  Mg23  1  0.24984044  0.24984044  0.00000000  1
  Mg  Mg24  1  0.25754797  0.25754797  0.50000000  1
  Mg  Mg25  1  0.24984044  0.75015956  0.00000000  1
  Mg  Mg26  1  0.25754797  0.74245203  0.50000000  1
  Mg  Mg27  1  0.75015956  0.24984044  0.00000000  1
  Mg  Mg28  1  0.74245203  0.25754797  0.50000000  1
  Mg  Mg29  1  0.75015956  0.75015956  0.00000000  1
  Mg  Mg30  1  0.74245203  0.74245203  0.50000000  1
  Ni  Ni31  1  0.00000000  0.00000000  0.00000000  1
  O  O32  1  0.25749159  0.00000000  0.00000000  1
  O  O33  1  0.27883273  0.00000000  0.50000000  1
  O  O34  1  0.25156969  0.50000000  0.00000000  1
  O  O35  1  0.25579975  0.50000000  0.50000000  1
  O  O36  1  0.74250841  0.00000000  0.00000000  1
  O  O37  1  0.72116727  0.00000000  0.50000000  1
  O  O38  1  0.74843031  0.50000000  0.00000000  1
  O  O39  1  0.74420025  0.50000000  0.50000000  1
  O  O40  1  0.24925367  0.24925367  0.25021239  1
  O  O41  1  0.24925367  0.24925367  0.74978761  1
  O  O42  1  0.24925367  0.75074633  0.25021239  1
  O  O43  1  0.24925367  0.75074633  0.74978761  1
  O  O44  1  0.75074633  0.24925367  0.25021239  1
  O  O45  1  0.75074633  0.24925367  0.74978761  1
  O  O46  1  0.75074633  0.75074633  0.25021239  1
  O  O47  1  0.75074633  0.75074633  0.74978761  1
  O  O48  1  0.00000000  0.00000000  0.22151309  1
  O  O49  1  0.00000000  0.00000000  0.77848691  1
  O  O50  1  0.00000000  0.50000000  0.24449351  1
  O  O51  1  0.00000000  0.50000000  0.75550649  1
  O  O52  1  0.50000000  0.00000000  0.24449351  1
  O  O53  1  0.50000000  0.00000000  0.75550649  1
  O  O54  1  0.50000000  0.50000000  0.24842173  1
  O  O55  1  0.50000000  0.50000000  0.75157827  1
  O  O56  1  0.00000000  0.25749159  0.00000000  1
  O  O57  1  0.00000000  0.27883273  0.50000000  1
  O  O58  1  0.00000000  0.74250841  0.00000000  1
  O  O59  1  0.00000000  0.72116727  0.50000000  1
  O  O60  1  0.50000000  0.25156969  0.00000000  1
  O  O61  1  0.50000000  0.25579975  0.50000000  1
  O  O62  1  0.50000000  0.74843031  0.00000000  1
  O  O63  1  0.50000000  0.74420025  0.50000000  1
