# generated using pymatgen
data_KYMg30O32
_symmetry_space_group_name_H-M   'P 1'
_cell_length_a   8.62212598
_cell_length_b   8.62212598
_cell_length_c   8.71781883
_cell_angle_alpha   90.00000000
_cell_angle_beta   90.00000000
_cell_angle_gamma   90.00000000
_symmetry_Int_Tables_number   1
_chemical_formula_structural   KYMg30O32
_chemical_formula_sum   'K1 Y1 Mg30 O32'
_cell_volume   648.09186146
_cell_formula_units_Z   1
loop_
 _symmetry_equiv_pos_site_id
 _symmetry_equiv_pos_as_xyz
  1  'x, y, z'
loop_
 _atom_site_type_symbol
 _atom_site_label
 _atom_site_symmetry_multiplicity
 _atom_site_fract_x
 _atom_site_fract_y
 _atom_site_fract_z
 _atom_site_occupancy
  K  K0  1  0.00000000  -0.00000000  0.50000000  1
  Y  Y1  1  0.00000000  -0.00000000  0.00000000  1
  Mg  Mg2  1  0.00000000  0.50000000  0.00000000  1
  Mg  Mg3  1  0.00000000  0.50000000  0.50000000  1
  Mg  Mg4  1  0.50000000  -0.00000000  0.00000000  1
  Mg  Mg5  1  0.50000000  -0.00000000  0.50000000  1
  Mg  Mg6  1  0.50000000  0.50000000  0.00000000  1
  Mg  Mg7  1  0.50000000  0.50000000  0.50000000  1
  Mg  Mg8  1  0.00000000  0.25728654  0.25629476  1
  Mg  Mg9  1  0.00000000  0.25728654  0.74370524  1
  Mg  Mg10  1  0.00000000  0.74271346  0.25629476  1
  Mg  Mg11  1  0.00000000  0.74271346  0.74370524  1
  Mg  Mg12  1  0.50000000  0.25067318  0.25147234  1
  Mg  Mg13  1  0.50000000  0.25067318  0.74852766  1
  Mg  Mg14  1  0.50000000  0.74932682  0.25147234  1
  Mg  Mg15  1  0.50000000  0.74932682  0.74852766  1
  Mg  Mg16  1  0.25728654  -0.00000000  0.25629476  1
  Mg  Mg17  1  0.25728654  -0.00000000  0.74370524  1
  Mg  Mg18  1  0.25067318  0.50000000  0.25147234  1
  Mg  Mg19  1  0.25067318  0.50000000  0.74852766  1
  Mg  Mg20  1  0.74271346  -0.00000000  0.25629476  1
  Mg  Mg21  1  0.74271346  -0.00000000  0.74370524  1
  Mg  Mg22  1  0.74932682  0.50000000  0.25147234  1
  Mg  Mg23  1  0.74932682  0.50000000  0.74852766  1
  Mg  Mg24  1  0.25605524  0.25605524  -0.00000000  1
  Mg  Mg25  1  0.25207974  0.25207974  0.50000000  1
  Mg  Mg26  1  0.25605524  0.74394476  -0.00000000  1
  Mg  Mg27  1  0.25207974  0.74792026  0.50000000  1
  Mg  Mg28  1  0.74394476  0.25605524  0.00000000  1
  Mg  Mg29  1  0.74792026  0.25207974  0.50000000  1
  Mg  Mg30  1  0.74394476  0.74394476  0.00000000  1
  Mg  Mg31  1  0.74792026  0.74792026  0.50000000  1
  O  O32  1  0.26109016  -0.00000000  -0.00000000  1
  O  O33  1  0.27468100  -0.00000000  0.50000000  1
  O  O34  1  0.25243194  0.50000000  0.00000000  1
  O  O35  1  0.25466103  0.50000000  0.50000000  1
  O  O36  1  0.73890984  -0.00000000  0.00000000  1
  O  O37  1  0.72531900  -0.00000000  0.50000000  1
  O  O38  1  0.74756806  0.50000000  -0.00000000  1
  O  O39  1  0.74533897  0.50000000  0.50000000  1
  O  O40  1  0.24962019  0.24962019  0.24947754  1
  O  O41  1  0.24962019  0.24962019  0.75052246  1
  O  O42  1  0.24962019  0.75037981  0.24947754  1
  O  O43  1  0.24962019  0.75037981  0.75052246  1
  O  O44  1  0.75037981  0.24962019  0.24947754  1
  O  O45  1  0.75037981  0.24962019  0.75052246  1
  O  O46  1  0.75037981  0.75037981  0.24947754  1
  O  O47  1  0.75037981  0.75037981  0.75052246  1
  O  O48  1  0.00000000  -0.00000000  0.24083726  1
  O  O49  1  0.00000000  -0.00000000  0.75916274  1
  O  O50  1  0.00000000  0.50000000  0.24611542  1
  O  O51  1  0.00000000  0.50000000  0.75388458  1
  O  O52  1  0.50000000  -0.00000000  0.24611542  1
  O  O53  1  0.50000000  -0.00000000  0.75388458  1
  O  O54  1  0.50000000  0.50000000  0.24839343  1
  O  O55  1  0.50000000  0.50000000  0.75160657  1
  O  O56  1  0.00000000  0.26109016  0.00000000  1
  O  O57  1  0.00000000  0.27468100  0.50000000  1
  O  O58  1  0.00000000  0.73890984  0.00000000  1
  O  O59  1  0.00000000  0.72531900  0.50000000  1
  O  O60  1  0.50000000  0.25243194  -0.00000000  1
  O  O61  1  0.50000000  0.25466103  0.50000000  1
  O  O62  1  0.50000000  0.74756806  0.00000000  1
  O  O63  1  0.50000000  0.74533897  0.50000000  1
