# generated using pymatgen
data_Ti2HCSe4Cl16O5
_symmetry_space_group_name_H-M   'P 1'
_cell_length_a   8.88727974
_cell_length_b   13.22376433
_cell_length_c   14.19730496
_cell_angle_alpha   96.70793556
_cell_angle_beta   90.00000000
_cell_angle_gamma   90.00000000
_symmetry_Int_Tables_number   1
_chemical_formula_structural   Ti2HCSe4Cl16O5
_chemical_formula_sum   'Ti4 H2 C2 Se8 Cl32 O10'
_cell_volume   1657.09218414
_cell_formula_units_Z   2
loop_
 _symmetry_equiv_pos_site_id
 _symmetry_equiv_pos_as_xyz
  1  'x, y, z'
loop_
 _atom_site_type_symbol
 _atom_site_label
 _atom_site_symmetry_multiplicity
 _atom_site_fract_x
 _atom_site_fract_y
 _atom_site_fract_z
 _atom_site_occupancy
  Ti  Ti0  1  0.00306818  0.88662495  0.27549388  1
  Ti  Ti1  1  0.99746112  0.11442361  0.72466656  1
  Ti  Ti2  1  0.00253888  0.61442361  0.22466656  1
  Ti  Ti3  1  0.99693182  0.38662495  0.77549388  1
  H  H4  1  0.13522194  0.30983307  0.23290583  1
  H  H5  1  0.86477806  0.80983307  0.73290583  1
  C  C6  1  0.23035427  0.26225037  0.24641112  1
  C  C7  1  0.76964573  0.76225037  0.74641112  1
  Se  Se8  1  0.83257572  0.08034396  0.41132326  1
  Se  Se9  1  0.16778594  0.91965129  0.58842546  1
  Se  Se10  1  0.83221406  0.41965129  0.08842546  1
  Se  Se11  1  0.16742428  0.58034396  0.91132326  1
  Se  Se12  1  0.73431602  0.86115755  0.11175969  1
  Se  Se13  1  0.26593034  0.13890239  0.88838754  1
  Se  Se14  1  0.73406966  0.63890239  0.38838754  1
  Se  Se15  1  0.26568398  0.36115755  0.61175969  1
  Cl  Cl16  1  0.32316582  0.28680716  0.35093808  1
  Cl  Cl17  1  0.67795259  0.69891403  0.65265030  1
  Cl  Cl18  1  0.32204741  0.19891403  0.15265030  1
  Cl  Cl19  1  0.67683418  0.78680716  0.85093808  1
  Cl  Cl20  1  0.51205681  0.78795635  0.11163217  1
  Cl  Cl21  1  0.48784319  0.21207297  0.88775583  1
  Cl  Cl22  1  0.51215681  0.71207297  0.38775583  1
  Cl  Cl23  1  0.48794319  0.28795635  0.61163217  1
  Cl  Cl24  1  0.23003778  0.92804365  0.33993338  1
  Cl  Cl25  1  0.77032500  0.07166494  0.66024018  1
  Cl  Cl26  1  0.22967500  0.57166494  0.16024018  1
  Cl  Cl27  1  0.76996222  0.42804365  0.83993338  1
  Cl  Cl28  1  0.05158580  0.92997780  0.12530206  1
  Cl  Cl29  1  0.94835386  0.06948397  0.87451533  1
  Cl  Cl30  1  0.05164614  0.56948397  0.37451533  1
  Cl  Cl31  1  0.94841420  0.42997780  0.62530206  1
  Cl  Cl32  1  0.82998952  0.24442912  0.39582202  1
  Cl  Cl33  1  0.16978349  0.75531227  0.60358293  1
  Cl  Cl34  1  0.83021651  0.25531227  0.10358293  1
  Cl  Cl35  1  0.17001048  0.74442912  0.89582202  1
  Cl  Cl36  1  0.59265863  0.05032104  0.37878863  1
  Cl  Cl37  1  0.40752904  0.94973257  0.62169278  1
  Cl  Cl38  1  0.59247096  0.44973257  0.12169278  1
  Cl  Cl39  1  0.40734137  0.55032104  0.87878863  1
  Cl  Cl40  1  0.88859784  0.86422145  0.42905804  1
  Cl  Cl41  1  0.11199246  0.13528331  0.57123575  1
  Cl  Cl42  1  0.88800754  0.63528331  0.07123575  1
  Cl  Cl43  1  0.11140216  0.36422145  0.92905804  1
  Cl  Cl44  1  0.65092053  0.01661938  0.09779610  1
  Cl  Cl45  1  0.35057283  0.98341496  0.90210812  1
  Cl  Cl46  1  0.64942717  0.48341496  0.40210812  1
  Cl  Cl47  1  0.34907947  0.51661938  0.59779610  1
  O  O48  1  0.77601925  0.86433628  0.22718454  1
  O  O49  1  0.22358914  0.13530262  0.77290200  1
  O  O50  1  0.77641086  0.63530262  0.27290200  1
  O  O51  1  0.22398075  0.36433628  0.72718454  1
  O  O52  1  0.92427987  0.03915169  0.31076514  1
  O  O53  1  0.07469994  0.95971280  0.68881920  1
  O  O54  1  0.92530006  0.45971280  0.18881920  1
  O  O55  1  0.07572013  0.53915169  0.81076514  1
  O  O56  1  0.03347407  0.75015447  0.25010409  1
  O  O57  1  0.96652593  0.25015447  0.75010409  1
