# generated using pymatgen
data_CaSi2SnO6
_symmetry_space_group_name_H-M   'P 1'
_cell_length_a   5.53832711
_cell_length_b   9.67723253
_cell_length_c   20.44132206
_cell_angle_alpha   90.00000000
_cell_angle_beta   90.00000000
_cell_angle_gamma   90.00000000
_symmetry_Int_Tables_number   1
_chemical_formula_structural   CaSi2SnO6
_chemical_formula_sum   'Ca8 Si16 Sn8 O48'
_cell_volume   1095.56654100
_cell_formula_units_Z   8
loop_
 _symmetry_equiv_pos_site_id
 _symmetry_equiv_pos_as_xyz
  1  'x, y, z'
loop_
 _atom_site_type_symbol
 _atom_site_label
 _atom_site_symmetry_multiplicity
 _atom_site_fract_x
 _atom_site_fract_y
 _atom_site_fract_z
 _atom_site_occupancy
  Ca  Ca0  1  0.62498362  0.14274887  0.62543611  1
  Ca  Ca1  1  0.37501638  0.85725113  0.37456389  1
  Ca  Ca2  1  0.62498362  0.64274887  0.87456389  1
  Ca  Ca3  1  0.12498362  0.85725113  0.87456389  1
  Ca  Ca4  1  0.87501638  0.14274887  0.12543611  1
  Ca  Ca5  1  0.37501638  0.35725113  0.12543611  1
  Ca  Ca6  1  0.12498362  0.35725113  0.62543611  1
  Ca  Ca7  1  0.87501638  0.64274887  0.37456389  1
  Si  Si8  1  0.50577305  0.66126024  0.23726032  1
  Si  Si9  1  0.73362518  0.83800425  0.51315667  1
  Si  Si10  1  0.76637482  0.83800425  0.01315667  1
  Si  Si11  1  0.99422695  0.16126024  0.76273968  1
  Si  Si12  1  0.00577305  0.33873976  0.26273968  1
  Si  Si13  1  0.49422695  0.83873976  0.73726032  1
  Si  Si14  1  0.23362518  0.66199575  0.51315667  1
  Si  Si15  1  0.73362518  0.33800425  0.98684333  1
  Si  Si16  1  0.76637482  0.33800425  0.48684333  1
  Si  Si17  1  0.99422695  0.66126024  0.73726032  1
  Si  Si18  1  0.49422695  0.33873976  0.76273968  1
  Si  Si19  1  0.50577305  0.16126024  0.26273968  1
  Si  Si20  1  0.26637482  0.16199575  0.48684333  1
  Si  Si21  1  0.00577305  0.83873976  0.23726032  1
  Si  Si22  1  0.26637482  0.66199575  0.01315667  1
  Si  Si23  1  0.23362518  0.16199575  0.98684333  1
  Sn  Sn24  1  0.37373785  0.95777389  0.12313999  1
  Sn  Sn25  1  0.62626215  0.04222611  0.87686001  1
  Sn  Sn26  1  0.87373785  0.04222611  0.37686001  1
  Sn  Sn27  1  0.12626215  0.95777389  0.62313999  1
  Sn  Sn28  1  0.37373785  0.45777389  0.37686001  1
  Sn  Sn29  1  0.62626215  0.54222611  0.62313999  1
  Sn  Sn30  1  0.87373785  0.54222611  0.12313999  1
  Sn  Sn31  1  0.12626215  0.45777389  0.87686001  1
  O  O32  1  0.97180378  0.52210219  0.69402805  1
  O  O33  1  0.26296012  0.02108961  0.94544249  1
  O  O34  1  0.02819622  0.47789781  0.30597195  1
  O  O35  1  0.73557399  0.35146343  0.06742068  1
  O  O36  1  0.23557399  0.14853657  0.06742068  1
  O  O37  1  0.97013513  0.23688440  0.96756429  1
  O  O38  1  0.98821477  0.64487509  0.81761763  1
  O  O39  1  0.01178523  0.85512491  0.31761763  1
  O  O40  1  0.73557399  0.85146343  0.43257932  1
  O  O41  1  0.98821477  0.14487509  0.68238237  1
  O  O42  1  0.47180378  0.47789781  0.80597195  1
  O  O43  1  0.76442601  0.35146343  0.56742068  1
  O  O44  1  0.73703988  0.97891039  0.05455751  1
  O  O45  1  0.48821477  0.85512491  0.81761763  1
  O  O46  1  0.52819622  0.02210219  0.30597195  1
  O  O47  1  0.26296012  0.52108961  0.55455751  1
  O  O48  1  0.47180378  0.97789781  0.69402805  1
  O  O49  1  0.25171175  0.74208777  0.71865431  1
  O  O50  1  0.24828825  0.74208777  0.21865431  1
  O  O51  1  0.52986487  0.73688440  0.03243571  1
  O  O52  1  0.76442601  0.85146343  0.93257932  1
  O  O53  1  0.51178523  0.64487509  0.31761763  1
  O  O54  1  0.76296012  0.47891039  0.94544249  1
  O  O55  1  0.25171175  0.24208777  0.78134569  1
  O  O56  1  0.26442601  0.14853657  0.56742068  1
  O  O57  1  0.51178523  0.14487509  0.18238237  1
  O  O58  1  0.73703988  0.47891039  0.44544249  1
  O  O59  1  0.23557399  0.64853657  0.43257932  1
  O  O60  1  0.23703988  0.52108961  0.05455751  1
  O  O61  1  0.75171175  0.75791223  0.71865431  1
  O  O62  1  0.02819622  0.97789781  0.19402805  1
  O  O63  1  0.74828825  0.75791223  0.21865431  1
  O  O64  1  0.74828825  0.25791223  0.28134569  1
  O  O65  1  0.76296012  0.97891039  0.55455751  1
  O  O66  1  0.26442601  0.64853657  0.93257932  1
  O  O67  1  0.23703988  0.02108961  0.44544249  1
  O  O68  1  0.24828825  0.24208777  0.28134569  1
  O  O69  1  0.02986487  0.76311560  0.03243571  1
  O  O70  1  0.47013513  0.76311560  0.53243571  1
  O  O71  1  0.75171175  0.25791223  0.78134569  1
  O  O72  1  0.47013513  0.26311560  0.96756429  1
  O  O73  1  0.52986487  0.23688440  0.46756429  1
  O  O74  1  0.02986487  0.26311560  0.46756429  1
  O  O75  1  0.48821477  0.35512491  0.68238237  1
  O  O76  1  0.52819622  0.52210219  0.19402805  1
  O  O77  1  0.97013513  0.73688440  0.53243571  1
  O  O78  1  0.01178523  0.35512491  0.18238237  1
  O  O79  1  0.97180378  0.02210219  0.80597195  1
