# generated using pymatgen
data_KNaMg30O31
_symmetry_space_group_name_H-M   'P 1'
_cell_length_a   8.48624620
_cell_length_b   8.66251442
_cell_length_c   8.66251442
_cell_angle_alpha   90.00000000
_cell_angle_beta   90.00000000
_cell_angle_gamma   90.00000000
_symmetry_Int_Tables_number   1
_chemical_formula_structural   KNaMg30O31
_chemical_formula_sum   'K1 Na1 Mg30 O31'
_cell_volume   636.80075311
_cell_formula_units_Z   1
loop_
 _symmetry_equiv_pos_site_id
 _symmetry_equiv_pos_as_xyz
  1  'x, y, z'
loop_
 _atom_site_type_symbol
 _atom_site_label
 _atom_site_symmetry_multiplicity
 _atom_site_fract_x
 _atom_site_fract_y
 _atom_site_fract_z
 _atom_site_occupancy
  K  K0  1  0.05659381  0.00000000  0.00000000  1
  Na  Na1  1  0.99702762  0.50000000  0.50000000  1
  Mg  Mg2  1  0.99183919  0.00000000  0.50000000  1
  Mg  Mg3  1  0.99183919  0.50000000  0.00000000  1
  Mg  Mg4  1  0.52079019  0.00000000  0.00000000  1
  Mg  Mg5  1  0.50359355  0.00000000  0.50000000  1
  Mg  Mg6  1  0.50359355  0.50000000  0.00000000  1
  Mg  Mg7  1  0.49969098  0.50000000  0.50000000  1
  Mg  Mg8  1  0.99739938  0.25311602  0.25311602  1
  Mg  Mg9  1  0.99739938  0.25311602  0.74688398  1
  Mg  Mg10  1  0.99739938  0.74688398  0.25311602  1
  Mg  Mg11  1  0.99739938  0.74688398  0.74688398  1
  Mg  Mg12  1  0.49924231  0.24889647  0.24889647  1
  Mg  Mg13  1  0.49924231  0.24889647  0.75110353  1
  Mg  Mg14  1  0.49924231  0.75110353  0.24889647  1
  Mg  Mg15  1  0.49924231  0.75110353  0.75110353  1
  Mg  Mg16  1  0.24749234  0.00000000  0.27796820  1
  Mg  Mg17  1  0.24749234  0.00000000  0.72203180  1
  Mg  Mg18  1  0.24638197  0.50000000  0.25460637  1
  Mg  Mg19  1  0.24638197  0.50000000  0.74539363  1
  Mg  Mg20  1  0.75723503  0.00000000  0.24839114  1
  Mg  Mg21  1  0.75723503  0.00000000  0.75160886  1
  Mg  Mg22  1  0.75014275  0.50000000  0.25213555  1
  Mg  Mg23  1  0.75014275  0.50000000  0.74786445  1
  Mg  Mg24  1  0.24749234  0.27796820  0.00000000  1
  Mg  Mg25  1  0.24638197  0.25460637  0.50000000  1
  Mg  Mg26  1  0.24749234  0.72203180  0.00000000  1
  Mg  Mg27  1  0.24638197  0.74539363  0.50000000  1
  Mg  Mg28  1  0.75723503  0.24839114  0.00000000  1
  Mg  Mg29  1  0.75014275  0.25213555  0.50000000  1
  Mg  Mg30  1  0.75723503  0.75160886  0.00000000  1
  Mg  Mg31  1  0.75014275  0.74786445  0.50000000  1
  O  O32  1  0.25825613  0.00000000  0.50000000  1
  O  O33  1  0.25825613  0.50000000  0.00000000  1
  O  O34  1  0.26218803  0.50000000  0.50000000  1
  O  O35  1  0.75019024  0.00000000  0.00000000  1
  O  O36  1  0.74220729  0.00000000  0.50000000  1
  O  O37  1  0.74220729  0.50000000  0.00000000  1
  O  O38  1  0.73457958  0.50000000  0.50000000  1
  O  O39  1  0.24820855  0.24248266  0.24248266  1
  O  O40  1  0.24820855  0.24248266  0.75751734  1
  O  O41  1  0.24820855  0.75751734  0.24248266  1
  O  O42  1  0.24820855  0.75751734  0.75751734  1
  O  O43  1  0.74770491  0.24890191  0.24890191  1
  O  O44  1  0.74770491  0.24890191  0.75109809  1
  O  O45  1  0.74770491  0.75109809  0.24890191  1
  O  O46  1  0.74770491  0.75109809  0.75109809  1
  O  O47  1  0.00196595  0.00000000  0.26933114  1
  O  O48  1  0.00196595  0.00000000  0.73066886  1
  O  O49  1  0.00081545  0.50000000  0.23963738  1
  O  O50  1  0.00081545  0.50000000  0.76036262  1
  O  O51  1  0.49151143  0.00000000  0.24199001  1
  O  O52  1  0.49151143  0.00000000  0.75800999  1
  O  O53  1  0.49618675  0.50000000  0.24668327  1
  O  O54  1  0.49618675  0.50000000  0.75331673  1
  O  O55  1  0.00196595  0.26933114  0.00000000  1
  O  O56  1  0.00081545  0.23963738  0.50000000  1
  O  O57  1  0.00196595  0.73066886  0.00000000  1
  O  O58  1  0.00081545  0.76036262  0.50000000  1
  O  O59  1  0.49151143  0.24199001  0.00000000  1
  O  O60  1  0.49618675  0.24668327  0.50000000  1
  O  O61  1  0.49151143  0.75800999  0.00000000  1
  O  O62  1  0.49618675  0.75331673  0.50000000  1
