# generated using pymatgen
data_Nd3Si4Ni29
_symmetry_space_group_name_H-M   'P 1'
_cell_length_a   7.64417521
_cell_length_b   10.86275246
_cell_length_c   10.86275246
_cell_angle_alpha   90.00000000
_cell_angle_beta   90.00000000
_cell_angle_gamma   90.00000000
_symmetry_Int_Tables_number   1
_chemical_formula_structural   Nd3Si4Ni29
_chemical_formula_sum   'Nd6 Si8 Ni58'
_cell_volume   902.00801953
_cell_formula_units_Z   2
loop_
 _symmetry_equiv_pos_site_id
 _symmetry_equiv_pos_as_xyz
  1  'x, y, z'
loop_
 _atom_site_type_symbol
 _atom_site_label
 _atom_site_symmetry_multiplicity
 _atom_site_fract_x
 _atom_site_fract_y
 _atom_site_fract_z
 _atom_site_occupancy
  Nd  Nd0  1  0.50000000  0.75000000  0.25000000  1
  Nd  Nd1  1  0.50000000  0.25000000  0.75000000  1
  Nd  Nd2  1  0.00000000  0.50000000  0.50000000  1
  Nd  Nd3  1  0.00000000  -0.00000000  0.50000000  1
  Nd  Nd4  1  0.00000000  0.50000000  -0.00000000  1
  Nd  Nd5  1  0.00000000  -0.00000000  -0.00000000  1
  Si  Si6  1  0.81938831  0.43711343  0.75000000  1
  Si  Si7  1  0.81938831  0.06288657  0.75000000  1
  Si  Si8  1  0.81938831  0.75000000  0.43711343  1
  Si  Si9  1  0.81938831  0.75000000  0.06288657  1
  Si  Si10  1  0.18061169  0.56288657  0.25000000  1
  Si  Si11  1  0.18061169  0.93711343  0.25000000  1
  Si  Si12  1  0.18061169  0.25000000  0.56288657  1
  Si  Si13  1  0.18061169  0.25000000  0.93711343  1
  Ni  Ni14  1  0.52489343  0.75000000  0.75000000  1
  Ni  Ni15  1  0.47510657  0.25000000  0.25000000  1
  Ni  Ni16  1  0.51894902  0.52090071  0.75000000  1
  Ni  Ni17  1  0.51894902  0.97909929  0.75000000  1
  Ni  Ni18  1  0.51894902  0.75000000  0.52090071  1
  Ni  Ni19  1  0.51894902  0.75000000  0.97909929  1
  Ni  Ni20  1  0.48105098  0.47909929  0.25000000  1
  Ni  Ni21  1  0.48105098  0.02090071  0.25000000  1
  Ni  Ni22  1  0.48105098  0.25000000  0.47909929  1
  Ni  Ni23  1  0.48105098  0.25000000  0.02090071  1
  Ni  Ni24  1  0.12006843  0.13206794  0.75000000  1
  Ni  Ni25  1  0.12006843  0.36793206  0.75000000  1
  Ni  Ni26  1  0.12006843  0.75000000  0.13206794  1
  Ni  Ni27  1  0.12006843  0.75000000  0.36793206  1
  Ni  Ni28  1  0.87993157  0.86793206  0.25000000  1
  Ni  Ni29  1  0.87993157  0.63206794  0.25000000  1
  Ni  Ni30  1  0.87993157  0.25000000  0.86793206  1
  Ni  Ni31  1  0.87993157  0.25000000  0.63206794  1
  Ni  Ni32  1  0.02864784  0.59117004  0.75000000  1
  Ni  Ni33  1  0.02864784  0.90882996  0.75000000  1
  Ni  Ni34  1  0.02864784  0.75000000  0.59117004  1
  Ni  Ni35  1  0.02864784  0.75000000  0.90882996  1
  Ni  Ni36  1  0.97135216  0.40882996  0.25000000  1
  Ni  Ni37  1  0.97135216  0.09117004  0.25000000  1
  Ni  Ni38  1  0.97135216  0.25000000  0.40882996  1
  Ni  Ni39  1  0.97135216  0.25000000  0.09117004  1
  Ni  Ni40  1  0.75096984  0.86597090  0.86597090  1
  Ni  Ni41  1  0.75096984  0.63402910  0.86597090  1
  Ni  Ni42  1  0.75096984  0.86597090  0.63402910  1
  Ni  Ni43  1  0.75096984  0.63402910  0.63402910  1
  Ni  Ni44  1  0.24903016  0.13402910  0.13402910  1
  Ni  Ni45  1  0.24903016  0.36597090  0.13402910  1
  Ni  Ni46  1  0.24903016  0.13402910  0.36597090  1
  Ni  Ni47  1  0.24903016  0.36597090  0.36597090  1
  Ni  Ni48  1  0.29802066  0.86167615  0.86167615  1
  Ni  Ni49  1  0.29802066  0.63832385  0.86167615  1
  Ni  Ni50  1  0.29802066  0.86167615  0.63832385  1
  Ni  Ni51  1  0.29802066  0.63832385  0.63832385  1
  Ni  Ni52  1  0.70197934  0.13832385  0.13832385  1
  Ni  Ni53  1  0.70197934  0.36167615  0.13832385  1
  Ni  Ni54  1  0.70197934  0.13832385  0.36167615  1
  Ni  Ni55  1  0.70197934  0.36167615  0.36167615  1
  Ni  Ni56  1  0.34185391  0.07334451  0.91501557  1
  Ni  Ni57  1  0.34185391  0.42665549  0.91501557  1
  Ni  Ni58  1  0.34185391  0.07334451  0.58498443  1
  Ni  Ni59  1  0.34185391  0.42665549  0.58498443  1
  Ni  Ni60  1  0.34185391  0.91501557  0.07334451  1
  Ni  Ni61  1  0.34185391  0.58498443  0.07334451  1
  Ni  Ni62  1  0.34185391  0.91501557  0.42665549  1
  Ni  Ni63  1  0.34185391  0.58498443  0.42665549  1
  Ni  Ni64  1  0.65814609  0.92665549  0.08498443  1
  Ni  Ni65  1  0.65814609  0.57334451  0.08498443  1
  Ni  Ni66  1  0.65814609  0.92665549  0.41501557  1
  Ni  Ni67  1  0.65814609  0.57334451  0.41501557  1
  Ni  Ni68  1  0.65814609  0.08498443  0.92665549  1
  Ni  Ni69  1  0.65814609  0.41501557  0.92665549  1
  Ni  Ni70  1  0.65814609  0.08498443  0.57334451  1
  Ni  Ni71  1  0.65814609  0.41501557  0.57334451  1
