# generated using pymatgen
data_CaP2W2O9
_symmetry_space_group_name_H-M   'P 1'
_cell_length_a   6.77747434
_cell_length_b   7.44016365
_cell_length_c   15.14450294
_cell_angle_alpha   89.99354543
_cell_angle_beta   90.00000926
_cell_angle_gamma   90.00002482
_symmetry_Int_Tables_number   1
_chemical_formula_structural   CaP2W2O9
_chemical_formula_sum   'Ca4 P8 W8 O36'
_cell_volume   763.66940403
_cell_formula_units_Z   4
loop_
 _symmetry_equiv_pos_site_id
 _symmetry_equiv_pos_as_xyz
  1  'x, y, z'
loop_
 _atom_site_type_symbol
 _atom_site_label
 _atom_site_symmetry_multiplicity
 _atom_site_fract_x
 _atom_site_fract_y
 _atom_site_fract_z
 _atom_site_occupancy
  Ca  Ca0  1  0.75000100  0.89821763  0.77795595  1
  Ca  Ca1  1  0.75000000  0.60164568  0.27798776  1
  Ca  Ca2  1  0.25000100  0.39835532  0.72201124  1
  Ca  Ca3  1  0.24999900  0.10178237  0.22204405  1
  P  P4  1  0.25000000  0.37018357  0.92704612  1
  P  P5  1  0.75000100  0.62981543  0.07295388  1
  P  P6  1  0.75000100  0.87017434  0.57294427  1
  P  P7  1  0.25000000  0.12982466  0.42705573  1
  P  P8  1  0.75000100  0.39788515  0.69043554  1
  P  P9  1  0.74999900  0.10203030  0.19043550  1
  P  P10  1  0.25000100  0.89796970  0.80956450  1
  P  P11  1  0.25000000  0.60211485  0.30956446  1
  W  W12  1  0.75000000  0.36760276  0.87611708  1
  W  W13  1  0.25000000  0.63239824  0.12388192  1
  W  W14  1  0.25000100  0.86753886  0.62389023  1
  W  W15  1  0.74999900  0.13246214  0.37610977  1
  W  W16  1  0.50000100  -0.00000000  -0.00000000  1
  W  W17  1  0.50000100  0.50000100  0.50000000  1
  W  W18  1  0.00000000  0.50000000  0.50000000  1
  W  W19  1  0.00000000  0.00000100  -0.00000000  1
  O  O20  1  0.05811655  0.60023211  0.36558946  1
  O  O21  1  0.55811755  0.39976789  0.63441054  1
  O  O22  1  0.94190130  0.10013062  0.13442305  1
  O  O23  1  0.44190230  0.89986838  0.86557595  1
  O  O24  1  0.94188445  0.39976789  0.63441054  1
  O  O25  1  0.44188345  0.60023311  0.36558946  1
  O  O26  1  0.05809970  0.89986838  0.86557695  1
  O  O27  1  0.55809770  0.10013162  0.13442305  1
  O  O28  1  0.25000100  0.31746552  0.47641739  1
  O  O29  1  0.75000100  0.68253448  0.52358261  1
  O  O30  1  0.75000000  0.81750261  0.02361310  1
  O  O31  1  0.25000100  0.18249739  0.97638790  1
  O  O32  1  0.75000000  0.11790492  0.93812863  1
  O  O33  1  0.25000000  0.88209408  0.06187137  1
  O  O34  1  0.25000000  0.61774100  0.56196812  1
  O  O35  1  0.75000000  0.38226000  0.43803188  1
  O  O36  1  0.75000000  0.22555475  0.74958258  1
  O  O37  1  0.25000000  0.77444525  0.25041742  1
  O  O38  1  0.25000000  0.72558997  0.75046093  1
  O  O39  1  0.75000000  0.27441003  0.24953907  1
  O  O40  1  0.42950240  0.12375955  0.36336655  1
  O  O41  1  0.92950140  0.87623945  0.63663345  1
  O  O42  1  0.57049655  0.62369649  0.13664625  1
  O  O43  1  0.07049655  0.37630251  0.86335375  1
  O  O44  1  0.57049860  0.87623945  0.63663345  1
  O  O45  1  0.07049760  0.12375955  0.36336655  1
  O  O46  1  0.42950345  0.37630251  0.86335375  1
  O  O47  1  0.92950445  0.62369549  0.13664625  1
  O  O48  1  0.75000000  0.48230313  0.00507811  1
  O  O49  1  0.25000100  0.05742866  0.74109802  1
  O  O50  1  0.25000000  0.44259797  0.24114887  1
  O  O51  1  0.75000100  0.55740203  0.75885113  1
  O  O52  1  0.75000100  0.01778648  0.50508908  1
  O  O53  1  0.25000000  0.98221252  0.49490992  1
  O  O54  1  0.25000000  0.51769687  0.99492189  1
  O  O55  1  0.75000000  0.94256934  0.25890198  1
