# generated using pymatgen
data_Ho(BiO3)2
_symmetry_space_group_name_H-M   'P 1'
_cell_length_a   5.60807237
_cell_length_b   6.07460152
_cell_length_c   8.23991502
_cell_angle_alpha   90.01964201
_cell_angle_beta   89.99338937
_cell_angle_gamma   90.00934975
_symmetry_Int_Tables_number   1
_chemical_formula_structural   Ho(BiO3)2
_chemical_formula_sum   'Ho2 Bi4 O12'
_cell_volume   280.70755567
_cell_formula_units_Z   2
loop_
 _symmetry_equiv_pos_site_id
 _symmetry_equiv_pos_as_xyz
  1  'x, y, z'
loop_
 _atom_site_type_symbol
 _atom_site_label
 _atom_site_symmetry_multiplicity
 _atom_site_fract_x
 _atom_site_fract_y
 _atom_site_fract_z
 _atom_site_occupancy
  Ho  Ho0  1  0.03421186  0.91116540  0.75003996  1
  Ho  Ho1  1  0.53411341  0.58870630  0.24999636  1
  Bi  Bi2  1  0.00960262  0.48110368  0.99832875  1
  Bi  Bi3  1  0.00969638  0.48114652  0.50167517  1
  Bi  Bi4  1  0.50954455  0.01882995  0.49837734  1
  Bi  Bi5  1  0.50945655  0.01885689  0.00163605  1
  O  O6  1  0.15505954  0.47130440  0.25013929  1
  O  O7  1  0.16922381  0.16902547  0.93117382  1
  O  O8  1  0.16940269  0.16906863  0.56879525  1
  O  O9  1  0.27818447  0.73299342  0.94179034  1
  O  O10  1  0.27829728  0.73287761  0.55816364  1
  O  O11  1  0.40886602  0.94607578  0.25013368  1
  O  O12  1  0.65527872  0.02881386  0.74989908  1
  O  O13  1  0.66909279  0.33085686  0.43109965  1
  O  O14  1  0.66894981  0.33090732  0.06889609  1
  O  O15  1  0.77814066  0.76713644  0.05807438  1
  O  O16  1  0.77819217  0.76718182  0.44189758  1
  O  O17  1  0.90878968  0.55395165  0.74988457  1
