# generated using pymatgen
data_HoMg(NiO3)2
_symmetry_space_group_name_H-M   'P 1'
_cell_length_a   5.09973324
_cell_length_b   5.42036075
_cell_length_c   7.34930756
_cell_angle_alpha   90.00205656
_cell_angle_beta   89.99777505
_cell_angle_gamma   89.98984971
_symmetry_Int_Tables_number   1
_chemical_formula_structural   HoMg(NiO3)2
_chemical_formula_sum   'Ho2 Mg2 Ni4 O12'
_cell_volume   203.15245111
_cell_formula_units_Z   2
loop_
 _symmetry_equiv_pos_site_id
 _symmetry_equiv_pos_as_xyz
  1  'x, y, z'
loop_
 _atom_site_type_symbol
 _atom_site_label
 _atom_site_symmetry_multiplicity
 _atom_site_fract_x
 _atom_site_fract_y
 _atom_site_fract_z
 _atom_site_occupancy
  Ho  Ho0  1  0.01952942  0.92336528  0.74995073  1
  Ho  Ho1  1  0.51943644  0.57659212  0.25005484  1
  Mg  Mg2  1  0.47248794  0.42770207  0.75004311  1
  Mg  Mg3  1  0.97229443  0.07237333  0.24994087  1
  Ni  Ni4  1  0.99836073  0.49518924  0.99965820  1
  Ni  Ni5  1  0.99846682  0.49515047  0.50031904  1
  Ni  Ni6  1  0.49851853  0.00481036  0.49970113  1
  Ni  Ni7  1  0.49837095  0.00478543  0.00034309  1
  O  O8  1  0.10703850  0.44362235  0.24990248  1
  O  O9  1  0.20613858  0.21116463  0.93308334  1
  O  O10  1  0.20641519  0.21113984  0.56691319  1
  O  O11  1  0.31330742  0.69012717  0.94161751  1
  O  O12  1  0.31352096  0.69016622  0.55833530  1
  O  O13  1  0.36508907  0.96849596  0.25007022  1
  O  O14  1  0.60711086  0.05634472  0.74997982  1
  O  O15  1  0.70617801  0.28867529  0.43317023  1
  O  O16  1  0.70611749  0.28878199  0.06680458  1
  O  O17  1  0.81324999  0.80992533  0.05843010  1
  O  O18  1  0.81329384  0.81001622  0.44160071  1
  O  O19  1  0.86507183  0.53156996  0.75008250  1
