# generated using pymatgen
data_HoZn(MoO3)2
_symmetry_space_group_name_H-M   'P 1'
_cell_length_a   5.41899101
_cell_length_b   5.64055025
_cell_length_c   7.99040218
_cell_angle_alpha   89.99120292
_cell_angle_beta   89.64077734
_cell_angle_gamma   89.99174345
_symmetry_Int_Tables_number   1
_chemical_formula_structural   HoZn(MoO3)2
_chemical_formula_sum   'Ho2 Zn2 Mo4 O12'
_cell_volume   244.23055533
_cell_formula_units_Z   2
loop_
 _symmetry_equiv_pos_site_id
 _symmetry_equiv_pos_as_xyz
  1  'x, y, z'
loop_
 _atom_site_type_symbol
 _atom_site_label
 _atom_site_symmetry_multiplicity
 _atom_site_fract_x
 _atom_site_fract_y
 _atom_site_fract_z
 _atom_site_occupancy
  Ho  Ho0  1  0.01340182  0.93701078  0.75103216  1
  Ho  Ho1  1  0.51297615  0.56284725  0.25067369  1
  Zn  Zn2  1  0.50549568  0.49582462  0.74947721  1
  Zn  Zn3  1  0.00550795  0.00430954  0.24930375  1
  Mo  Mo4  1  -0.00014486  0.48546040  0.00189603  1
  Mo  Mo5  1  0.99906562  0.48998180  0.49864751  1
  Mo  Mo6  1  0.49971497  0.01454469  0.50184398  1
  Mo  Mo7  1  0.49947380  0.01003633  0.99855974  1
  O  O8  1  0.13044607  0.42249323  0.24657259  1
  O  O9  1  0.16798531  0.18427202  0.93380642  1
  O  O10  1  0.18286846  0.17603804  0.56796071  1
  O  O11  1  0.30875324  0.68221352  0.92936626  1
  O  O12  1  0.32694851  0.69090915  0.56871851  1
  O  O13  1  0.36518107  0.94039171  0.25378407  1
  O  O14  1  0.63071201  0.07727274  0.74643689  1
  O  O15  1  0.66764620  0.31574360  0.43364339  1
  O  O16  1  0.68297115  0.32407553  0.06772613  1
  O  O17  1  0.82787395  0.80956481  0.06801361  1
  O  O18  1  0.80795406  0.81737490  0.42868637  1
  O  O19  1  0.86516682  0.55963534  0.75385197  1
