# generated using pymatgen
data_AlSb(WO4)2
_symmetry_space_group_name_H-M   'P 1'
_cell_length_a   5.19810316
_cell_length_b   5.62752109
_cell_length_c   9.32962614
_cell_angle_alpha   89.99544582
_cell_angle_beta   89.91632294
_cell_angle_gamma   89.99311269
_symmetry_Int_Tables_number   1
_chemical_formula_structural   AlSb(WO4)2
_chemical_formula_sum   'Al2 Sb2 W4 O16'
_cell_volume   272.91398969
_cell_formula_units_Z   2
loop_
 _symmetry_equiv_pos_site_id
 _symmetry_equiv_pos_as_xyz
  1  'x, y, z'
loop_
 _atom_site_type_symbol
 _atom_site_label
 _atom_site_symmetry_multiplicity
 _atom_site_fract_x
 _atom_site_fract_y
 _atom_site_fract_z
 _atom_site_occupancy
  Al  Al0  1  0.24995500  0.66612312  0.25004905  1
  Al  Al1  1  0.75004400  0.33387588  0.74995095  1
  Sb  Sb2  1  0.74978813  0.36156606  0.25005248  1
  Sb  Sb3  1  0.25021187  0.63843294  0.74994752  1
  W  W4  1  0.24349283  0.15812911  0.49844726  1
  W  W5  1  0.25710220  0.15801946  0.00166506  1
  W  W6  1  0.75650717  0.84187089  0.50155274  1
  W  W7  1  0.74289780  0.84198054  0.99833494  1
  O  O8  1  0.41643642  0.40030324  0.14028482  1
  O  O9  1  0.08378398  0.40057538  0.35948154  1
  O  O10  1  0.58356358  0.59969576  0.85971518  1
  O  O11  1  0.91621502  0.59942362  0.64051846  1
  O  O12  1  0.40644485  0.87927338  0.61849669  1
  O  O13  1  0.09359649  0.87955368  0.88160371  1
  O  O14  1  0.59355515  0.12072662  0.38150331  1
  O  O15  1  0.90640351  0.12044632  0.11839629  1
  O  O16  1  0.93262784  0.62101301  0.13970699  1
  O  O17  1  0.56744559  0.62115946  0.36006017  1
  O  O18  1  0.06737216  0.37898799  0.86029301  1
  O  O19  1  0.43255441  0.37884154  0.63993983  1
  O  O20  1  0.40614841  0.88432155  0.12177458  1
  O  O21  1  0.59385159  0.11567945  0.87822542  1
  O  O22  1  0.09337294  0.88444001  0.37801428  1
  O  O23  1  0.90662706  0.11556099  0.62198572  1
