# generated using pymatgen
data_MgCu(Si2O5)2
_symmetry_space_group_name_H-M   'P 1'
_cell_length_a   7.24797430
_cell_length_b   7.24797430
_cell_length_c   14.89459041
_cell_angle_alpha   90.00000000
_cell_angle_beta   90.00000000
_cell_angle_gamma   90.00000000
_symmetry_Int_Tables_number   1
_chemical_formula_structural   MgCu(Si2O5)2
_chemical_formula_sum   'Mg4 Cu4 Si16 O40'
_cell_volume   782.45947595
_cell_formula_units_Z   4
loop_
 _symmetry_equiv_pos_site_id
 _symmetry_equiv_pos_as_xyz
  1  'x, y, z'
loop_
 _atom_site_type_symbol
 _atom_site_label
 _atom_site_symmetry_multiplicity
 _atom_site_fract_x
 _atom_site_fract_y
 _atom_site_fract_z
 _atom_site_occupancy
  Mg  Mg0  1  0.25000000  0.75000000  0.50000000  1
  Mg  Mg1  1  0.75000000  0.25000000  0.50000000  1
  Mg  Mg2  1  0.75000000  0.25000000  -0.00000000  1
  Mg  Mg3  1  0.25000000  0.75000000  -0.00000000  1
  Cu  Cu4  1  0.25000000  0.25000000  0.57420451  1
  Cu  Cu5  1  0.75000000  0.75000000  0.92579549  1
  Cu  Cu6  1  0.75000000  0.75000000  0.42579549  1
  Cu  Cu7  1  0.25000000  0.25000000  0.07420451  1
  Si  Si8  1  0.92035003  0.49330657  0.64413714  1
  Si  Si9  1  0.57964997  0.00669343  0.64413714  1
  Si  Si10  1  0.99330657  0.42035003  0.85586286  1
  Si  Si11  1  0.49330657  0.57964997  0.64413714  1
  Si  Si12  1  0.00669343  0.92035003  0.64413714  1
  Si  Si13  1  0.07964997  0.99330657  0.85586286  1
  Si  Si14  1  0.42035003  0.50669343  0.85586286  1
  Si  Si15  1  0.50669343  0.07964997  0.85586286  1
  Si  Si16  1  0.07964997  0.50669343  0.35586286  1
  Si  Si17  1  0.42035003  0.99330657  0.35586286  1
  Si  Si18  1  0.00669343  0.57964997  0.14413714  1
  Si  Si19  1  0.50669343  0.42035003  0.35586286  1
  Si  Si20  1  0.99330657  0.07964997  0.35586286  1
  Si  Si21  1  0.92035003  0.00669343  0.14413714  1
  Si  Si22  1  0.57964997  0.49330657  0.14413714  1
  Si  Si23  1  0.49330657  0.92035003  0.14413714  1
  O  O24  1  0.99055740  0.33496682  0.57568042  1
  O  O25  1  0.50944260  0.16503318  0.57568042  1
  O  O26  1  0.83496682  0.49055740  0.92431958  1
  O  O27  1  0.33496682  0.50944260  0.57568042  1
  O  O28  1  0.16503318  0.99055740  0.57568042  1
  O  O29  1  0.00944260  0.83496682  0.92431958  1
  O  O30  1  0.49055740  0.66503318  0.92431958  1
  O  O31  1  0.66503318  0.00944260  0.92431958  1
  O  O32  1  0.00944260  0.66503318  0.42431958  1
  O  O33  1  0.49055740  0.83496682  0.42431958  1
  O  O34  1  0.16503318  0.50944260  0.07568042  1
  O  O35  1  0.66503318  0.49055740  0.42431958  1
  O  O36  1  0.83496682  0.00944260  0.42431958  1
  O  O37  1  0.99055740  0.16503318  0.07568042  1
  O  O38  1  0.50944260  0.33496682  0.07568042  1
  O  O39  1  0.99580998  0.30222617  0.37694329  1
  O  O40  1  0.33496682  0.99055740  0.07568042  1
  O  O41  1  0.49580998  0.80222617  0.62305671  1
  O  O42  1  0.19777383  0.50419002  0.87694329  1
  O  O43  1  0.69777383  0.49580998  0.62305671  1
  O  O44  1  0.80222617  0.00419002  0.62305671  1
  O  O45  1  0.99580998  0.19777383  0.87694329  1
  O  O46  1  0.50419002  0.30222617  0.87694329  1
  O  O47  1  0.30222617  0.99580998  0.87694329  1
  O  O48  1  0.45297182  0.95297182  0.25000000  1
  O  O49  1  0.54702818  0.45297182  0.25000000  1
  O  O50  1  0.95297182  0.04702918  0.25000000  1
  O  O51  1  0.04702918  0.54702818  0.25000000  1
  O  O52  1  0.54702818  0.04702918  0.75000000  1
  O  O53  1  0.45297182  0.54702818  0.75000000  1
  O  O54  1  0.04702918  0.95297182  0.75000000  1
  O  O55  1  0.95297182  0.45297182  0.75000000  1
  O  O56  1  0.69777383  0.00419002  0.12305671  1
  O  O57  1  0.49580998  0.69777383  0.12305671  1
  O  O58  1  0.00419002  0.80222617  0.12305671  1
  O  O59  1  0.19777383  0.99580998  0.37694329  1
  O  O60  1  0.30222617  0.50419002  0.37694329  1
  O  O61  1  0.80222617  0.49580998  0.12305671  1
  O  O62  1  0.50419002  0.19777383  0.37694329  1
  O  O63  1  0.00419002  0.69777383  0.62305671  1
