# generated using pymatgen
data_CaCr2O7
_symmetry_space_group_name_H-M   'P 1'
_cell_length_a   7.14168167
_cell_length_b   6.90379676
_cell_length_c   8.77612204
_cell_angle_alpha   118.77203966
_cell_angle_beta   90.00000000
_cell_angle_gamma   90.00000000
_symmetry_Int_Tables_number   1
_chemical_formula_structural   CaCr2O7
_chemical_formula_sum   'Ca2 Cr4 O14'
_cell_volume   379.28328795
_cell_formula_units_Z   2
loop_
 _symmetry_equiv_pos_site_id
 _symmetry_equiv_pos_as_xyz
  1  'x, y, z'
loop_
 _atom_site_type_symbol
 _atom_site_label
 _atom_site_symmetry_multiplicity
 _atom_site_fract_x
 _atom_site_fract_y
 _atom_site_fract_z
 _atom_site_occupancy
  Ca  Ca0  1  0.87612142  0.53407740  0.65750697  1
  Ca  Ca1  1  0.37612142  0.46592260  0.34249303  1
  Cr  Cr2  1  0.85730935  0.31320427  0.21087125  1
  Cr  Cr3  1  0.35730935  0.68679573  0.78912875  1
  Cr  Cr4  1  0.32496051  0.87213920  0.20011242  1
  Cr  Cr5  1  0.82496051  0.12786080  0.79988758  1
  O  O6  1  0.64879818  0.05289122  0.67231052  1
  O  O7  1  0.14879718  0.94710878  0.32768948  1
  O  O8  1  0.22313288  0.54736896  0.61023505  1
  O  O9  1  0.72313288  0.45263104  0.38976495  1
  O  O10  1  0.96126020  0.28429861  0.75231376  1
  O  O11  1  0.46126020  0.71570139  0.24768624  1
  O  O12  1  0.56498574  0.56799767  0.75169494  1
  O  O13  1  0.06498574  0.43200233  0.24830506  1
  O  O14  1  0.93408083  0.90732123  0.78235993  1
  O  O15  1  0.43408083  0.09267877  0.21764007  1
  O  O16  1  0.74993882  0.29343402  0.02285867  1
  O  O17  1  0.24993882  0.70656598  0.97714133  1
  O  O18  1  0.88446907  0.06743794  0.17817088  1
  O  O19  1  0.38446907  0.93256206  0.82182912  1
