# generated using pymatgen
data_CaNiSbP2O9
_symmetry_space_group_name_H-M   'P 1'
_cell_length_a   6.67875937
_cell_length_b   7.40928348
_cell_length_c   14.70322603
_cell_angle_alpha   89.98744854
_cell_angle_beta   89.99921458
_cell_angle_gamma   89.99669680
_symmetry_Int_Tables_number   1
_chemical_formula_structural   CaNiSbP2O9
_chemical_formula_sum   'Ca4 Ni4 Sb4 P8 O36'
_cell_volume   727.58649594
_cell_formula_units_Z   4
loop_
 _symmetry_equiv_pos_site_id
 _symmetry_equiv_pos_as_xyz
  1  'x, y, z'
loop_
 _atom_site_type_symbol
 _atom_site_label
 _atom_site_symmetry_multiplicity
 _atom_site_fract_x
 _atom_site_fract_y
 _atom_site_fract_z
 _atom_site_occupancy
  Ca  Ca0  1  0.75005195  0.89800111  0.79311925  1
  Ca  Ca1  1  0.75006058  0.60189040  0.29293369  1
  Ca  Ca2  1  0.24994415  0.10215722  0.20704952  1
  Ca  Ca3  1  0.24991802  0.39821775  0.70690813  1
  Ni  Ni4  1  0.49991377  0.00007084  0.00002276  1
  Ni  Ni5  1  0.50009483  0.50000733  0.49999121  1
  Ni  Ni6  1  0.99990727  0.50006855  0.49992746  1
  Ni  Ni7  1  0.00005302  0.00005963  0.00002781  1
  Sb  Sb8  1  0.75008330  0.35540541  0.88061005  1
  Sb  Sb9  1  0.24992815  0.64452526  0.11930766  1
  Sb  Sb10  1  0.24990670  0.85543562  0.61943224  1
  Sb  Sb11  1  0.75009280  0.14423324  0.38061160  1
  P  P12  1  0.25012069  0.35786887  0.92571717  1
  P  P13  1  0.74989186  0.64210917  0.07414000  1
  P  P14  1  0.74988383  0.85833903  0.57422871  1
  P  P15  1  0.25011674  0.14195346  0.42597911  1
  P  P16  1  0.75004367  0.38887029  0.68432052  1
  P  P17  1  0.24996300  0.61111391  0.31575296  1
  P  P18  1  0.24995902  0.88874475  0.81554361  1
  P  P19  1  0.75005470  0.11103006  0.18428983  1
  O  O20  1  0.05643610  0.61368400  0.37268608  1
  O  O21  1  0.55654086  0.38656619  0.62751529  1
  O  O22  1  0.94338264  0.11360327  0.12741102  1
  O  O23  1  0.44334159  0.88685427  0.87226887  1
  O  O24  1  0.94346746  0.38653079  0.62739906  1
  O  O25  1  0.44350635  0.61362141  0.37259069  1
  O  O26  1  0.05663167  0.88688842  0.87237246  1
  O  O27  1  0.55665060  0.11363196  0.12752592  1
  O  O28  1  0.25020151  0.31746496  0.48143073  1
  O  O29  1  0.74978423  0.68282384  0.51877554  1
  O  O30  1  0.74977228  0.81722771  0.01869064  1
  O  O31  1  0.25022813  0.18278520  0.98114053  1
  O  O32  1  0.74998800  0.11397589  0.93384593  1
  O  O33  1  0.25001174  0.88609842  0.06608456  1
  O  O34  1  0.24996550  0.61429086  0.56605555  1
  O  O35  1  0.75000755  0.38563455  0.43390204  1
  O  O36  1  0.75021522  0.21858651  0.75026013  1
  O  O37  1  0.24980336  0.78133428  0.24977123  1
  O  O38  1  0.24979422  0.71830482  0.74964215  1
  O  O39  1  0.75021977  0.28119209  0.25040352  1
  O  O40  1  0.43049897  0.13399562  0.35786046  1
  O  O41  1  0.93045037  0.86552007  0.64239578  1
  O  O42  1  0.56964537  0.63434147  0.14244846  1
  O  O43  1  0.06961499  0.36525128  0.85743818  1
  O  O44  1  0.56938503  0.86575107  0.64243893  1
  O  O45  1  0.06965697  0.13422825  0.35790697  1
  O  O46  1  0.43051655  0.36546630  0.85737745  1
  O  O47  1  0.93024866  0.63455492  0.14238556  1
  O  O48  1  0.75019861  0.94980905  0.25469533  1
  O  O49  1  0.24981630  0.04957679  0.74475836  1
  O  O50  1  0.24984441  0.44951132  0.24571444  1
  O  O51  1  0.75016432  0.55018530  0.75461843  1
  O  O52  1  0.74997896  0.02851198  0.51486715  1
  O  O53  1  0.25003460  0.97210716  0.48576072  1
  O  O54  1  0.25003400  0.52826627  0.98504308  1
  O  O55  1  0.74997805  0.47171981  0.01460245  1
