# generated using pymatgen
data_MgBiMoO5
_symmetry_space_group_name_H-M   'P 1'
_cell_length_a   5.25538094
_cell_length_b   10.48941342
_cell_length_c   16.09384174
_cell_angle_alpha   90.00000000
_cell_angle_beta   90.00000000
_cell_angle_gamma   90.00000000
_symmetry_Int_Tables_number   1
_chemical_formula_structural   MgBiMoO5
_chemical_formula_sum   'Mg8 Bi8 Mo8 O40'
_cell_volume   887.18692068
_cell_formula_units_Z   8
loop_
 _symmetry_equiv_pos_site_id
 _symmetry_equiv_pos_as_xyz
  1  'x, y, z'
loop_
 _atom_site_type_symbol
 _atom_site_label
 _atom_site_symmetry_multiplicity
 _atom_site_fract_x
 _atom_site_fract_y
 _atom_site_fract_z
 _atom_site_occupancy
  Mg  Mg0  1  0.52753847  0.36844222  0.44310768  1
  Mg  Mg1  1  0.02753847  0.13155778  0.44310768  1
  Mg  Mg2  1  0.02753847  0.63155778  0.05689232  1
  Mg  Mg3  1  0.97246153  0.36844222  0.94310768  1
  Mg  Mg4  1  0.47246153  0.13155778  0.94310768  1
  Mg  Mg5  1  0.97246153  0.86844222  0.55689232  1
  Mg  Mg6  1  0.47246153  0.63155778  0.55689232  1
  Mg  Mg7  1  0.52753847  0.86844222  0.05689232  1
  Bi  Bi8  1  0.97809544  0.85862516  0.22241941  1
  Bi  Bi9  1  0.02190456  0.14137484  0.77758059  1
  Bi  Bi10  1  0.52190456  0.35862516  0.77758059  1
  Bi  Bi11  1  0.02190456  0.64137484  0.72241941  1
  Bi  Bi12  1  0.47809544  0.14137484  0.27758059  1
  Bi  Bi13  1  0.47809544  0.64137484  0.22241941  1
  Bi  Bi14  1  0.52190456  0.85862516  0.72241941  1
  Bi  Bi15  1  0.97809544  0.35862516  0.27758059  1
  Mo  Mo16  1  0.99186732  0.37765492  0.58372424  1
  Mo  Mo17  1  0.50813268  0.87765492  0.41627576  1
  Mo  Mo18  1  0.00813268  0.62234508  0.41627576  1
  Mo  Mo19  1  0.49186732  0.12234508  0.58372424  1
  Mo  Mo20  1  0.00813268  0.12234508  0.08372424  1
  Mo  Mo21  1  0.99186732  0.87765492  0.91627576  1
  Mo  Mo22  1  0.50813268  0.37765492  0.08372424  1
  Mo  Mo23  1  0.49186732  0.62234508  0.91627576  1
  O  O24  1  0.91482373  0.32773679  0.69531139  1
  O  O25  1  0.28083210  0.02925080  0.04713114  1
  O  O26  1  0.21916790  0.52925080  0.95286886  1
  O  O27  1  0.29359377  0.78339055  0.14615672  1
  O  O28  1  0.20640623  0.28339055  0.85384328  1
  O  O29  1  0.91482373  0.82773679  0.80468861  1
  O  O30  1  0.20640623  0.78339055  0.64615672  1
  O  O31  1  0.58517627  0.82773679  0.30468861  1
  O  O32  1  0.28083210  0.52925080  0.45286886  1
  O  O33  1  0.08517627  0.67226321  0.30468861  1
  O  O34  1  0.58517627  0.32773679  0.19531139  1
  O  O35  1  0.75075788  0.21939594  0.52953106  1
  O  O36  1  0.78083210  0.97074920  0.45286886  1
  O  O37  1  0.70640623  0.71660945  0.64615672  1
  O  O38  1  0.20214547  0.02066536  0.87841338  1
  O  O39  1  0.78083210  0.47074920  0.04713114  1
  O  O40  1  0.08517627  0.17226321  0.19531139  1
  O  O41  1  0.79359377  0.21660945  0.35384328  1
  O  O42  1  0.25075788  0.78060406  0.97046894  1
  O  O43  1  0.21916790  0.02925080  0.54713114  1
  O  O44  1  0.24924212  0.78060406  0.47046894  1
  O  O45  1  0.79785453  0.97933464  0.12158662  1
  O  O46  1  0.70640623  0.21660945  0.85384328  1
  O  O47  1  0.70214547  0.97933464  0.62158662  1
  O  O48  1  0.24924212  0.28060406  0.02953106  1
  O  O49  1  0.25075788  0.28060406  0.52953106  1
  O  O50  1  0.71916790  0.47074920  0.54713114  1
  O  O51  1  0.71916790  0.97074920  0.95286886  1
  O  O52  1  0.70214547  0.47933464  0.87841338  1
  O  O53  1  0.74924212  0.71939594  0.47046894  1
  O  O54  1  0.74924212  0.21939594  0.02953106  1
  O  O55  1  0.75075788  0.71939594  0.97046894  1
  O  O56  1  0.79785453  0.47933464  0.37841338  1
  O  O57  1  0.79359377  0.71660945  0.14615672  1
  O  O58  1  0.29359377  0.28339055  0.35384328  1
  O  O59  1  0.20214547  0.52066536  0.62158662  1
  O  O60  1  0.29785453  0.52066536  0.12158662  1
  O  O61  1  0.41482373  0.17226321  0.69531139  1
  O  O62  1  0.29785453  0.02066536  0.37841338  1
  O  O63  1  0.41482373  0.67226321  0.80468861  1
