# generated using pymatgen
data_AlBi(WO4)2
_symmetry_space_group_name_H-M   'P 1'
_cell_length_a   5.13710192
_cell_length_b   6.29973937
_cell_length_c   9.72744793
_cell_angle_alpha   90.04953045
_cell_angle_beta   93.46981804
_cell_angle_gamma   90.01263856
_symmetry_Int_Tables_number   1
_chemical_formula_structural   AlBi(WO4)2
_chemical_formula_sum   'Al2 Bi2 W4 O16'
_cell_volume   314.22637080
_cell_formula_units_Z   2
loop_
 _symmetry_equiv_pos_site_id
 _symmetry_equiv_pos_as_xyz
  1  'x, y, z'
loop_
 _atom_site_type_symbol
 _atom_site_label
 _atom_site_symmetry_multiplicity
 _atom_site_fract_x
 _atom_site_fract_y
 _atom_site_fract_z
 _atom_site_occupancy
  Al  Al0  1  0.24983965  0.78357866  0.24983554  1
  Al  Al1  1  0.75015935  0.21642034  0.75016446  1
  Bi  Bi2  1  0.74989896  0.37309779  0.25019737  1
  Bi  Bi3  1  0.25010104  0.62690121  0.74980263  1
  W  W4  1  0.25468649  0.15172878  0.51217241  1
  W  W5  1  0.24548142  0.15192987  0.98805725  1
  W  W6  1  0.74531351  0.84827122  0.48782759  1
  W  W7  1  0.75451858  0.84807013  0.01194275  1
  O  O8  1  0.38034398  0.36779013  0.09631984  1
  O  O9  1  0.11965447  0.36802423  0.40436071  1
  O  O10  1  0.61965602  0.63220987  0.90368016  1
  O  O11  1  0.88034453  0.63197477  0.59563929  1
  O  O12  1  0.42457859  0.88575459  0.60050448  1
  O  O13  1  0.07544201  0.88591350  0.89938038  1
  O  O14  1  0.57542141  0.11424541  0.39949552  1
  O  O15  1  0.92455799  0.11408650  0.10061962  1
  O  O16  1  0.96720950  0.67105280  0.15654138  1
  O  O17  1  0.53233145  0.67114181  0.34315922  1
  O  O18  1  0.03279050  0.32894820  0.84345862  1
  O  O19  1  0.46766855  0.32885919  0.65684078  1
  O  O20  1  0.42739829  0.92018482  0.11876198  1
  O  O21  1  0.57260171  0.07981618  0.88123802  1
  O  O22  1  0.07247011  0.92040842  0.38101782  1
  O  O23  1  0.92752989  0.07959258  0.61898218  1
