# generated using pymatgen
data_BaYCrCuO5
_symmetry_space_group_name_H-M   'P 1'
_cell_length_a   3.90722582
_cell_length_b   3.90724370
_cell_length_c   7.88849366
_cell_angle_alpha   89.99990563
_cell_angle_beta   89.99980866
_cell_angle_gamma   89.97599455
_symmetry_Int_Tables_number   1
_chemical_formula_structural   BaYCrCuO5
_chemical_formula_sum   'Ba1 Y1 Cr1 Cu1 O5'
_cell_volume   120.42954723
_cell_formula_units_Z   1
loop_
 _symmetry_equiv_pos_site_id
 _symmetry_equiv_pos_as_xyz
  1  'x, y, z'
loop_
 _atom_site_type_symbol
 _atom_site_label
 _atom_site_symmetry_multiplicity
 _atom_site_fract_x
 _atom_site_fract_y
 _atom_site_fract_z
 _atom_site_occupancy
  Ba  Ba0  1  0.00000128  0.00000297  0.99140299  1
  Y  Y1  1  -0.00000026  -0.00000044  0.46420557  1
  Cr  Cr2  1  0.49999156  0.49998646  0.69662912  1
  Cu  Cu3  1  0.50000429  0.50000349  0.25626668  1
  O  O4  1  0.99999444  0.49999813  0.64043634  1
  O  O5  1  0.49999594  -0.00000258  0.64043000  1
  O  O6  1  0.00000347  0.50000237  0.28063897  1
  O  O7  1  0.50000473  0.00000101  0.28064638  1
  O  O8  1  0.49999755  0.50000259  0.93726195  1
