# generated using pymatgen
data_YBi(WO4)2
_symmetry_space_group_name_H-M   'P 1'
_cell_length_a   5.36029285
_cell_length_b   5.59639639
_cell_length_c   6.90318134
_cell_angle_alpha   113.87774760
_cell_angle_beta   118.95975530
_cell_angle_gamma   89.92294249
_symmetry_Int_Tables_number   1
_chemical_formula_structural   YBi(WO4)2
_chemical_formula_sum   'Y1 Bi1 W2 O8'
_cell_volume   160.70406323
_cell_formula_units_Z   1
loop_
 _symmetry_equiv_pos_site_id
 _symmetry_equiv_pos_as_xyz
  1  'x, y, z'
loop_
 _atom_site_type_symbol
 _atom_site_label
 _atom_site_symmetry_multiplicity
 _atom_site_fract_x
 _atom_site_fract_y
 _atom_site_fract_z
 _atom_site_occupancy
  Y  Y0  1  0.63388331  0.73098160  0.10369616  1
  Bi  Bi1  1  0.14461919  0.26193255  0.12132822  1
  W  W2  1  0.88630154  0.40953247  0.60362558  1
  W  W3  1  0.38767897  0.03400732  0.60238737  1
  O  O4  1  0.13990033  0.74226627  0.85756328  1
  O  O5  1  0.61337517  0.50367819  0.34173087  1
  O  O6  1  0.21832690  0.25550378  0.81334675  1
  O  O7  1  0.53252576  0.04259763  0.38457929  1
  O  O8  1  0.61357890  0.93091771  0.84538551  1
  O  O9  1  0.09939021  0.68854936  0.33074956  1
  O  O10  1  0.01955326  0.17401805  0.38136879  1
  O  O11  1  0.70686646  0.40451306  0.81033362  1
