# generated using pymatgen
data_Sr2YTlNi2O7
_symmetry_space_group_name_H-M   'P 1'
_cell_length_a   3.85770085
_cell_length_b   3.85766593
_cell_length_c   12.05840712
_cell_angle_alpha   90.00003227
_cell_angle_beta   90.00003702
_cell_angle_gamma   90.00578545
_symmetry_Int_Tables_number   1
_chemical_formula_structural   Sr2YTlNi2O7
_chemical_formula_sum   'Sr2 Y1 Tl1 Ni2 O7'
_cell_volume   179.44985166
_cell_formula_units_Z   1
loop_
 _symmetry_equiv_pos_site_id
 _symmetry_equiv_pos_as_xyz
  1  'x, y, z'
loop_
 _atom_site_type_symbol
 _atom_site_label
 _atom_site_symmetry_multiplicity
 _atom_site_fract_x
 _atom_site_fract_y
 _atom_site_fract_z
 _atom_site_occupancy
  Sr  Sr0  1  0.50000040  0.49999972  0.78912267  1
  Sr  Sr1  1  0.49999993  0.50000139  0.21089197  1
  Y  Y2  1  0.49999877  0.49999818  0.49999715  1
  Tl  Tl3  1  0.00000013  0.00000269  0.00000665  1
  Ni  Ni4  1  -0.00000214  0.99999955  0.64942736  1
  Ni  Ni5  1  0.00000116  -0.00000015  0.35056554  1
  O  O6  1  0.49999889  0.99999911  0.62016030  1
  O  O7  1  0.99999851  0.49999799  0.62015428  1
  O  O8  1  0.49999955  0.99999920  0.37982991  1
  O  O9  1  0.99999915  0.50000036  0.37983710  1
  O  O10  1  0.00000488  0.99999944  0.81970399  1
  O  O11  1  0.00000029  0.00000363  0.18030019  1
  O  O12  1  0.50000048  0.50000089  0.00000390  1
