# generated using pymatgen
data_CaV4O6
_symmetry_space_group_name_H-M   'P 1'
_cell_length_a   3.08628132
_cell_length_b   5.38442232
_cell_length_c   15.42806360
_cell_angle_alpha   90.00000000
_cell_angle_beta   90.00000000
_cell_angle_gamma   106.65412577
_symmetry_Int_Tables_number   1
_chemical_formula_structural   CaV4O6
_chemical_formula_sum   'Ca2 V8 O12'
_cell_volume   245.62651625
_cell_formula_units_Z   2
loop_
 _symmetry_equiv_pos_site_id
 _symmetry_equiv_pos_as_xyz
  1  'x, y, z'
loop_
 _atom_site_type_symbol
 _atom_site_label
 _atom_site_symmetry_multiplicity
 _atom_site_fract_x
 _atom_site_fract_y
 _atom_site_fract_z
 _atom_site_occupancy
  Ca  Ca0  1  0.65016193  0.30032487  0.75000000  1
  Ca  Ca1  1  0.34983807  0.69967513  0.25000000  1
  V  V2  1  0.86497172  0.72994645  0.04439451  1
  V  V3  1  0.40223137  0.80446075  0.63521876  1
  V  V4  1  0.13502628  0.27005255  0.95560549  1
  V  V5  1  0.59776863  0.19553925  0.36478224  1
  V  V6  1  0.86497172  0.72994645  0.45560549  1
  V  V7  1  0.13502628  0.27005255  0.54439451  1
  V  V8  1  0.59776863  0.19553925  0.13521776  1
  V  V9  1  0.40223137  0.80446075  0.86478124  1
  O  O10  1  0.49999900  0.00000000  0.50000000  1
  O  O11  1  0.49999900  0.00000000  0.00000000  1
  O  O12  1  0.02786319  0.05572638  0.84036457  1
  O  O13  1  0.97213681  0.94427362  0.15963643  1
  O  O14  1  0.97213681  0.94427362  0.34036357  1
  O  O15  1  0.02786319  0.05572638  0.65963643  1
  O  O16  1  0.77829222  0.55658645  0.91380957  1
  O  O17  1  0.22170678  0.44341455  0.08619043  1
  O  O18  1  0.22170678  0.44341455  0.41380957  1
  O  O19  1  0.77829222  0.55658645  0.58619043  1
  O  O20  1  0.31923809  0.63847718  0.75000000  1
  O  O21  1  0.68075991  0.36152182  0.25000000  1
