# generated using pymatgen
data_Mg2Ta2CuO8
_symmetry_space_group_name_H-M   'P 1'
_cell_length_a   5.17926760
_cell_length_b   6.06145843
_cell_length_c   10.08542047
_cell_angle_alpha   108.15385528
_cell_angle_beta   92.57526800
_cell_angle_gamma   89.58450815
_symmetry_Int_Tables_number   1
_chemical_formula_structural   Mg2Ta2CuO8
_chemical_formula_sum   'Mg4 Ta4 Cu2 O16'
_cell_volume   300.54904684
_cell_formula_units_Z   2
loop_
 _symmetry_equiv_pos_site_id
 _symmetry_equiv_pos_as_xyz
  1  'x, y, z'
loop_
 _atom_site_type_symbol
 _atom_site_label
 _atom_site_symmetry_multiplicity
 _atom_site_fract_x
 _atom_site_fract_y
 _atom_site_fract_z
 _atom_site_occupancy
  Mg  Mg0  1  0.75369092  0.41678874  0.54518724  1
  Mg  Mg1  1  0.74400326  0.87198637  0.45221204  1
  Mg  Mg2  1  0.24294697  0.58525963  0.45375613  1
  Mg  Mg3  1  0.25261992  0.12961196  0.54650020  1
  Ta  Ta4  1  0.72791595  0.27779866  0.23228423  1
  Ta  Ta5  1  0.76666977  0.04664990  0.76595570  1
  Ta  Ta6  1  0.26878150  0.72428953  0.76639557  1
  Ta  Ta7  1  0.23005773  0.95451726  0.23256117  1
  Cu  Cu8  1  0.75027557  0.64656565  0.99956422  1
  Cu  Cu9  1  0.24962334  0.35457020  0.99825644  1
  O  O10  1  0.05729607  0.18126789  0.14654436  1
  O  O11  1  0.43641625  0.04427417  0.85325586  1
  O  O12  1  0.93900132  0.81926958  0.85240040  1
  O  O13  1  0.55989420  0.95885656  0.14570772  1
  O  O14  1  0.55966137  0.42038936  0.11400525  1
  O  O15  1  0.93570882  0.31016712  0.88486486  1
  O  O16  1  0.44054845  0.58277285  0.88387905  1
  O  O17  1  0.06438137  0.68897924  0.11289214  1
  O  O18  1  0.44632543  0.28954138  0.37257698  1
  O  O19  1  0.04998075  0.91609073  0.62519160  1
  O  O20  1  0.37038934  0.83723002  0.38226898  1
  O  O21  1  0.12699039  0.45566274  0.61669743  1
  O  O22  1  0.62651637  0.16452152  0.61645432  1
  O  O23  1  0.86992409  0.54595145  0.38225852  1
  O  O24  1  0.94686247  0.08485087  0.37347581  1
  O  O25  1  0.55037038  0.71285761  0.62617578  1
