# generated using pymatgen
data_LaMg(FeO3)2
_symmetry_space_group_name_H-M   'P 1'
_cell_length_a   5.49575261
_cell_length_b   5.35397532
_cell_length_c   7.71288061
_cell_angle_alpha   89.97898296
_cell_angle_beta   90.00000000
_cell_angle_gamma   90.00000000
_symmetry_Int_Tables_number   1
_chemical_formula_structural   LaMg(FeO3)2
_chemical_formula_sum   'La2 Mg2 Fe4 O12'
_cell_volume   226.94473881
_cell_formula_units_Z   2
loop_
 _symmetry_equiv_pos_site_id
 _symmetry_equiv_pos_as_xyz
  1  'x, y, z'
loop_
 _atom_site_type_symbol
 _atom_site_label
 _atom_site_symmetry_multiplicity
 _atom_site_fract_x
 _atom_site_fract_y
 _atom_site_fract_z
 _atom_site_occupancy
  La  La0  1  0.03281137  0.99271516  0.24999400  1
  La  La1  1  0.46718863  0.49271516  0.74999400  1
  Mg  Mg2  1  0.55590013  0.52650606  0.25012978  1
  Mg  Mg3  1  0.94409987  0.02650606  0.75012978  1
  Fe  Fe4  1  0.50022858  0.00051962  0.49806290  1
  Fe  Fe5  1  -0.00022858  0.50051962  0.99806290  1
  Fe  Fe6  1  0.49996398  0.00046556  0.00192745  1
  Fe  Fe7  1  0.00003602  0.50046556  0.50192745  1
  O  O8  1  0.02109086  0.63089622  0.75009171  1
  O  O9  1  0.19862626  0.19247397  0.94168185  1
  O  O10  1  0.19878033  0.19267694  0.55845425  1
  O  O11  1  0.30121967  0.69267694  0.05845425  1
  O  O12  1  0.30137374  0.69247397  0.44168185  1
  O  O13  1  0.47890914  0.13089622  0.25009071  1
  O  O14  1  0.54478901  0.92420502  0.74984307  1
  O  O15  1  0.73213623  0.26984331  0.55400477  1
  O  O16  1  0.73180214  0.26969713  0.94581022  1
  O  O17  1  0.76819786  0.76969713  0.44581022  1
  O  O18  1  0.76786377  0.76984331  0.05400477  1
  O  O19  1  0.95521099  0.42420502  0.24984307  1
