# generated using pymatgen
data_YMn(WO4)2
_symmetry_space_group_name_H-M   'P 1'
_cell_length_a   5.19758971
_cell_length_b   5.92434377
_cell_length_c   6.37376087
_cell_angle_alpha   108.55415248
_cell_angle_beta   118.40126801
_cell_angle_gamma   90.18317723
_symmetry_Int_Tables_number   1
_chemical_formula_structural   YMn(WO4)2
_chemical_formula_sum   'Y1 Mn1 W2 O8'
_cell_volume   160.83175815
_cell_formula_units_Z   1
loop_
 _symmetry_equiv_pos_site_id
 _symmetry_equiv_pos_as_xyz
  1  'x, y, z'
loop_
 _atom_site_type_symbol
 _atom_site_label
 _atom_site_symmetry_multiplicity
 _atom_site_fract_x
 _atom_site_fract_y
 _atom_site_fract_z
 _atom_site_occupancy
  Y  Y0  1  0.62227882  0.71361913  0.10293347  1
  Mn  Mn1  1  0.14497248  0.26181493  0.11368105  1
  W  W2  1  0.87820336  0.39038123  0.58931536  1
  W  W3  1  0.38731452  0.05451839  0.61281404  1
  O  O4  1  0.12975636  0.67324935  0.83882413  1
  O  O5  1  0.57883083  0.48608847  0.31091954  1
  O  O6  1  0.16712124  0.18699110  0.78742827  1
  O  O7  1  0.56887204  0.04993705  0.39891471  1
  O  O8  1  0.64408252  0.94550571  0.86080357  1
  O  O9  1  0.11674230  0.77744907  0.37330151  1
  O  O10  1  0.08051849  0.24658532  0.39491573  1
  O  O11  1  0.67730504  0.39235525  0.81224463  1
