# generated using pymatgen
data_CaBi2O5
_symmetry_space_group_name_H-M   'P 1'
_cell_length_a   5.95086082
_cell_length_b   8.90367645
_cell_length_c   12.16086761
_cell_angle_alpha   90.00000000
_cell_angle_beta   90.00000000
_cell_angle_gamma   109.57432737
_symmetry_Int_Tables_number   1
_chemical_formula_structural   CaBi2O5
_chemical_formula_sum   'Ca4 Bi8 O20'
_cell_volume   607.10017254
_cell_formula_units_Z   4
loop_
 _symmetry_equiv_pos_site_id
 _symmetry_equiv_pos_as_xyz
  1  'x, y, z'
loop_
 _atom_site_type_symbol
 _atom_site_label
 _atom_site_symmetry_multiplicity
 _atom_site_fract_x
 _atom_site_fract_y
 _atom_site_fract_z
 _atom_site_occupancy
  Ca  Ca0  1  0.62745890  0.17216957  0.91202326  1
  Ca  Ca1  1  0.37254110  0.82783043  0.08797674  1
  Ca  Ca2  1  0.87254110  0.32783043  0.41202326  1
  Ca  Ca3  1  0.12745890  0.67216957  0.58797674  1
  Bi  Bi4  1  0.81636152  0.95665145  0.63138328  1
  Bi  Bi5  1  0.18363848  0.04334855  0.36861672  1
  Bi  Bi6  1  0.68363848  0.54334855  0.13138328  1
  Bi  Bi7  1  0.31636152  0.45665145  0.86861672  1
  Bi  Bi8  1  0.10982555  0.14892673  0.09616369  1
  Bi  Bi9  1  0.89017445  0.85107327  0.90383631  1
  Bi  Bi10  1  0.60982555  0.64892673  0.40383631  1
  Bi  Bi11  1  0.39017445  0.35107327  0.59616369  1
  O  O12  1  0.50814859  0.33545600  0.04768492  1
  O  O13  1  0.02920810  0.31393181  0.95495369  1
  O  O14  1  0.46602237  0.65023026  0.20148745  1
  O  O15  1  0.74163950  0.51412216  0.52508073  1
  O  O16  1  0.78368284  0.49490827  0.28650288  1
  O  O17  1  0.28368284  0.99490827  0.21349712  1
  O  O18  1  0.52920810  0.81393181  0.54504631  1
  O  O19  1  0.47079190  0.18606819  0.45495369  1
  O  O20  1  0.25836050  0.48587784  0.47491927  1
  O  O21  1  0.99185141  0.16454400  0.54768492  1
  O  O22  1  0.21631716  0.50509173  0.71349712  1
  O  O23  1  0.49185141  0.66454400  0.95231508  1
  O  O24  1  0.00814859  0.83545600  0.45231508  1
  O  O25  1  0.71631716  0.00509173  0.78650288  1
  O  O26  1  0.75836050  0.98587784  0.02508073  1
  O  O27  1  0.24163950  0.01412216  0.97491927  1
  O  O28  1  0.53397763  0.34976974  0.79851255  1
  O  O29  1  0.97079190  0.68606819  0.04504631  1
  O  O30  1  0.03397763  0.84976974  0.70148745  1
  O  O31  1  0.96602237  0.15023026  0.29851255  1
