# generated using pymatgen
data_LiAl2Si8H111C42SN6
_symmetry_space_group_name_H-M   'P 1'
_cell_length_a   12.65327003
_cell_length_b   15.35020785
_cell_length_c   21.74505126
_cell_angle_alpha   85.64315155
_cell_angle_beta   83.98911025
_cell_angle_gamma   66.84943869
_symmetry_Int_Tables_number   1
_chemical_formula_structural   LiAl2Si8H111C42SN6
_chemical_formula_sum   'Li2 Al4 Si16 H222 C84 S2 N12'
_cell_volume   3859.29806187
_cell_formula_units_Z   2
loop_
 _symmetry_equiv_pos_site_id
 _symmetry_equiv_pos_as_xyz
  1  'x, y, z'
loop_
 _atom_site_type_symbol
 _atom_site_label
 _atom_site_symmetry_multiplicity
 _atom_site_fract_x
 _atom_site_fract_y
 _atom_site_fract_z
 _atom_site_occupancy
  Li  Li0  1  0.50000000  -0.00000000  0.50000000  1
  Li  Li1  1  -0.00000000  0.50000000  0.00000000  1
  Al  Al2  1  0.75393935  0.16840150  0.77847706  1
  Al  Al3  1  0.24606065  0.83159850  0.22152294  1
  Al  Al4  1  0.67354579  0.37339909  0.71961348  1
  Al  Al5  1  0.32645421  0.62660091  0.28038652  1
  Si  Si6  1  0.95195178  0.04079652  0.66600503  1
  Si  Si7  1  0.04804822  0.95920348  0.33399497  1
  Si  Si8  1  0.04035527  0.04078328  0.79484746  1
  Si  Si9  1  0.95964473  0.95921672  0.20515254  1
  Si  Si10  1  0.68864154  0.09923383  0.93089114  1
  Si  Si11  1  0.31135846  0.90076617  0.06910886  1
  Si  Si12  1  0.59807086  0.04110867  0.81838492  1
  Si  Si13  1  0.40192914  0.95889133  0.18161508  1
  Si  Si14  1  0.91904339  0.41941105  0.67550481  1
  Si  Si15  1  0.08095661  0.58058895  0.32449519  1
  Si  Si16  1  0.76497222  0.40746370  0.57422557  1
  Si  Si17  1  0.23502778  0.59253630  0.42577443  1
  Si  Si18  1  0.39115352  0.50643017  0.71342730  1
  Si  Si19  1  0.60884648  0.49356983  0.28657270  1
  Si  Si20  1  0.52854290  0.59934835  0.77811010  1
  Si  Si21  1  0.47145710  0.40065165  0.22188990  1
  H  H22  1  0.61614816  0.33061940  0.91331989  1
  H  H23  1  0.38385184  0.66938060  0.08668011  1
  H  H24  1  0.56196646  0.42967234  0.86027892  1
  H  H25  1  0.43803354  0.57032766  0.13972108  1
  H  H26  1  0.55436745  0.31975107  0.84548970  1
  H  H27  1  0.44563255  0.68024893  0.15451030  1
  H  H28  1  0.65578262  0.22503299  0.67237624  1
  H  H29  1  0.34421738  0.77496701  0.32762376  1
  H  H30  1  0.55434351  0.26775513  0.73602089  1
  H  H31  1  0.44565649  0.73224487  0.26397911  1
  H  H32  1  0.93782124  0.16855159  0.72623883  1
  H  H33  1  0.06217876  0.83144841  0.27376117  1
  H  H34  1  0.86531499  0.04150275  0.56957169  1
  H  H35  1  0.13468501  0.95849725  0.43042831  1
  H  H36  1  0.75963633  0.05512732  0.63269827  1
  H  H37  1  0.24036367  0.94487268  0.36730173  1
  H  H38  1  0.79275584  0.15356706  0.60362954  1
  H  H39  1  0.20724416  0.84643294  0.39637046  1
  H  H40  1  0.00770792  0.87867703  0.62931002  1
  H  H41  1  0.99229208  0.12132297  0.37068998  1
  H  H42  1  0.08897932  0.87239616  0.69218788  1
  H  H43  1  0.91102068  0.12760384  0.30781212  1
  H  H44  1  0.94369667  0.88376591  0.70604990  1
  H  H45  1  0.05630333  0.11623409  0.29395010  1
  H  H46  1  0.09047718  0.02609222  0.57215168  1
  H  H47  1  0.90952282  0.97390778  0.42784832  1
  H  H48  1  0.03473395  0.14301675  0.59960374  1
  H  H49  1  0.96526605  0.85698325  0.40039626  1
  H  H50  1  0.14609830  0.05104083  0.63753882  1
  H  H51  1  0.85390170  0.94895917  0.36246118  1
  H  H52  1  0.25420690  0.96760722  0.79117213  1
  H  H53  1  0.74579310  0.03239278  0.20882787  1
  H  H54  1  0.21055518  0.93611961  0.72430527  1
  H  H55  1  0.78944482  0.06388039  0.27569473  1
  H  H56  1  0.21180302  0.05109101  0.72840589  1
  H  H57  1  0.78819698  0.94890899  0.27159411  1
  H  H58  1  0.10415471  0.08289062  0.88907451  1
  H  H59  1  0.89584529  0.91710938  0.11092549  1
  H  H60  1  0.08386411  0.17319582  0.83024633  1
  H  H61  1  0.91613589  0.82680418  0.16975367  1
  H  H62  1  0.96258075  0.16575143  0.87545974  1
  H  H63  1  0.03741925  0.83424857  0.12454026  1
  H  H64  1  0.11341150  0.88848360  0.85551321  1
  H  H65  1  0.88658850  0.11151640  0.14448679  1
  H  H66  1  0.96655395  0.95240570  0.88005360  1
  H  H67  1  0.03344605  0.04759430  0.11994640  1
  H  H68  1  0.00390150  0.88905262  0.81068085  1
  H  H69  1  0.99609850  0.11094738  0.18931915  1
  H  H70  1  0.78856330  0.01977571  0.83938443  1
  H  H71  1  0.21143670  0.98022429  0.16061557  1
  H  H72  1  0.72658119  0.99507190  0.02643989  1
  H  H73  1  0.27341881  0.00492810  0.97356011  1
  H  H74  1  0.67853357  0.94238288  0.97126117  1
  H  H75  1  0.32146643  0.05761712  0.02873883  1
  H  H76  1  0.82282903  0.93531675  0.96382739  1
  H  H77  1  0.17717097  0.06468325  0.03617261  1
  H  H78  1  0.75416481  0.16940279  0.01063613  1
  H  H79  1  0.24583519  0.83059721  0.98936387  1
  H  H80  1  0.87239906  0.10468095  0.95908735  1
  H  H81  1  0.12760094  0.89531905  0.04091265  1
  H  H82  1  0.77893820  0.22061831  0.93691553  1
  H  H83  1  0.22106180  0.77938169  0.06308447  1
  H  H84  1  0.47816803  0.13161636  0.95587434  1
  H  H85  1  0.52183197  0.86838364  0.04412566  1
  H  H86  1  0.53245205  0.17859533  0.01119182  1
  H  H87  1  0.46754795  0.82140467  0.98880818  1
  H  H88  1  0.49597485  0.24026658  0.93886781  1
  H  H89  1  0.50402515  0.75973342  0.06113219  1
  H  H90  1  0.51875130  0.91743426  0.84553974  1
  H  H91  1  0.48124870  0.08256574  0.15446026  1
  H  H92  1  0.65392763  0.88247489  0.87698193  1
  H  H93  1  0.34607237  0.11752511  0.12301807  1
  H  H94  1  0.52814076  0.96732808  0.91454753  1
  H  H95  1  0.47185924  0.03267192  0.08545247  1
  H  H96  1  0.39385829  0.10625280  0.79419238  1
  H  H97  1  0.60614171  0.89374720  0.20580762  1
  H  H98  1  0.40905655  0.16644345  0.85694232  1
  H  H99  1  0.59094345  0.83355655  0.14305768  1
  H  H100  1  0.45033958  0.19592135  0.78011204  1
  H  H101  1  0.54966042  0.80407865  0.21988796  1
  H  H102  1  0.58563855  0.95820198  0.72691561  1
  H  H103  1  0.41436145  0.04179802  0.27308439  1
  H  H104  1  0.65634872  0.03697472  0.70417068  1
  H  H105  1  0.34365128  0.96302528  0.29582932  1
  H  H106  1  0.73210206  0.92555348  0.74146187  1
  H  H107  1  0.26789794  0.07444652  0.25853813  1
  H  H108  1  0.85642255  0.29704357  0.65504188  1
  H  H109  1  0.14357745  0.70295643  0.34495812  1
  H  H110  1  0.03894946  0.40831632  0.76067585  1
  H  H111  1  0.96105054  0.59168368  0.23932415  1
  H  H112  1  0.89706251  0.42401686  0.79266431  1
  H  H113  1  0.10293749  0.57598314  0.20733569  1
  H  H114  1  0.99481269  0.31143155  0.76767964  1
  H  H115  1  0.00518731  0.68856845  0.23232036  1
  H  H116  1  0.05556630  0.38986379  0.57805635  1
  H  H117  1  0.94443370  0.61013621  0.42194365  1
  H  H118  1  0.12724396  0.38347397  0.64506111  1
  H  H119  1  0.87275604  0.61652603  0.35493889  1
  H  H120  1  0.09239702  0.28714548  0.62791911  1
  H  H121  1  0.90760298  0.71285452  0.37208089  1
  H  H122  1  0.93841497  0.57278637  0.68417545  1
  H  H123  1  0.06158503  0.42721363  0.31582455  1
  H  H124  1  0.87589016  0.57466024  0.61475638  1
  H  H125  1  0.12410984  0.42533976  0.38524362  1
  H  H126  1  0.78985345  0.59395952  0.68619873  1
  H  H127  1  0.21014655  0.40604048  0.31380127  1
  H  H128  1  0.69289861  0.58343367  0.59471197  1
  H  H129  1  0.30710139  0.41656633  0.40528803  1
  H  H130  1  0.71703875  0.56128067  0.51451937  1
  H  H131  1  0.28296125  0.43871933  0.48548063  1
  H  H132  1  0.59124474  0.55803779  0.55682157  1
  H  H133  1  0.40875526  0.44196221  0.44317843  1
  H  H134  1  0.62208210  0.39056948  0.51112395  1
  H  H135  1  0.37791790  0.60943052  0.48887605  1
  H  H136  1  0.72638279  0.27748088  0.53043405  1
  H  H137  1  0.27361721  0.72251912  0.46956595  1
  H  H138  1  0.61150414  0.33735115  0.58577555  1
  H  H139  1  0.38849586  0.66264885  0.41422445  1
  H  H140  1  0.85788223  0.37877049  0.46721634  1
  H  H141  1  0.14211777  0.62122951  0.53278366  1
  H  H142  1  0.94416135  0.41263199  0.51160624  1
  H  H143  1  0.05583865  0.58736801  0.48839376  1
  H  H144  1  0.94862025  0.29515553  0.51954084  1
  H  H145  1  0.05137975  0.70484447  0.48045916  1
  H  H146  1  0.56278674  0.53240997  0.67992830  1
  H  H147  1  0.43721326  0.46759003  0.32007170  1
  H  H148  1  0.43983394  0.36754066  0.64571416  1
  H  H149  1  0.56016606  0.63245934  0.35428584  1
  H  H150  1  0.30012193  0.45582994  0.63478798  1
  H  H151  1  0.69987807  0.54417006  0.36521202  1
  H  H152  1  0.42427293  0.47239691  0.60015673  1
  H  H153  1  0.57572707  0.52760309  0.39984327  1
  H  H154  1  0.23937572  0.46257975  0.77262055  1
  H  H155  1  0.76062428  0.53742025  0.22737945  1
  H  H156  1  0.37691431  0.37319234  0.78461114  1
  H  H157  1  0.62308569  0.62680766  0.21538886  1
  H  H158  1  0.32770529  0.48003179  0.82499329  1
  H  H159  1  0.67229471  0.51996821  0.17500671  1
  H  H160  1  0.30405162  0.66944216  0.66166023  1
  H  H161  1  0.69594838  0.33055784  0.33833977  1
  H  H162  1  0.19795790  0.62451889  0.68900227  1
  H  H163  1  0.80204210  0.37548111  0.31099773  1
  H  H164  1  0.25438614  0.67517204  0.74112088  1
  H  H165  1  0.74561386  0.32482796  0.25887912  1
  H  H166  1  0.43090874  0.57098609  0.88173703  1
  H  H167  1  0.56909126  0.42901391  0.11826297  1
  H  H168  1  0.40426206  0.69205065  0.86443349  1
  H  H169  1  0.59573794  0.30794935  0.13556651  1
  H  H170  1  0.32587342  0.63792187  0.82994712  1
  H  H171  1  0.67412658  0.36207813  0.17005288  1
  H  H172  1  0.64396988  0.63872519  0.84788251  1
  H  H173  1  0.35603012  0.36127481  0.15211749  1
  H  H174  1  0.69229290  0.51284392  0.84585370  1
  H  H175  1  0.30770710  0.48715608  0.15414630  1
  H  H176  1  0.73522337  0.57705997  0.78411038  1
  H  H177  1  0.26477663  0.42294003  0.21588962  1
  H  H178  1  0.48795738  0.77277009  0.76464604  1
  H  H179  1  0.51204262  0.22722991  0.23535396  1
  H  H180  1  0.56897104  0.71164323  0.69827718  1
  H  H181  1  0.43102896  0.28835677  0.30172282  1
  H  H182  1  0.41821462  0.73905410  0.70957300  1
  H  H183  1  0.58178538  0.26094590  0.29042700  1
  H  H184  1  0.54324044  0.86678842  0.61417245  1
  H  H185  1  0.45675956  0.13321158  0.38582755  1
  H  H186  1  0.60392332  0.75883433  0.57258190  1
  H  H187  1  0.39607668  0.24116567  0.42741810  1
  H  H188  1  0.29479642  0.87635224  0.53982144  1
  H  H189  1  0.70520358  0.12364776  0.46017856  1
  H  H190  1  0.39637557  0.76981363  0.57246620  1
  H  H191  1  0.60362443  0.23018637  0.42753380  1
  H  H192  1  0.34868447  0.87835049  0.61195600  1
  H  H193  1  0.65131553  0.12164951  0.38804400  1
  H  H194  1  0.74338574  0.86284179  0.44835641  1
  H  H195  1  0.25661426  0.13715821  0.55164359  1
  H  H196  1  0.72124425  0.75682614  0.47415612  1
  H  H197  1  0.27875575  0.24317386  0.52584388  1
  H  H198  1  0.72684181  0.88242789  0.61393625  1
  H  H199  1  0.27315819  0.11757211  0.38606375  1
  H  H200  1  0.79512611  0.77032661  0.57834822  1
  H  H201  1  0.20487389  0.22967339  0.42165178  1
  H  H202  1  0.81421583  0.87260312  0.54296086  1
  H  H203  1  0.18578417  0.12739688  0.45703914  1
  H  H204  1  0.52897353  0.75557291  0.47324320  1
  H  H205  1  0.47102647  0.24442709  0.52675680  1
  H  H206  1  0.41509888  0.86072071  0.44617840  1
  H  H207  1  0.58490112  0.13927929  0.55382160  1
  H  H208  1  0.52054373  0.86695595  0.35256983  1
  H  H209  1  0.47945627  0.13304405  0.64743017  1
  H  H210  1  0.65270095  0.88320110  0.35031599  1
  H  H211  1  0.34729905  0.11679890  0.64968401  1
  H  H212  1  0.64994009  0.76863544  0.36899942  1
  H  H213  1  0.35005991  0.23136456  0.63100058  1
  H  H214  1  0.95121543  0.37516775  0.91465470  1
  H  H215  1  0.04878457  0.62483225  0.08534530  1
  H  H216  1  0.96940462  0.27917222  0.97070276  1
  H  H217  1  0.03059538  0.72082778  0.02929724  1
  H  H218  1  0.70605105  0.50078229  0.01578100  1
  H  H219  1  0.29394895  0.49921771  0.98421900  1
  H  H220  1  0.75692032  0.44526759  0.94337099  1
  H  H221  1  0.24307968  0.55473241  0.05662901  1
  H  H222  1  0.74144185  0.37653686  0.01096938  1
  H  H223  1  0.25855815  0.62346314  0.98903062  1
  H  H224  1  0.19441873  0.31834882  0.04365517  1
  H  H225  1  0.80558127  0.68165118  0.95634483  1
  H  H226  1  0.11318607  0.24476433  0.04535021  1
  H  H227  1  0.88681393  0.75523567  0.95464979  1
  H  H228  1  0.25406932  0.30634472  0.93439568  1
  H  H229  1  0.74593068  0.69365528  0.06560432  1
  H  H230  1  0.19142640  0.22112851  0.93051371  1
  H  H231  1  0.80857360  0.77887149  0.06948629  1
  H  H232  1  0.14954610  0.32497134  0.88067656  1
  H  H233  1  0.85045390  0.67502866  0.11932344  1
  H  H234  1  0.90333966  0.31699594  0.07899968  1
  H  H235  1  0.09666034  0.68300406  0.92100032  1
  H  H236  1  0.84338982  0.43905722  0.09987070  1
  H  H237  1  0.15661018  0.56094278  0.90012930  1
  H  H238  1  0.04581029  0.28955644  0.15798811  1
  H  H239  1  0.95418971  0.71044356  0.84201189  1
  H  H240  1  0.13388127  0.35745040  0.14896111  1
  H  H241  1  0.86611873  0.64254960  0.85103889  1
  H  H242  1  0.98449364  0.41324125  0.17306738  1
  H  H243  1  0.01550636  0.58675875  0.82693262  1
  C  C244  1  0.60661465  0.35243663  0.86429897  1
  C  C245  1  0.39338535  0.64756337  0.13570103  1
  C  C246  1  0.64450678  0.25386006  0.71856882  1
  C  C247  1  0.35549322  0.74613994  0.28143118  1
  C  C248  1  0.92213812  0.10341380  0.74141252  1
  C  C249  1  0.07786188  0.89658620  0.25858748  1
  C  C250  1  0.82975287  0.07687630  0.61371593  1
  C  C251  1  0.17024713  0.92312370  0.38628407  1
  C  C252  1  0.00290569  0.90691419  0.67506069  1
  C  C253  1  0.99709431  0.09308581  0.32493931  1
  C  C254  1  0.06724264  0.06748547  0.61424951  1
  C  C255  1  0.93275736  0.93251453  0.38575049  1
  C  C256  1  0.19270304  0.99454680  0.75519729  1
  C  C257  1  0.80729696  0.00545320  0.24480271  1
  C  C258  1  0.04735701  0.12354109  0.85297356  1
  C  C259  1  0.95264299  0.87645891  0.14702644  1
  C  C260  1  0.02853468  0.93311468  0.83913787  1
  C  C261  1  0.97146532  0.06688532  0.16086213  1
  C  C262  1  0.70685543  0.08338590  0.84461081  1
  C  C263  1  0.29314457  0.91661410  0.15538919  1
  C  C264  1  0.73275391  0.98167720  0.97686757  1
  C  C265  1  0.26724609  0.01832280  0.02313243  1
  C  C266  1  0.78176141  0.15469004  0.96141692  1
  C  C267  1  0.21823859  0.84530996  0.03858308  1
  C  C268  1  0.53420768  0.16956471  0.96130306  1
  C  C269  1  0.46579232  0.83043529  0.03869694  1
  C  C270  1  0.57307751  0.94337129  0.86915719  1
  C  C271  1  0.42692249  0.05662871  0.13084281  1
  C  C272  1  0.44946722  0.13708594  0.81187684  1
  C  C273  1  0.55053278  0.86291406  0.18812316  1
  C  C274  1  0.64814492  0.98553753  0.74026668  1
  C  C275  1  0.35185508  0.01446247  0.25973332  1
  C  C276  1  0.80688292  0.37506540  0.65650663  1
  C  C277  1  0.19311708  0.62493460  0.34349337  1
  C  C278  1  0.96541359  0.38805315  0.75704005  1
  C  C279  1  0.03458641  0.61194685  0.24295995  1
  C  C280  1  0.06120169  0.36495333  0.62670123  1
  C  C281  1  0.93879831  0.63504667  0.37329877  1
  C  C282  1  0.87546774  0.55246531  0.66400952  1
  C  C283  1  0.12453226  0.44753469  0.33599048  1
  C  C284  1  0.68380872  0.53995030  0.55946540  1
  C  C285  1  0.31619128  0.46004970  0.44053460  1
  C  C286  1  0.67222933  0.34726528  0.54890284  1
  C  C287  1  0.32777067  0.65273472  0.45109716  1
  C  C288  1  0.89148962  0.37014802  0.51298740  1
  C  C289  1  0.10851038  0.62985198  0.48701260  1
  C  C290  1  0.53817404  0.50390157  0.72524863  1
  C  C291  1  0.46182596  0.49609843  0.27475137  1
  C  C292  1  0.38968814  0.44426081  0.64190182  1
  C  C293  1  0.61031186  0.55573919  0.35809818  1
  C  C294  1  0.32888063  0.45022678  0.78045261  1
  C  C295  1  0.67111937  0.54977322  0.21954739  1
  C  C296  1  0.27737489  0.63064303  0.70068282  1
  C  C297  1  0.72262511  0.36935697  0.29931718  1
  C  C298  1  0.41114753  0.62603320  0.84442113  1
  C  C299  1  0.58885247  0.37396680  0.15557887  1
  C  C300  1  0.66314038  0.57908368  0.81758156  1
  C  C301  1  0.33685962  0.42091632  0.18241844  1
  C  C302  1  0.49771196  0.71652884  0.73329891  1
  C  C303  1  0.50228804  0.28347116  0.26670109  1
  C  C304  1  0.56660338  0.83797478  0.56759737  1
  C  C305  1  0.43339662  0.16202522  0.43240263  1
  C  C306  1  0.37130627  0.84746034  0.56623676  1
  C  C307  1  0.62869373  0.15253966  0.43376324  1
  C  C308  1  0.68085918  0.83603918  0.47255857  1
  C  C309  1  0.31914082  0.16396082  0.52744143  1
  C  C310  1  0.75191944  0.84784724  0.56941468  1
  C  C311  1  0.24808056  0.15215276  0.43058532  1
  C  C312  1  0.49335894  0.83478433  0.47130992  1
  C  C313  1  0.50664106  0.16521567  0.52869008  1
  C  C314  1  0.60158026  0.84566882  0.37451989  1
  C  C315  1  0.39841974  0.15433118  0.62548011  1
  C  C316  1  0.97028157  0.35161169  0.96272338  1
  C  C317  1  0.02971843  0.64838831  0.03727662  1
  C  C318  1  0.76599016  0.43607720  0.99327453  1
  C  C319  1  0.23400984  0.56392280  0.00672547  1
  C  C320  1  0.10956683  0.31854004  0.03636098  1
  C  C321  1  0.89043317  0.68145996  0.96363902  1
  C  C322  1  0.17415895  0.29772970  0.92737592  1
  C  C323  1  0.82584105  0.70227030  0.07262408  1
  C  C324  1  0.90821523  0.38790746  0.06856426  1
  C  C325  1  0.09178477  0.61209254  0.93143574  1
  C  C326  1  0.04792486  0.35957341  0.14297734  1
  C  C327  1  0.95207514  0.64042659  0.85702266  1
  S  S328  1  0.74909159  0.31679831  0.82248532  1
  S  S329  1  0.25090841  0.68320169  0.17751468  1
  N  N330  1  0.46321111  0.87246497  0.53352191  1
  N  N331  1  0.53678889  0.12753503  0.46647809  1
  N  N332  1  0.64988355  0.87324564  0.53491251  1
  N  N333  1  0.35011645  0.12675436  0.46508749  1
  N  N334  1  0.57606929  0.87134337  0.43953317  1
  N  N335  1  0.42393071  0.12865663  0.56046683  1
  N  N336  1  0.88449152  0.41993154  0.00449655  1
  N  N337  1  0.11550848  0.58006846  0.99550345  1
  N  N338  1  0.08268409  0.35217916  0.97288351  1
  N  N339  1  0.91731591  0.64782084  0.02711649  1
  N  N340  1  0.02224118  0.38510559  0.07842792  1
  N  N341  1  0.97775882  0.61489441  0.92157208  1
