# generated using pymatgen
data_Y(CrS2)2
_symmetry_space_group_name_H-M   'P 1'
_cell_length_a   7.66350153
_cell_length_b   7.29808263
_cell_length_c   7.30209219
_cell_angle_alpha   87.95927291
_cell_angle_beta   121.72272428
_cell_angle_gamma   121.80307279
_symmetry_Int_Tables_number   1
_chemical_formula_structural   Y(CrS2)2
_chemical_formula_sum   'Y2 Cr4 S8'
_cell_volume   278.26889123
_cell_formula_units_Z   2
loop_
 _symmetry_equiv_pos_site_id
 _symmetry_equiv_pos_as_xyz
  1  'x, y, z'
loop_
 _atom_site_type_symbol
 _atom_site_label
 _atom_site_symmetry_multiplicity
 _atom_site_fract_x
 _atom_site_fract_y
 _atom_site_fract_z
 _atom_site_occupancy
  Y  Y0  1  0.00001073  0.00002208  0.99995196  1
  Y  Y1  1  0.50000072  0.00001722  0.99998034  1
  Cr  Cr2  1  0.49984779  0.99994253  0.49996398  1
  Cr  Cr3  1  0.50005152  0.49998819  0.49997623  1
  Cr  Cr4  1  0.00008034  0.49999374  0.00008146  1
  Cr  Cr5  1  0.00006516  0.50004382  0.50004418  1
  S  S6  1  0.03305272  0.73533596  0.26312695  1
  S  S7  1  0.48075424  0.73914209  0.72419442  1
  S  S8  1  0.46711887  0.73671858  0.26520924  1
  S  S9  1  0.98132828  0.72389387  0.73871884  1
  S  S10  1  0.53293769  0.26334275  0.73483968  1
  S  S11  1  0.51925052  0.26086403  0.27579025  1
  S  S12  1  0.01872311  0.27606646  0.26134420  1
  S  S13  1  0.96682531  0.26459568  0.73682027  1
