# generated using pymatgen
data_CaBiAsO5
_symmetry_space_group_name_H-M   'P 1'
_cell_length_a   7.34522179
_cell_length_b   7.09862628
_cell_length_c   9.43625979
_cell_angle_alpha   89.99604140
_cell_angle_beta   90.00137741
_cell_angle_gamma   89.99901139
_symmetry_Int_Tables_number   1
_chemical_formula_structural   CaBiAsO5
_chemical_formula_sum   'Ca4 Bi4 As4 O20'
_cell_volume   492.01587355
_cell_formula_units_Z   4
loop_
 _symmetry_equiv_pos_site_id
 _symmetry_equiv_pos_as_xyz
  1  'x, y, z'
loop_
 _atom_site_type_symbol
 _atom_site_label
 _atom_site_symmetry_multiplicity
 _atom_site_fract_x
 _atom_site_fract_y
 _atom_site_fract_z
 _atom_site_occupancy
  Ca  Ca0  1  0.05912446  0.74507861  0.09040691  1
  Ca  Ca1  1  0.44088180  0.25489822  0.59039335  1
  Ca  Ca2  1  0.55911112  0.75491917  0.90959599  1
  Ca  Ca3  1  0.94088376  0.24508555  0.40960717  1
  Bi  Bi4  1  0.02738917  0.48657221  0.76265146  1
  Bi  Bi5  1  0.47263940  0.51338869  0.26266138  1
  Bi  Bi6  1  0.52736899  0.01338712  0.23732928  1
  Bi  Bi7  1  0.97261401  0.98657055  0.73736152  1
  As  As8  1  0.60891888  0.30101703  0.92156665  1
  As  As9  1  0.89107754  0.69887336  0.42157243  1
  As  As10  1  0.10893585  0.19904692  0.07841883  1
  As  As11  1  0.39107543  0.80113541  0.57843075  1
  O  O12  1  0.79362210  0.27657427  0.80467581  1
  O  O13  1  0.70638939  0.72340761  0.30467487  1
  O  O14  1  0.29362002  0.22341352  0.19532447  1
  O  O15  1  0.20636754  0.77656614  0.69531663  1
  O  O16  1  0.44727413  0.40621188  0.81673744  1
  O  O17  1  0.05272396  0.59380946  0.31676276  1
  O  O18  1  0.94725639  0.09379922  0.18326866  1
  O  O19  1  0.55269835  0.90619592  0.68323895  1
  O  O20  1  0.57194067  0.07776630  0.98410074  1
  O  O21  1  0.92805018  0.92230864  0.48413483  1
  O  O22  1  0.07195920  0.42222838  0.01590377  1
  O  O23  1  0.42806689  0.57768763  0.51586652  1
  O  O24  1  0.64860898  0.45981301  0.05648168  1
  O  O25  1  0.85140345  0.54021825  0.55646653  1
  O  O26  1  0.14860238  0.04019967  0.94351451  1
  O  O27  1  0.35139218  0.95977534  0.44352913  1
  O  O28  1  0.87750845  0.73528643  0.87960168  1
  O  O29  1  0.62248668  0.26474635  0.37959651  1
  O  O30  1  0.37751793  0.76474873  0.12040554  1
  O  O31  1  0.12249272  0.23527240  0.62040126  1
