# generated using pymatgen
data_Ba2YNi3O7
_symmetry_space_group_name_H-M   'P 1'
_cell_length_a   3.90940762
_cell_length_b   3.95470240
_cell_length_c   11.54760249
_cell_angle_alpha   89.99941744
_cell_angle_beta   89.99899788
_cell_angle_gamma   90.04713212
_symmetry_Int_Tables_number   1
_chemical_formula_structural   Ba2YNi3O7
_chemical_formula_sum   'Ba2 Y1 Ni3 O7'
_cell_volume   178.53215226
_cell_formula_units_Z   1
loop_
 _symmetry_equiv_pos_site_id
 _symmetry_equiv_pos_as_xyz
  1  'x, y, z'
loop_
 _atom_site_type_symbol
 _atom_site_label
 _atom_site_symmetry_multiplicity
 _atom_site_fract_x
 _atom_site_fract_y
 _atom_site_fract_z
 _atom_site_occupancy
  Ba  Ba0  1  0.49999521  0.50000400  0.81734902  1
  Ba  Ba1  1  0.50000540  0.50000419  0.18229445  1
  Y  Y2  1  0.49999955  0.49999464  0.49992069  1
  Ni  Ni3  1  0.00000331  0.99998656  0.65799755  1
  Ni  Ni4  1  -0.00000288  0.00000310  0.34206448  1
  Ni  Ni5  1  -0.00000017  0.00000523  -0.00004272  1
  O  O6  1  0.99999931  0.50000720  0.00003228  1
  O  O7  1  0.50000281  0.99999226  0.62397040  1
  O  O8  1  0.49999922  0.00000011  0.37626953  1
  O  O9  1  0.00000018  0.49998999  0.62351536  1
  O  O10  1  0.99999953  0.49999590  0.37660882  1
  O  O11  1  0.99998378  0.00001592  0.83610144  1
  O  O12  1  0.00001375  0.00000189  0.16391970  1
