# generated using pymatgen
data_USnPt2
_symmetry_space_group_name_H-M   'P 1'
_cell_length_a   4.19367194
_cell_length_b   4.19367194
_cell_length_c   11.47988713
_cell_angle_alpha   90.00000000
_cell_angle_beta   90.00000000
_cell_angle_gamma   119.73269165
_symmetry_Int_Tables_number   1
_chemical_formula_structural   USnPt2
_chemical_formula_sum   'U2 Sn2 Pt4'
_cell_volume   175.31564445
_cell_formula_units_Z   2
loop_
 _symmetry_equiv_pos_site_id
 _symmetry_equiv_pos_as_xyz
  1  'x, y, z'
loop_
 _atom_site_type_symbol
 _atom_site_label
 _atom_site_symmetry_multiplicity
 _atom_site_fract_x
 _atom_site_fract_y
 _atom_site_fract_z
 _atom_site_occupancy
  U  U0  1  0.00000000  -0.00000000  0.50000000  1
  U  U1  1  0.00000000  -0.00000000  0.00000000  1
  Sn  Sn2  1  0.66862040  0.33137960  0.75000000  1
  Sn  Sn3  1  0.33137960  0.66862040  0.25000000  1
  Pt  Pt4  1  0.66527442  0.33472558  0.12701939  1
  Pt  Pt5  1  0.33472558  0.66527442  0.87298061  1
  Pt  Pt6  1  0.33472558  0.66527442  0.62701939  1
  Pt  Pt7  1  0.66527442  0.33472558  0.37298061  1
