# generated using pymatgen
data_Mn2FeP2O11
_symmetry_space_group_name_H-M   'P 1'
_cell_length_a   7.86821474
_cell_length_b   9.67699310
_cell_length_c   9.39875588
_cell_angle_alpha   90.00000000
_cell_angle_beta   90.00000000
_cell_angle_gamma   90.00000000
_symmetry_Int_Tables_number   1
_chemical_formula_structural   Mn2FeP2O11
_chemical_formula_sum   'Mn8 Fe4 P8 O44'
_cell_volume   715.62747352
_cell_formula_units_Z   4
loop_
 _symmetry_equiv_pos_site_id
 _symmetry_equiv_pos_as_xyz
  1  'x, y, z'
loop_
 _atom_site_type_symbol
 _atom_site_label
 _atom_site_symmetry_multiplicity
 _atom_site_fract_x
 _atom_site_fract_y
 _atom_site_fract_z
 _atom_site_occupancy
  Mn  Mn0  1  0.63713982  0.95685939  0.61704573  1
  Mn  Mn1  1  0.86286018  0.54314061  0.11704573  1
  Mn  Mn2  1  0.13713982  0.54314061  0.38295427  1
  Mn  Mn3  1  0.36286018  0.95685939  0.88295427  1
  Mn  Mn4  1  0.36286018  0.04314061  0.38295427  1
  Mn  Mn5  1  0.13713982  0.45685939  0.88295427  1
  Mn  Mn6  1  0.86286018  0.45685939  0.61704573  1
  Mn  Mn7  1  0.63713982  0.04314061  0.11704573  1
  Fe  Fe8  1  0.00000000  -0.00000000  0.50000000  1
  Fe  Fe9  1  0.50000000  0.50000000  0.00000000  1
  Fe  Fe10  1  0.50000000  0.50000000  0.50000000  1
  Fe  Fe11  1  -0.00000000  -0.00000000  0.00000000  1
  P  P12  1  0.28389956  0.79148923  0.60830423  1
  P  P13  1  0.21610044  0.70851077  0.10830423  1
  P  P14  1  0.78389956  0.70851077  0.39169577  1
  P  P15  1  0.71610044  0.79148923  0.89169577  1
  P  P16  1  0.71610044  0.20851077  0.39169577  1
  P  P17  1  0.78389956  0.29148923  0.89169577  1
  P  P18  1  0.21610044  0.29148923  0.60830423  1
  P  P19  1  0.28389956  0.20851077  0.10830423  1
  O  O20  1  0.33172606  0.79651794  0.76801299  1
  O  O21  1  0.16827394  0.70348206  0.26801299  1
  O  O22  1  0.83172606  0.70348206  0.23198701  1
  O  O23  1  0.66827394  0.79651794  0.73198701  1
  O  O24  1  0.66827394  0.20348206  0.23198701  1
  O  O25  1  0.83172606  0.29651794  0.73198701  1
  O  O26  1  0.16827394  0.29651794  0.76801299  1
  O  O27  1  0.33172606  0.20348206  0.26801299  1
  O  O28  1  0.41423690  0.88842389  0.52610052  1
  O  O29  1  0.08576310  0.61157611  0.02610052  1
  O  O30  1  0.91423690  0.61157611  0.47389948  1
  O  O31  1  0.58576310  0.88842389  0.97389948  1
  O  O32  1  0.58576310  0.11157611  0.47389948  1
  O  O33  1  0.91423690  0.38842389  0.97389948  1
  O  O34  1  0.08576310  0.38842389  0.52610052  1
  O  O35  1  0.41423690  0.11157611  0.02610052  1
  O  O36  1  0.29572537  0.64014327  0.55409809  1
  O  O37  1  0.20427463  0.85985673  0.05409809  1
  O  O38  1  0.79572537  0.85985673  0.44590191  1
  O  O39  1  0.70427463  0.64014327  0.94590191  1
  O  O40  1  0.70427463  0.35985673  0.44590191  1
  O  O41  1  0.79572537  0.14014327  0.94590191  1
  O  O42  1  0.20427463  0.14014327  0.55409809  1
  O  O43  1  0.29572537  0.35985673  0.05409809  1
  O  O44  1  0.10249917  0.84393361  0.58800369  1
  O  O45  1  0.39750083  0.65606639  0.08800369  1
  O  O46  1  0.60249917  0.65606639  0.41199631  1
  O  O47  1  0.89750083  0.84393361  0.91199631  1
  O  O48  1  0.89750083  0.15606639  0.41199631  1
  O  O49  1  0.60249917  0.34393361  0.91199631  1
  O  O50  1  0.39750083  0.34393361  0.58800369  1
  O  O51  1  0.10249917  0.15606639  0.08800369  1
  O  O52  1  0.50000000  0.04560412  0.75000000  1
  O  O53  1  0.00000000  0.45439588  0.25000000  1
  O  O54  1  0.50000000  0.95439588  0.25000000  1
  O  O55  1  -0.00000000  0.54560412  0.75000000  1
  O  O56  1  0.15491463  0.02489548  0.84645248  1
  O  O57  1  0.34508537  0.47510452  0.34645248  1
  O  O58  1  0.65491463  0.47510452  0.15354752  1
  O  O59  1  0.84508537  0.02489548  0.65354752  1
  O  O60  1  0.84508537  0.97510452  0.15354752  1
  O  O61  1  0.65491463  0.52489548  0.65354752  1
  O  O62  1  0.34508537  0.52489548  0.84645248  1
  O  O63  1  0.15491463  0.97510452  0.34645248  1
