# generated using pymatgen
data_Sr4Ca4TiMn7O24
_symmetry_space_group_name_H-M   'P 1'
_cell_length_a   7.70135756
_cell_length_b   7.70349575
_cell_length_c   7.70135756
_cell_angle_alpha   90.01856462
_cell_angle_beta   89.99614607
_cell_angle_gamma   90.01856462
_symmetry_Int_Tables_number   1
_chemical_formula_structural   Sr4Ca4TiMn7O24
_chemical_formula_sum   'Sr4 Ca4 Ti1 Mn7 O24'
_cell_volume   456.90128035
_cell_formula_units_Z   1
loop_
 _symmetry_equiv_pos_site_id
 _symmetry_equiv_pos_as_xyz
  1  'x, y, z'
loop_
 _atom_site_type_symbol
 _atom_site_label
 _atom_site_symmetry_multiplicity
 _atom_site_fract_x
 _atom_site_fract_y
 _atom_site_fract_z
 _atom_site_occupancy
  Sr  Sr0  1  0.25185255  0.24815782  0.24834937  1
  Sr  Sr1  1  0.25170410  0.24808504  0.75170410  1
  Sr  Sr2  1  0.74834937  0.24815782  0.75185255  1
  Sr  Sr3  1  0.74820139  0.75190306  0.24820139  1
  Ca  Ca4  1  0.25219864  0.75235086  0.24749326  1
  Ca  Ca5  1  0.25247464  0.75234239  0.75247464  1
  Ca  Ca6  1  0.74770614  0.24775867  0.24770614  1
  Ca  Ca7  1  0.74749326  0.75235086  0.75219864  1
  Ti  Ti8  1  0.00000329  0.50260658  0.50000329  1
  Mn  Mn9  1  0.99994571  0.99918339  0.00010885  1
  Mn  Mn10  1  0.99994557  0.99963836  0.49994557  1
  Mn  Mn11  1  0.99991886  0.50120903  0.00007078  1
  Mn  Mn12  1  0.50006772  0.99911522  0.00006772  1
  Mn  Mn13  1  0.50010885  0.99918339  0.49994571  1
  Mn  Mn14  1  0.50009774  0.50094547  0.00009774  1
  Mn  Mn15  1  0.50007078  0.50120903  0.49991886  1
  O  O16  1  0.25017585  0.99336432  -0.00000229  1
  O  O17  1  0.24990287  0.99314245  0.49994160  1
  O  O18  1  0.24987925  0.50666957  0.00001154  1
  O  O19  1  0.25267167  0.50452469  0.49997094  1
  O  O20  1  0.74984010  0.99907057  -0.00001875  1
  O  O21  1  0.75005353  0.99922424  0.50006757  1
  O  O22  1  0.75011882  0.50069991  -0.00002370  1
  O  O23  1  0.74733263  0.50131659  0.50005665  1
  O  O24  1  0.99703704  0.25002904  0.00303511  1
  O  O25  1  0.99830176  0.24727317  0.49830176  1
  O  O26  1  0.00290319  0.74986884  0.99701606  1
  O  O27  1  0.00152056  0.75266458  0.50152056  1
  O  O28  1  0.50286710  0.24983613  0.00286710  1
  O  O29  1  0.50303511  0.25002904  0.49703704  1
  O  O30  1  0.49720232  0.75020870  0.99720232  1
  O  O31  1  0.49701606  0.74986884  0.50290319  1
  O  O32  1  0.00006757  0.99922424  0.25005353  1
  O  O33  1  0.99994160  0.99314245  0.74990287  1
  O  O34  1  0.00005665  0.50131659  0.24733263  1
  O  O35  1  0.99997094  0.50452469  0.75267167  1
  O  O36  1  0.49998125  0.99907057  0.24984010  1
  O  O37  1  0.49999771  0.99336432  0.75017585  1
  O  O38  1  0.49997630  0.50069991  0.25011882  1
  O  O39  1  0.50001154  0.50666957  0.74987925  1
