# generated using pymatgen
data_LaSmCo2O5
_symmetry_space_group_name_H-M   'P 1'
_cell_length_a   10.83864712
_cell_length_b   11.55099599
_cell_length_c   17.41990968
_cell_angle_alpha   109.39896111
_cell_angle_beta   108.12266010
_cell_angle_gamma   90.02367432
_symmetry_Int_Tables_number   1
_chemical_formula_structural   LaSmCo2O5
_chemical_formula_sum   'La16 Sm16 Co32 O80'
_cell_volume   1941.92980028
_cell_formula_units_Z   16
loop_
 _symmetry_equiv_pos_site_id
 _symmetry_equiv_pos_as_xyz
  1  'x, y, z'
loop_
 _atom_site_type_symbol
 _atom_site_label
 _atom_site_symmetry_multiplicity
 _atom_site_fract_x
 _atom_site_fract_y
 _atom_site_fract_z
 _atom_site_occupancy
  La  La0  1  0.30699893  0.06519545  0.60938503  1
  La  La1  1  0.30878561  0.56816940  0.61219997  1
  La  La2  1  0.80564279  0.06587669  0.61012892  1
  La  La3  1  0.80610886  0.56776608  0.61258923  1
  La  La4  1  0.19535479  0.43328758  0.38737280  1
  La  La5  1  0.19398617  0.43701534  0.89106203  1
  La  La6  1  0.69421775  0.43320511  0.38758428  1
  La  La7  1  0.69094884  0.93146544  0.38619425  1
  La  La8  1  0.05682606  0.29380205  0.61042354  1
  La  La9  1  0.05492156  0.79558389  0.61170944  1
  La  La10  1  0.55783393  0.29555682  0.61233921  1
  La  La11  1  0.44354748  0.20376168  0.38662789  1
  La  La12  1  0.44701349  0.20593631  0.89009871  1
  La  La13  1  0.94505871  0.20413484  0.38637901  1
  La  La14  1  0.94403472  0.20521039  0.89011569  1
  La  La15  1  0.94510574  0.70603753  0.38738094  1
  Sm  Sm16  1  0.30103256  0.06809269  0.10795565  1
  Sm  Sm17  1  0.30237493  0.56874531  0.11177449  1
  Sm  Sm18  1  0.80036245  0.06585460  0.10683322  1
  Sm  Sm19  1  0.80146927  0.56834081  0.10858741  1
  Sm  Sm20  1  0.19535597  0.92994051  0.38852463  1
  Sm  Sm21  1  0.19357627  0.93196421  0.89289560  1
  Sm  Sm22  1  0.69518084  0.43548746  0.89222733  1
  Sm  Sm23  1  0.69254991  0.93024931  0.89059417  1
  Sm  Sm24  1  0.05161523  0.29101023  0.10918148  1
  Sm  Sm25  1  0.04955254  0.79201053  0.10969462  1
  Sm  Sm26  1  0.55152122  0.29144698  0.10880736  1
  Sm  Sm27  1  0.55134404  0.79047660  0.10790428  1
  Sm  Sm28  1  0.55401950  0.79117349  0.60895465  1
  Sm  Sm29  1  0.44367874  0.70933011  0.39077892  1
  Sm  Sm30  1  0.44577458  0.71029018  0.89328450  1
  Sm  Sm31  1  0.94155364  0.71116183  0.89405126  1
  Co  Co32  1  0.00483385  0.99954250  0.00147333  1
  Co  Co33  1  0.00448102  0.99932895  0.49795548  1
  Co  Co34  1  0.00573695  0.50167910  0.00222159  1
  Co  Co35  1  0.00498563  0.49974646  0.49961614  1
  Co  Co36  1  0.50606158  0.99962025  0.00131452  1
  Co  Co37  1  0.50462145  0.99913288  0.49947612  1
  Co  Co38  1  0.50642072  0.50130810  0.00184375  1
  Co  Co39  1  0.50442667  0.50000359  0.49872620  1
  Co  Co40  1  0.25630657  0.25185410  0.00216057  1
  Co  Co41  1  0.25489816  0.24842190  0.49839396  1
  Co  Co42  1  0.25563213  0.75160824  0.00219576  1
  Co  Co43  1  0.25510380  0.74943904  0.49934431  1
  Co  Co44  1  0.75612747  0.25099902  0.00168673  1
  Co  Co45  1  0.75437871  0.25002331  0.49928422  1
  Co  Co46  1  0.75418414  0.74948712  0.00070620  1
  Co  Co47  1  0.75383215  0.74941752  0.49907685  1
  Co  Co48  1  0.10502159  0.08966190  0.24668688  1
  Co  Co49  1  0.10966149  0.09258514  0.75258940  1
  Co  Co50  1  0.10687170  0.59353382  0.24667802  1
  Co  Co51  1  0.10865057  0.59792017  0.75336643  1
  Co  Co52  1  0.60443181  0.09066194  0.24551719  1
  Co  Co53  1  0.60875048  0.09162902  0.75166800  1
  Co  Co54  1  0.60264318  0.59226447  0.24646130  1
  Co  Co55  1  0.60889769  0.59775548  0.75337931  1
  Co  Co56  1  0.35523000  0.40709454  0.24694141  1
  Co  Co57  1  0.36109296  0.40973798  0.75260291  1
  Co  Co58  1  0.35321395  0.90343624  0.24714127  1
  Co  Co59  1  0.36026169  0.90493287  0.75270261  1
  Co  Co60  1  0.85491398  0.40481835  0.24551569  1
  Co  Co61  1  0.85714404  0.41050928  0.75348416  1
  Co  Co62  1  0.85668500  0.90443295  0.24607446  1
  Co  Co63  1  0.85555676  0.90465012  0.75257211  1
  O  O64  1  0.11896109  0.11464047  0.47869344  1
  O  O65  1  0.11949592  0.11803987  0.98345011  1
  O  O66  1  0.11901557  0.61882946  0.48213799  1
  O  O67  1  0.11457882  0.62282424  0.98204805  1
  O  O68  1  0.61790711  0.11823720  0.48186162  1
  O  O69  1  0.61945471  0.11711244  0.98247518  1
  O  O70  1  0.61474416  0.62131731  0.48079385  1
  O  O71  1  0.61873788  0.62049750  0.97937759  1
  O  O72  1  0.13866500  0.38402601  0.02549471  1
  O  O73  1  0.13667870  0.38078550  0.51730740  1
  O  O74  1  0.13591571  0.88193227  0.02136715  1
  O  O75  1  0.13656378  0.88085418  0.51519921  1
  O  O76  1  0.63830892  0.38342464  0.02280967  1
  O  O77  1  0.63681070  0.38268364  0.51807700  1
  O  O78  1  0.63757263  0.87698163  0.01971589  1
  O  O79  1  0.63361459  0.87828402  0.51903595  1
  O  O80  1  0.36405976  0.10745714  0.47778689  1
  O  O81  1  0.36535651  0.10934495  0.98167691  1
  O  O82  1  0.37079372  0.61629054  0.48082822  1
  O  O83  1  0.37101449  0.61593761  0.98293998  1
  O  O84  1  0.86817284  0.11308961  0.48136583  1
  O  O85  1  0.86439852  0.10780048  0.98069447  1
  O  O86  1  0.86820216  0.61341098  0.48198152  1
  O  O87  1  0.86412241  0.61317499  0.98054216  1
  O  O88  1  0.38879919  0.39241777  0.02513408  1
  O  O89  1  0.38650967  0.38668703  0.51779589  1
  O  O90  1  0.38693296  0.88960480  0.02089351  1
  O  O91  1  0.38776684  0.88285880  0.51620095  1
  O  O92  1  0.88627526  0.39155019  0.02223872  1
  O  O93  1  0.88648901  0.38645866  0.51774637  1
  O  O94  1  0.88408335  0.88607438  0.02017614  1
  O  O95  1  0.88580701  0.88568425  0.51634289  1
  O  O96  1  0.10217163  0.11587014  0.14170612  1
  O  O97  1  0.09152668  0.11039258  0.64229157  1
  O  O98  1  0.10183561  0.61785414  0.14088984  1
  O  O99  1  0.09079785  0.61401735  0.64250504  1
  O  O100  1  0.60170828  0.11582248  0.14047837  1
  O  O101  1  0.59031257  0.11223930  0.64214537  1
  O  O102  1  0.60114620  0.61710931  0.14112566  1
  O  O103  1  0.58947254  0.61460901  0.64206898  1
  O  O104  1  0.44688754  0.38740243  0.35694498  1
  O  O105  1  0.45944567  0.38820690  0.86027015  1
  O  O106  1  0.44808031  0.88607588  0.35784182  1
  O  O107  1  0.46212824  0.88488457  0.86021057  1
  O  O108  1  0.94704463  0.38853885  0.35663881  1
  O  O109  1  0.95141563  0.38753528  0.86116252  1
  O  O110  1  0.95628981  0.88796946  0.35600503  1
  O  O111  1  0.96019513  0.88560480  0.85998698  1
  O  O112  1  0.35299946  0.27552073  0.14213961  1
  O  O113  1  0.34148252  0.28064547  0.64185606  1
  O  O114  1  0.35146433  0.77478160  0.14154992  1
  O  O115  1  0.34880132  0.78125977  0.64184245  1
  O  O116  1  0.85201248  0.27376396  0.14041430  1
  O  O117  1  0.83930448  0.28200265  0.64315016  1
  O  O118  1  0.85365818  0.77423734  0.14212604  1
  O  O119  1  0.83951293  0.77987011  0.64150458  1
  O  O120  1  0.19693942  0.22023804  0.35659486  1
  O  O121  1  0.20160112  0.22486433  0.86031246  1
  O  O122  1  0.20511622  0.72037788  0.35676416  1
  O  O123  1  0.21215956  0.72507664  0.86034640  1
  O  O124  1  0.69628277  0.21864065  0.35674720  1
  O  O125  1  0.70045615  0.22527401  0.85961565  1
  O  O126  1  0.69759059  0.71922212  0.35698781  1
  O  O127  1  0.71162786  0.72583002  0.85812658  1
  O  O128  1  0.41452984  0.06618596  0.24371528  1
  O  O129  1  0.42011458  0.06805857  0.75073685  1
  O  O130  1  0.41473467  0.57438852  0.24977060  1
  O  O131  1  0.42197373  0.57624255  0.75636790  1
  O  O132  1  0.91447287  0.06793250  0.24293723  1
  O  O133  1  0.92000526  0.06689905  0.75050844  1
  O  O134  1  0.91669062  0.56836075  0.24420603  1
  O  O135  1  0.92229995  0.57582949  0.75728478  1
  O  O136  1  0.16474900  0.42668810  0.24373814  1
  O  O137  1  0.17173298  0.43309518  0.75099010  1
  O  O138  1  0.16486536  0.92509759  0.24903807  1
  O  O139  1  0.17368177  0.93055869  0.75675334  1
  O  O140  1  0.66460123  0.42673919  0.24379657  1
  O  O141  1  0.66942306  0.43358938  0.75579816  1
  O  O142  1  0.66617747  0.92563318  0.24406472  1
  O  O143  1  0.66626590  0.92583511  0.75125704  1
