# generated using pymatgen
data_La7SmMn3(FeO4)5
_symmetry_space_group_name_H-M   'P 1'
_cell_length_a   11.04495279
_cell_length_b   11.84746625
_cell_length_c   17.83433470
_cell_angle_alpha   109.36054931
_cell_angle_beta   108.05780422
_cell_angle_gamma   90.02845815
_symmetry_Int_Tables_number   1
_chemical_formula_structural   La7SmMn3(FeO4)5
_chemical_formula_sum   'La28 Sm4 Mn12 Fe20 O80'
_cell_volume   2079.37371827
_cell_formula_units_Z   4
loop_
 _symmetry_equiv_pos_site_id
 _symmetry_equiv_pos_as_xyz
  1  'x, y, z'
loop_
 _atom_site_type_symbol
 _atom_site_label
 _atom_site_symmetry_multiplicity
 _atom_site_fract_x
 _atom_site_fract_y
 _atom_site_fract_z
 _atom_site_occupancy
  La  La0  1  0.29978265  0.06378606  0.11160913  1
  La  La1  1  0.30260448  0.06480584  0.60847649  1
  La  La2  1  0.30344576  0.56550467  0.60939108  1
  La  La3  1  0.80339668  0.06523647  0.61104873  1
  La  La4  1  0.80385284  0.56646136  0.11002359  1
  La  La5  1  0.80358602  0.56584348  0.60978291  1
  La  La6  1  0.19246700  0.43379628  0.38872479  1
  La  La7  1  0.19223009  0.43477543  0.89179730  1
  La  La8  1  0.19248924  0.93399345  0.38647242  1
  La  La9  1  0.19663124  0.93581967  0.89072830  1
  La  La10  1  0.69294894  0.43371992  0.38959473  1
  La  La11  1  0.69460501  0.93492938  0.39017600  1
  La  La12  1  0.69510226  0.93501678  0.89027939  1
  La  La13  1  0.05044440  0.29492859  0.11065831  1
  La  La14  1  0.05258314  0.29402564  0.60967480  1
  La  La15  1  0.05329345  0.79443569  0.60882304  1
  La  La16  1  0.55303525  0.29252141  0.10974180  1
  La  La17  1  0.55369144  0.29483553  0.61115465  1
  La  La18  1  0.54993113  0.79559086  0.11014167  1
  La  La19  1  0.55571880  0.79383520  0.61087750  1
  La  La20  1  0.44314933  0.20372084  0.38888827  1
  La  La21  1  0.44609139  0.20694087  0.89006221  1
  La  La22  1  0.44300542  0.70573733  0.38972055  1
  La  La23  1  0.44451779  0.70526185  0.89012055  1
  La  La24  1  0.94311612  0.20426594  0.38724997  1
  La  La25  1  0.94049044  0.20434234  0.88971313  1
  La  La26  1  0.94384558  0.70530612  0.38786943  1
  La  La27  1  0.94467216  0.70619489  0.89263918  1
  Sm  Sm28  1  0.29799933  0.56762352  0.10783648  1
  Sm  Sm29  1  0.80148156  0.06637703  0.10893949  1
  Sm  Sm30  1  0.69246671  0.43381227  0.89245753  1
  Sm  Sm31  1  0.05407700  0.79427159  0.11097270  1
  Mn  Mn32  1  0.10900471  0.09730293  0.75081528  1
  Mn  Mn33  1  0.10957727  0.59685837  0.75056289  1
  Mn  Mn34  1  0.60995676  0.09520166  0.24899096  1
  Mn  Mn35  1  0.61050510  0.09780480  0.75028855  1
  Mn  Mn36  1  0.60555645  0.59679500  0.24800739  1
  Mn  Mn37  1  0.61149743  0.59630056  0.75202140  1
  Mn  Mn38  1  0.35706730  0.40509528  0.24819382  1
  Mn  Mn39  1  0.36129036  0.40291947  0.75067787  1
  Mn  Mn40  1  0.36086154  0.90303924  0.75012254  1
  Mn  Mn41  1  0.85957395  0.40268040  0.24912334  1
  Mn  Mn42  1  0.85796251  0.40336332  0.75186306  1
  Mn  Mn43  1  0.86120673  0.90349534  0.24701642  1
  Fe  Fe44  1  0.00572764  0.99967286  0.00187082  1
  Fe  Fe45  1  0.00559218  0.99991553  0.49928857  1
  Fe  Fe46  1  0.00517697  0.50081120  0.00138454  1
  Fe  Fe47  1  0.00551583  0.49983072  0.49971075  1
  Fe  Fe48  1  0.50714749  0.00057812  0.00108014  1
  Fe  Fe49  1  0.50490708  0.00004889  0.49947282  1
  Fe  Fe50  1  0.50594659  0.50121981  0.00088040  1
  Fe  Fe51  1  0.50542280  0.49922915  0.49946939  1
  Fe  Fe52  1  0.25642559  0.25163363  0.00212002  1
  Fe  Fe53  1  0.25491402  0.24960543  0.49949195  1
  Fe  Fe54  1  0.25541711  0.75126053  0.00092258  1
  Fe  Fe55  1  0.25558407  0.74943843  0.49925599  1
  Fe  Fe56  1  0.75526909  0.24952057  0.00048162  1
  Fe  Fe57  1  0.75560871  0.25004821  0.49992875  1
  Fe  Fe58  1  0.75756167  0.75060362  0.00138924  1
  Fe  Fe59  1  0.75511203  0.74990314  0.49901815  1
  Fe  Fe60  1  0.10797495  0.09960646  0.24775231  1
  Fe  Fe61  1  0.11362092  0.60301829  0.24842885  1
  Fe  Fe62  1  0.35835103  0.89567121  0.24868097  1
  Fe  Fe63  1  0.86294941  0.89724179  0.75090514  1
  O  O64  1  0.11561037  0.11631750  0.47695415  1
  O  O65  1  0.11503032  0.11604102  0.97822914  1
  O  O66  1  0.11593959  0.61734516  0.47748584  1
  O  O67  1  0.11713203  0.61903260  0.98366908  1
  O  O68  1  0.61511606  0.11709302  0.47693187  1
  O  O69  1  0.61575461  0.11652473  0.97823343  1
  O  O70  1  0.61564555  0.61718111  0.47819804  1
  O  O71  1  0.61557479  0.61449361  0.97498629  1
  O  O72  1  0.14128974  0.38605350  0.02705956  1
  O  O73  1  0.13768063  0.38259165  0.52192162  1
  O  O74  1  0.13623406  0.87912565  0.02463089  1
  O  O75  1  0.13701149  0.88220828  0.52140134  1
  O  O76  1  0.63584320  0.38077708  0.02030803  1
  O  O77  1  0.63840038  0.38306005  0.52305271  1
  O  O78  1  0.64181455  0.88488203  0.02561036  1
  O  O79  1  0.63604971  0.88147899  0.51964008  1
  O  O80  1  0.36526483  0.11005267  0.47764648  1
  O  O81  1  0.36609264  0.11292641  0.97743254  1
  O  O82  1  0.36533152  0.60896437  0.47626595  1
  O  O83  1  0.36580105  0.61322788  0.98111918  1
  O  O84  1  0.86601223  0.11123740  0.47758621  1
  O  O85  1  0.86453392  0.11063398  0.98034435  1
  O  O86  1  0.86661115  0.61225835  0.47940247  1
  O  O87  1  0.86161583  0.60667368  0.97376344  1
  O  O88  1  0.38658360  0.39687723  0.02633078  1
  O  O89  1  0.38681835  0.38756895  0.52019505  1
  O  O90  1  0.38735490  0.89205760  0.02220676  1
  O  O91  1  0.38705404  0.88670107  0.51972632  1
  O  O92  1  0.88519807  0.38989731  0.02025496  1
  O  O93  1  0.88753150  0.39013447  0.52250902  1
  O  O94  1  0.89202785  0.89228831  0.02851211  1
  O  O95  1  0.88715800  0.89026179  0.52148837  1
  O  O96  1  0.09370572  0.11599812  0.13980312  1
  O  O97  1  0.09466843  0.11600249  0.63936709  1
  O  O98  1  0.09943598  0.61702430  0.13973031  1
  O  O99  1  0.09417067  0.61682740  0.63951762  1
  O  O100  1  0.60468074  0.11587093  0.13977676  1
  O  O101  1  0.59419094  0.11540328  0.63832445  1
  O  O102  1  0.59846729  0.61898044  0.13914489  1
  O  O103  1  0.59520476  0.61475134  0.64008086  1
  O  O104  1  0.45421674  0.38312956  0.35915302  1
  O  O105  1  0.46420074  0.38512631  0.86109677  1
  O  O106  1  0.44860512  0.88577435  0.35959236  1
  O  O107  1  0.45505846  0.88344148  0.86143792  1
  O  O108  1  0.95500720  0.38412024  0.36077508  1
  O  O109  1  0.95905705  0.38353144  0.86197414  1
  O  O110  1  0.95561728  0.88422165  0.35917690  1
  O  O111  1  0.95279351  0.88662655  0.86154419  1
  O  O112  1  0.34703846  0.26938776  0.14034958  1
  O  O113  1  0.34564772  0.27319138  0.63906431  1
  O  O114  1  0.34198733  0.77345370  0.13989072  1
  O  O115  1  0.34574699  0.77314247  0.63872716  1
  O  O116  1  0.84400100  0.27091073  0.13867873  1
  O  O117  1  0.84284518  0.27320585  0.64015865  1
  O  O118  1  0.85740225  0.77054085  0.13926067  1
  O  O119  1  0.84071438  0.77684715  0.63980833  1
  O  O120  1  0.19871732  0.22138604  0.35854169  1
  O  O121  1  0.20753762  0.22850989  0.86151657  1
  O  O122  1  0.20106528  0.72480218  0.35939345  1
  O  O123  1  0.20528837  0.72707187  0.86190781  1
  O  O124  1  0.70518060  0.22655463  0.36028749  1
  O  O125  1  0.70580402  0.22893609  0.86137313  1
  O  O126  1  0.70271546  0.72619942  0.35988460  1
  O  O127  1  0.70683603  0.72935323  0.86179974  1
  O  O128  1  0.41764472  0.06863484  0.25008173  1
  O  O129  1  0.41741057  0.07312363  0.74974536  1
  O  O130  1  0.41032482  0.57480630  0.24466466  1
  O  O131  1  0.41683672  0.57341303  0.74985869  1
  O  O132  1  0.91139288  0.07322663  0.24469409  1
  O  O133  1  0.91641963  0.07081535  0.75064547  1
  O  O134  1  0.91929745  0.57132613  0.24931665  1
  O  O135  1  0.91622482  0.57324263  0.75097978  1
  O  O136  1  0.16503772  0.42909673  0.24977031  1
  O  O137  1  0.16835254  0.42717446  0.75088505  1
  O  O138  1  0.16160950  0.92568664  0.24465542  1
  O  O139  1  0.16799985  0.92698581  0.75019678  1
  O  O140  1  0.66619714  0.42802308  0.24973447  1
  O  O141  1  0.66643687  0.42644812  0.75574406  1
  O  O142  1  0.66893327  0.92568519  0.24982591  1
  O  O143  1  0.66811833  0.92859060  0.75010435  1
