# generated using pymatgen
data_GdGe2
_symmetry_space_group_name_H-M   'P 1'
_cell_length_a   4.01758588
_cell_length_b   4.01758588
_cell_length_c   8.67576085
_cell_angle_alpha   103.38780432
_cell_angle_beta   103.38780432
_cell_angle_gamma   90.00000000
_symmetry_Int_Tables_number   1
_chemical_formula_structural   GdGe2
_chemical_formula_sum   'Gd2 Ge4'
_cell_volume   132.31514960
_cell_formula_units_Z   2
loop_
 _symmetry_equiv_pos_site_id
 _symmetry_equiv_pos_as_xyz
  1  'x, y, z'
loop_
 _atom_site_type_symbol
 _atom_site_label
 _atom_site_symmetry_multiplicity
 _atom_site_fract_x
 _atom_site_fract_y
 _atom_site_fract_z
 _atom_site_occupancy
  Gd  Gd0  1  0.25000000  0.75000000  0.50000000  1
  Gd  Gd1  1  -0.00000000  -0.00000000  -0.00000000  1
  Ge  Ge2  1  0.67159468  0.17159468  0.34318937  1
  Ge  Ge3  1  0.57840532  0.57840532  0.15681063  1
  Ge  Ge4  1  0.82840532  0.32840532  0.65681063  1
  Ge  Ge5  1  0.42159468  0.42159468  0.84318937  1
