# generated using pymatgen
data_La7Sm(Fe2O5)4
_symmetry_space_group_name_H-M   'P 1'
_cell_length_a   11.05414497
_cell_length_b   11.82518683
_cell_length_c   17.80055836
_cell_angle_alpha   109.41189778
_cell_angle_beta   108.09993343
_cell_angle_gamma   89.95082677
_symmetry_Int_Tables_number   1
_chemical_formula_structural   La7Sm(Fe2O5)4
_chemical_formula_sum   'La28 Sm4 Fe32 O80'
_cell_volume   2072.32132725
_cell_formula_units_Z   4
loop_
 _symmetry_equiv_pos_site_id
 _symmetry_equiv_pos_as_xyz
  1  'x, y, z'
loop_
 _atom_site_type_symbol
 _atom_site_label
 _atom_site_symmetry_multiplicity
 _atom_site_fract_x
 _atom_site_fract_y
 _atom_site_fract_z
 _atom_site_occupancy
  La  La0  1  0.30345613  0.06387263  0.11254892  1
  La  La1  1  0.30528485  0.06352799  0.61079876  1
  La  La2  1  0.30499198  0.56408678  0.61077360  1
  La  La3  1  0.80510564  0.06455461  0.61148252  1
  La  La4  1  0.80583196  0.56445068  0.11073978  1
  La  La5  1  0.80548104  0.56419747  0.61149815  1
  La  La6  1  0.19335071  0.43487624  0.38814714  1
  La  La7  1  0.19135963  0.43682532  0.89021710  1
  La  La8  1  0.19265439  0.93519108  0.38675223  1
  La  La9  1  0.19275661  0.93661931  0.88894223  1
  La  La10  1  0.69361615  0.43631954  0.38836941  1
  La  La11  1  0.69351020  0.93545803  0.38864874  1
  La  La12  1  0.69175012  0.93583146  0.88882289  1
  La  La13  1  0.05504370  0.29745300  0.11183704  1
  La  La14  1  0.05505997  0.29757219  0.61148520  1
  La  La15  1  0.05455449  0.79692226  0.61089655  1
  La  La16  1  0.55608249  0.29645515  0.11112149  1
  La  La17  1  0.55586672  0.29835406  0.61313392  1
  La  La18  1  0.55294088  0.79785362  0.11175108  1
  La  La19  1  0.55502323  0.79688486  0.61101200  1
  La  La20  1  0.44426757  0.20312597  0.38894163  1
  La  La21  1  0.44505172  0.20442402  0.88908610  1
  La  La22  1  0.44273765  0.70219278  0.38686069  1
  La  La23  1  0.44200058  0.70169756  0.88840819  1
  La  La24  1  0.94272294  0.20180652  0.38701884  1
  La  La25  1  0.94089546  0.20344627  0.88913981  1
  La  La26  1  0.94340227  0.70202337  0.38752002  1
  La  La27  1  0.94214528  0.70202894  0.88965232  1
  Sm  Sm28  1  0.30139386  0.56590348  0.10970348  1
  Sm  Sm29  1  0.80257456  0.06435295  0.10903105  1
  Sm  Sm30  1  0.69134722  0.43517431  0.89105358  1
  Sm  Sm31  1  0.05440134  0.79555631  0.11063228  1
  Fe  Fe32  1  0.00495244  0.99917082  0.00144200  1
  Fe  Fe33  1  0.00510560  0.99977142  0.49953382  1
  Fe  Fe34  1  0.00509858  0.50101403  0.00140283  1
  Fe  Fe35  1  0.00485633  0.49962603  0.49980215  1
  Fe  Fe36  1  0.50541669  0.00062402  0.00070255  1
  Fe  Fe37  1  0.50472698  0.00001654  0.49971273  1
  Fe  Fe38  1  0.50531184  0.50077029  0.00043410  1
  Fe  Fe39  1  0.50505214  0.50022967  0.49985089  1
  Fe  Fe40  1  0.25590299  0.25186011  0.00158335  1
  Fe  Fe41  1  0.25471417  0.24939897  0.49971204  1
  Fe  Fe42  1  0.25469735  0.75063484  0.00092212  1
  Fe  Fe43  1  0.25491673  0.75000914  0.49943704  1
  Fe  Fe44  1  0.75538729  0.24956195  0.00043435  1
  Fe  Fe45  1  0.75477998  0.24983562  0.49976335  1
  Fe  Fe46  1  0.75630101  0.75051370  0.00117866  1
  Fe  Fe47  1  0.75454327  0.75023897  0.49960215  1
  Fe  Fe48  1  0.10839216  0.10008916  0.24790292  1
  Fe  Fe49  1  0.11300757  0.10380361  0.75090802  1
  Fe  Fe50  1  0.11397100  0.60341933  0.24820131  1
  Fe  Fe51  1  0.11237638  0.60191914  0.75038670  1
  Fe  Fe52  1  0.61480838  0.10177137  0.24942748  1
  Fe  Fe53  1  0.61281989  0.10453344  0.75079709  1
  Fe  Fe54  1  0.60951337  0.60211143  0.24815940  1
  Fe  Fe55  1  0.61297238  0.60164403  0.75162142  1
  Fe  Fe56  1  0.36196287  0.39953385  0.24893135  1
  Fe  Fe57  1  0.36483475  0.39752409  0.75082964  1
  Fe  Fe58  1  0.35968263  0.89524306  0.24856823  1
  Fe  Fe59  1  0.36237790  0.89758889  0.75031015  1
  Fe  Fe60  1  0.86220731  0.39581719  0.24888116  1
  Fe  Fe61  1  0.86057943  0.39769209  0.75175547  1
  Fe  Fe62  1  0.86318345  0.89860500  0.24774348  1
  Fe  Fe63  1  0.86221273  0.89755580  0.75068110  1
  O  O64  1  0.11439881  0.11605933  0.47648303  1
  O  O65  1  0.11319081  0.11933182  0.97761427  1
  O  O66  1  0.11494272  0.61681427  0.47741816  1
  O  O67  1  0.11472890  0.62131757  0.98124766  1
  O  O68  1  0.61515881  0.11699775  0.47762529  1
  O  O69  1  0.61457301  0.11873078  0.97820604  1
  O  O70  1  0.61474831  0.61767183  0.47792881  1
  O  O71  1  0.61448517  0.61673229  0.97499909  1
  O  O72  1  0.14130373  0.38903368  0.02617343  1
  O  O73  1  0.13715876  0.38251864  0.52178336  1
  O  O74  1  0.13677557  0.88361969  0.02642350  1
  O  O75  1  0.13708028  0.88278920  0.52120372  1
  O  O76  1  0.63678610  0.38331406  0.01985647  1
  O  O77  1  0.63721437  0.38330225  0.52233395  1
  O  O78  1  0.64083147  0.88753504  0.02514631  1
  O  O79  1  0.63766819  0.88376459  0.52206111  1
  O  O80  1  0.36479020  0.11023287  0.47758192  1
  O  O81  1  0.36504726  0.11047155  0.97785288  1
  O  O82  1  0.36502379  0.61065654  0.47740485  1
  O  O83  1  0.36399677  0.60952687  0.97912923  1
  O  O84  1  0.86555434  0.11110338  0.47777254  1
  O  O85  1  0.86312619  0.10701096  0.97991474  1
  O  O86  1  0.86506402  0.61095935  0.47774125  1
  O  O87  1  0.86018269  0.60422756  0.97442617  1
  O  O88  1  0.38760488  0.39345245  0.02624171  1
  O  O89  1  0.38717397  0.38806436  0.52122431  1
  O  O90  1  0.38648313  0.88847249  0.02194688  1
  O  O91  1  0.38784761  0.88862176  0.52207796  1
  O  O92  1  0.88673811  0.38656966  0.02057067  1
  O  O93  1  0.88722834  0.38873759  0.52186435  1
  O  O94  1  0.89101939  0.89013022  0.02935337  1
  O  O95  1  0.88685918  0.88870041  0.52104100  1
  O  O96  1  0.09474275  0.11778636  0.14010108  1
  O  O97  1  0.09121224  0.11483199  0.63974032  1
  O  O98  1  0.10055556  0.61754527  0.13931112  1
  O  O99  1  0.09062582  0.61424698  0.63966046  1
  O  O100  1  0.60248652  0.11447794  0.14012427  1
  O  O101  1  0.59151551  0.11548131  0.63972841  1
  O  O102  1  0.59709429  0.61662596  0.13942959  1
  O  O103  1  0.59090077  0.61403530  0.64077590  1
  O  O104  1  0.45002904  0.38537206  0.35924560  1
  O  O105  1  0.46174759  0.38616539  0.86036259  1
  O  O106  1  0.44986789  0.88504338  0.35996499  1
  O  O107  1  0.45210129  0.88448619  0.86066655  1
  O  O108  1  0.95128287  0.38434977  0.35990485  1
  O  O109  1  0.95525609  0.38493915  0.86128990  1
  O  O110  1  0.94980914  0.88354014  0.35830597  1
  O  O111  1  0.95305110  0.88504970  0.86126162  1
  O  O112  1  0.34597325  0.27248574  0.14043905  1
  O  O113  1  0.34203656  0.27473231  0.63972764  1
  O  O114  1  0.34349846  0.77162985  0.13963372  1
  O  O115  1  0.34077795  0.77524188  0.63948119  1
  O  O116  1  0.84133119  0.27212956  0.13891362  1
  O  O117  1  0.83896340  0.27602015  0.64030739  1
  O  O118  1  0.85634676  0.77176458  0.14026664  1
  O  O119  1  0.84094725  0.77528799  0.63979639  1
  O  O120  1  0.19865290  0.22221634  0.35887938  1
  O  O121  1  0.20466632  0.22694111  0.86097553  1
  O  O122  1  0.20144692  0.72597200  0.35969320  1
  O  O123  1  0.20174552  0.72505225  0.86073949  1
  O  O124  1  0.70100067  0.22578199  0.36007045  1
  O  O125  1  0.70289700  0.22786792  0.86076937  1
  O  O126  1  0.69782191  0.72393232  0.35953987  1
  O  O127  1  0.70464553  0.72742679  0.86097671  1
  O  O128  1  0.42189529  0.06698142  0.25067729  1
  O  O129  1  0.41991244  0.06936457  0.75037418  1
  O  O130  1  0.41338415  0.56957010  0.24418835  1
  O  O131  1  0.41860230  0.56922119  0.74950389  1
  O  O132  1  0.91213794  0.06886999  0.24392061  1
  O  O133  1  0.91969648  0.06935739  0.75064276  1
  O  O134  1  0.92184569  0.56721131  0.24928402  1
  O  O135  1  0.91884824  0.56810813  0.75031940  1
  O  O136  1  0.16988372  0.43221617  0.25030942  1
  O  O137  1  0.17104179  0.43072842  0.75070702  1
  O  O138  1  0.16396660  0.92612594  0.24462304  1
  O  O139  1  0.16910917  0.93123918  0.75013156  1
  O  O140  1  0.66966929  0.43192774  0.24969959  1
  O  O141  1  0.66852318  0.43075144  0.75618160  1
  O  O142  1  0.67111174  0.93008804  0.25006250  1
  O  O143  1  0.66923005  0.93214209  0.74999810  1
