# generated using pymatgen
data_Cs2Se
_symmetry_space_group_name_H-M   'P 1'
_cell_length_a   5.54850136
_cell_length_b   8.37897971
_cell_length_c   6.48692050
_cell_angle_alpha   90.00000000
_cell_angle_beta   64.68716949
_cell_angle_gamma   90.00000000
_symmetry_Int_Tables_number   1
_chemical_formula_structural   Cs2Se
_chemical_formula_sum   'Cs4 Se2'
_cell_volume   272.62615157
_cell_formula_units_Z   2
loop_
 _symmetry_equiv_pos_site_id
 _symmetry_equiv_pos_as_xyz
  1  'x, y, z'
loop_
 _atom_site_type_symbol
 _atom_site_label
 _atom_site_symmetry_multiplicity
 _atom_site_fract_x
 _atom_site_fract_y
 _atom_site_fract_z
 _atom_site_occupancy
  Cs  Cs0  1  0.50000000  0.50000000  0.50000000  1
  Cs  Cs1  1  0.50000000  -0.00000000  0.50000000  1
  Cs  Cs2  1  0.18464457  0.75000000  0.12433092  1
  Cs  Cs3  1  0.81535543  0.25000000  0.87566908  1
  Se  Se4  1  0.87054134  0.75000000  0.75507509  1
  Se  Se5  1  0.12945866  0.25000000  0.24492491  1
