# generated using pymatgen
data_P2H12Rh(CO)4
_symmetry_space_group_name_H-M   'P 1'
_cell_length_a   9.79350464
_cell_length_b   10.92545941
_cell_length_c   10.92545941
_cell_angle_alpha   65.61371233
_cell_angle_beta   82.15135482
_cell_angle_gamma   82.15135482
_symmetry_Int_Tables_number   1
_chemical_formula_structural   P2H12Rh(CO)4
_chemical_formula_sum   'P8 H48 Rh4 C16 O16'
_cell_volume   1050.56579930
_cell_formula_units_Z   4
loop_
 _symmetry_equiv_pos_site_id
 _symmetry_equiv_pos_as_xyz
  1  'x, y, z'
loop_
 _atom_site_type_symbol
 _atom_site_label
 _atom_site_symmetry_multiplicity
 _atom_site_fract_x
 _atom_site_fract_y
 _atom_site_fract_z
 _atom_site_occupancy
  P  P0  1  0.75000000  0.13767294  0.86232706  1
  P  P1  1  0.25000000  0.86232706  0.13767294  1
  P  P2  1  0.75000000  0.65463430  0.34536570  1
  P  P3  1  0.25000000  0.34536570  0.65463430  1
  P  P4  1  0.82194902  0.73780606  0.95105899  1
  P  P5  1  0.67805098  0.04894101  0.26219394  1
  P  P6  1  0.17805098  0.26219394  0.04894101  1
  P  P7  1  0.32194902  0.95105899  0.73780606  1
  H  H8  1  0.83420241  0.18360140  0.63188332  1
  H  H9  1  0.66579759  0.36811668  0.81639860  1
  H  H10  1  0.16579759  0.81639860  0.36811668  1
  H  H11  1  0.33420241  0.63188332  0.18360140  1
  H  H12  1  0.71397960  0.05504647  0.69928293  1
  H  H13  1  0.78602040  0.30071707  0.94495353  1
  H  H14  1  0.28602040  0.94495353  0.30071707  1
  H  H15  1  0.21397960  0.69928293  0.05504647  1
  H  H16  1  0.65054516  0.22759436  0.65108614  1
  H  H17  1  0.84945484  0.34891386  0.77240564  1
  H  H18  1  0.34945484  0.77240564  0.34891386  1
  H  H19  1  0.15054516  0.65108614  0.22759436  1
  H  H20  1  0.74292572  0.61285627  0.58219752  1
  H  H21  1  0.75707428  0.41780248  0.38714373  1
  H  H22  1  0.25707428  0.38714373  0.41780248  1
  H  H23  1  0.24292572  0.58219752  0.61285627  1
  H  H24  1  0.59909994  0.72420833  0.50146939  1
  H  H25  1  0.90090006  0.49853061  0.27579167  1
  H  H26  1  0.40090006  0.27579167  0.49853061  1
  H  H27  1  0.09909994  0.50146939  0.72420833  1
  H  H28  1  0.60235199  0.54612268  0.54890801  1
  H  H29  1  0.89764801  0.45109199  0.45387732  1
  H  H30  1  0.39764801  0.45387732  0.45109199  1
  H  H31  1  0.10235199  0.54890801  0.54612268  1
  H  H32  1  0.72946408  0.52916689  0.09806752  1
  H  H33  1  0.77053592  0.90193248  0.47083311  1
  H  H34  1  0.27053592  0.47083311  0.90193248  1
  H  H35  1  0.22946408  0.09806752  0.52916689  1
  H  H36  1  0.72382228  0.56144755  0.92467143  1
  H  H37  1  0.77617772  0.07532857  0.43855245  1
  H  H38  1  0.27617772  0.43855245  0.07532857  1
  H  H39  1  0.22382228  0.92467143  0.56144755  1
  H  H40  1  0.88300413  0.49832172  0.00017598  1
  H  H41  1  0.61699587  0.99982402  0.50167828  1
  H  H42  1  0.11699587  0.50167828  0.99982402  1
  H  H43  1  0.38300413  0.00017598  0.49832172  1
  H  H44  1  0.95052534  0.88551221  0.75429853  1
  H  H45  1  0.54947466  0.24570147  0.11448779  1
  H  H46  1  0.04947466  0.11448779  0.24570147  1
  H  H47  1  0.45052534  0.75429853  0.88551221  1
  H  H48  1  0.99420345  0.71286398  0.78190948  1
  H  H49  1  0.50579655  0.21809052  0.28713602  1
  H  H50  1  0.00579655  0.28713602  0.21809052  1
  H  H51  1  0.49420345  0.78190948  0.71286398  1
  H  H52  1  0.83619762  0.79682454  0.71010406  1
  H  H53  1  0.66380238  0.28989594  0.20317546  1
  H  H54  1  0.16380238  0.20317546  0.28989594  1
  H  H55  1  0.33619762  0.71010406  0.79682454  1
  Rh  Rh56  1  0.62555845  0.88826458  0.09987479  1
  Rh  Rh57  1  0.87444155  0.90012521  0.11173542  1
  Rh  Rh58  1  0.37444155  0.11173542  0.90012521  1
  Rh  Rh59  1  0.12555845  0.09987479  0.88826458  1
  C  C60  1  0.73678552  0.15258859  0.69390462  1
  C  C61  1  0.76321448  0.30609538  0.84741141  1
  C  C62  1  0.26321448  0.84741141  0.30609538  1
  C  C63  1  0.23678552  0.69390462  0.15258859  1
  C  C64  1  0.66571443  0.63215404  0.51080457  1
  C  C65  1  0.83428557  0.48919543  0.36784596  1
  C  C66  1  0.33428557  0.36784596  0.48919543  1
  C  C67  1  0.16571443  0.51080457  0.63215404  1
  C  C68  1  0.78761575  0.56452040  0.99843516  1
  C  C69  1  0.71238425  0.00156484  0.43547960  1
  C  C70  1  0.21238425  0.43547960  0.00156484  1
  C  C71  1  0.28761575  0.99843516  0.56452040  1
  C  C72  1  0.90821536  0.78867237  0.78236001  1
  C  C73  1  0.59178464  0.21763999  0.21132763  1
  C  C74  1  0.09178464  0.21132763  0.21763999  1
  C  C75  1  0.40821536  0.78236001  0.78867237  1
  O  O76  1  0.61554231  0.08636748  0.95316646  1
  O  O77  1  0.88445769  0.04683354  0.91363252  1
  O  O78  1  0.38445769  0.91363252  0.04683354  1
  O  O79  1  0.11554231  0.95316646  0.08636748  1
  O  O80  1  0.63943845  0.68996893  0.24481390  1
  O  O81  1  0.86056155  0.75518610  0.31003107  1
  O  O82  1  0.36056155  0.31003107  0.75518610  1
  O  O83  1  0.13943845  0.24481390  0.68996893  1
  O  O84  1  0.68220148  0.82401137  0.94383734  1
  O  O85  1  0.81779852  0.05616266  0.17598863  1
  O  O86  1  0.31779852  0.17598863  0.05616266  1
  O  O87  1  0.18220148  0.94383734  0.82401137  1
  O  O88  1  0.92101196  0.74082071  0.04810616  1
  O  O89  1  0.57898804  0.95189384  0.25917929  1
  O  O90  1  0.07898804  0.25917929  0.95189384  1
  O  O91  1  0.42101196  0.04810616  0.74082071  1
