# generated using pymatgen
data_Co2As
_symmetry_space_group_name_H-M   'P 1'
_cell_length_a   3.53920168
_cell_length_b   5.98579414
_cell_length_c   5.98709437
_cell_angle_alpha   119.99282368
_cell_angle_beta   90.00000000
_cell_angle_gamma   90.00000000
_symmetry_Int_Tables_number   1
_chemical_formula_structural   Co2As
_chemical_formula_sum   'Co6 As3'
_cell_volume   109.85130588
_cell_formula_units_Z   3
loop_
 _symmetry_equiv_pos_site_id
 _symmetry_equiv_pos_as_xyz
  1  'x, y, z'
loop_
 _atom_site_type_symbol
 _atom_site_label
 _atom_site_symmetry_multiplicity
 _atom_site_fract_x
 _atom_site_fract_y
 _atom_site_fract_z
 _atom_site_occupancy
  Co  Co0  1  -0.00000000  0.25591134  1.00000000  1
  Co  Co1  1  0.00000000  0.74409716  0.74361190  1
  Co  Co2  1  -0.00000000  0.00048526  0.25638810  1
  Co  Co3  1  0.50000000  0.59780056  0.00000000  1
  Co  Co4  1  0.50000000  0.40194385  0.40229007  1
  Co  Co5  1  0.50000000  0.99965378  0.59770993  1
  As  As6  1  -0.00000000  0.33339051  0.66658197  1
  As  As7  1  -0.00000000  0.66680855  0.33341803  1
  As  As8  1  0.50000000  0.99980899  0.00000000  1
