# generated using pymatgen
data_Sr2Ti2O5
_symmetry_space_group_name_H-M   'P 1'
_cell_length_a   7.81545943
_cell_length_b   7.95067413
_cell_length_c   7.88007303
_cell_angle_alpha   90.00000000
_cell_angle_beta   90.00000000
_cell_angle_gamma   90.00000000
_symmetry_Int_Tables_number   1
_chemical_formula_structural   Sr2Ti2O5
_chemical_formula_sum   'Sr8 Ti8 O20'
_cell_volume   489.65332625
_cell_formula_units_Z   4
loop_
 _symmetry_equiv_pos_site_id
 _symmetry_equiv_pos_as_xyz
  1  'x, y, z'
loop_
 _atom_site_type_symbol
 _atom_site_label
 _atom_site_symmetry_multiplicity
 _atom_site_fract_x
 _atom_site_fract_y
 _atom_site_fract_z
 _atom_site_occupancy
  Sr  Sr0  1  -0.00000000  0.99649596  -0.00000000  1
  Sr  Sr1  1  -0.00000000  0.99649596  0.50000000  1
  Sr  Sr2  1  -0.00000000  0.50350404  -0.00000000  1
  Sr  Sr3  1  -0.00000000  0.50350404  0.50000000  1
  Sr  Sr4  1  0.50000000  0.00350404  -0.00000000  1
  Sr  Sr5  1  0.50000000  0.00350404  0.50000000  1
  Sr  Sr6  1  0.50000000  0.49649596  -0.00000000  1
  Sr  Sr7  1  0.50000000  0.49649596  0.50000000  1
  Ti  Ti8  1  0.25039852  0.25000000  0.25000000  1
  Ti  Ti9  1  0.25039852  0.25000000  0.75000000  1
  Ti  Ti10  1  0.24960148  0.75000000  0.25000000  1
  Ti  Ti11  1  0.24960148  0.75000000  0.75000000  1
  Ti  Ti12  1  0.74960148  0.25000000  0.25000000  1
  Ti  Ti13  1  0.74960148  0.25000000  0.75000000  1
  Ti  Ti14  1  0.75039852  0.75000000  0.25000000  1
  Ti  Ti15  1  0.75039852  0.75000000  0.75000000  1
  O  O16  1  0.25000000  0.00000000  0.25000000  1
  O  O17  1  0.25000000  0.00000000  0.75000000  1
  O  O18  1  0.25000000  0.50000000  0.25000000  1
  O  O19  1  0.25000000  0.50000000  0.75000000  1
  O  O20  1  0.75000000  0.00000000  0.25000000  1
  O  O21  1  0.75000000  0.00000000  0.75000000  1
  O  O22  1  0.75000000  0.50000000  0.25000000  1
  O  O23  1  0.75000000  0.50000000  0.75000000  1
  O  O24  1  0.22519729  0.25000000  -0.00000000  1
  O  O25  1  0.22519729  0.25000000  0.50000000  1
  O  O26  1  0.27480271  0.75000000  0.00000000  1
  O  O27  1  0.27480271  0.75000000  0.50000000  1
  O  O28  1  0.77480271  0.25000000  -0.00000000  1
  O  O29  1  0.77480271  0.25000000  0.50000000  1
  O  O30  1  0.72519729  0.75000000  0.00000000  1
  O  O31  1  0.72519729  0.75000000  0.50000000  1
  O  O32  1  -0.00000000  0.75000000  0.25000000  1
  O  O33  1  -0.00000000  0.75000000  0.75000000  1
  O  O34  1  0.50000000  0.25000000  0.25000000  1
  O  O35  1  0.50000000  0.25000000  0.75000000  1
