# generated using pymatgen
data_Rb2Ce2Fe4O9
_symmetry_space_group_name_H-M   'P 1'
_cell_length_a   3.98502298
_cell_length_b   7.98840169
_cell_length_c   15.78244198
_cell_angle_alpha   90.00000000
_cell_angle_beta   90.00000000
_cell_angle_gamma   90.00000000
_symmetry_Int_Tables_number   1
_chemical_formula_structural   Rb2Ce2Fe4O9
_chemical_formula_sum   'Rb4 Ce4 Fe8 O18'
_cell_volume   502.41769469
_cell_formula_units_Z   2
loop_
 _symmetry_equiv_pos_site_id
 _symmetry_equiv_pos_as_xyz
  1  'x, y, z'
loop_
 _atom_site_type_symbol
 _atom_site_label
 _atom_site_symmetry_multiplicity
 _atom_site_fract_x
 _atom_site_fract_y
 _atom_site_fract_z
 _atom_site_occupancy
  Rb  Rb0  1  0.49958039  0.25110543  0.25064689  1
  Rb  Rb1  1  0.50041961  0.74889457  0.25064689  1
  Rb  Rb2  1  0.50041961  0.75110543  0.75064689  1
  Rb  Rb3  1  0.49958039  0.24889457  0.75064689  1
  Ce  Ce4  1  0.50015425  0.24984269  0.49974784  1
  Ce  Ce5  1  0.49984575  0.75015731  0.49974784  1
  Ce  Ce6  1  0.50015425  0.25015731  0.99974784  1
  Ce  Ce7  1  0.49984575  0.74984269  0.99974784  1
  Fe  Fe8  1  0.00000000  0.50000000  0.37799543  1
  Fe  Fe9  1  0.00000000  0.00000000  0.10882670  1
  Fe  Fe10  1  0.00000000  0.50000000  0.60882670  1
  Fe  Fe11  1  0.00000000  0.00000000  0.87799543  1
  Fe  Fe12  1  0.00000000  0.50000000  0.12507823  1
  Fe  Fe13  1  0.00000000  0.00000000  0.39153603  1
  Fe  Fe14  1  0.00000000  0.50000000  0.89153603  1
  Fe  Fe15  1  0.00000000  0.00000000  0.62507823  1
  O  O16  1  -0.00015667  0.24819394  0.41196721  1
  O  O17  1  0.00015667  0.75180606  0.41196721  1
  O  O18  1  -0.00009435  0.25084658  0.09043647  1
  O  O19  1  0.00009435  0.74915342  0.09043647  1
  O  O20  1  0.00009435  0.75084658  0.59043647  1
  O  O21  1  -0.00009435  0.24915342  0.59043647  1
  O  O22  1  0.00015667  0.74819394  0.91196721  1
  O  O23  1  -0.00015667  0.25180606  0.91196721  1
  O  O24  1  0.50000000  0.50000000  0.41658991  1
  O  O25  1  0.50000000  0.00000000  0.09652156  1
  O  O26  1  0.50000000  0.50000000  0.59652156  1
  O  O27  1  0.50000000  0.00000000  0.91658991  1
  O  O28  1  0.50000000  0.50000000  0.08427501  1
  O  O29  1  0.50000000  0.00000000  0.40116850  1
  O  O30  1  0.50000000  0.50000000  0.90116850  1
  O  O31  1  0.50000000  0.00000000  0.58427501  1
  O  O32  1  0.00000000  0.50000000  0.24541180  1
  O  O33  1  0.00000000  0.00000000  0.74541180  1
