# generated using pymatgen
data_Na2CuO2
_symmetry_space_group_name_H-M   'P 1'
_cell_length_a   2.94836131
_cell_length_b   5.68108132
_cell_length_c   8.27746642
_cell_angle_alpha   109.34727922
_cell_angle_beta   90.00000000
_cell_angle_gamma   90.00000000
_symmetry_Int_Tables_number   1
_chemical_formula_structural   Na2CuO2
_chemical_formula_sum   'Na4 Cu2 O4'
_cell_volume   130.81690872
_cell_formula_units_Z   2
loop_
 _symmetry_equiv_pos_site_id
 _symmetry_equiv_pos_as_xyz
  1  'x, y, z'
loop_
 _atom_site_type_symbol
 _atom_site_label
 _atom_site_symmetry_multiplicity
 _atom_site_fract_x
 _atom_site_fract_y
 _atom_site_fract_z
 _atom_site_occupancy
  Na  Na0  1  0.75000000  0.61545637  0.87971217  1
  Na  Na1  1  0.25000000  0.38454363  0.12028783  1
  Na  Na2  1  0.75000000  0.68049657  0.44223390  1
  Na  Na3  1  0.25000000  0.31950343  0.55776610  1
  Cu  Cu4  1  0.75000000  0.02497277  0.76060112  1
  Cu  Cu5  1  0.25000000  0.97502723  0.23939888  1
  O  O6  1  0.25000000  0.76838603  0.68232818  1
  O  O7  1  0.75000000  0.23161397  0.31767182  1
  O  O8  1  0.25000000  0.26853057  0.82255654  1
  O  O9  1  0.75000000  0.73146943  0.17744346  1
