# generated using pymatgen
data_La2Mg
_symmetry_space_group_name_H-M   'P 1'
_cell_length_a   3.64533905
_cell_length_b   18.54840792
_cell_length_c   5.74965596
_cell_angle_alpha   90.00000000
_cell_angle_beta   90.00000000
_cell_angle_gamma   90.00000000
_symmetry_Int_Tables_number   1
_chemical_formula_structural   La2Mg
_chemical_formula_sum   'La8 Mg4'
_cell_volume   388.76434296
_cell_formula_units_Z   4
loop_
 _symmetry_equiv_pos_site_id
 _symmetry_equiv_pos_as_xyz
  1  'x, y, z'
loop_
 _atom_site_type_symbol
 _atom_site_label
 _atom_site_symmetry_multiplicity
 _atom_site_fract_x
 _atom_site_fract_y
 _atom_site_fract_z
 _atom_site_occupancy
  La  La0  1  -0.00000000  0.55555048  0.25000000  1
  La  La1  1  0.50000000  0.72485105  0.25000000  1
  La  La2  1  0.00000000  0.77514895  0.75000000  1
  La  La3  1  0.50000000  0.94444952  0.75000000  1
  La  La4  1  0.50000000  0.05555048  0.25000000  1
  La  La5  1  0.00000000  0.22485105  0.25000000  1
  La  La6  1  0.50000000  0.27514895  0.75000000  1
  La  La7  1  0.00000000  0.44444952  0.75000000  1
  Mg  Mg8  1  0.00000000  0.88887725  0.25000000  1
  Mg  Mg9  1  0.50000000  0.61112275  0.75000000  1
  Mg  Mg10  1  0.50000000  0.38887725  0.25000000  1
  Mg  Mg11  1  -0.00000000  0.11112275  0.75000000  1
