# generated using pymatgen
data_PbSe
_symmetry_space_group_name_H-M   'P 1'
_cell_length_a   4.45645103
_cell_length_b   4.41518383
_cell_length_c   13.21981815
_cell_angle_alpha   90.00000000
_cell_angle_beta   90.00000000
_cell_angle_gamma   90.00000000
_symmetry_Int_Tables_number   1
_chemical_formula_structural   PbSe
_chemical_formula_sum   'Pb4 Se4'
_cell_volume   260.11380988
_cell_formula_units_Z   4
loop_
 _symmetry_equiv_pos_site_id
 _symmetry_equiv_pos_as_xyz
  1  'x, y, z'
loop_
 _atom_site_type_symbol
 _atom_site_label
 _atom_site_symmetry_multiplicity
 _atom_site_fract_x
 _atom_site_fract_y
 _atom_site_fract_z
 _atom_site_occupancy
  Pb  Pb0  1  0.25000000  0.41028582  0.64041907  1
  Pb  Pb1  1  0.25000000  0.08971418  0.14041907  1
  Pb  Pb2  1  0.75000000  0.58971418  0.35958093  1
  Pb  Pb3  1  0.75000000  0.91028582  0.85958093  1
  Se  Se4  1  0.25000000  0.45175390  0.85769421  1
  Se  Se5  1  0.25000000  0.04824610  0.35769421  1
  Se  Se6  1  0.75000000  0.54824610  0.14230579  1
  Se  Se7  1  0.75000000  0.95175390  0.64230579  1
