# generated using pymatgen
data_CaMn4O8
_symmetry_space_group_name_H-M   'P 1'
_cell_length_a   5.81000145
_cell_length_b   6.46595970
_cell_length_c   9.40720789
_cell_angle_alpha   90.00064491
_cell_angle_beta   90.00128395
_cell_angle_gamma   63.32099422
_symmetry_Int_Tables_number   1
_chemical_formula_structural   CaMn4O8
_chemical_formula_sum   'Ca2 Mn8 O16'
_cell_volume   315.77810549
_cell_formula_units_Z   2
loop_
 _symmetry_equiv_pos_site_id
 _symmetry_equiv_pos_as_xyz
  1  'x, y, z'
loop_
 _atom_site_type_symbol
 _atom_site_label
 _atom_site_symmetry_multiplicity
 _atom_site_fract_x
 _atom_site_fract_y
 _atom_site_fract_z
 _atom_site_occupancy
  Ca  Ca0  1  0.38309482  0.98443842  0.54702173  1
  Ca  Ca1  1  0.11707231  0.51556061  0.04701600  1
  Mn  Mn2  1  0.08766656  0.57465586  0.36612751  1
  Mn  Mn3  1  0.59597116  0.55800428  0.35779136  1
  Mn  Mn4  1  0.90401880  0.94200653  0.85779740  1
  Mn  Mn5  1  0.41233408  0.92534434  0.86613500  1
  Mn  Mn6  1  0.11709804  0.01290448  0.14804168  1
  Mn  Mn7  1  0.62006980  0.01295488  0.14803061  1
  Mn  Mn8  1  0.87992079  0.48699672  0.64803965  1
  Mn  Mn9  1  0.38282392  0.48715916  0.64801928  1
  O  O10  1  0.95935392  0.83128149  0.22958905  1
  O  O11  1  0.43819398  0.87368021  0.25273393  1
  O  O12  1  0.09074393  0.08725861  0.76186094  1
  O  O13  1  0.57210149  0.08726223  0.76186595  1
  O  O14  1  0.92790667  0.41272062  0.26185141  1
  O  O15  1  0.40925662  0.41274228  0.26184786  1
  O  O16  1  0.06176763  0.62632879  0.75273323  1
  O  O17  1  0.54063482  0.66872746  0.72959066  1
  O  O18  1  0.30607213  0.13798565  0.02903560  1
  O  O19  1  0.80053840  0.14912105  0.02954681  1
  O  O20  1  0.73625063  0.78534306  0.96313619  1
  O  O21  1  0.22835538  0.78531734  0.96312375  1
  O  O22  1  0.19390575  0.36201973  0.52902815  1
  O  O23  1  0.69940220  0.35088288  0.52953930  1
  O  O24  1  0.76379361  0.71461877  0.46311843  1
  O  O25  1  0.27164960  0.71470353  0.46311651  1
