# generated using pymatgen
data_MgZn
_symmetry_space_group_name_H-M   'P 1'
_cell_length_a   11.16337298
_cell_length_b   2.99730961
_cell_length_c   6.74034557
_cell_angle_alpha   90.00000000
_cell_angle_beta   104.15121774
_cell_angle_gamma   90.00000000
_symmetry_Int_Tables_number   1
_chemical_formula_structural   MgZn
_chemical_formula_sum   'Mg6 Zn6'
_cell_volume   218.68849366
_cell_formula_units_Z   6
loop_
 _symmetry_equiv_pos_site_id
 _symmetry_equiv_pos_as_xyz
  1  'x, y, z'
loop_
 _atom_site_type_symbol
 _atom_site_label
 _atom_site_symmetry_multiplicity
 _atom_site_fract_x
 _atom_site_fract_y
 _atom_site_fract_z
 _atom_site_occupancy
  Mg  Mg0  1  0.00835322  -0.00000000  0.02261462  1
  Mg  Mg1  1  0.05409229  0.00000000  0.59241152  1
  Mg  Mg2  1  0.32666422  0.00000000  0.66565106  1
  Mg  Mg3  1  0.50835322  0.50000000  0.02261462  1
  Mg  Mg4  1  0.55409229  0.50000000  0.59241152  1
  Mg  Mg5  1  0.82666422  0.50000000  0.66565106  1
  Zn  Zn6  1  0.37786484  0.00000000  0.26990504  1
  Zn  Zn7  1  0.17496334  0.50000000  0.32812529  1
  Zn  Zn8  1  0.22472909  0.50000000  0.95462548  1
  Zn  Zn9  1  0.87786484  0.50000000  0.26990504  1
  Zn  Zn10  1  0.67496334  0.00000000  0.32812529  1
  Zn  Zn11  1  0.72472909  0.00000000  0.95462548  1
