# generated using pymatgen
data_MgSn2
_symmetry_space_group_name_H-M   'P 1'
_cell_length_a   5.90242631
_cell_length_b   5.90242606
_cell_length_c   15.34500312
_cell_angle_alpha   90.00000000
_cell_angle_beta   90.00000000
_cell_angle_gamma   120.00000144
_symmetry_Int_Tables_number   1
_chemical_formula_structural   MgSn2
_chemical_formula_sum   'Mg6 Sn12'
_cell_volume   462.97627435
_cell_formula_units_Z   6
loop_
 _symmetry_equiv_pos_site_id
 _symmetry_equiv_pos_as_xyz
  1  'x, y, z'
loop_
 _atom_site_type_symbol
 _atom_site_label
 _atom_site_symmetry_multiplicity
 _atom_site_fract_x
 _atom_site_fract_y
 _atom_site_fract_z
 _atom_site_occupancy
  Mg  Mg0  1  -0.00000000  0.00000000  0.16757686  1
  Mg  Mg1  1  0.66666700  0.33333300  0.16575714  1
  Mg  Mg2  1  0.66666700  0.33333300  0.50090986  1
  Mg  Mg3  1  0.33333300  0.66666700  0.49909014  1
  Mg  Mg4  1  0.33333300  0.66666700  0.83424286  1
  Mg  Mg5  1  -0.00000000  -0.00000000  0.83242314  1
  Sn  Sn6  1  0.66978432  0.66978432  0.00000000  1
  Sn  Sn7  1  0.00000000  0.33021568  0.00000000  1
  Sn  Sn8  1  0.33333300  0.66666700  0.16666700  1
  Sn  Sn9  1  0.33021568  0.00000000  0.00000000  1
  Sn  Sn10  1  0.33645032  0.00311732  0.33333300  1
  Sn  Sn11  1  0.66666700  0.66354968  0.33333300  1
  Sn  Sn12  1  -0.00000000  -0.00000000  0.50000000  1
  Sn  Sn13  1  0.99688268  0.33333300  0.33333300  1
  Sn  Sn14  1  0.00311732  0.33645032  0.66666700  1
  Sn  Sn15  1  0.33333300  0.99688268  0.66666700  1
  Sn  Sn16  1  0.66666700  0.33333300  0.83333300  1
  Sn  Sn17  1  0.66354968  0.66666700  0.66666700  1
