# generated using pymatgen
data_Mg2Zn
_symmetry_space_group_name_H-M   'P 1'
_cell_length_a   10.99225478
_cell_length_b   3.13054266
_cell_length_c   7.06984845
_cell_angle_alpha   90.00000000
_cell_angle_beta   102.29234714
_cell_angle_gamma   90.00000000
_symmetry_Int_Tables_number   1
_chemical_formula_structural   Mg2Zn
_chemical_formula_sum   'Mg8 Zn4'
_cell_volume   237.70810086
_cell_formula_units_Z   4
loop_
 _symmetry_equiv_pos_site_id
 _symmetry_equiv_pos_as_xyz
  1  'x, y, z'
loop_
 _atom_site_type_symbol
 _atom_site_label
 _atom_site_symmetry_multiplicity
 _atom_site_fract_x
 _atom_site_fract_y
 _atom_site_fract_z
 _atom_site_occupancy
  Mg  Mg0  1  0.49545799  0.50000000  0.00607855  1
  Mg  Mg1  1  0.66476726  0.00000000  0.34068395  1
  Mg  Mg2  1  0.84176358  0.50000000  0.65762678  1
  Mg  Mg3  1  0.71941873  -0.00000000  0.93959591  1
  Mg  Mg4  1  0.99545799  0.00000000  0.00607855  1
  Mg  Mg5  1  0.16476726  0.50000000  0.34068395  1
  Mg  Mg6  1  0.34176358  -0.00000000  0.65762678  1
  Mg  Mg7  1  0.21941873  0.50000000  0.93959591  1
  Zn  Zn8  1  0.88935940  0.50000000  0.28103303  1
  Zn  Zn9  1  0.55590004  0.50000000  0.60831478  1
  Zn  Zn10  1  0.38935940  -0.00000000  0.28103303  1
  Zn  Zn11  1  0.05590004  0.00000000  0.60831478  1
