# generated using pymatgen
data_CeMg14Cd
_symmetry_space_group_name_H-M   'P 1'
_cell_length_a   6.47592718
_cell_length_b   6.45397970
_cell_length_c   10.30142937
_cell_angle_alpha   90.00000000
_cell_angle_beta   90.00000000
_cell_angle_gamma   119.88795877
_symmetry_Int_Tables_number   1
_chemical_formula_structural   CeMg14Cd
_chemical_formula_sum   'Ce1 Mg14 Cd1'
_cell_volume   373.29045521
_cell_formula_units_Z   1
loop_
 _symmetry_equiv_pos_site_id
 _symmetry_equiv_pos_as_xyz
  1  'x, y, z'
loop_
 _atom_site_type_symbol
 _atom_site_label
 _atom_site_symmetry_multiplicity
 _atom_site_fract_x
 _atom_site_fract_y
 _atom_site_fract_z
 _atom_site_occupancy
  Ce  Ce0  1  0.16543393  0.33271646  0.12500000  1
  Mg  Mg1  1  0.16669400  0.33334650  0.62500000  1
  Mg  Mg2  1  0.16690022  0.83344961  0.62500000  1
  Mg  Mg3  1  0.66347839  0.32666479  0.12500000  1
  Mg  Mg4  1  0.66646191  0.33305208  0.62500000  1
  Mg  Mg5  1  0.66347839  0.83681260  0.12500000  1
  Mg  Mg6  1  0.66646191  0.83340884  0.62500000  1
  Mg  Mg7  1  0.33481954  0.16563563  0.37838390  1
  Mg  Mg8  1  0.33481954  0.16563563  0.87161610  1
  Mg  Mg9  1  0.33481954  0.66918491  0.37838390  1
  Mg  Mg10  1  0.33481954  0.66918491  0.87161610  1
  Mg  Mg11  1  0.83101574  0.16550837  0.37905745  1
  Mg  Mg12  1  0.83101574  0.16550837  0.87094255  1
  Mg  Mg13  1  0.83343859  0.66671980  0.37164441  1
  Mg  Mg14  1  0.83343859  0.66671980  0.87835559  1
  Cd  Cd15  1  0.17290441  0.83645170  0.12500000  1
