# generated using pymatgen
data_Fe11MoC4
_symmetry_space_group_name_H-M   'P 1'
_cell_length_a   4.52682177
_cell_length_b   5.05055734
_cell_length_c   6.84420290
_cell_angle_alpha   89.60198413
_cell_angle_beta   89.96728800
_cell_angle_gamma   89.37895739
_symmetry_Int_Tables_number   1
_chemical_formula_structural   Fe11MoC4
_chemical_formula_sum   'Fe11 Mo1 C4'
_cell_volume   156.46583872
_cell_formula_units_Z   1
loop_
 _symmetry_equiv_pos_site_id
 _symmetry_equiv_pos_as_xyz
  1  'x, y, z'
loop_
 _atom_site_type_symbol
 _atom_site_label
 _atom_site_symmetry_multiplicity
 _atom_site_fract_x
 _atom_site_fract_y
 _atom_site_fract_z
 _atom_site_occupancy
  Fe  Fe0  1  0.83222346  0.03351057  0.25386276  1
  Fe  Fe1  1  0.33400369  0.46017631  0.75052907  1
  Fe  Fe2  1  0.66363578  0.54182106  0.25173496  1
  Fe  Fe3  1  0.16601900  0.96168991  0.75548858  1
  Fe  Fe4  1  0.33514471  0.17418271  0.08148643  1
  Fe  Fe5  1  0.16540595  0.67570911  0.43418694  1
  Fe  Fe6  1  0.66364970  0.81879880  0.56453540  1
  Fe  Fe7  1  0.67015159  0.82398366  0.92405126  1
  Fe  Fe8  1  0.17819705  0.68463213  0.07372096  1
  Fe  Fe9  1  0.83030690  0.32363803  0.56117098  1
  Fe  Fe10  1  0.32918708  0.17730684  0.43750198  1
  Mo  Mo11  1  0.83483845  0.31851129  0.93787729  1
  C  C12  1  0.43646925  0.87818077  0.26039530  1
  C  C13  1  0.94402396  0.63136089  0.72980041  1
  C  C14  1  0.06227763  0.37792474  0.25470573  1
  C  C15  1  0.55446581  0.11857319  0.72895196  1
