# generated using pymatgen
data_Mg14GaNi
_symmetry_space_group_name_H-M   'P 1'
_cell_length_a   6.21456880
_cell_length_b   6.25621095
_cell_length_c   9.92621913
_cell_angle_alpha   90.00000000
_cell_angle_beta   90.00000000
_cell_angle_gamma   120.22191145
_symmetry_Int_Tables_number   1
_chemical_formula_structural   Mg14GaNi
_chemical_formula_sum   'Mg14 Ga1 Ni1'
_cell_volume   333.47354541
_cell_formula_units_Z   1
loop_
 _symmetry_equiv_pos_site_id
 _symmetry_equiv_pos_as_xyz
  1  'x, y, z'
loop_
 _atom_site_type_symbol
 _atom_site_label
 _atom_site_symmetry_multiplicity
 _atom_site_fract_x
 _atom_site_fract_y
 _atom_site_fract_z
 _atom_site_occupancy
  Mg  Mg0  1  0.16850567  0.33425233  0.62500000  1
  Mg  Mg1  1  0.16999193  0.83499547  0.62500000  1
  Mg  Mg2  1  0.67609804  0.33918972  0.12500000  1
  Mg  Mg3  1  0.66553133  0.33172810  0.62500000  1
  Mg  Mg4  1  0.67609804  0.83690732  0.12500000  1
  Mg  Mg5  1  0.66553133  0.83380223  0.62500000  1
  Mg  Mg6  1  0.32416753  0.16662583  0.35570752  1
  Mg  Mg7  1  0.32416753  0.16662583  0.89429248  1
  Mg  Mg8  1  0.32416753  0.65754269  0.35570752  1
  Mg  Mg9  1  0.32416753  0.65754269  0.89429248  1
  Mg  Mg10  1  0.84332934  0.17166517  0.36481541  1
  Mg  Mg11  1  0.84332934  0.17166517  0.88518459  1
  Mg  Mg12  1  0.83709909  0.66855005  0.37346119  1
  Mg  Mg13  1  0.83709909  0.66855005  0.87653881  1
  Ga  Ga14  1  0.15793349  0.82896625  0.12500000  1
  Ni  Ni15  1  0.16278320  0.33139110  0.12500000  1
