# generated using pymatgen
data_Sr2Ca2Mn3FeO12
_symmetry_space_group_name_H-M   'P 1'
_cell_length_a   7.73595773
_cell_length_b   7.73772982
_cell_length_c   7.68507090
_cell_angle_alpha   89.99968158
_cell_angle_beta   89.99936081
_cell_angle_gamma   90.00918084
_symmetry_Int_Tables_number   1
_chemical_formula_structural   Sr2Ca2Mn3FeO12
_chemical_formula_sum   'Sr4 Ca4 Mn6 Fe2 O24'
_cell_volume   460.01873864
_cell_formula_units_Z   2
loop_
 _symmetry_equiv_pos_site_id
 _symmetry_equiv_pos_as_xyz
  1  'x, y, z'
loop_
 _atom_site_type_symbol
 _atom_site_label
 _atom_site_symmetry_multiplicity
 _atom_site_fract_x
 _atom_site_fract_y
 _atom_site_fract_z
 _atom_site_occupancy
  Sr  Sr0  1  0.25041556  0.25036304  0.24999316  1
  Sr  Sr1  1  0.25030800  0.25034075  0.75000016  1
  Sr  Sr2  1  0.74966003  0.25035797  0.75000424  1
  Sr  Sr3  1  0.74966755  0.74965897  0.25000023  1
  Ca  Ca4  1  0.25045959  0.74953524  0.24999542  1
  Ca  Ca5  1  0.25056422  0.74951488  0.75000362  1
  Ca  Ca6  1  0.74947881  0.25049259  0.24999734  1
  Ca  Ca7  1  0.74944880  0.74954456  0.75000478  1
  Mn  Mn8  1  0.99997117  0.50089725  0.00002697  1
  Mn  Mn9  1  0.99995922  0.50090137  0.49997756  1
  Mn  Mn10  1  0.50005128  0.99888954  0.00003758  1
  Mn  Mn11  1  0.50005311  0.99888795  0.49996007  1
  Mn  Mn12  1  0.50005133  0.50100110  0.00004384  1
  Mn  Mn13  1  0.50004001  0.50101227  0.49996298  1
  Fe  Fe14  1  0.99996698  0.99876047  0.00003012  1
  Fe  Fe15  1  0.99997074  0.99875827  0.49997630  1
  O  O16  1  0.25372422  0.99520494  0.00002389  1
  O  O17  1  0.25372534  0.99521295  0.49996591  1
  O  O18  1  0.25061218  0.50527131  0.00001505  1
  O  O19  1  0.25061266  0.50527115  0.49998451  1
  O  O20  1  0.74625647  0.99928422  0.99996603  1
  O  O21  1  0.74625591  0.99928798  0.50003618  1
  O  O22  1  0.74938216  0.50046721  0.99997958  1
  O  O23  1  0.74938197  0.50046521  0.50002328  1
  O  O24  1  0.99791175  0.25381005  0.00201360  1
  O  O25  1  0.99791190  0.25380818  0.49798323  1
  O  O26  1  0.00201336  0.74623972  0.99807648  1
  O  O27  1  0.00201258  0.74624158  0.50191997  1
  O  O28  1  0.50243669  0.25062896  0.00244751  1
  O  O29  1  0.50243723  0.25062659  0.49755157  1
  O  O30  1  0.49762406  0.74938040  0.99759206  1
  O  O31  1  0.49761904  0.74938395  0.50241099  1
  O  O32  1  0.00003714  0.99925557  0.25000068  1
  O  O33  1  0.99997994  0.99551568  0.74999738  1
  O  O34  1  0.00002722  0.50067310  0.25000222  1
  O  O35  1  0.99997016  0.50496140  0.74999898  1
  O  O36  1  0.49997676  0.99964232  0.24999956  1
  O  O37  1  0.50001888  0.99489696  0.74999727  1
  O  O38  1  0.49998192  0.50035595  0.25000070  1
  O  O39  1  0.50002408  0.50519839  0.74999899  1
