# generated using pymatgen
data_MgGa
_symmetry_space_group_name_H-M   'P 1'
_cell_length_a   4.99505214
_cell_length_b   3.18274206
_cell_length_c   15.23822770
_cell_angle_alpha   90.00000000
_cell_angle_beta   90.00000000
_cell_angle_gamma   90.00000000
_symmetry_Int_Tables_number   1
_chemical_formula_structural   MgGa
_chemical_formula_sum   'Mg6 Ga6'
_cell_volume   242.25677312
_cell_formula_units_Z   6
loop_
 _symmetry_equiv_pos_site_id
 _symmetry_equiv_pos_as_xyz
  1  'x, y, z'
loop_
 _atom_site_type_symbol
 _atom_site_label
 _atom_site_symmetry_multiplicity
 _atom_site_fract_x
 _atom_site_fract_y
 _atom_site_fract_z
 _atom_site_occupancy
  Mg  Mg0  1  -0.00000000  0.50000000  0.50255042  1
  Mg  Mg1  1  0.00000000  0.00000000  0.32732360  1
  Mg  Mg2  1  0.50000000  0.50000000  0.05944280  1
  Mg  Mg3  1  -0.00000000  -0.00000000  0.00255042  1
  Mg  Mg4  1  0.00000000  0.50000000  0.82732360  1
  Mg  Mg5  1  0.50000000  0.00000000  0.55944280  1
  Ga  Ga6  1  0.00000000  0.50000000  0.16804893  1
  Ga  Ga7  1  0.50000000  0.50000000  0.38864920  1
  Ga  Ga8  1  0.50000000  -0.00000000  0.22065205  1
  Ga  Ga9  1  -0.00000000  0.00000000  0.66804893  1
  Ga  Ga10  1  0.50000000  -0.00000000  0.88864920  1
  Ga  Ga11  1  0.50000000  0.50000000  0.72065205  1
