# generated using pymatgen
data_Ca5Sn3S11
_symmetry_space_group_name_H-M   'P 1'
_cell_length_a   8.74992688
_cell_length_b   8.74930462
_cell_length_c   13.91527147
_cell_angle_alpha   85.13953505
_cell_angle_beta   84.22890079
_cell_angle_gamma   76.83445129
_symmetry_Int_Tables_number   1
_chemical_formula_structural   Ca5Sn3S11
_chemical_formula_sum   'Ca10 Sn6 S22'
_cell_volume   1029.93295467
_cell_formula_units_Z   2
loop_
 _symmetry_equiv_pos_site_id
 _symmetry_equiv_pos_as_xyz
  1  'x, y, z'
loop_
 _atom_site_type_symbol
 _atom_site_label
 _atom_site_symmetry_multiplicity
 _atom_site_fract_x
 _atom_site_fract_y
 _atom_site_fract_z
 _atom_site_occupancy
  Ca  Ca0  1  0.98446451  0.95883046  0.75824246  1
  Ca  Ca1  1  0.01553549  0.04116954  0.24175754  1
  Ca  Ca2  1  0.45055569  0.09977070  0.76679255  1
  Ca  Ca3  1  0.54944431  0.90022930  0.23320745  1
  Ca  Ca4  1  0.92172787  0.55268253  0.24581345  1
  Ca  Ca5  1  0.07827213  0.44731747  0.75418655  1
  Ca  Ca6  1  0.29153655  0.69981054  0.00257612  1
  Ca  Ca7  1  0.70846345  0.30018946  0.99742388  1
  Ca  Ca8  1  0.67225877  0.33371137  0.50633311  1
  Ca  Ca9  1  0.32774123  0.66628863  0.49366689  1
  Sn  Sn10  1  0.54656130  0.57096950  0.74225893  1
  Sn  Sn11  1  0.45343870  0.42903050  0.25774107  1
  Sn  Sn12  1  0.81401781  0.82407830  0.53267579  1
  Sn  Sn13  1  0.18598219  0.17592170  0.46732421  1
  Sn  Sn14  1  0.78999443  0.78405839  0.98253740  1
  Sn  Sn15  1  0.21000557  0.21594161  0.01746260  1
  S  S16  1  0.40066535  0.41361118  0.66801584  1
  S  S17  1  0.59933465  0.58638882  0.33198416  1
  S  S18  1  0.03537538  0.68339993  0.89017959  1
  S  S19  1  0.96462462  0.31660007  0.10982041  1
  S  S20  1  0.70486847  0.03043584  0.89076440  1
  S  S21  1  0.29513153  0.96956416  0.10923560  1
  S  S22  1  0.04945885  0.71001961  0.61277592  1
  S  S23  1  0.95054115  0.28998039  0.38722408  1
  S  S24  1  0.71533174  0.05607465  0.62030930  1
  S  S25  1  0.28466826  0.94392535  0.37969070  1
  S  S26  1  0.86179248  0.84667377  0.13686748  1
  S  S27  1  0.13820752  0.15332623  0.86313252  1
  S  S28  1  0.62755129  0.64834138  0.56930871  1
  S  S29  1  0.37244871  0.35165862  0.43069129  1
  S  S30  1  0.16108823  0.15575697  0.63863358  1
  S  S31  1  0.83891177  0.84424303  0.36136642  1
  S  S32  1  0.38851041  0.37792232  0.95622157  1
  S  S33  1  0.61148959  0.62207768  0.04377843  1
  S  S34  1  0.38232592  0.79978144  0.80612580  1
  S  S35  1  0.61767408  0.20021856  0.19387420  1
  S  S36  1  0.77470878  0.39961229  0.79869637  1
  S  S37  1  0.22529122  0.60038771  0.20130363  1
