# generated using pymatgen
data_TmAlO3
_symmetry_space_group_name_H-M   'P 1'
_cell_length_a   3.43128756
_cell_length_b   3.43128409
_cell_length_c   11.45834415
_cell_angle_alpha   89.99987430
_cell_angle_beta   90.00000684
_cell_angle_gamma   120.00014962
_symmetry_Int_Tables_number   1
_chemical_formula_structural   TmAlO3
_chemical_formula_sum   'Tm2 Al2 O6'
_cell_volume   116.83302768
_cell_formula_units_Z   2
loop_
 _symmetry_equiv_pos_site_id
 _symmetry_equiv_pos_as_xyz
  1  'x, y, z'
loop_
 _atom_site_type_symbol
 _atom_site_label
 _atom_site_symmetry_multiplicity
 _atom_site_fract_x
 _atom_site_fract_y
 _atom_site_fract_z
 _atom_site_occupancy
  Tm  Tm0  1  0.00000012  0.00003401  0.00000108  1
  Tm  Tm1  1  -0.00000289  0.00001959  0.50001006  1
  Al  Al2  1  0.33333809  0.66667112  0.25000104  1
  Al  Al3  1  0.66666432  0.33334245  0.74999998  1
  O  O4  1  0.33333246  0.66670395  0.09025035  1
  O  O5  1  0.33333294  0.66668221  0.40974901  1
  O  O6  1  0.00000271  0.00001288  0.24999454  1
  O  O7  1  0.00000080  0.00001532  0.74999416  1
  O  O8  1  0.66666659  0.33337260  0.90974274  1
  O  O9  1  0.66666486  0.33334487  0.59025705  1
