# generated using pymatgen
data_Ba7Sr(CuO3)8
_symmetry_space_group_name_H-M   'P 1'
_cell_length_a   7.99581807
_cell_length_b   7.99581807
_cell_length_c   7.99581807
_cell_angle_alpha   90.00000000
_cell_angle_beta   90.00000000
_cell_angle_gamma   90.00000000
_symmetry_Int_Tables_number   1
_chemical_formula_structural   Ba7Sr(CuO3)8
_chemical_formula_sum   'Ba7 Sr1 Cu8 O24'
_cell_volume   511.19748909
_cell_formula_units_Z   1
loop_
 _symmetry_equiv_pos_site_id
 _symmetry_equiv_pos_as_xyz
  1  'x, y, z'
loop_
 _atom_site_type_symbol
 _atom_site_label
 _atom_site_symmetry_multiplicity
 _atom_site_fract_x
 _atom_site_fract_y
 _atom_site_fract_z
 _atom_site_occupancy
  Ba  Ba0  1  0.25000000  0.25000000  0.25000000  1
  Ba  Ba1  1  0.25000000  0.25000000  0.75000000  1
  Ba  Ba2  1  0.25000000  0.75000000  0.25000000  1
  Ba  Ba3  1  0.25000000  0.75000000  0.75000000  1
  Ba  Ba4  1  0.75000000  0.25000000  0.25000000  1
  Ba  Ba5  1  0.75000000  0.75000000  0.25000000  1
  Ba  Ba6  1  0.75000000  0.75000000  0.75000000  1
  Sr  Sr7  1  0.75000000  0.25000000  0.75000000  1
  Cu  Cu8  1  0.99997624  0.00002376  0.99997624  1
  Cu  Cu9  1  0.99997624  0.00002376  0.50002376  1
  Cu  Cu10  1  0.99997624  0.49997624  0.99997624  1
  Cu  Cu11  1  0.99997624  0.49997624  0.50002376  1
  Cu  Cu12  1  0.50002376  0.00002376  0.99997624  1
  Cu  Cu13  1  0.50002376  0.00002376  0.50002376  1
  Cu  Cu14  1  0.50002376  0.49997624  0.99997624  1
  Cu  Cu15  1  0.50002376  0.49997624  0.50002376  1
  O  O16  1  0.25000000  0.00047027  0.99952973  1
  O  O17  1  0.25000000  0.00047027  0.50047027  1
  O  O18  1  0.25000000  0.49952973  0.99952973  1
  O  O19  1  0.25000000  0.49952973  0.50047027  1
  O  O20  1  0.75000000  0.00530724  0.99469276  1
  O  O21  1  0.75000000  0.00530724  0.50530724  1
  O  O22  1  0.75000000  0.49469276  0.99469276  1
  O  O23  1  0.75000000  0.49469276  0.50530724  1
  O  O24  1  0.99469276  0.25000000  0.99469276  1
  O  O25  1  0.99469276  0.25000000  0.50530724  1
  O  O26  1  0.99952973  0.75000000  0.99952973  1
  O  O27  1  0.99952973  0.75000000  0.50047027  1
  O  O28  1  0.50530724  0.25000000  0.99469276  1
  O  O29  1  0.50530724  0.25000000  0.50530724  1
  O  O30  1  0.50047027  0.75000000  0.99952973  1
  O  O31  1  0.50047027  0.75000000  0.50047027  1
  O  O32  1  0.99952973  0.00047027  0.25000000  1
  O  O33  1  0.99469276  0.00530724  0.75000000  1
  O  O34  1  0.99952973  0.49952973  0.25000000  1
  O  O35  1  0.99469276  0.49469276  0.75000000  1
  O  O36  1  0.50047027  0.00047027  0.25000000  1
  O  O37  1  0.50530724  0.00530724  0.75000000  1
  O  O38  1  0.50047027  0.49952973  0.25000000  1
  O  O39  1  0.50530724  0.49469276  0.75000000  1
