# generated using pymatgen
data_KNa3V2(MoO5)2
_symmetry_space_group_name_H-M   'P 1'
_cell_length_a   11.33167536
_cell_length_b   11.66295968
_cell_length_c   16.77112112
_cell_angle_alpha   110.53933596
_cell_angle_beta   109.13437514
_cell_angle_gamma   89.98049776
_symmetry_Int_Tables_number   1
_chemical_formula_structural   KNa3V2(MoO5)2
_chemical_formula_sum   'K8 Na24 V16 Mo16 O80'
_cell_volume   1944.37669423
_cell_formula_units_Z   8
loop_
 _symmetry_equiv_pos_site_id
 _symmetry_equiv_pos_as_xyz
  1  'x, y, z'
loop_
 _atom_site_type_symbol
 _atom_site_label
 _atom_site_symmetry_multiplicity
 _atom_site_fract_x
 _atom_site_fract_y
 _atom_site_fract_z
 _atom_site_occupancy
  K  K0  1  0.30682663  0.07065809  0.11761052  1
  K  K1  1  0.30700220  0.57082778  0.11732176  1
  K  K2  1  0.80589721  0.07152242  0.11734273  1
  K  K3  1  0.80573621  0.57083307  0.11696488  1
  K  K4  1  0.18542986  0.92520491  0.87725520  1
  K  K5  1  0.05531085  0.79648555  0.11761102  1
  K  K6  1  0.55746294  0.29676979  0.11654844  1
  K  K7  1  0.55725516  0.79599295  0.11700253  1
  Na  Na8  1  0.30510521  0.07094021  0.60885164  1
  Na  Na9  1  0.30574975  0.57057637  0.60891779  1
  Na  Na10  1  0.80566319  0.07101687  0.60902805  1
  Na  Na11  1  0.80527969  0.57103927  0.60917544  1
  Na  Na12  1  0.19862825  0.43249966  0.39453591  1
  Na  Na13  1  0.19623188  0.42778797  0.88865783  1
  Na  Na14  1  0.19963098  0.93197087  0.39547554  1
  Na  Na15  1  0.70057428  0.43379470  0.39669089  1
  Na  Na16  1  0.69587593  0.42781805  0.88818852  1
  Na  Na17  1  0.70001344  0.93335904  0.39685191  1
  Na  Na18  1  0.69682683  0.92854589  0.88847382  1
  Na  Na19  1  0.05508565  0.29064127  0.10641030  1
  Na  Na20  1  0.05476264  0.28826121  0.60757033  1
  Na  Na21  1  0.05453400  0.78692494  0.60625422  1
  Na  Na22  1  0.55564864  0.28819661  0.60906464  1
  Na  Na23  1  0.55519249  0.78783400  0.60886147  1
  Na  Na24  1  0.44996158  0.21383935  0.39701475  1
  Na  Na25  1  0.44678498  0.20964783  0.88887814  1
  Na  Na26  1  0.45072591  0.71336058  0.39671709  1
  Na  Na27  1  0.44562818  0.71007218  0.88872055  1
  Na  Na28  1  0.95001848  0.21328583  0.39683284  1
  Na  Na29  1  0.94756811  0.21023322  0.88955916  1
  Na  Na30  1  0.94969797  0.71357880  0.39687183  1
  Na  Na31  1  0.94600986  0.71020694  0.88924756  1
  V  V32  1  0.11129277  0.09485280  0.25711123  1
  V  V33  1  0.10017272  0.08690374  0.74393896  1
  V  V34  1  0.10910830  0.58583498  0.25458315  1
  V  V35  1  0.09991797  0.57881095  0.74604882  1
  V  V36  1  0.61201114  0.09095504  0.25748209  1
  V  V37  1  0.60356912  0.08687097  0.74765684  1
  V  V38  1  0.61009406  0.58908485  0.25745530  1
  V  V39  1  0.60088380  0.58411493  0.74692867  1
  V  V40  1  0.35597906  0.41479955  0.25545047  1
  V  V41  1  0.35122496  0.41191567  0.74687708  1
  V  V42  1  0.36106864  0.91736045  0.25761974  1
  V  V43  1  0.35478794  0.91308080  0.74384132  1
  V  V44  1  0.86337876  0.41647553  0.25748343  1
  V  V45  1  0.85080476  0.41167942  0.74783094  1
  V  V46  1  0.86167576  0.91680346  0.25706155  1
  V  V47  1  0.84976810  0.91319301  0.74774602  1
  Mo  Mo48  1  0.99978674  0.99859672  0.99658769  1
  Mo  Mo49  1  0.00689149  0.00022401  0.50022845  1
  Mo  Mo50  1  0.00002951  0.49602436  0.99435326  1
  Mo  Mo51  1  0.00763045  0.49998120  0.50135164  1
  Mo  Mo52  1  0.49926808  0.99605720  0.99322411  1
  Mo  Mo53  1  0.50730402  0.00024913  0.50117050  1
  Mo  Mo54  1  0.49968230  0.49580010  0.99296694  1
  Mo  Mo55  1  0.50623120  0.49942725  0.50038971  1
  Mo  Mo56  1  0.25062751  0.24852369  0.99520639  1
  Mo  Mo57  1  0.25742325  0.25113043  0.50113336  1
  Mo  Mo58  1  0.24990145  0.74642213  0.99475366  1
  Mo  Mo59  1  0.25749674  0.74985673  0.49951453  1
  Mo  Mo60  1  0.75146656  0.24786939  0.99455045  1
  Mo  Mo61  1  0.75700000  0.25107460  0.50084180  1
  Mo  Mo62  1  0.74911924  0.74664235  0.99258394  1
  Mo  Mo63  1  0.75704656  0.75107431  0.50113497  1
  O  O64  1  0.12413003  0.11689276  0.48323680  1
  O  O65  1  0.11815216  0.12207299  0.98698223  1
  O  O66  1  0.12461857  0.61714903  0.48444465  1
  O  O67  1  0.11828638  0.61346655  0.97976310  1
  O  O68  1  0.62431353  0.11698999  0.48411604  1
  O  O69  1  0.61782645  0.11337847  0.97749453  1
  O  O70  1  0.62423312  0.61688401  0.48408346  1
  O  O71  1  0.61722958  0.61393577  0.97771063  1
  O  O72  1  0.13064046  0.37756581  0.00719475  1
  O  O73  1  0.14120612  0.38430190  0.51935116  1
  O  O74  1  0.12877313  0.87632493  0.00737263  1
  O  O75  1  0.14061176  0.88356163  0.51691717  1
  O  O76  1  0.62992896  0.37596057  0.00272700  1
  O  O77  1  0.64023583  0.38363961  0.51795753  1
  O  O78  1  0.62807450  0.87527764  0.00157859  1
  O  O79  1  0.64094077  0.88408816  0.51898032  1
  O  O80  1  0.37432537  0.11705673  0.48397935  1
  O  O81  1  0.37007405  0.11703980  0.98147099  1
  O  O82  1  0.37341209  0.61549934  0.48206995  1
  O  O83  1  0.36841161  0.61376898  0.97957807  1
  O  O84  1  0.87352504  0.11664708  0.48302239  1
  O  O85  1  0.86957054  0.11683091  0.98107521  1
  O  O86  1  0.87468651  0.61736861  0.48459222  1
  O  O87  1  0.86699879  0.61307203  0.97795394  1
  O  O88  1  0.37885643  0.37697530  0.00231928  1
  O  O89  1  0.39125996  0.38513643  0.51944294  1
  O  O90  1  0.38077862  0.87609403  0.00497256  1
  O  O91  1  0.39050659  0.88435696  0.51779507  1
  O  O92  1  0.88443861  0.37721759  0.00824939  1
  O  O93  1  0.89118307  0.38511095  0.51940371  1
  O  O94  1  0.87919808  0.87847484  0.00488292  1
  O  O95  1  0.89103825  0.88516111  0.51889546  1
  O  O96  1  0.07250065  0.09720665  0.14519200  1
  O  O97  1  0.07771699  0.11122749  0.64169554  1
  O  O98  1  0.07257430  0.58705979  0.14331341  1
  O  O99  1  0.08122404  0.60538040  0.64431328  1
  O  O100  1  0.57450234  0.08411363  0.14359726  1
  O  O101  1  0.58256026  0.10616824  0.64345180  1
  O  O102  1  0.57251315  0.58283053  0.14361436  1
  O  O103  1  0.58087169  0.60444816  0.64312028  1
  O  O104  1  0.43778939  0.38844455  0.35677034  1
  O  O105  1  0.43514568  0.39336426  0.85041678  1
  O  O106  1  0.44285819  0.88860258  0.35749213  1
  O  O107  1  0.42997055  0.89630882  0.84943375  1
  O  O108  1  0.94501542  0.38860878  0.35798575  1
  O  O109  1  0.93486142  0.39286187  0.85135653  1
  O  O110  1  0.94436066  0.88766290  0.35655647  1
  O  O111  1  0.93116145  0.89661219  0.85267773  1
  O  O112  1  0.32679147  0.30820086  0.14284436  1
  O  O113  1  0.33246686  0.28769754  0.64322163  1
  O  O114  1  0.32402369  0.80904736  0.14430403  1
  O  O115  1  0.33689894  0.78660351  0.64166239  1
  O  O116  1  0.82703725  0.30934525  0.14358216  1
  O  O117  1  0.83048709  0.28813054  0.64340248  1
  O  O118  1  0.82213299  0.80967471  0.14280106  1
  O  O119  1  0.83106859  0.78860651  0.64409886  1
  O  O120  1  0.19478003  0.22047955  0.35855781  1
  O  O121  1  0.18257308  0.20381828  0.85156045  1
  O  O122  1  0.19579414  0.71281977  0.35570256  1
  O  O123  1  0.18616957  0.69491617  0.85174512  1
  O  O124  1  0.69433557  0.21980381  0.35767979  1
  O  O125  1  0.68897844  0.20787029  0.85173124  1
  O  O126  1  0.69271464  0.71842665  0.35767834  1
  O  O127  1  0.68550723  0.70679820  0.85032447  1
  O  O128  1  0.45712396  0.05523027  0.26759557  1
  O  O129  1  0.43955716  0.05409862  0.74709338  1
  O  O130  1  0.45390122  0.55373074  0.26695946  1
  O  O131  1  0.43667807  0.55142221  0.74765962  1
  O  O132  1  0.95696764  0.05496852  0.26669739  1
  O  O133  1  0.93862407  0.04973608  0.74745936  1
  O  O134  1  0.95443306  0.55745038  0.26730570  1
  O  O135  1  0.93571432  0.55033968  0.74749204  1
  O  O136  1  0.19257359  0.44697513  0.25578543  1
  O  O137  1  0.18558307  0.44052158  0.74583007  1
  O  O138  1  0.20574188  0.96485956  0.26576868  1
  O  O139  1  0.18886370  0.94939916  0.73346455  1
  O  O140  1  0.70729985  0.46128926  0.26703880  1
  O  O141  1  0.68652876  0.44564310  0.74778692  1
  O  O142  1  0.70696245  0.96215832  0.26752887  1
  O  O143  1  0.68583453  0.94632108  0.74742164  1
