# generated using pymatgen
data_TlIn5S8
_symmetry_space_group_name_H-M   'P 1'
_cell_length_a   4.11813165
_cell_length_b   9.38672236
_cell_length_c   9.68812855
_cell_angle_alpha   104.79705063
_cell_angle_beta   101.55322031
_cell_angle_gamma   90.02123244
_symmetry_Int_Tables_number   1
_chemical_formula_structural   TlIn5S8
_chemical_formula_sum   'Tl1 In5 S8'
_cell_volume   354.22095631
_cell_formula_units_Z   1
loop_
 _symmetry_equiv_pos_site_id
 _symmetry_equiv_pos_as_xyz
  1  'x, y, z'
loop_
 _atom_site_type_symbol
 _atom_site_label
 _atom_site_symmetry_multiplicity
 _atom_site_fract_x
 _atom_site_fract_y
 _atom_site_fract_z
 _atom_site_occupancy
  Tl  Tl0  1  0.53485840  0.48087511  0.06553640  1
  In  In1  1  0.99948457  0.99975135  0.99839654  1
  In  In2  1  0.28533689  0.66234522  0.57589271  1
  In  In3  1  0.37148346  0.08278634  0.70582429  1
  In  In4  1  0.63168977  0.91374919  0.28976494  1
  In  In5  1  0.72052272  0.33304046  0.43116916  1
  S  S6  1  0.06068473  0.79411417  0.13378246  1
  S  S7  1  0.16748424  0.46944767  0.32891186  1
  S  S8  1  0.24209509  0.15745236  0.47873259  1
  S  S9  1  0.41142124  0.87394505  0.82539765  1
  S  S10  1  0.58817267  0.12676653  0.17461677  1
  S  S11  1  0.74823473  0.84882282  0.52096333  1
  S  S12  1  0.82883100  0.53209513  0.66623445  1
  S  S13  1  0.93968048  0.20469859  0.86473684  1
