# generated using pymatgen
data_La7SmMnFe7O20
_symmetry_space_group_name_H-M   'P 1'
_cell_length_a   11.03453130
_cell_length_b   11.82867408
_cell_length_c   17.80188829
_cell_angle_alpha   109.41459914
_cell_angle_beta   108.00320621
_cell_angle_gamma   89.93456583
_symmetry_Int_Tables_number   1
_chemical_formula_structural   La7SmMnFe7O20
_chemical_formula_sum   'La28 Sm4 Mn4 Fe28 O80'
_cell_volume   2070.74181141
_cell_formula_units_Z   4
loop_
 _symmetry_equiv_pos_site_id
 _symmetry_equiv_pos_as_xyz
  1  'x, y, z'
loop_
 _atom_site_type_symbol
 _atom_site_label
 _atom_site_symmetry_multiplicity
 _atom_site_fract_x
 _atom_site_fract_y
 _atom_site_fract_z
 _atom_site_occupancy
  La  La0  1  0.30184494  0.06225159  0.11171800  1
  La  La1  1  0.30535227  0.06404676  0.60960987  1
  La  La2  1  0.30484101  0.56618655  0.61054283  1
  La  La3  1  0.80516892  0.06451843  0.61146606  1
  La  La4  1  0.80482749  0.56480881  0.11085062  1
  La  La5  1  0.80302426  0.56429495  0.61023878  1
  La  La6  1  0.19357110  0.43494084  0.38798692  1
  La  La7  1  0.19184864  0.43592664  0.89277827  1
  La  La8  1  0.19203496  0.93371474  0.38612629  1
  La  La9  1  0.19288897  0.93567563  0.88901772  1
  La  La10  1  0.69359852  0.43534022  0.38831157  1
  La  La11  1  0.69318080  0.93507729  0.38957958  1
  La  La12  1  0.69260120  0.93640723  0.88904091  1
  La  La13  1  0.05367080  0.29697143  0.11140774  1
  La  La14  1  0.05324941  0.29393580  0.60935740  1
  La  La15  1  0.05281615  0.79651719  0.60997903  1
  La  La16  1  0.55511464  0.29600750  0.11137900  1
  La  La17  1  0.55513109  0.29797804  0.61327442  1
  La  La18  1  0.55046362  0.79642170  0.11100216  1
  La  La19  1  0.55487914  0.79643454  0.61133239  1
  La  La20  1  0.44404767  0.20306979  0.38888313  1
  La  La21  1  0.44649911  0.20642487  0.89033388  1
  La  La22  1  0.44293372  0.70254205  0.38693196  1
  La  La23  1  0.44434797  0.70411635  0.88935432  1
  La  La24  1  0.94378596  0.20427472  0.38782046  1
  La  La25  1  0.94052494  0.20396745  0.88929387  1
  La  La26  1  0.94368427  0.70234955  0.38699372  1
  La  La27  1  0.94282601  0.70369779  0.89102841  1
  Sm  Sm28  1  0.30170550  0.56575810  0.10994585  1
  Sm  Sm29  1  0.80253225  0.06604973  0.10812324  1
  Sm  Sm30  1  0.69203032  0.43536443  0.89146864  1
  Sm  Sm31  1  0.05451901  0.79411179  0.11049187  1
  Mn  Mn32  1  0.10861485  0.59585939  0.75043512  1
  Mn  Mn33  1  0.36229648  0.40313864  0.75102755  1
  Mn  Mn34  1  0.36008274  0.90442527  0.75048994  1
  Mn  Mn35  1  0.86003171  0.90386367  0.24701376  1
  Fe  Fe36  1  0.00549358  0.99947459  0.00184042  1
  Fe  Fe37  1  0.00546868  0.99844535  0.49883539  1
  Fe  Fe38  1  0.00504300  0.50162957  0.00115053  1
  Fe  Fe39  1  0.00558780  0.50028910  0.50009863  1
  Fe  Fe40  1  0.50596052  0.99960914  0.00108918  1
  Fe  Fe41  1  0.50489042  0.99972278  0.49945092  1
  Fe  Fe42  1  0.50579556  0.50055744  0.00039154  1
  Fe  Fe43  1  0.50460434  0.49975062  0.49938287  1
  Fe  Fe44  1  0.25555418  0.25063995  0.00160439  1
  Fe  Fe45  1  0.25557162  0.24908326  0.49938989  1
  Fe  Fe46  1  0.25513685  0.74956799  0.00011196  1
  Fe  Fe47  1  0.25553778  0.74972891  0.49928324  1
  Fe  Fe48  1  0.75496191  0.25084579  0.00057262  1
  Fe  Fe49  1  0.75486444  0.24981822  0.49988593  1
  Fe  Fe50  1  0.75742135  0.75111118  0.00193885  1
  Fe  Fe51  1  0.75440959  0.74996425  0.49948078  1
  Fe  Fe52  1  0.10849493  0.10000143  0.24785288  1
  Fe  Fe53  1  0.11218114  0.10382537  0.75087284  1
  Fe  Fe54  1  0.11356961  0.60270214  0.24796446  1
  Fe  Fe55  1  0.61342739  0.10125515  0.24906980  1
  Fe  Fe56  1  0.61298588  0.10470424  0.75054816  1
  Fe  Fe57  1  0.60830008  0.60102244  0.24818093  1
  Fe  Fe58  1  0.61416945  0.60237162  0.75216522  1
  Fe  Fe59  1  0.36085767  0.39811971  0.24807399  1
  Fe  Fe60  1  0.35946940  0.89564588  0.24823260  1
  Fe  Fe61  1  0.86174402  0.39693486  0.24919866  1
  Fe  Fe62  1  0.85971706  0.39812803  0.75153506  1
  Fe  Fe63  1  0.86226923  0.89801908  0.75102790  1
  O  O64  1  0.11577656  0.11696937  0.47794424  1
  O  O65  1  0.11425086  0.11846365  0.97865751  1
  O  O66  1  0.11550470  0.61688130  0.47648640  1
  O  O67  1  0.11663346  0.61994753  0.98121721  1
  O  O68  1  0.61613540  0.11706870  0.47814290  1
  O  O69  1  0.61642696  0.11920262  0.98010194  1
  O  O70  1  0.61562264  0.61705401  0.47875611  1
  O  O71  1  0.61644468  0.61610110  0.97591466  1
  O  O72  1  0.13955501  0.38745163  0.02449768  1
  O  O73  1  0.13621405  0.38156570  0.52091161  1
  O  O74  1  0.13656590  0.88150832  0.02581929  1
  O  O75  1  0.13778619  0.88249874  0.52183824  1
  O  O76  1  0.63558638  0.38286674  0.02102023  1
  O  O77  1  0.63687397  0.38251753  0.52147985  1
  O  O78  1  0.64252566  0.88764769  0.02635825  1
  O  O79  1  0.63771558  0.88325529  0.52105736  1
  O  O80  1  0.36494203  0.10939965  0.47638972  1
  O  O81  1  0.36546127  0.10909339  0.97866858  1
  O  O82  1  0.36544846  0.60995055  0.47666597  1
  O  O83  1  0.36566039  0.60945487  0.98017216  1
  O  O84  1  0.86689336  0.11182062  0.47907761  1
  O  O85  1  0.86452411  0.10973930  0.98104226  1
  O  O86  1  0.86604039  0.61114159  0.47865904  1
  O  O87  1  0.86276532  0.60736755  0.97432755  1
  O  O88  1  0.38579583  0.39207428  0.02507566  1
  O  O89  1  0.38664724  0.38750081  0.52014371  1
  O  O90  1  0.38811997  0.88811729  0.02328664  1
  O  O91  1  0.38771706  0.88782137  0.52096658  1
  O  O92  1  0.88392393  0.38863891  0.01938937  1
  O  O93  1  0.88696440  0.38844087  0.52130071  1
  O  O94  1  0.89153575  0.89162869  0.02844025  1
  O  O95  1  0.88648798  0.88886502  0.52057115  1
  O  O96  1  0.09267829  0.11708076  0.13964958  1
  O  O97  1  0.09145266  0.11375653  0.63986802  1
  O  O98  1  0.10026359  0.61654316  0.13917526  1
  O  O99  1  0.09455227  0.61687019  0.63951853  1
  O  O100  1  0.60160040  0.11489293  0.14047211  1
  O  O101  1  0.59245296  0.11466205  0.63932353  1
  O  O102  1  0.59354979  0.61641239  0.13955280  1
  O  O103  1  0.59223570  0.61326646  0.64105615  1
  O  O104  1  0.45133908  0.38550678  0.35881382  1
  O  O105  1  0.46463267  0.38448993  0.86127845  1
  O  O106  1  0.45075790  0.88510128  0.35940465  1
  O  O107  1  0.45632319  0.88397273  0.86168012  1
  O  O108  1  0.95086966  0.38567162  0.35993083  1
  O  O109  1  0.95374948  0.38522797  0.86108043  1
  O  O110  1  0.95534159  0.88317021  0.35878516  1
  O  O111  1  0.95293160  0.88594349  0.86142101  1
  O  O112  1  0.34325809  0.27157641  0.14014818  1
  O  O113  1  0.34586861  0.27283171  0.63902621  1
  O  O114  1  0.34233639  0.77100499  0.13980083  1
  O  O115  1  0.34601339  0.77374431  0.63920492  1
  O  O116  1  0.84118227  0.27365800  0.13913347  1
  O  O117  1  0.84051743  0.27654799  0.64081663  1
  O  O118  1  0.85694989  0.76974980  0.13962103  1
  O  O119  1  0.84049147  0.77580674  0.64006249  1
  O  O120  1  0.19825213  0.22179170  0.35843886  1
  O  O121  1  0.20360287  0.22560045  0.86123574  1
  O  O122  1  0.20271303  0.72474891  0.35907048  1
  O  O123  1  0.20570898  0.72701837  0.86138613  1
  O  O124  1  0.70201965  0.22422056  0.35966775  1
  O  O125  1  0.70204760  0.22748244  0.86096108  1
  O  O126  1  0.69990054  0.72336508  0.35952224  1
  O  O127  1  0.70427713  0.72801406  0.86156316  1
  O  O128  1  0.42010414  0.06759498  0.25017003  1
  O  O129  1  0.41973054  0.07339787  0.75062509  1
  O  O130  1  0.41249341  0.56963166  0.24429084  1
  O  O131  1  0.41841918  0.57244701  0.74992945  1
  O  O132  1  0.91209103  0.07371183  0.24452872  1
  O  O133  1  0.91866710  0.07055526  0.75088727  1
  O  O134  1  0.92091705  0.56784758  0.24899705  1
  O  O135  1  0.91613835  0.57098354  0.75049887  1
  O  O136  1  0.16834420  0.43035993  0.24954759  1
  O  O137  1  0.16900195  0.42596692  0.75100537  1
  O  O138  1  0.16292154  0.92534898  0.24415651  1
  O  O139  1  0.16766404  0.92968900  0.75028028  1
  O  O140  1  0.66840930  0.43117237  0.25006867  1
  O  O141  1  0.66787621  0.43050119  0.75623182  1
  O  O142  1  0.66824788  0.92747179  0.24972848  1
  O  O143  1  0.66850033  0.93209791  0.75013897  1
