# generated using pymatgen
data_TbCeO4
_symmetry_space_group_name_H-M   'P 1'
_cell_length_a   7.89812067
_cell_length_b   7.66808589
_cell_length_c   10.50945734
_cell_angle_alpha   46.74063817
_cell_angle_beta   89.99777381
_cell_angle_gamma   59.00570170
_symmetry_Int_Tables_number   1
_chemical_formula_structural   TbCeO4
_chemical_formula_sum   'Tb4 Ce4 O16'
_cell_volume   327.78404371
_cell_formula_units_Z   4
loop_
 _symmetry_equiv_pos_site_id
 _symmetry_equiv_pos_as_xyz
  1  'x, y, z'
loop_
 _atom_site_type_symbol
 _atom_site_label
 _atom_site_symmetry_multiplicity
 _atom_site_fract_x
 _atom_site_fract_y
 _atom_site_fract_z
 _atom_site_occupancy
  Tb  Tb0  1  0.24202791  0.00631166  0.61744683  1
  Tb  Tb1  1  0.24142920  0.49997214  0.62155236  1
  Tb  Tb2  1  0.74001758  0.50840576  0.11767718  1
  Tb  Tb3  1  0.74092129  0.00078574  0.62023973  1
  Ce  Ce4  1  0.24007876  0.50610000  0.11780008  1
  Ce  Ce5  1  0.24027647  0.00548361  0.11906047  1
  Ce  Ce6  1  0.74168403  0.00438723  0.11976187  1
  Ce  Ce7  1  0.74246352  0.50215371  0.61939126  1
  O  O8  1  0.98268930  0.51232034  0.48949259  1
  O  O9  1  0.99115917  0.00398503  0.24904230  1
  O  O10  1  0.99130663  0.51202724  0.24008127  1
  O  O11  1  0.99146800  0.00465974  0.99449245  1
  O  O12  1  0.99118110  0.00463747  0.49357631  1
  O  O13  1  0.99132908  0.00421027  0.73984819  1
  O  O14  1  0.99144496  0.49595365  0.74823901  1
  O  O15  1  0.49119832  0.00407829  0.49279855  1
  O  O16  1  0.49165381  0.49564225  0.99809708  1
  O  O17  1  0.49149675  0.00422408  0.74414066  1
  O  O18  1  0.49825124  0.49655681  0.74743203  1
  O  O19  1  0.49141133  0.00406608  -0.00412398  1
  O  O20  1  0.49128366  0.00473317  0.24412948  1
  O  O21  1  0.48330402  0.51192930  0.24024298  1
  O  O22  1  0.49150301  0.51186884  0.49043037  1
  O  O23  1  0.99934385  0.49549160  0.99869394  1
