# generated using pymatgen
data_BiH18C3S3(O2F)9
_symmetry_space_group_name_H-M   'P 1'
_cell_length_a   7.31179053
_cell_length_b   14.07372748
_cell_length_c   14.07370928
_cell_angle_alpha   120.00039646
_cell_angle_beta   90.00000000
_cell_angle_gamma   90.00000000
_symmetry_Int_Tables_number   1
_chemical_formula_structural   BiH18C3S3(O2F)9
_chemical_formula_sum   'Bi2 H36 C6 S6 O36 F18'
_cell_volume   1254.21026343
_cell_formula_units_Z   2
loop_
 _symmetry_equiv_pos_site_id
 _symmetry_equiv_pos_as_xyz
  1  'x, y, z'
loop_
 _atom_site_type_symbol
 _atom_site_label
 _atom_site_symmetry_multiplicity
 _atom_site_fract_x
 _atom_site_fract_y
 _atom_site_fract_z
 _atom_site_occupancy
  Bi  Bi0  1  0.75000000  0.66665931  0.33332956  1
  Bi  Bi1  1  0.25000000  0.33334069  0.66667044  1
  H  H2  1  0.54122369  0.86917365  0.50673112  1
  H  H3  1  0.54122692  0.49326538  0.36244158  1
  H  H4  1  0.54122515  0.63755730  0.13082377  1
  H  H5  1  0.04122369  0.13082635  0.49326888  1
  H  H6  1  0.04122692  0.50673462  0.63755842  1
  H  H7  1  0.04122515  0.36244270  0.86917623  1
  H  H8  1  0.45877631  0.13082635  0.49326888  1
  H  H9  1  0.45877308  0.50673462  0.63755842  1
  H  H10  1  0.45877485  0.36244270  0.86917623  1
  H  H11  1  0.95877631  0.86917365  0.50673112  1
  H  H12  1  0.95877308  0.49326538  0.36244158  1
  H  H13  1  0.95877485  0.63755730  0.13082377  1
  H  H14  1  0.42583280  0.76777432  0.49183949  1
  H  H15  1  0.42582914  0.50815593  0.27593254  1
  H  H16  1  0.42582970  0.72406376  0.23222555  1
  H  H17  1  0.92583280  0.23222568  0.50816051  1
  H  H18  1  0.92582914  0.49184407  0.72406746  1
  H  H19  1  0.92582970  0.27593624  0.76777445  1
  H  H20  1  0.57416720  0.23222568  0.50816051  1
  H  H21  1  0.57417086  0.49184407  0.72406746  1
  H  H22  1  0.57417030  0.27593624  0.76777445  1
  H  H23  1  0.07416720  0.76777432  0.49183949  1
  H  H24  1  0.07417086  0.50815593  0.27593254  1
  H  H25  1  0.07417030  0.72406376  0.23222555  1
  H  H26  1  0.64099487  0.64498081  0.54707377  1
  H  H27  1  0.64099411  0.45292271  0.09790720  1
  H  H28  1  0.64099604  0.90209174  0.35501671  1
  H  H29  1  0.14099487  0.35501919  0.45292623  1
  H  H30  1  0.14099411  0.54707729  0.90209280  1
  H  H31  1  0.14099604  0.09790826  0.64498329  1
  H  H32  1  0.35900513  0.35501919  0.45292623  1
  H  H33  1  0.35900589  0.54707729  0.90209280  1
  H  H34  1  0.35900396  0.09790826  0.64498329  1
  H  H35  1  0.85900513  0.64498081  0.54707377  1
  H  H36  1  0.85900589  0.45292271  0.09790720  1
  H  H37  1  0.85900396  0.90209174  0.35501671  1
  C  C38  1  0.75000000  0.00874251  0.77691876  1
  C  C39  1  0.75000000  0.22308224  0.23182211  1
  C  C40  1  0.75000000  0.76817774  0.99125858  1
  C  C41  1  0.25000000  0.99125749  0.22308124  1
  C  C42  1  0.25000000  0.77691776  0.76817789  1
  C  C43  1  0.25000000  0.23182226  0.00874142  1
  S  S44  1  0.75000000  0.05901855  0.67667313  1
  S  S45  1  0.75000000  0.32332777  0.38234442  1
  S  S46  1  0.75000000  0.61765616  0.94098091  1
  S  S47  1  0.25000000  0.94098145  0.32332687  1
  S  S48  1  0.25000000  0.67667223  0.61765558  1
  S  S49  1  0.25000000  0.38234384  0.05901909  1
  O  O50  1  0.50598173  0.79328015  0.45259685  1
  O  O51  1  0.50598199  0.54739654  0.34067980  1
  O  O52  1  0.50598313  0.65931760  0.20671677  1
  O  O53  1  0.00598173  0.20671985  0.54740315  1
  O  O54  1  0.00598199  0.45260346  0.65932020  1
  O  O55  1  0.00598313  0.34068240  0.79328323  1
  O  O56  1  0.49401827  0.20671985  0.54740315  1
  O  O57  1  0.49401801  0.45260346  0.65932020  1
  O  O58  1  0.49401687  0.34068240  0.79328323  1
  O  O59  1  0.99401827  0.79328015  0.45259685  1
  O  O60  1  0.99401801  0.54739654  0.34067980  1
  O  O61  1  0.99401687  0.65931760  0.20671677  1
  O  O62  1  0.75000000  0.65641641  0.51317763  1
  O  O63  1  0.75000000  0.48681513  0.14324049  1
  O  O64  1  0.75000000  0.85675973  0.34358056  1
  O  O65  1  0.25000000  0.34358359  0.48682237  1
  O  O66  1  0.25000000  0.51318487  0.85675951  1
  O  O67  1  0.25000000  0.14324027  0.65641944  1
  O  O68  1  0.58097188  0.01350843  0.61408499  1
  O  O69  1  0.58097195  0.38591547  0.39942301  1
  O  O70  1  0.58097194  0.60057596  0.98649119  1
  O  O71  1  0.08097188  0.98649157  0.38591501  1
  O  O72  1  0.08097195  0.61408453  0.60057699  1
  O  O73  1  0.08097194  0.39942404  0.01350881  1
  O  O74  1  0.41902812  0.98649157  0.38591501  1
  O  O75  1  0.41902805  0.61408453  0.60057699  1
  O  O76  1  0.41902806  0.39942404  0.01350881  1
  O  O77  1  0.91902812  0.01350843  0.61408499  1
  O  O78  1  0.91902805  0.38591547  0.39942301  1
  O  O79  1  0.91902806  0.60057596  0.98649119  1
  O  O80  1  0.75000000  0.17880995  0.74465440  1
  O  O81  1  0.75000000  0.25534528  0.43415430  1
  O  O82  1  0.75000000  0.56584869  0.82119228  1
  O  O83  1  0.25000000  0.82119005  0.25534560  1
  O  O84  1  0.25000000  0.74465472  0.56584570  1
  O  O85  1  0.25000000  0.43415131  0.17880772  1
  F  F86  1  0.75000000  0.89760847  0.72155069  1
  F  F87  1  0.75000000  0.27845266  0.17605852  1
  F  F88  1  0.75000000  0.82394192  0.10239477  1
  F  F89  1  0.25000000  0.10239153  0.27844931  1
  F  F90  1  0.25000000  0.72154734  0.82394148  1
  F  F91  1  0.25000000  0.17605808  0.89760523  1
  F  F92  1  0.59957919  0.04484334  0.84100965  1
  F  F93  1  0.59957725  0.15899137  0.20383271  1
  F  F94  1  0.59958009  0.79616695  0.95515817  1
  F  F95  1  0.09957919  0.95515666  0.15899035  1
  F  F96  1  0.09957725  0.84100863  0.79616729  1
  F  F97  1  0.09958009  0.20383305  0.04484183  1
  F  F98  1  0.40042081  0.95515666  0.15899035  1
  F  F99  1  0.40042275  0.84100863  0.79616729  1
  F  F100  1  0.40041991  0.20383305  0.04484183  1
  F  F101  1  0.90042081  0.04484334  0.84100965  1
  F  F102  1  0.90042275  0.15899137  0.20383271  1
  F  F103  1  0.90041991  0.79616695  0.95515817  1
