# generated using pymatgen
data_Ti3Mn5O16
_symmetry_space_group_name_H-M   'P 1'
_cell_length_a   5.86445933
_cell_length_b   5.87476601
_cell_length_c   8.87258893
_cell_angle_alpha   89.99990667
_cell_angle_beta   89.41119050
_cell_angle_gamma   120.05775480
_symmetry_Int_Tables_number   1
_chemical_formula_structural   Ti3Mn5O16
_chemical_formula_sum   'Ti3 Mn5 O16'
_cell_volume   264.55494466
_cell_formula_units_Z   1
loop_
 _symmetry_equiv_pos_site_id
 _symmetry_equiv_pos_as_xyz
  1  'x, y, z'
loop_
 _atom_site_type_symbol
 _atom_site_label
 _atom_site_symmetry_multiplicity
 _atom_site_fract_x
 _atom_site_fract_y
 _atom_site_fract_z
 _atom_site_occupancy
  Ti  Ti0  1  0.15781354  0.82969295  0.20586415  1
  Ti  Ti1  1  0.15781475  0.32814791  0.20585982  1
  Ti  Ti2  1  0.32145864  0.16072918  0.70471196  1
  Mn  Mn3  1  0.33589458  0.66794271  0.48498622  1
  Mn  Mn4  1  0.65785178  0.82893618  0.21043706  1
  Mn  Mn5  1  0.66564622  0.33283984  0.98298327  1
  Mn  Mn6  1  0.82689253  0.66138739  0.71031679  1
  Mn  Mn7  1  0.82689366  0.16551076  0.71031487  1
  O  O8  1  0.17292789  0.83217990  0.60293574  1
  O  O9  1  0.05066709  0.52534292  0.34540205  1
  O  O10  1  0.33997073  0.66999721  0.09720521  1
  O  O11  1  0.99293845  0.99647682  0.31553422  1
  O  O12  1  0.98994974  0.99497804  0.81730499  1
  O  O13  1  0.17293495  0.34076649  0.60294124  1
  O  O14  1  0.48329021  0.95408826  0.34233450  1
  O  O15  1  0.48329108  0.52921893  0.34233732  1
  O  O16  1  0.34637327  0.17319619  0.10410334  1
  O  O17  1  0.67082759  0.83541848  0.60116413  1
  O  O18  1  0.52695417  0.48061236  0.84310313  1
  O  O19  1  0.52696694  0.04637755  0.84310312  1
  O  O20  1  0.67384858  0.33693059  0.60026084  1
  O  O21  1  0.83179866  0.65853773  0.10212895  1
  O  O22  1  0.95518338  0.47759927  0.83826758  1
  O  O23  1  0.83181152  0.17329137  0.10212049  1
