# generated using pymatgen
data_YLuO3
_symmetry_space_group_name_H-M   'P 1'
_cell_length_a   5.60480139
_cell_length_b   5.89057533
_cell_length_c   8.21850615
_cell_angle_alpha   90.00000000
_cell_angle_beta   90.00000000
_cell_angle_gamma   90.00000000
_symmetry_Int_Tables_number   1
_chemical_formula_structural   YLuO3
_chemical_formula_sum   'Y4 Lu4 O12'
_cell_volume   271.33812922
_cell_formula_units_Z   4
loop_
 _symmetry_equiv_pos_site_id
 _symmetry_equiv_pos_as_xyz
  1  'x, y, z'
loop_
 _atom_site_type_symbol
 _atom_site_label
 _atom_site_symmetry_multiplicity
 _atom_site_fract_x
 _atom_site_fract_y
 _atom_site_fract_z
 _atom_site_occupancy
  Y  Y0  1  0.01508191  0.94328738  0.75000000  1
  Y  Y1  1  0.48491809  0.44328738  0.75000000  1
  Y  Y2  1  0.51508191  0.55671262  0.25000000  1
  Y  Y3  1  0.98491809  0.05671262  0.25000000  1
  Lu  Lu4  1  -0.00000000  0.50000000  0.00000000  1
  Lu  Lu5  1  -0.00000000  0.50000000  0.50000000  1
  Lu  Lu6  1  0.50000000  0.00000000  0.00000000  1
  Lu  Lu7  1  0.50000000  0.00000000  0.50000000  1
  O  O8  1  0.14046686  0.42801892  0.25000000  1
  O  O9  1  0.18129119  0.18526473  0.57255978  1
  O  O10  1  0.18129119  0.18526473  0.92744022  1
  O  O11  1  0.31870881  0.68526473  0.92744022  1
  O  O12  1  0.31870881  0.68526473  0.57255978  1
  O  O13  1  0.35953314  0.92801892  0.25000000  1
  O  O14  1  0.64046686  0.07198108  0.75000000  1
  O  O15  1  0.68129119  0.31473527  0.42744022  1
  O  O16  1  0.68129119  0.31473527  0.07255978  1
  O  O17  1  0.81870881  0.81473527  0.07255978  1
  O  O18  1  0.81870881  0.81473527  0.42744022  1
  O  O19  1  0.85953314  0.57198108  0.75000000  1
