# generated using pymatgen
data_NaFe12O19
_symmetry_space_group_name_H-M   'P 1'
_cell_length_a   5.98580083
_cell_length_b   5.98892322
_cell_length_c   23.23867901
_cell_angle_alpha   89.99378534
_cell_angle_beta   90.00074998
_cell_angle_gamma   119.99223738
_symmetry_Int_Tables_number   1
_chemical_formula_structural   NaFe12O19
_chemical_formula_sum   'Na2 Fe24 O38'
_cell_volume   721.51778230
_cell_formula_units_Z   2
loop_
 _symmetry_equiv_pos_site_id
 _symmetry_equiv_pos_as_xyz
  1  'x, y, z'
loop_
 _atom_site_type_symbol
 _atom_site_label
 _atom_site_symmetry_multiplicity
 _atom_site_fract_x
 _atom_site_fract_y
 _atom_site_fract_z
 _atom_site_occupancy
  Na  Na0  1  0.33328966  0.66654407  0.74897526  1
  Na  Na1  1  0.66660972  0.33318592  0.24968065  1
  Fe  Fe2  1  0.16850337  0.83144645  0.89008393  1
  Fe  Fe3  1  0.16851680  0.83141112  0.61007527  1
  Fe  Fe4  1  0.33335282  0.66666752  0.19113139  1
  Fe  Fe5  1  0.33333802  0.66670429  0.02837337  1
  Fe  Fe6  1  0.33338263  0.66673295  0.30896815  1
  Fe  Fe7  1  0.00001721  0.00002472  0.00008990  1
  Fe  Fe8  1  -0.00002111  0.99993080  0.25071188  1
  Fe  Fe9  1  0.99998616  0.99998479  0.50013239  1
  Fe  Fe10  1  0.16849931  0.33704782  0.61004998  1
  Fe  Fe11  1  0.33332187  0.66666833  0.47146067  1
  Fe  Fe12  1  0.00031416  0.00056908  0.75057664  1
  Fe  Fe13  1  0.16857402  0.33715808  0.89005055  1
  Fe  Fe14  1  0.66292939  0.83147633  0.89007796  1
  Fe  Fe15  1  0.66290334  0.83141763  0.61005310  1
  Fe  Fe16  1  0.33651747  0.16822498  0.11005757  1
  Fe  Fe17  1  0.33689859  0.16848613  0.39002657  1
  Fe  Fe18  1  0.83175655  0.66348373  0.11004931  1
  Fe  Fe19  1  0.66659162  0.33324029  0.69090434  1
  Fe  Fe20  1  0.66663968  0.33338894  0.80830569  1
  Fe  Fe21  1  0.83154347  0.66312653  0.39002876  1
  Fe  Fe22  1  0.66666629  0.33331255  0.97157522  1
  Fe  Fe23  1  0.66663764  0.33325857  0.52859503  1
  Fe  Fe24  1  0.83174147  0.16824204  0.11003321  1
  Fe  Fe25  1  0.83159702  0.16847162  0.39003721  1
  O  O26  1  0.15488976  0.84517100  0.05306286  1
  O  O27  1  0.15476196  0.84523342  0.44675639  1
  O  O28  1  0.99472160  0.49733783  0.35019483  1
  O  O29  1  0.00489196  0.50253649  0.84993112  1
  O  O30  1  0.99475265  0.49732780  0.14999793  1
  O  O31  1  0.00549743  0.50269143  0.65000655  1
  O  O32  1  0.18273289  0.81737427  0.25002177  1
  O  O33  1  0.33333443  0.66669235  0.94457718  1
  O  O34  1  0.33332741  0.66665002  0.55516024  1
  O  O35  1  0.00001933  0.00001463  0.15311004  1
  O  O36  1  0.15486801  0.30971670  0.05306185  1
  O  O37  1  0.00001433  0.00004071  0.34684648  1
  O  O38  1  0.99998688  0.99995820  0.65324969  1
  O  O39  1  0.18275176  0.36546483  0.25001619  1
  O  O40  1  0.00000403  0.00003219  0.84679797  1
  O  O41  1  0.15473349  0.30946838  0.44675033  1
  O  O42  1  0.63467169  0.81737275  0.25001287  1
  O  O43  1  0.30963018  0.15480912  0.55312358  1
  O  O44  1  0.30971060  0.15488375  0.94665564  1
  O  O45  1  0.50261713  0.49732027  0.35018703  1
  O  O46  1  0.50259779  0.49732727  0.14999970  1
  O  O47  1  0.49760090  0.50253150  0.84991240  1
  O  O48  1  0.49727325  0.50267727  0.65001734  1
  O  O49  1  0.69046637  0.84522864  0.44675363  1
  O  O50  1  0.69029393  0.84517070  0.05306238  1
  O  O51  1  0.36785328  0.18387942  0.75033913  1
  O  O52  1  0.50260082  0.00518778  0.15000290  1
  O  O53  1  0.50267191  0.00536184  0.35014595  1
  O  O54  1  0.49729405  0.99451522  0.65003771  1
  O  O55  1  0.84516228  0.69033108  0.94664782  1
  O  O56  1  0.49766509  0.99537299  0.84990078  1
  O  O57  1  0.66665032  0.33330550  0.44482009  1
  O  O58  1  0.66667228  0.33335062  0.05512717  1
  O  O59  1  0.84517178  0.69032540  0.55313123  1
  O  O60  1  0.81580314  0.63177224  0.75035697  1
  O  O61  1  0.81586626  0.18384787  0.75033634  1
  O  O62  1  0.84517468  0.15481712  0.55312676  1
  O  O63  1  0.84515919  0.15489310  0.94665616  1
