# generated using pymatgen
data_SnPbO3
_symmetry_space_group_name_H-M   'P 1'
_cell_length_a   5.83809637
_cell_length_b   11.82027661
_cell_length_c   8.18661530
_cell_angle_alpha   90.00000000
_cell_angle_beta   90.00000000
_cell_angle_gamma   90.00000000
_symmetry_Int_Tables_number   1
_chemical_formula_structural   SnPbO3
_chemical_formula_sum   'Sn8 Pb8 O24'
_cell_volume   564.94124432
_cell_formula_units_Z   8
loop_
 _symmetry_equiv_pos_site_id
 _symmetry_equiv_pos_as_xyz
  1  'x, y, z'
loop_
 _atom_site_type_symbol
 _atom_site_label
 _atom_site_symmetry_multiplicity
 _atom_site_fract_x
 _atom_site_fract_y
 _atom_site_fract_z
 _atom_site_occupancy
  Sn  Sn0  1  0.24912720  0.12511350  0.24994820  1
  Sn  Sn1  1  0.24912720  0.12511350  0.75005180  1
  Sn  Sn2  1  0.25087280  0.62511350  0.75005180  1
  Sn  Sn3  1  0.25087280  0.62511350  0.24994820  1
  Sn  Sn4  1  0.74912720  0.37488650  0.75005180  1
  Sn  Sn5  1  0.74912720  0.37488650  0.24994820  1
  Sn  Sn6  1  0.75087280  0.87488650  0.24994820  1
  Sn  Sn7  1  0.75087280  0.87488650  0.75005180  1
  Pb  Pb8  1  0.23133981  0.37200354  0.50000000  1
  Pb  Pb9  1  0.22662645  0.37897148  0.00000000  1
  Pb  Pb10  1  0.27337355  0.87897148  0.00000000  1
  Pb  Pb11  1  0.26866019  0.87200354  0.50000000  1
  Pb  Pb12  1  0.73133981  0.12799646  0.50000000  1
  Pb  Pb13  1  0.72662645  0.12102852  0.00000000  1
  Pb  Pb14  1  0.77337355  0.62102852  -0.00000000  1
  Pb  Pb15  1  0.76866019  0.62799646  0.50000000  1
  O  O16  1  -0.00000000  0.00000000  0.21556885  1
  O  O17  1  -0.00000000  0.00000000  0.78443115  1
  O  O18  1  -0.00000000  0.50000000  0.20237727  1
  O  O19  1  -0.00000000  0.50000000  0.79762273  1
  O  O20  1  0.02988298  0.26100152  0.28790657  1
  O  O21  1  0.02988298  0.26100152  0.71209343  1
  O  O22  1  0.20624604  0.59040855  0.50000000  1
  O  O23  1  0.22618701  0.66123755  0.00000000  1
  O  O24  1  0.27381299  0.16123755  0.00000000  1
  O  O25  1  0.29375396  0.09040855  0.50000000  1
  O  O26  1  0.47011702  0.76100152  0.28790657  1
  O  O27  1  0.47011702  0.76100152  0.71209343  1
  O  O28  1  0.50000000  0.00000000  0.20237727  1
  O  O29  1  0.50000000  0.00000000  0.79762273  1
  O  O30  1  0.50000000  0.50000000  0.78443115  1
  O  O31  1  0.50000000  0.50000000  0.21556885  1
  O  O32  1  0.52988298  0.23899848  0.71209343  1
  O  O33  1  0.52988298  0.23899848  0.28790657  1
  O  O34  1  0.70624604  0.90959145  0.50000000  1
  O  O35  1  0.72618701  0.83876245  0.00000000  1
  O  O36  1  0.77381299  0.33876245  0.00000000  1
  O  O37  1  0.79375396  0.40959145  0.50000000  1
  O  O38  1  0.97011702  0.73899848  0.28790657  1
  O  O39  1  0.97011702  0.73899848  0.71209343  1
