# generated using pymatgen
data_Ga5W2
_symmetry_space_group_name_H-M   'P 1'
_cell_length_a   2.73462509
_cell_length_b   9.17998418
_cell_length_c   9.17998418
_cell_angle_alpha   90.00000000
_cell_angle_beta   90.00000000
_cell_angle_gamma   90.00000000
_symmetry_Int_Tables_number   1
_chemical_formula_structural   Ga5W2
_chemical_formula_sum   'Ga10 W4'
_cell_volume   230.45262515
_cell_formula_units_Z   2
loop_
 _symmetry_equiv_pos_site_id
 _symmetry_equiv_pos_as_xyz
  1  'x, y, z'
loop_
 _atom_site_type_symbol
 _atom_site_label
 _atom_site_symmetry_multiplicity
 _atom_site_fract_x
 _atom_site_fract_y
 _atom_site_fract_z
 _atom_site_occupancy
  Ga  Ga0  1  0.00000000  -0.00000000  0.50000000  1
  Ga  Ga1  1  -0.00000000  0.50000000  -0.00000000  1
  Ga  Ga2  1  -0.00000000  0.70094119  0.55971727  1
  Ga  Ga3  1  0.00000000  0.29905881  0.44028273  1
  Ga  Ga4  1  0.00000000  0.79905881  0.05971727  1
  Ga  Ga5  1  -0.00000000  0.20094119  0.94028273  1
  Ga  Ga6  1  -0.00000000  0.55971727  0.29905881  1
  Ga  Ga7  1  0.00000000  0.44028273  0.70094119  1
  Ga  Ga8  1  -0.00000000  0.05971727  0.20094119  1
  Ga  Ga9  1  0.00000000  0.94028273  0.79905881  1
  W  W10  1  0.50000000  0.17932866  0.67932866  1
  W  W11  1  0.50000000  0.82067134  0.32067134  1
  W  W12  1  0.50000000  0.32067134  0.17932866  1
  W  W13  1  0.50000000  0.67932866  0.82067134  1
