# generated using pymatgen
data_VBiO4
_symmetry_space_group_name_H-M   'P 1'
_cell_length_a   6.60018039
_cell_length_b   6.14887445
_cell_length_c   7.91506761
_cell_angle_alpha   127.03340669
_cell_angle_beta   128.03677424
_cell_angle_gamma   59.14204125
_symmetry_Int_Tables_number   1
_chemical_formula_structural   VBiO4
_chemical_formula_sum   'V2 Bi2 O8'
_cell_volume   196.76201134
_cell_formula_units_Z   2
loop_
 _symmetry_equiv_pos_site_id
 _symmetry_equiv_pos_as_xyz
  1  'x, y, z'
loop_
 _atom_site_type_symbol
 _atom_site_label
 _atom_site_symmetry_multiplicity
 _atom_site_fract_x
 _atom_site_fract_y
 _atom_site_fract_z
 _atom_site_occupancy
  V  V0  1  0.39867757  0.14867757  0.79735513  1
  V  V1  1  0.60132243  0.85132243  0.20264487  1
  Bi  Bi2  1  0.10561693  0.85561693  0.21123385  1
  Bi  Bi3  1  0.89438307  0.14438307  0.78876615  1
  O  O4  1  0.79567634  0.59933169  0.04259525  1
  O  O5  1  0.24691891  0.94326357  0.04259525  1
  O  O6  1  0.20432366  0.40066831  0.95740475  1
  O  O7  1  0.75308109  0.05673643  0.95740475  1
  O  O8  1  0.74009144  0.13133345  0.38331873  1
  O  O9  1  0.64322729  0.75198529  0.38331873  1
  O  O10  1  0.25990856  0.86866655  0.61668127  1
  O  O11  1  0.35677271  0.24801471  0.61668127  1
