# generated using pymatgen
data_TiCo(PO4)2
_symmetry_space_group_name_H-M   'P 1'
_cell_length_a   8.52975786
_cell_length_b   8.63466646
_cell_length_c   8.63466650
_cell_angle_alpha   59.99999585
_cell_angle_beta   59.59230173
_cell_angle_gamma   59.59230276
_symmetry_Int_Tables_number   1
_chemical_formula_structural   TiCo(PO4)2
_chemical_formula_sum   'Ti3 Co3 P6 O24'
_cell_volume   446.89848499
_cell_formula_units_Z   3
loop_
 _symmetry_equiv_pos_site_id
 _symmetry_equiv_pos_as_xyz
  1  'x, y, z'
loop_
 _atom_site_type_symbol
 _atom_site_label
 _atom_site_symmetry_multiplicity
 _atom_site_fract_x
 _atom_site_fract_y
 _atom_site_fract_z
 _atom_site_occupancy
  Ti  Ti0  1  0.06746258  0.64417947  0.64417947  1
  Ti  Ti1  1  0.42565699  0.85811400  0.85811400  1
  Ti  Ti2  1  0.93247438  0.35584154  0.35584154  1
  Co  Co3  1  0.99309382  0.00230206  0.00230206  1
  Co  Co4  1  0.57358075  0.14213942  0.14213942  1
  Co  Co5  1  0.49514932  0.50161689  0.50161689  1
  P  P6  1  0.25482743  0.24852600  0.54048542  1
  P  P7  1  0.25482743  0.95616015  0.24852600  1
  P  P8  1  0.25482743  0.54048542  0.95616015  1
  P  P9  1  0.74898500  0.45441092  0.04438855  1
  P  P10  1  0.74898500  0.04438855  0.75221453  1
  P  P11  1  0.74898500  0.75221453  0.45441092  1
  O  O12  1  0.07077057  0.11930989  0.31511892  1
  O  O13  1  0.07077057  0.49479963  0.11930989  1
  O  O14  1  0.07077057  0.31511892  0.49479963  1
  O  O15  1  0.22873988  0.08762945  0.73828641  1
  O  O16  1  0.43706344  0.18741663  0.38548033  1
  O  O17  1  0.26273809  0.41186085  0.56448814  1
  O  O18  1  0.22873988  0.94534426  0.08762945  1
  O  O19  1  0.26273809  0.76091191  0.41186085  1
  O  O20  1  0.56814409  0.61831174  0.99594963  1
  O  O21  1  0.26273809  0.56448814  0.76091191  1
  O  O22  1  0.77565937  0.26109342  0.05320434  1
  O  O23  1  0.56814409  0.99594963  0.81759354  1
  O  O24  1  0.43706344  0.99003961  0.18741663  1
  O  O25  1  0.22873988  0.73828641  0.94534426  1
  O  O26  1  0.72842151  0.44323986  0.23899510  1
  O  O27  1  0.43706344  0.38548033  0.99003961  1
  O  O28  1  0.72842151  0.23899510  0.58934453  1
  O  O29  1  0.77565937  0.05320434  0.91004387  1
  O  O30  1  0.72842151  0.58934453  0.44323986  1
  O  O31  1  0.56814409  0.81759354  0.61831174  1
  O  O32  1  0.77565937  0.91004387  0.26109342  1
  O  O33  1  0.92884502  0.68120024  0.50653625  1
  O  O34  1  0.92884502  0.50653625  0.88341950  1
  O  O35  1  0.92884502  0.88341950  0.68120024  1
