# generated using pymatgen
data_KSbP(O2F)2
_symmetry_space_group_name_H-M   'P 1'
_cell_length_a   7.16496615
_cell_length_b   9.39115146
_cell_length_c   10.46712205
_cell_angle_alpha   116.32185289
_cell_angle_beta   90.00000000
_cell_angle_gamma   90.00000000
_symmetry_Int_Tables_number   1
_chemical_formula_structural   KSbP(O2F)2
_chemical_formula_sum   'K4 Sb4 P4 O16 F8'
_cell_volume   631.28008904
_cell_formula_units_Z   4
loop_
 _symmetry_equiv_pos_site_id
 _symmetry_equiv_pos_as_xyz
  1  'x, y, z'
loop_
 _atom_site_type_symbol
 _atom_site_label
 _atom_site_symmetry_multiplicity
 _atom_site_fract_x
 _atom_site_fract_y
 _atom_site_fract_z
 _atom_site_occupancy
  K  K0  1  0.74936471  0.08245760  0.40698489  1
  K  K1  1  0.24936471  0.91754240  0.09301511  1
  K  K2  1  0.25063529  0.91754240  0.59301511  1
  K  K3  1  0.75063529  0.08245760  0.90698489  1
  Sb  Sb4  1  0.75019234  0.68401825  0.00533914  1
  Sb  Sb5  1  0.25019234  0.31598175  0.49466086  1
  Sb  Sb6  1  0.24980766  0.31598175  0.99466086  1
  Sb  Sb7  1  0.74980766  0.68401825  0.50533914  1
  P  P8  1  0.07800877  0.65657486  0.24133294  1
  P  P9  1  0.57800877  0.34342514  0.25866706  1
  P  P10  1  0.92199123  0.34342514  0.75866706  1
  P  P11  1  0.42199123  0.65657486  0.74133294  1
  O  O12  1  0.26764340  0.73236905  0.26588203  1
  O  O13  1  0.76764340  0.26763095  0.23411797  1
  O  O14  1  0.73235660  0.26763095  0.73411797  1
  O  O15  1  0.23235660  0.73236905  0.76588203  1
  O  O16  1  0.07493999  0.47034408  0.16292141  1
  O  O17  1  0.57493999  0.52965592  0.33707859  1
  O  O18  1  0.92506001  0.52965592  0.83707859  1
  O  O19  1  0.42506001  0.47034408  0.66292141  1
  O  O20  1  0.96157583  0.72560869  0.15334143  1
  O  O21  1  0.46157583  0.27439131  0.34665857  1
  O  O22  1  0.03842417  0.27439131  0.84665857  1
  O  O23  1  0.53842417  0.72560869  0.65334143  1
  O  O24  1  0.52181475  0.70629876  0.88894683  1
  O  O25  1  0.02181475  0.29370124  0.61105317  1
  O  O26  1  0.47818525  0.29370124  0.11105317  1
  O  O27  1  0.97818525  0.70629876  0.38894683  1
  F  F28  1  0.87795226  0.84747096  0.97462939  1
  F  F29  1  0.37795226  0.15252904  0.52537061  1
  F  F30  1  0.12204774  0.15252904  0.02537061  1
  F  F31  1  0.62204774  0.84747096  0.47462939  1
  F  F32  1  0.61708841  0.86587843  0.16018686  1
  F  F33  1  0.11708841  0.13412157  0.33981314  1
  F  F34  1  0.38291159  0.13412157  0.83981314  1
  F  F35  1  0.88291159  0.86587843  0.66018686  1
