# generated using pymatgen
data_Cr2(PO3)5
_symmetry_space_group_name_H-M   'P 1'
_cell_length_a   12.80311563
_cell_length_b   8.62455369
_cell_length_c   5.38369827
_cell_angle_alpha   90.00000000
_cell_angle_beta   94.10099802
_cell_angle_gamma   90.00000000
_symmetry_Int_Tables_number   1
_chemical_formula_structural   Cr2(PO3)5
_chemical_formula_sum   'Cr4 P10 O30'
_cell_volume   592.95206883
_cell_formula_units_Z   2
loop_
 _symmetry_equiv_pos_site_id
 _symmetry_equiv_pos_as_xyz
  1  'x, y, z'
loop_
 _atom_site_type_symbol
 _atom_site_label
 _atom_site_symmetry_multiplicity
 _atom_site_fract_x
 _atom_site_fract_y
 _atom_site_fract_z
 _atom_site_occupancy
  Cr  Cr0  1  0.95151802  0.28267192  0.84819787  1
  Cr  Cr1  1  0.45151802  0.71732808  0.34819787  1
  Cr  Cr2  1  0.54989146  0.28270001  0.64976676  1
  Cr  Cr3  1  0.04989146  0.71729999  0.14976676  1
  P  P4  1  0.14059534  0.48687633  0.60141896  1
  P  P5  1  0.86064995  0.51415509  0.39843095  1
  P  P6  1  0.64059534  0.51312367  0.10141896  1
  P  P7  1  0.75052571  0.05407874  0.75054639  1
  P  P8  1  0.58766767  0.82325320  0.88712507  1
  P  P9  1  0.91348308  0.82439202  0.61103380  1
  P  P10  1  0.36064995  0.48584491  0.89843095  1
  P  P11  1  0.08766767  0.17674680  0.38712507  1
  P  P12  1  0.25052571  0.94592126  0.25054639  1
  P  P13  1  0.41348308  0.17560798  0.11103380  1
  O  O14  1  0.17295085  0.85929480  0.07926359  1
  O  O15  1  0.18777239  0.06394764  0.41974303  1
  O  O16  1  0.86158872  0.37043611  0.55539332  1
  O  O17  1  0.63945486  0.36873427  0.94631995  1
  O  O18  1  0.55804118  0.53337344  0.28894486  1
  O  O19  1  0.25087145  0.47343580  0.74853337  1
  O  O20  1  0.67295085  0.14070520  0.57926359  1
  O  O21  1  0.44362944  0.46700230  0.71175746  1
  O  O22  1  0.96609568  0.82584550  0.86737241  1
  O  O23  1  0.85534829  0.65766900  0.58234152  1
  O  O24  1  0.31339416  0.06301629  0.08136344  1
  O  O25  1  0.46609568  0.17415450  0.36737241  1
  O  O26  1  0.05804118  0.46662656  0.78894486  1
  O  O27  1  0.97419938  0.85327671  0.38803900  1
  O  O28  1  0.68777239  0.93605236  0.91974303  1
  O  O29  1  0.14489967  0.34403463  0.41517265  1
  O  O30  1  0.13945486  0.63126573  0.44631995  1
  O  O31  1  0.02619118  0.14828828  0.60958482  1
  O  O32  1  0.52619118  0.85171172  0.10958482  1
  O  O33  1  0.35534829  0.34233100  0.08234152  1
  O  O34  1  0.64489967  0.65596537  0.91517265  1
  O  O35  1  0.47419938  0.14672329  0.88803900  1
  O  O36  1  0.53542196  0.82554271  0.63053347  1
  O  O37  1  0.03542196  0.17445729  0.13053347  1
  O  O38  1  0.36158872  0.62956389  0.05539332  1
  O  O39  1  0.82795655  0.14189795  0.92093329  1
  O  O40  1  0.81339416  0.93698371  0.58136344  1
  O  O41  1  0.94362944  0.53299770  0.21175746  1
  O  O42  1  0.75087145  0.52656420  0.24853337  1
  O  O43  1  0.32795655  0.85810205  0.42093329  1
