# generated using pymatgen
data_NaFe12O19
_symmetry_space_group_name_H-M   'P 1'
_cell_length_a   5.97991461
_cell_length_b   5.99276257
_cell_length_c   23.17424319
_cell_angle_alpha   90.13898757
_cell_angle_beta   89.83566412
_cell_angle_gamma   120.03942595
_symmetry_Int_Tables_number   1
_chemical_formula_structural   NaFe12O19
_chemical_formula_sum   'Na2 Fe24 O38'
_cell_volume   718.92485914
_cell_formula_units_Z   2
loop_
 _symmetry_equiv_pos_site_id
 _symmetry_equiv_pos_as_xyz
  1  'x, y, z'
loop_
 _atom_site_type_symbol
 _atom_site_label
 _atom_site_symmetry_multiplicity
 _atom_site_fract_x
 _atom_site_fract_y
 _atom_site_fract_z
 _atom_site_occupancy
  Na  Na0  1  0.33248122  0.67076424  0.74977629  1
  Na  Na1  1  0.67116298  0.33119320  0.24997531  1
  Fe  Fe2  1  0.16905994  0.83224237  0.89054098  1
  Fe  Fe3  1  0.16800555  0.83127212  0.61008231  1
  Fe  Fe4  1  0.33300195  0.66655324  0.19060191  1
  Fe  Fe5  1  0.33369102  0.66701973  0.02895973  1
  Fe  Fe6  1  0.33274694  0.66570597  0.30837272  1
  Fe  Fe7  1  0.00026294  0.00050341  0.00009051  1
  Fe  Fe8  1  0.99949296  0.99915767  0.25013340  1
  Fe  Fe9  1  0.99934673  -0.00007840  0.49983324  1
  Fe  Fe10  1  0.16792087  0.33643962  0.61008286  1
  Fe  Fe11  1  0.33235107  0.66609372  0.47138353  1
  Fe  Fe12  1  0.00015620  0.00012821  0.75227370  1
  Fe  Fe13  1  0.16982720  0.33855334  0.89073016  1
  Fe  Fe14  1  0.66315660  0.83157177  0.89083325  1
  Fe  Fe15  1  0.66250045  0.83069402  0.61002132  1
  Fe  Fe16  1  0.33759581  0.16892880  0.10986922  1
  Fe  Fe17  1  0.33667665  0.16776501  0.38966402  1
  Fe  Fe18  1  0.83178183  0.66326697  0.10984050  1
  Fe  Fe19  1  0.66609267  0.33189896  0.69159204  1
  Fe  Fe20  1  0.66797165  0.33544708  0.80895090  1
  Fe  Fe21  1  0.83064181  0.66182728  0.38976319  1
  Fe  Fe22  1  0.66750605  0.33327600  0.97133686  1
  Fe  Fe23  1  0.66604950  0.33310810  0.52842485  1
  Fe  Fe24  1  0.83192535  0.16914350  0.10963733  1
  Fe  Fe25  1  0.83102210  0.16761187  0.38975301  1
  O  O26  1  0.15525969  0.84552066  0.05324506  1
  O  O27  1  0.15400786  0.84439576  0.44620571  1
  O  O28  1  0.99497072  0.49709166  0.34906608  1
  O  O29  1  0.00775599  0.50520464  0.85028043  1
  O  O30  1  0.99541195  0.49771716  0.14980760  1
  O  O31  1  0.00406376  0.50164169  0.65054341  1
  O  O32  1  0.18309005  0.81511509  0.24971522  1
  O  O33  1  0.33432880  0.66668987  0.94547939  1
  O  O34  1  0.33257197  0.66671765  0.55497749  1
  O  O35  1  0.99989619  0.00010051  0.15292750  1
  O  O36  1  0.15464344  0.30985550  0.05338845  1
  O  O37  1  0.99938433  0.99930205  0.34599853  1
  O  O38  1  0.99937352  0.99917258  0.65270779  1
  O  O39  1  0.18136391  0.36816811  0.24964292  1
  O  O40  1  0.00105613  0.00105011  0.84730852  1
  O  O41  1  0.15481522  0.30955893  0.44599154  1
  O  O42  1  0.62994303  0.81568963  0.24973319  1
  O  O43  1  0.30923243  0.15497740  0.55297009  1
  O  O44  1  0.30984441  0.15723799  0.94734355  1
  O  O45  1  0.50269012  0.49634948  0.34872642  1
  O  O46  1  0.50325602  0.49708062  0.15013413  1
  O  O47  1  0.49783098  0.50510294  0.84988105  1
  O  O48  1  0.49681458  0.50120529  0.65041102  1
  O  O49  1  0.68938868  0.84384020  0.44608925  1
  O  O50  1  0.69071156  0.84645907  0.05338365  1
  O  O51  1  0.36821923  0.17976195  0.75047631  1
  O  O52  1  0.50302956  0.00549345  0.14997764  1
  O  O53  1  0.50204141  0.00389779  0.34907721  1
  O  O54  1  0.49728300  0.99440828  0.65045474  1
  O  O55  1  0.84475159  0.69108528  0.94726677  1
  O  O56  1  0.49914416  -0.00210805  0.85112969  1
  O  O57  1  0.66605199  0.33204027  0.44434293  1
  O  O58  1  0.66725939  0.33357739  0.05513262  1
  O  O59  1  0.84418293  0.68959989  0.55296263  1
  O  O60  1  0.81546048  0.63209589  0.75046574  1
  O  O61  1  0.81783848  0.18401260  0.75041878  1
  O  O62  1  0.84454194  0.15496108  0.55284918  1
  O  O63  1  0.84606144  0.15604082  0.94696964  1
