# generated using pymatgen
data_Pr5Ge3C
_symmetry_space_group_name_H-M   'P 1'
_cell_length_a   6.85757905
_cell_length_b   8.91592649
_cell_length_c   8.91750234
_cell_angle_alpha   119.99416024
_cell_angle_beta   90.00000000
_cell_angle_gamma   90.00000000
_symmetry_Int_Tables_number   1
_chemical_formula_structural   Pr5Ge3C
_chemical_formula_sum   'Pr10 Ge6 C2'
_cell_volume   472.21167283
_cell_formula_units_Z   2
loop_
 _symmetry_equiv_pos_site_id
 _symmetry_equiv_pos_as_xyz
  1  'x, y, z'
loop_
 _atom_site_type_symbol
 _atom_site_label
 _atom_site_symmetry_multiplicity
 _atom_site_fract_x
 _atom_site_fract_y
 _atom_site_fract_z
 _atom_site_occupancy
  Pr  Pr0  1  0.49999901  0.33331889  0.66665169  1
  Pr  Pr1  1  0.49999901  0.66666720  0.33334831  1
  Pr  Pr2  1  0.99999901  0.66668111  0.33334831  1
  Pr  Pr3  1  0.99999901  0.33333280  0.66665169  1
  Pr  Pr4  1  0.74999584  0.22230040  0.00000000  1
  Pr  Pr5  1  0.75000481  0.77760422  0.77757027  1
  Pr  Pr6  1  0.75000481  0.00003395  0.22242973  1
  Pr  Pr7  1  0.24999584  0.77769960  1.00000000  1
  Pr  Pr8  1  0.25000481  0.22239578  0.22242973  1
  Pr  Pr9  1  0.25000481  0.99996605  0.77757027  1
  Ge  Ge10  1  0.75001866  0.59033955  0.00000000  1
  Ge  Ge11  1  0.74998846  0.40965083  0.40961776  1
  Ge  Ge12  1  0.74998846  0.00003307  0.59038224  1
  Ge  Ge13  1  0.25001866  0.40966045  1.00000000  1
  Ge  Ge14  1  0.24998846  0.59034917  0.59038224  1
  Ge  Ge15  1  0.24998846  0.99996693  0.40961776  1
  C  C16  1  0.50000095  0.99998744  0.00000000  1
  C  C17  1  0.00000095  0.00001256  1.00000000  1
