# generated using pymatgen
data_Y4(FeB2)3
_symmetry_space_group_name_H-M   'P 1'
_cell_length_a   5.34535547
_cell_length_b   5.34535547
_cell_length_c   7.94982071
_cell_angle_alpha   70.35487235
_cell_angle_beta   70.35487235
_cell_angle_gamma   60.00000163
_symmetry_Int_Tables_number   1
_chemical_formula_structural   Y4(FeB2)3
_chemical_formula_sum   'Y4 Fe3 B6'
_cell_volume   181.28896215
_cell_formula_units_Z   1
loop_
 _symmetry_equiv_pos_site_id
 _symmetry_equiv_pos_as_xyz
  1  'x, y, z'
loop_
 _atom_site_type_symbol
 _atom_site_label
 _atom_site_symmetry_multiplicity
 _atom_site_fract_x
 _atom_site_fract_y
 _atom_site_fract_z
 _atom_site_occupancy
  Y  Y0  1  0.25602329  0.25602329  0.23193013  1
  Y  Y1  1  0.74397671  0.74397671  0.76806987  1
  Y  Y2  1  0.41201343  0.41201343  0.76395970  1
  Y  Y3  1  0.58798657  0.58798657  0.23604030  1
  Fe  Fe4  1  0.00000000  0.00000000  0.00000000  1
  Fe  Fe5  1  0.11330281  0.11330281  0.66009158  1
  Fe  Fe6  1  0.88669719  0.88669719  0.33990842  1
  B  B7  1  0.16726198  0.83273802  0.50000000  1
  B  B8  1  0.83273802  0.50000000  0.50000000  1
  B  B9  1  0.50000000  0.16726198  0.50000000  1
  B  B10  1  0.16726198  0.50000000  0.50000000  1
  B  B11  1  0.50000000  0.83273802  0.50000000  1
  B  B12  1  0.83273802  0.16726198  0.50000000  1
