# generated using pymatgen
data_TlCu2(SeO5)2
_symmetry_space_group_name_H-M   'P 1'
_cell_length_a   5.83758135
_cell_length_b   5.83758135
_cell_length_c   8.86256551
_cell_angle_alpha   65.02819086
_cell_angle_beta   114.97180914
_cell_angle_gamma   114.88987262
_symmetry_Int_Tables_number   1
_chemical_formula_structural   TlCu2(SeO5)2
_chemical_formula_sum   'Tl1 Cu2 Se2 O10'
_cell_volume   237.11943233
_cell_formula_units_Z   1
loop_
 _symmetry_equiv_pos_site_id
 _symmetry_equiv_pos_as_xyz
  1  'x, y, z'
loop_
 _atom_site_type_symbol
 _atom_site_label
 _atom_site_symmetry_multiplicity
 _atom_site_fract_x
 _atom_site_fract_y
 _atom_site_fract_z
 _atom_site_occupancy
  Tl  Tl0  1  0.50000000  0.50000000  0.50000000  1
  Cu  Cu1  1  0.00000000  0.50000000  -0.00000000  1
  Cu  Cu2  1  0.50000000  0.00000000  -0.00000000  1
  Se  Se3  1  0.93742030  0.06257970  0.73140446  1
  Se  Se4  1  0.06257970  0.93742030  0.26859554  1
  O  O5  1  0.82967589  0.17032411  0.82757346  1
  O  O6  1  0.17032411  0.82967589  0.17242654  1
  O  O7  1  0.83197895  0.16802105  0.51785760  1
  O  O8  1  0.16802105  0.83197895  0.48214240  1
  O  O9  1  0.27967090  0.17045941  0.78974415  1
  O  O10  1  0.82954059  0.72032910  0.78974415  1
  O  O11  1  0.72032910  0.82954059  0.21025585  1
  O  O12  1  0.17045941  0.27967090  0.21025585  1
  O  O13  1  0.31369552  0.68630448  0.95660431  1
  O  O14  1  0.68630448  0.31369552  0.04339569  1
