# generated using pymatgen
data_MnP2H12(CO2)4
_symmetry_space_group_name_H-M   'P 1'
_cell_length_a   10.05170357
_cell_length_b   10.68271864
_cell_length_c   11.00167688
_cell_angle_alpha   88.03292394
_cell_angle_beta   80.85512045
_cell_angle_gamma   87.20157476
_symmetry_Int_Tables_number   1
_chemical_formula_structural   MnP2H12(CO2)4
_chemical_formula_sum   'Mn4 P8 H48 C16 O32'
_cell_volume   1164.52562894
_cell_formula_units_Z   4
loop_
 _symmetry_equiv_pos_site_id
 _symmetry_equiv_pos_as_xyz
  1  'x, y, z'
loop_
 _atom_site_type_symbol
 _atom_site_label
 _atom_site_symmetry_multiplicity
 _atom_site_fract_x
 _atom_site_fract_y
 _atom_site_fract_z
 _atom_site_occupancy
  Mn  Mn0  1  0.85646872  0.84775854  0.06619129  1
  Mn  Mn1  1  0.14353128  0.15224146  0.93380871  1
  Mn  Mn2  1  0.12263149  0.64939664  0.94473554  1
  Mn  Mn3  1  0.87736851  0.35060336  0.05526446  1
  P  P4  1  0.77444798  0.59098963  0.24834620  1
  P  P5  1  0.22555202  0.40901037  0.75165380  1
  P  P6  1  0.15299071  0.90611394  0.13360876  1
  P  P7  1  0.84700929  0.09388606  0.86639124  1
  P  P8  1  0.19798792  0.39082118  0.10418363  1
  P  P9  1  0.80201208  0.60917882  0.89581637  1
  P  P10  1  0.26322618  0.88933832  0.75346859  1
  P  P11  1  0.73677382  0.11066168  0.24653141  1
  H  H12  1  0.82478324  0.48805077  0.54629876  1
  H  H13  1  0.17521676  0.51194923  0.45370124  1
  H  H14  1  0.75041781  0.40261558  0.43803026  1
  H  H15  1  0.24958219  0.59738442  0.56196974  1
  H  H16  1  0.92529312  0.43486521  0.40577179  1
  H  H17  1  0.07470688  0.56513479  0.59422821  1
  H  H18  1  0.42233994  0.54882134  0.27959761  1
  H  H19  1  0.57766006  0.45117866  0.72040239  1
  H  H20  1  0.49936095  0.59917152  0.40430094  1
  H  H21  1  0.50063905  0.40082848  0.59569906  1
  H  H22  1  0.50247385  0.69612491  0.26760383  1
  H  H23  1  0.49752615  0.30387509  0.73239617  1
  H  H24  1  0.12013419  0.79022289  0.43826809  1
  H  H25  1  0.87986581  0.20977711  0.56173191  1
  H  H26  1  0.02370939  0.72643745  0.33241579  1
  H  H27  1  0.97629061  0.27356255  0.66758421  1
  H  H28  1  0.20424439  0.71806673  0.30004602  1
  H  H29  1  0.79575561  0.28193327  0.69995398  1
  H  H30  1  0.50520538  0.87715673  0.12263657  1
  H  H31  1  0.49479462  0.12284327  0.87736343  1
  H  H32  1  0.40824751  0.02117396  0.11073808  1
  H  H33  1  0.59175249  0.97882604  0.88926192  1
  H  H34  1  0.38725499  0.92988016  0.25151582  1
  H  H35  1  0.61274501  0.07011984  0.74848418  1
  H  H36  1  0.15737591  0.27842095  0.41245331  1
  H  H37  1  0.84262409  0.72157905  0.58754669  1
  H  H38  1  0.05824219  0.23050310  0.30071460  1
  H  H39  1  0.94175781  0.76949690  0.69928540  1
  H  H40  1  0.23516581  0.19224974  0.28039449  1
  H  H41  1  0.76483419  0.80775026  0.71960551  1
  H  H42  1  0.53647997  0.27117052  0.03191444  1
  H  H43  1  0.46352003  0.72882948  0.96808556  1
  H  H44  1  0.48624834  0.43248265  0.05524102  1
  H  H45  1  0.51375166  0.56751735  0.94475898  1
  H  H46  1  0.46451862  0.32201582  0.18195832  1
  H  H47  1  0.53548138  0.67798418  0.81804168  1
  H  H48  1  0.57254569  0.80119370  0.56958935  1
  H  H49  1  0.42745431  0.19880630  0.43041065  1
  H  H50  1  0.44147044  0.69901708  0.63469419  1
  H  H51  1  0.55852956  0.30098292  0.36530581  1
  H  H52  1  0.41430555  0.81179622  0.51520585  1
  H  H53  1  0.58569445  0.18820378  0.48479415  1
  H  H54  1  0.11986690  0.02698835  0.50617846  1
  H  H55  1  0.88013310  0.97301165  0.49382154  1
  H  H56  1  0.18987862  0.10381250  0.62329705  1
  H  H57  1  0.81012138  0.89618750  0.37670295  1
  H  H58  1  0.29758283  0.01705616  0.50649543  1
  H  H59  1  0.70241717  0.98294384  0.49350457  1
  C  C60  1  0.82549174  0.47131534  0.44849717  1
  C  C61  1  0.17450826  0.52868466  0.55150283  1
  C  C62  1  0.50686661  0.59901201  0.30346725  1
  C  C63  1  0.49313339  0.40098799  0.69653275  1
  C  C64  1  0.11543169  0.77493553  0.34103019  1
  C  C65  1  0.88456831  0.22506447  0.65896981  1
  C  C66  1  0.40724494  0.92558138  0.15063556  1
  C  C67  1  0.59275506  0.07441862  0.84936444  1
  C  C68  1  0.15646684  0.26305693  0.31459602  1
  C  C69  1  0.84353316  0.73694307  0.68540398  1
  C  C70  1  0.46207042  0.33575904  0.08320693  1
  C  C71  1  0.53792958  0.66424096  0.91679307  1
  C  C72  1  0.46352999  0.79385573  0.59693025  1
  C  C73  1  0.53647001  0.20614427  0.40306975  1
  C  C74  1  0.19814215  0.02126629  0.56520468  1
  C  C75  1  0.80185785  0.97873371  0.43479532  1
  O  O76  1  0.77092559  0.72751456  0.20921190  1
  O  O77  1  0.22907441  0.27248544  0.79078810  1
  O  O78  1  0.87605081  0.50068333  0.17854005  1
  O  O79  1  0.12394919  0.49931667  0.82145995  1
  O  O80  1  0.79390465  0.59090212  0.39156946  1
  O  O81  1  0.20609535  0.40909788  0.60843054  1
  O  O82  1  0.62885788  0.53266554  0.24920322  1
  O  O83  1  0.37114212  0.46733446  0.75079678  1
  O  O84  1  0.07264284  0.81349567  0.07462591  1
  O  O85  1  0.92735716  0.18650433  0.92537409  1
  O  O86  1  0.13691955  0.04272445  0.09871084  1
  O  O87  1  0.86308045  0.95727555  0.90128916  1
  O  O88  1  0.11330429  0.89786954  0.28085302  1
  O  O89  1  0.88669571  0.10213046  0.71914698  1
  O  O90  1  0.30681421  0.85368540  0.10607393  1
  O  O91  1  0.69318579  0.14631460  0.89392607  1
  O  O92  1  0.21080983  0.52763580  0.06832042  1
  O  O93  1  0.78919017  0.47236420  0.93167958  1
  O  O94  1  0.08942444  0.31835057  0.05813485  1
  O  O95  1  0.91057556  0.68164943  0.94186515  1
  O  O96  1  0.18255807  0.38333294  0.25158442  1
  O  O97  1  0.81744193  0.61666706  0.74841558  1
  O  O98  1  0.33140098  0.30676883  0.05467453  1
  O  O99  1  0.66859902  0.69323117  0.94532547  1
  O  O100  1  0.22975078  0.76235568  0.81033833  1
  O  O101  1  0.77024922  0.23764432  0.18966167  1
  O  O102  1  0.24500425  0.00211679  0.83328385  1
  O  O103  1  0.75499575  0.99788321  0.16671615  1
  O  O104  1  0.41954465  0.88742530  0.68788504  1
  O  O105  1  0.58045535  0.11257470  0.31211496  1
  O  O106  1  0.17981457  0.90711284  0.63954992  1
  O  O107  1  0.82018543  0.09288716  0.36045008  1
