# generated using pymatgen
data_ZnN6
_symmetry_space_group_name_H-M   'P 1'
_cell_length_a   6.38949945
_cell_length_b   5.60852708
_cell_length_c   7.03302678
_cell_angle_alpha   90.56222194
_cell_angle_beta   110.02150821
_cell_angle_gamma   115.37755796
_symmetry_Int_Tables_number   1
_chemical_formula_structural   ZnN6
_chemical_formula_sum   'Zn2 N12'
_cell_volume   210.28142468
_cell_formula_units_Z   2
loop_
 _symmetry_equiv_pos_site_id
 _symmetry_equiv_pos_as_xyz
  1  'x, y, z'
loop_
 _atom_site_type_symbol
 _atom_site_label
 _atom_site_symmetry_multiplicity
 _atom_site_fract_x
 _atom_site_fract_y
 _atom_site_fract_z
 _atom_site_occupancy
  Zn  Zn0  1  0.71225537  0.02570020  0.56705766  1
  Zn  Zn1  1  0.27658883  0.31648494  0.43202185  1
  N  N2  1  0.45768341  0.10915474  0.36205056  1
  N  N3  1  0.54327017  0.64723449  0.63897199  1
  N  N4  1  0.39688237  0.04648260  0.17633087  1
  N  N5  1  0.60318606  0.65070245  0.82479383  1
  N  N6  1  0.33500204  0.99091842  0.00096349  1
  N  N7  1  0.66489144  0.66174610  0.00022937  1
  N  N8  1  -0.00157513  0.02466348  0.49902634  1
  N  N9  1  0.00882598  0.81080066  0.50089768  1
  N  N10  1  0.01985599  0.61141209  0.50249805  1
  N  N11  1  0.82816425  0.25548450  0.83604641  1
  N  N12  1  0.16099520  0.42197428  0.16049925  1
  N  N13  1  0.99397401  0.32910106  0.99861263  1
