# generated using pymatgen
data_Tb2Fe17N2
_symmetry_space_group_name_H-M   'P 1'
_cell_length_a   6.45495022
_cell_length_b   6.51782975
_cell_length_c   6.45495022
_cell_angle_alpha   83.56858615
_cell_angle_beta   82.82082870
_cell_angle_gamma   83.56858615
_symmetry_Int_Tables_number   1
_chemical_formula_structural   Tb2Fe17N2
_chemical_formula_sum   'Tb2 Fe17 N2'
_cell_volume   266.42316118
_cell_formula_units_Z   1
loop_
 _symmetry_equiv_pos_site_id
 _symmetry_equiv_pos_as_xyz
  1  'x, y, z'
loop_
 _atom_site_type_symbol
 _atom_site_label
 _atom_site_symmetry_multiplicity
 _atom_site_fract_x
 _atom_site_fract_y
 _atom_site_fract_z
 _atom_site_occupancy
  Tb  Tb0  1  0.65904422  0.65598864  0.65904422  1
  Tb  Tb1  1  0.34095578  0.34401136  0.34095578  1
  Fe  Fe2  1  0.34461163  0.85513996  0.34461163  1
  Fe  Fe3  1  0.85290024  0.33962540  0.34508794  1
  Fe  Fe4  1  0.34508794  0.33962540  0.85290024  1
  Fe  Fe5  1  0.65538837  0.14486004  0.65538837  1
  Fe  Fe6  1  0.14709976  0.66037460  0.65491206  1
  Fe  Fe7  1  0.65491206  0.66037460  0.14709976  1
  Fe  Fe8  1  0.70874082  0.00000000  0.29125918  1
  Fe  Fe9  1  0.00190223  0.28229168  0.71638986  1
  Fe  Fe10  1  0.28361014  0.71770832  0.99809777  1
  Fe  Fe11  1  0.99809777  0.71770832  0.28361014  1
  Fe  Fe12  1  0.71638986  0.28229168  0.00190223  1
  Fe  Fe13  1  0.29125918  0.00000000  0.70874082  1
  Fe  Fe14  1  0.00000000  0.50000000  0.00000000  1
  Fe  Fe15  1  0.50000000  0.00000000  0.00000000  1
  Fe  Fe16  1  0.00000000  0.00000000  0.50000000  1
  Fe  Fe17  1  0.90426121  0.90491479  0.90426121  1
  Fe  Fe18  1  0.09573879  0.09508521  0.09573879  1
  N  N19  1  0.00000000  0.50000000  0.50000000  1
  N  N20  1  0.50000000  0.50000000  0.00000000  1
