# generated using pymatgen
data_InRhO3
_symmetry_space_group_name_H-M   'P 1'
_cell_length_a   5.34065332
_cell_length_b   5.49879525
_cell_length_c   7.86630528
_cell_angle_alpha   90.00000000
_cell_angle_beta   90.00000000
_cell_angle_gamma   90.00000000
_symmetry_Int_Tables_number   1
_chemical_formula_structural   InRhO3
_chemical_formula_sum   'In4 Rh4 O12'
_cell_volume   231.01103875
_cell_formula_units_Z   4
loop_
 _symmetry_equiv_pos_site_id
 _symmetry_equiv_pos_as_xyz
  1  'x, y, z'
loop_
 _atom_site_type_symbol
 _atom_site_label
 _atom_site_symmetry_multiplicity
 _atom_site_fract_x
 _atom_site_fract_y
 _atom_site_fract_z
 _atom_site_occupancy
  In  In0  1  0.52485745  0.56225525  0.25000000  1
  In  In1  1  0.97514255  0.06225525  0.25000000  1
  In  In2  1  0.47514255  0.43774475  0.75000000  1
  In  In3  1  0.02485745  0.93774475  0.75000000  1
  Rh  Rh4  1  -0.00000000  0.50000000  -0.00000000  1
  Rh  Rh5  1  0.50000000  0.00000000  0.50000000  1
  Rh  Rh6  1  0.00000000  0.50000000  0.50000000  1
  Rh  Rh7  1  0.50000000  0.00000000  -0.00000000  1
  O  O8  1  0.36377022  0.93008007  0.25000000  1
  O  O9  1  0.13622978  0.43008007  0.25000000  1
  O  O10  1  0.63622978  0.06991993  0.75000000  1
  O  O11  1  0.86377022  0.56991993  0.75000000  1
  O  O12  1  0.80302588  0.80023655  0.07834129  1
  O  O13  1  0.69697412  0.30023655  0.42165871  1
  O  O14  1  0.19697412  0.19976345  0.57834129  1
  O  O15  1  0.30302588  0.69976345  0.92165871  1
  O  O16  1  0.19697412  0.19976345  0.92165871  1
  O  O17  1  0.30302588  0.69976345  0.57834129  1
  O  O18  1  0.80302588  0.80023655  0.42165871  1
  O  O19  1  0.69697412  0.30023655  0.07834129  1
