# generated using pymatgen
data_PW3
_symmetry_space_group_name_H-M   'P 1'
_cell_length_a   4.85780957
_cell_length_b   7.41402714
_cell_length_c   7.41402714
_cell_angle_alpha   83.83869640
_cell_angle_beta   70.87626171
_cell_angle_gamma   70.87626171
_symmetry_Int_Tables_number   1
_chemical_formula_structural   PW3
_chemical_formula_sum   'P4 W12'
_cell_volume   238.36406868
_cell_formula_units_Z   4
loop_
 _symmetry_equiv_pos_site_id
 _symmetry_equiv_pos_as_xyz
  1  'x, y, z'
loop_
 _atom_site_type_symbol
 _atom_site_label
 _atom_site_symmetry_multiplicity
 _atom_site_fract_x
 _atom_site_fract_y
 _atom_site_fract_z
 _atom_site_occupancy
  P  P0  1  0.49131107  0.30095447  0.71739449  1
  P  P1  1  0.50966003  0.69904553  0.28260551  1
  P  P2  1  0.20773446  0.28260551  0.30095447  1
  P  P3  1  0.79129444  0.71739449  0.69904553  1
  W  W4  1  0.67170442  0.18752507  0.00501027  1
  W  W5  1  0.86423976  0.81247493  0.99498973  1
  W  W6  1  0.14077051  0.99498973  0.18752507  1
  W  W7  1  0.32328532  0.00501027  0.81247493  1
  W  W8  1  0.99691347  0.35904717  0.64915831  1
  W  W9  1  0.00511895  0.64095283  0.35084169  1
  W  W10  1  0.64403936  0.35084169  0.35904717  1
  W  W11  1  0.35392822  0.64915831  0.64095283  1
  W  W12  1  0.06412401  0.39908677  0.01114233  1
  W  W13  1  0.47435310  0.60091323  0.98885767  1
  W  W14  1  0.53678923  0.98885767  0.39908677  1
  W  W15  1  0.92473367  0.01114233  0.60091323  1
