# generated using pymatgen
data_CoH8(CO2)4
_symmetry_space_group_name_H-M   'P 1'
_cell_length_a   7.02348706
_cell_length_b   8.08078624
_cell_length_c   8.08078624
_cell_angle_alpha   111.57231024
_cell_angle_beta   95.58530023
_cell_angle_gamma   95.58530023
_symmetry_Int_Tables_number   1
_chemical_formula_structural   CoH8(CO2)4
_chemical_formula_sum   'Co2 H16 C8 O16'
_cell_volume   420.06465585
_cell_formula_units_Z   2
loop_
 _symmetry_equiv_pos_site_id
 _symmetry_equiv_pos_as_xyz
  1  'x, y, z'
loop_
 _atom_site_type_symbol
 _atom_site_label
 _atom_site_symmetry_multiplicity
 _atom_site_fract_x
 _atom_site_fract_y
 _atom_site_fract_z
 _atom_site_occupancy
  Co  Co0  1  0.50000000  -0.00000000  0.50000000  1
  Co  Co1  1  -0.00000000  0.50000000  -0.00000000  1
  H  H2  1  0.26662642  0.22733692  0.47650719  1
  H  H3  1  0.23337358  0.52349281  0.77266308  1
  H  H4  1  0.73337358  0.77266308  0.52349281  1
  H  H5  1  0.76662642  0.47650719  0.22733692  1
  H  H6  1  0.45349385  0.27853822  0.40412151  1
  H  H7  1  0.04650615  0.59587849  0.72146178  1
  H  H8  1  0.54650615  0.72146178  0.59587849  1
  H  H9  1  0.95349385  0.40412151  0.27853822  1
  H  H10  1  0.13628212  0.86109988  0.55505425  1
  H  H11  1  0.36371788  0.44494575  0.13890012  1
  H  H12  1  0.86371788  0.13890012  0.44494575  1
  H  H13  1  0.63628212  0.55505425  0.86109988  1
  H  H14  1  0.12929645  0.84604068  0.35084266  1
  H  H15  1  0.37070355  0.64915734  0.15395932  1
  H  H16  1  0.87070355  0.15395932  0.64915734  1
  H  H17  1  0.62929645  0.35084266  0.84604068  1
  C  C18  1  0.49244416  0.94985632  0.10097475  1
  C  C19  1  0.00755584  0.89902525  0.05014368  1
  C  C20  1  0.50755584  0.05014368  0.89902525  1
  C  C21  1  0.99244416  0.10097475  0.94985632  1
  C  C22  1  0.49858714  0.86955760  0.90626399  1
  C  C23  1  0.00141286  0.09373601  0.13044240  1
  C  C24  1  0.50141286  0.13044240  0.09373601  1
  C  C25  1  0.99858714  0.90626399  0.86955760  1
  O  O26  1  0.40790243  0.24318117  0.50179583  1
  O  O27  1  0.09209757  0.49820417  0.75681883  1
  O  O28  1  0.59209757  0.75681883  0.49820417  1
  O  O29  1  0.90790243  0.50179583  0.24318117  1
  O  O30  1  0.48294877  0.88293117  0.21905147  1
  O  O31  1  0.01705123  0.78094853  0.11706883  1
  O  O32  1  0.51705123  0.11706883  0.78094853  1
  O  O33  1  0.98294877  0.21905147  0.88293117  1
  O  O34  1  0.49822668  0.71098236  0.79499472  1
  O  O35  1  0.00177332  0.20500528  0.28901764  1
  O  O36  1  0.50177332  0.28901764  0.20500528  1
  O  O37  1  0.99822668  0.79499472  0.71098236  1
  O  O38  1  0.20843268  0.89602417  0.47113682  1
  O  O39  1  0.29156732  0.52886318  0.10397583  1
  O  O40  1  0.79156732  0.10397583  0.52886318  1
  O  O41  1  0.70843268  0.47113682  0.89602417  1
