# generated using pymatgen
data_PtC8(SF3)4
_symmetry_space_group_name_H-M   'P 1'
_cell_length_a   4.95467139
_cell_length_b   10.51217604
_cell_length_c   15.53539784
_cell_angle_alpha   90.00000000
_cell_angle_beta   90.00000000
_cell_angle_gamma   103.05581524
_symmetry_Int_Tables_number   1
_chemical_formula_structural   PtC8(SF3)4
_chemical_formula_sum   'Pt2 C16 S8 F24'
_cell_volume   788.23534032
_cell_formula_units_Z   2
loop_
 _symmetry_equiv_pos_site_id
 _symmetry_equiv_pos_as_xyz
  1  'x, y, z'
loop_
 _atom_site_type_symbol
 _atom_site_label
 _atom_site_symmetry_multiplicity
 _atom_site_fract_x
 _atom_site_fract_y
 _atom_site_fract_z
 _atom_site_occupancy
  Pt  Pt0  1  0.50000000  -0.00000000  0.00000000  1
  Pt  Pt1  1  0.50000000  0.50000000  0.50000000  1
  C  C2  1  0.16442156  0.83243317  0.15207937  1
  C  C3  1  0.83557844  0.66756683  0.65207937  1
  C  C4  1  0.83557844  0.16756683  0.84792063  1
  C  C5  1  0.16442156  0.33243317  0.34792063  1
  C  C6  1  0.03958631  0.76857054  0.07856802  1
  C  C7  1  0.96041369  0.73142946  0.57856802  1
  C  C8  1  0.96041369  0.23142946  0.92143198  1
  C  C9  1  0.03958631  0.26857054  0.42143198  1
  C  C10  1  0.08302167  0.78994244  0.24424354  1
  C  C11  1  0.91697833  0.71005756  0.74424354  1
  C  C12  1  0.91697833  0.21005756  0.75575646  1
  C  C13  1  0.08302167  0.28994244  0.25575646  1
  C  C14  1  0.80750010  0.64540436  0.07879555  1
  C  C15  1  0.19249990  0.85459564  0.57879555  1
  C  C16  1  0.19249990  0.35459564  0.92120445  1
  C  C17  1  0.80750010  0.14540436  0.42120445  1
  S  S18  1  0.42614392  0.96782376  0.14307294  1
  S  S19  1  0.57385608  0.53217624  0.64307294  1
  S  S20  1  0.57385608  0.03217624  0.85692706  1
  S  S21  1  0.42614392  0.46782376  0.35692706  1
  S  S22  1  0.15041366  0.82322170  0.97879848  1
  S  S23  1  0.84958634  0.67677830  0.47879848  1
  S  S24  1  0.84958634  0.17677830  0.02120152  1
  S  S25  1  0.15041366  0.32322170  0.52120152  1
  F  F26  1  0.83975090  0.82018329  0.26793690  1
  F  F27  1  0.16024910  0.67981671  0.76793690  1
  F  F28  1  0.16024910  0.17981671  0.73206310  1
  F  F29  1  0.83975090  0.32018329  0.23206310  1
  F  F30  1  0.05260430  0.65840522  0.25471196  1
  F  F31  1  0.94739570  0.84159478  0.75471196  1
  F  F32  1  0.94739570  0.34159478  0.74528804  1
  F  F33  1  0.05260430  0.15840522  0.24528804  1
  F  F34  1  0.27778401  0.84901372  0.30176192  1
  F  F35  1  0.72221599  0.65098628  0.80176192  1
  F  F36  1  0.72221599  0.15098628  0.69823808  1
  F  F37  1  0.27778401  0.34901372  0.19823808  1
  F  F38  1  0.61328904  0.64854810  0.14049483  1
  F  F39  1  0.38671096  0.85145190  0.64049483  1
  F  F40  1  0.38671096  0.35145190  0.85950517  1
  F  F41  1  0.61328904  0.14854810  0.35950517  1
  F  F42  1  0.67146159  0.62964387  0.00206232  1
  F  F43  1  0.32853841  0.87035613  0.50206232  1
  F  F44  1  0.32853841  0.37035613  0.99793768  1
  F  F45  1  0.67146159  0.12964387  0.49793768  1
  F  F46  1  0.90784527  0.53663892  0.09240812  1
  F  F47  1  0.09215473  0.96336108  0.59240812  1
  F  F48  1  0.09215473  0.46336108  0.90759188  1
  F  F49  1  0.90784527  0.03663892  0.40759188  1
