# generated using pymatgen
data_Na4Ce2(Si4O11)3
_symmetry_space_group_name_H-M   'P 1'
_cell_length_a   7.11020797
_cell_length_b   7.51929257
_cell_length_c   15.31668873
_cell_angle_alpha   90.00000000
_cell_angle_beta   90.00000000
_cell_angle_gamma   90.00000000
_symmetry_Int_Tables_number   1
_chemical_formula_structural   Na4Ce2(Si4O11)3
_chemical_formula_sum   'Na4 Ce2 Si12 O33'
_cell_volume   818.88737141
_cell_formula_units_Z   1
loop_
 _symmetry_equiv_pos_site_id
 _symmetry_equiv_pos_as_xyz
  1  'x, y, z'
loop_
 _atom_site_type_symbol
 _atom_site_label
 _atom_site_symmetry_multiplicity
 _atom_site_fract_x
 _atom_site_fract_y
 _atom_site_fract_z
 _atom_site_occupancy
  Na  Na0  1  0.00681191  0.50000000  0.23857397  1
  Na  Na1  1  0.00681191  0.50000000  0.76142603  1
  Na  Na2  1  0.87156734  0.77079470  0.50000000  1
  Na  Na3  1  0.87156734  0.22920530  0.50000000  1
  Ce  Ce4  1  0.99780518  0.00000000  0.25261923  1
  Ce  Ce5  1  0.99780518  0.00000000  0.74738077  1
  Si  Si6  1  0.74666345  0.70885317  0.09966874  1
  Si  Si7  1  0.74666345  0.29114683  0.90033126  1
  Si  Si8  1  0.74666345  0.70885317  0.90033126  1
  Si  Si9  1  0.74666345  0.29114683  0.09966874  1
  Si  Si10  1  0.28966511  0.70371509  0.39965257  1
  Si  Si11  1  0.28966511  0.29628491  0.60034743  1
  Si  Si12  1  0.28966511  0.70371509  0.60034743  1
  Si  Si13  1  0.28966511  0.29628491  0.39965257  1
  Si  Si14  1  0.48352217  0.00000000  0.15839097  1
  Si  Si15  1  0.48352217  0.00000000  0.84160903  1
  Si  Si16  1  0.59313272  0.00000000  0.35723642  1
  Si  Si17  1  0.59313272  0.00000000  0.64276358  1
  O  O18  1  0.82739150  0.72365299  -0.00000000  1
  O  O19  1  0.82739150  0.27634701  -0.00000000  1
  O  O20  1  0.12334358  0.75691364  0.33248428  1
  O  O21  1  0.12334358  0.24308636  0.66751572  1
  O  O22  1  0.12334358  0.75691364  0.66751572  1
  O  O23  1  0.12334358  0.24308636  0.33248428  1
  O  O24  1  0.90043577  0.77718047  0.17043810  1
  O  O25  1  0.90043577  0.22281953  0.82956190  1
  O  O26  1  0.90043577  0.77718047  0.82956190  1
  O  O27  1  0.90043577  0.22281953  0.17043810  1
  O  O28  1  0.54936313  0.82041996  0.10653093  1
  O  O29  1  0.54936313  0.17958004  0.89346907  1
  O  O30  1  0.54936313  0.82041996  0.89346907  1
  O  O31  1  0.54936313  0.17958004  0.10653093  1
  O  O32  1  0.47871613  0.82464928  0.39067690  1
  O  O33  1  0.47871613  0.17535072  0.60932310  1
  O  O34  1  0.47871613  0.82464928  0.60932310  1
  O  O35  1  0.47871613  0.17535072  0.39067690  1
  O  O36  1  0.20880145  0.72780728  0.50000000  1
  O  O37  1  0.20880145  0.27219272  0.50000000  1
  O  O38  1  0.26378701  0.00000000  0.18236100  1
  O  O39  1  0.26378701  0.00000000  0.81763900  1
  O  O40  1  0.60921823  0.00000000  0.25034219  1
  O  O41  1  0.60921823  0.00000000  0.74965781  1
  O  O42  1  0.80838427  0.00000000  0.38980210  1
  O  O43  1  0.80838427  0.00000000  0.61019790  1
  O  O44  1  0.70093150  0.50000000  0.12245870  1
  O  O45  1  0.70093150  0.50000000  0.87754130  1
  O  O46  1  0.36270233  0.50000000  0.38506217  1
  O  O47  1  0.36270233  0.50000000  0.61493783  1
  O  O48  1  0.91880357  0.50000000  0.38319666  1
  O  O49  1  0.91880357  0.50000000  0.61680334  1
  O  O50  1  0.18153297  0.00000000  0.00000000  1
