# generated using pymatgen
data_Na2O
_symmetry_space_group_name_H-M   'P 1'
_cell_length_a   3.65348973
_cell_length_b   6.18899130
_cell_length_c   6.18776709
_cell_angle_alpha   119.99649404
_cell_angle_beta   90.00398764
_cell_angle_gamma   89.99564600
_symmetry_Int_Tables_number   1
_chemical_formula_structural   Na2O
_chemical_formula_sum   'Na6 O3'
_cell_volume   121.17351149
_cell_formula_units_Z   3
loop_
 _symmetry_equiv_pos_site_id
 _symmetry_equiv_pos_as_xyz
  1  'x, y, z'
loop_
 _atom_site_type_symbol
 _atom_site_label
 _atom_site_symmetry_multiplicity
 _atom_site_fract_x
 _atom_site_fract_y
 _atom_site_fract_z
 _atom_site_occupancy
  Na  Na0  1  0.93281063  0.74531060  0.08017003  1
  Na  Na1  1  0.43284589  0.59432838  0.66777974  1
  Na  Na2  1  0.43284655  0.33315127  0.92910571  1
  Na  Na3  1  0.93295290  0.33309785  0.25561697  1
  Na  Na4  1  0.43286990  0.07184607  0.40659081  1
  Na  Na5  1  0.93285666  0.92091830  0.66809020  1
  O  O6  1  0.43708128  0.66646332  0.33434505  1
  O  O7  1  0.93242494  0.33311358  0.66782637  1
  O  O8  1  0.42815225  0.99981864  0.00112211  1
