# generated using pymatgen
data_InSn2P(H3C)8
_symmetry_space_group_name_H-M   'P 1'
_cell_length_a   13.37570054
_cell_length_b   13.59084506
_cell_length_c   20.84893197
_cell_angle_alpha   92.40136586
_cell_angle_beta   107.12714718
_cell_angle_gamma   119.11724458
_symmetry_Int_Tables_number   1
_chemical_formula_structural   InSn2P(H3C)8
_chemical_formula_sum   'In6 Sn12 P6 H144 C48'
_cell_volume   3085.43034027
_cell_formula_units_Z   6
loop_
 _symmetry_equiv_pos_site_id
 _symmetry_equiv_pos_as_xyz
  1  'x, y, z'
loop_
 _atom_site_type_symbol
 _atom_site_label
 _atom_site_symmetry_multiplicity
 _atom_site_fract_x
 _atom_site_fract_y
 _atom_site_fract_z
 _atom_site_occupancy
  In  In0  1  0.22098408  0.90469991  0.80849198  1
  In  In1  1  0.77901592  0.09530009  0.19150802  1
  In  In2  1  0.30261546  0.26236828  0.73515230  1
  In  In3  1  0.69738454  0.73763172  0.26484770  1
  In  In4  1  0.50143254  0.06140473  0.70606076  1
  In  In5  1  0.49856746  0.93859527  0.29393924  1
  Sn  Sn6  1  0.33979356  0.20531873  0.94163512  1
  Sn  Sn7  1  0.66020644  0.79468127  0.05836488  1
  Sn  Sn8  1  0.01243604  0.07347276  0.80109588  1
  Sn  Sn9  1  0.98756396  0.92652724  0.19890412  1
  Sn  Sn10  1  0.67128075  0.42206743  0.73941727  1
  Sn  Sn11  1  0.32871925  0.57793257  0.26058273  1
  Sn  Sn12  1  0.41271845  0.24200978  0.56024988  1
  Sn  Sn13  1  0.58728155  0.75799022  0.43975012  1
  Sn  Sn14  1  0.10455047  0.77675616  0.59167709  1
  Sn  Sn15  1  0.89544953  0.22324384  0.40832291  1
  Sn  Sn16  1  0.32918747  0.71008114  0.72619717  1
  Sn  Sn17  1  0.67081253  0.28991886  0.27380283  1
  P  P18  1  0.22452958  0.10669932  0.81318198  1
  P  P19  1  0.77547042  0.89330068  0.18681802  1
  P  P20  1  0.45881473  0.23558477  0.68818714  1
  P  P21  1  0.54118527  0.76441523  0.31181286  1
  P  P22  1  0.28997918  0.87491736  0.70409471  1
  P  P23  1  0.71002082  0.12508264  0.29590529  1
  H  H24  1  0.96731380  0.76928750  0.74522517  1
  H  H25  1  0.03268620  0.23071250  0.25477483  1
  H  H26  1  0.02199237  0.68347218  0.78701587  1
  H  H27  1  0.97800763  0.31652782  0.21298413  1
  H  H28  1  0.00728708  0.78292832  0.83614681  1
  H  H29  1  0.99271292  0.21707168  0.16385319  1
  H  H30  1  0.46120015  0.99816213  0.89850575  1
  H  H31  1  0.53879985  0.00183787  0.10149425  1
  H  H32  1  0.36243253  0.94564555  0.94646384  1
  H  H33  1  0.63756747  0.05435445  0.05353616  1
  H  H34  1  0.37551389  0.84769115  0.89604529  1
  H  H35  1  0.62448611  0.15230885  0.10395471  1
  H  H36  1  0.29534780  0.01053856  0.99073225  1
  H  H37  1  0.70465220  0.98946144  0.00926775  1
  H  H38  1  0.32884957  0.12045323  0.05754447  1
  H  H39  1  0.67115043  0.87954677  0.94245553  1
  H  H40  1  0.17973821  0.04086941  0.99167833  1
  H  H41  1  0.82026179  0.95913059  0.00832167  1
  H  H42  1  0.55561255  0.21710731  0.95554246  1
  H  H43  1  0.44438745  0.78289269  0.04445754  1
  H  H44  1  0.56944159  0.35144575  0.94021961  1
  H  H45  1  0.43055841  0.64855425  0.05978039  1
  H  H46  1  0.58070428  0.32056883  0.02359550  1
  H  H47  1  0.41929572  0.67943117  0.97640450  1
  H  H48  1  0.33979110  0.40706289  0.94221734  1
  H  H49  1  0.66020890  0.59293711  0.05778266  1
  H  H50  1  0.20923650  0.30276489  0.96010098  1
  H  H51  1  0.79076350  0.69723511  0.03989902  1
  H  H52  1  0.35782532  0.37697748  0.02619656  1
  H  H53  1  0.64217468  0.62302252  0.97380344  1
  H  H54  1  0.88971283  0.96987710  0.66376204  1
  H  H55  1  0.11028717  0.03012290  0.33623796  1
  H  H56  1  0.85885103  0.86021973  0.71303401  1
  H  H57  1  0.14114897  0.13978027  0.28696599  1
  H  H58  1  0.78264468  0.93903975  0.70618163  1
  H  H59  1  0.21735532  0.06096025  0.29381837  1
  H  H60  1  0.08310023  0.30104810  0.83783458  1
  H  H61  1  0.91689977  0.69895190  0.16216542  1
  H  H62  1  0.03017200  0.25767765  0.74624209  1
  H  H63  1  0.96982800  0.74232235  0.25375791  1
  H  H64  1  0.92209923  0.21694451  0.78843073  1
  H  H65  1  0.07790077  0.78305549  0.21156927  1
  H  H66  1  0.02489238  0.07613947  0.93567975  1
  H  H67  1  0.97510762  0.92386053  0.06432025  1
  H  H68  1  0.86852722  0.00643185  0.87942698  1
  H  H69  1  0.13147278  0.99356815  0.12057302  1
  H  H70  1  0.94752163  0.92999436  0.88881347  1
  H  H71  1  0.05247837  0.07000564  0.11118653  1
  H  H72  1  0.48585538  0.44538062  0.84603888  1
  H  H73  1  0.51414462  0.55461938  0.15396112  1
  H  H74  1  0.44238835  0.50281258  0.77482055  1
  H  H75  1  0.55761165  0.49718742  0.22517945  1
  H  H76  1  0.34842972  0.44821186  0.82523734  1
  H  H77  1  0.65157028  0.55178814  0.17476266  1
  H  H78  1  0.09596229  0.13390995  0.61497710  1
  H  H79  1  0.90403771  0.86609005  0.38502290  1
  H  H80  1  0.07379954  0.22878708  0.66249610  1
  H  H81  1  0.92620046  0.77121292  0.33750390  1
  H  H82  1  0.16814129  0.28364789  0.61283034  1
  H  H83  1  0.83185871  0.71635211  0.38716966  1
  H  H84  1  0.59715983  0.57269997  0.70116602  1
  H  H85  1  0.40284017  0.42730003  0.29883398  1
  H  H86  1  0.75524776  0.63738958  0.71108922  1
  H  H87  1  0.24475224  0.36261042  0.28891078  1
  H  H88  1  0.63824365  0.53207282  0.63465213  1
  H  H89  1  0.36175635  0.46792718  0.36534787  1
  H  H90  1  0.78346151  0.36182127  0.66766375  1
  H  H91  1  0.21653849  0.63817873  0.33233625  1
  H  H92  1  0.89745492  0.47066277  0.74359264  1
  H  H93  1  0.10254508  0.52933723  0.25640736  1
  H  H94  1  0.80924609  0.32467048  0.74994501  1
  H  H95  1  0.19075391  0.67532952  0.25005499  1
  H  H96  1  0.66916812  0.50295214  0.86158186  1
  H  H97  1  0.33083188  0.49704786  0.13841814  1
  H  H98  1  0.73521246  0.41448972  0.87560133  1
  H  H99  1  0.26478754  0.58551028  0.12439867  1
  H  H100  1  0.82342168  0.55918066  0.86627102  1
  H  H101  1  0.17657832  0.44081934  0.13372898  1
  H  H102  1  0.31098708  0.01242318  0.51431068  1
  H  H103  1  0.68901292  0.98757682  0.48568932  1
  H  H104  1  0.19008757  0.03894993  0.50833733  1
  H  H105  1  0.80991243  0.96105007  0.49166267  1
  H  H106  1  0.25971733  0.06918239  0.44485452  1
  H  H107  1  0.74028267  0.93081761  0.55514548  1
  H  H108  1  0.60975881  0.24226422  0.54463655  1
  H  H109  1  0.39024119  0.75773578  0.45536345  1
  H  H110  1  0.54556610  0.29344495  0.47637349  1
  H  H111  1  0.45443390  0.70655505  0.52362651  1
  H  H112  1  0.64408432  0.38826344  0.55884912  1
  H  H113  1  0.35591568  0.61173656  0.44115088  1
  H  H114  1  0.26337055  0.33108338  0.54133117  1
  H  H115  1  0.73662945  0.66891662  0.45866883  1
  H  H116  1  0.41717523  0.44571484  0.55724037  1
  H  H117  1  0.58282477  0.55428516  0.44275963  1
  H  H118  1  0.32451416  0.34997295  0.47418102  1
  H  H119  1  0.67548584  0.65002705  0.52581898  1
  H  H120  1  0.47534029  0.98989846  0.57146682  1
  H  H121  1  0.52465971  0.01010154  0.42853318  1
  H  H122  1  0.63346800  0.09190764  0.62008789  1
  H  H123  1  0.36653200  0.90809236  0.37991211  1
  H  H124  1  0.56609919  0.94612076  0.62897777  1
  H  H125  1  0.43390081  0.05387924  0.37102223  1
  H  H126  1  0.59520745  0.13611300  0.84865441  1
  H  H127  1  0.40479255  0.86388700  0.15134559  1
  H  H128  1  0.65185287  0.04987918  0.82648929  1
  H  H129  1  0.34814713  0.95012082  0.17351071  1
  H  H130  1  0.71872521  0.19577772  0.81765778  1
  H  H131  1  0.28127479  0.80422228  0.18234222  1
  H  H132  1  0.18089258  0.68669686  0.51012720  1
  H  H133  1  0.81910742  0.31330314  0.48987280  1
  H  H134  1  0.06360029  0.70778038  0.45694734  1
  H  H135  1  0.93639971  0.29221962  0.54305266  1
  H  H136  1  0.21692592  0.82764371  0.49659215  1
  H  H137  1  0.78307408  0.17235629  0.50340785  1
  H  H138  1  0.00760073  0.89828703  0.62445680  1
  H  H139  1  0.99239927  0.10171297  0.37554320  1
  H  H140  1  0.09921778  0.97222075  0.57532983  1
  H  H141  1  0.90078222  0.02777925  0.42467017  1
  H  H142  1  0.94783564  0.84955768  0.53271796  1
  H  H143  1  0.05216436  0.15044232  0.46728204  1
  H  H144  1  0.93939856  0.62439798  0.64355089  1
  H  H145  1  0.06060144  0.37560202  0.35644911  1
  H  H146  1  0.88437636  0.57161623  0.55261843  1
  H  H147  1  0.11562364  0.42838377  0.44738157  1
  H  H148  1  0.00101127  0.55342563  0.60874632  1
  H  H149  1  0.99898873  0.44657437  0.39125368  1
  H  H150  1  0.12781499  0.57179336  0.75794002  1
  H  H151  1  0.87218501  0.42820664  0.24205998  1
  H  H152  1  0.24352147  0.53918294  0.79594559  1
  H  H153  1  0.75647853  0.46081706  0.20405441  1
  H  H154  1  0.25316245  0.66422741  0.83583276  1
  H  H155  1  0.74683755  0.33577259  0.16416724  1
  H  H156  1  0.17674972  0.55028302  0.60323837  1
  H  H157  1  0.82325028  0.44971698  0.39676163  1
  H  H158  1  0.32645707  0.63900603  0.59997624  1
  H  H159  1  0.67354293  0.36099397  0.40002376  1
  H  H160  1  0.29645750  0.52516811  0.64544732  1
  H  H161  1  0.70354250  0.47483189  0.35455268  1
  H  H162  1  0.55519270  0.84075595  0.82806011  1
  H  H163  1  0.44480730  0.15924405  0.17193989  1
  H  H164  1  0.53994954  0.71118305  0.79006879  1
  H  H165  1  0.46005046  0.28881695  0.20993121  1
  H  H166  1  0.57337833  0.82838072  0.74695668  1
  H  H167  1  0.42662167  0.17161928  0.25304332  1
  C  C168  1  0.03127120  0.76859805  0.79202727  1
  C  C169  1  0.96872880  0.23140195  0.20797273  1
  C  C170  1  0.37323114  0.92741144  0.89812484  1
  C  C171  1  0.62676886  0.07258856  0.10187516  1
  C  C172  1  0.27813113  0.07879409  0.00287002  1
  C  C173  1  0.72186887  0.92120591  0.99712998  1
  C  C174  1  0.53533058  0.28297571  0.96817605  1
  C  C175  1  0.46466942  0.71702429  0.03182395  1
  C  C176  1  0.30740614  0.33932104  0.97094503  1
  C  C177  1  0.69259386  0.66067896  0.02905497  1
  C  C178  1  0.86861173  0.94457941  0.70960073  1
  C  C179  1  0.13138827  0.05542059  0.29039927  1
  C  C180  1  0.01235490  0.23190663  0.79264140  1
  C  C181  1  0.98764510  0.76809337  0.20735860  1
  C  C182  1  0.95718904  0.01468230  0.88695174  1
  C  C183  1  0.04281096  0.98531770  0.11304826  1
  C  C184  1  0.40771100  0.43546070  0.80350660  1
  C  C185  1  0.59228900  0.56453930  0.19649340  1
  C  C186  1  0.14066161  0.22166732  0.64554285  1
  C  C187  1  0.85933839  0.77833268  0.35445715  1
  C  C188  1  0.66457984  0.55762353  0.69033983  1
  C  C189  1  0.33542016  0.44237647  0.30966017  1
  C  C190  1  0.80681568  0.39111884  0.72267697  1
  C  C191  1  0.19318432  0.60888116  0.27732303  1
  C  C192  1  0.73139105  0.48153268  0.84930091  1
  C  C193  1  0.26860895  0.51846732  0.15069909  1
  C  C194  1  0.27632720  0.06953959  0.49950830  1
  C  C195  1  0.72367280  0.93046041  0.50049170  1
  C  C196  1  0.57307277  0.29868542  0.53199982  1
  C  C197  1  0.42692723  0.70131458  0.46800018  1
  C  C198  1  0.34638000  0.35645468  0.52978446  1
  C  C199  1  0.65362000  0.64354532  0.47021554  1
  C  C200  1  0.54949045  0.01716158  0.62138326  1
  C  C201  1  0.45050955  0.98283842  0.37861674  1
  C  C202  1  0.63207640  0.11722906  0.81256230  1
  C  C203  1  0.36792360  0.88277094  0.18743770  1
  C  C204  1  0.14708838  0.74599106  0.50309916  1
  C  C205  1  0.85291162  0.25400894  0.49690084  1
  C  C206  1  0.03037574  0.88767343  0.57933857  1
  C  C207  1  0.96962426  0.11232657  0.42066143  1
  C  C208  1  0.96543698  0.61131854  0.60024052  1
  C  C209  1  0.03456302  0.38868146  0.39975948  1
  C  C210  1  0.22584132  0.60914990  0.78649421  1
  C  C211  1  0.77415868  0.39085010  0.21350579  1
  C  C212  1  0.27541295  0.59199991  0.63207792  1
  C  C213  1  0.72458705  0.40800009  0.36792208  1
  C  C214  1  0.52342183  0.78148831  0.77952112  1
  C  C215  1  0.47657817  0.21851169  0.22047888  1
