# generated using pymatgen
data_Sr2La4Mg2RuO12
_symmetry_space_group_name_H-M   'P 1'
_cell_length_a   3.94049136
_cell_length_b   3.94049135
_cell_length_c   41.44904037
_cell_angle_alpha   106.59147497
_cell_angle_beta   106.59147406
_cell_angle_gamma   89.72326494
_symmetry_Int_Tables_number   1
_chemical_formula_structural   Sr2La4Mg2RuO12
_chemical_formula_sum   'Sr4 La8 Mg4 Ru2 O24'
_cell_volume   589.05697103
_cell_formula_units_Z   2
loop_
 _symmetry_equiv_pos_site_id
 _symmetry_equiv_pos_as_xyz
  1  'x, y, z'
loop_
 _atom_site_type_symbol
 _atom_site_label
 _atom_site_symmetry_multiplicity
 _atom_site_fract_x
 _atom_site_fract_y
 _atom_site_fract_z
 _atom_site_occupancy
  Sr  Sr0  1  0.35661769  0.35661769  0.95096390  1
  Sr  Sr1  1  0.35264199  0.35264199  0.11799182  1
  Sr  Sr2  1  0.64338231  0.64338231  0.21570210  1
  Sr  Sr3  1  0.64735801  0.64735801  0.04867518  1
  La  La4  1  0.34330111  0.34330111  0.78654104  1
  La  La5  1  0.66300864  0.66300864  0.87782194  1
  La  La6  1  0.34760446  0.34760446  0.62080018  1
  La  La7  1  0.64937196  0.64937196  0.71165899  1
  La  La8  1  0.35062804  0.35062804  0.45500701  1
  La  La9  1  0.65239554  0.65239554  0.54586682  1
  La  La10  1  0.33699136  0.33699136  0.28884506  1
  La  La11  1  0.65669889  0.65669889  0.38012596  1
  Mg  Mg12  1  0.99689346  0.99689346  0.83218755  1
  Mg  Mg13  1  0.99926739  0.99926739  0.66636189  1
  Mg  Mg14  1  0.00310654  0.00310654  0.33447845  1
  Mg  Mg15  1  0.00073261  0.00073261  0.50030511  1
  Ru  Ru16  1  0.00126924  0.00126924  0.16740411  1
  Ru  Ru17  1  0.99873076  0.99873076  0.99926289  1
  O  O18  1  0.99404878  0.49499579  0.83189083  1
  O  O19  1  0.13284498  0.13284499  0.88923865  1
  O  O20  1  0.99894295  0.49899153  0.66624771  1
  O  O21  1  0.15725529  0.15725529  0.72540582  1
  O  O22  1  0.49499579  0.99404878  0.83189083  1
  O  O23  1  0.00105705  0.50100847  0.50041929  1
  O  O24  1  0.15858604  0.15858604  0.55964842  1
  O  O25  1  0.83466509  0.83466509  0.94351830  1
  O  O26  1  0.49899153  0.99894295  0.66624771  1
  O  O27  1  0.00595122  0.50500421  0.33477517  1
  O  O28  1  0.16144622  0.16144622  0.39392585  1
  O  O29  1  0.83855378  0.83855378  0.77274015  1
  O  O30  1  0.50100847  0.00105705  0.50041929  1
  O  O31  1  0.00037172  0.50019387  0.16696922  1
  O  O32  1  0.16533491  0.16533491  0.22314870  1
  O  O33  1  0.84141396  0.84141396  0.60701858  1
  O  O34  1  0.50500421  0.00595122  0.33477517  1
  O  O35  1  0.15979243  0.15979243  0.05408698  1
  O  O36  1  0.84274471  0.84274471  0.44126118  1
  O  O37  1  0.50019387  0.00037172  0.16696922  1
  O  O38  1  0.86715502  0.86715501  0.27742735  1
  O  O39  1  0.49980613  0.99962828  0.99969778  1
  O  O40  1  0.84020757  0.84020757  0.11258002  1
  O  O41  1  0.99962828  0.49980613  0.99969778  1
