# generated using pymatgen
data_Zn3Mo2O7
_symmetry_space_group_name_H-M   'P 1'
_cell_length_a   5.32313694
_cell_length_b   5.34570236
_cell_length_c   9.99729431
_cell_angle_alpha   105.50707512
_cell_angle_beta   90.00000000
_cell_angle_gamma   90.00000000
_symmetry_Int_Tables_number   1
_chemical_formula_structural   Zn3Mo2O7
_chemical_formula_sum   'Zn6 Mo4 O14'
_cell_volume   274.12619047
_cell_formula_units_Z   2
loop_
 _symmetry_equiv_pos_site_id
 _symmetry_equiv_pos_as_xyz
  1  'x, y, z'
loop_
 _atom_site_type_symbol
 _atom_site_label
 _atom_site_symmetry_multiplicity
 _atom_site_fract_x
 _atom_site_fract_y
 _atom_site_fract_z
 _atom_site_occupancy
  Zn  Zn0  1  0.73687119  0.73436671  0.00000000  1
  Zn  Zn1  1  0.23687119  0.26563329  1.00000000  1
  Zn  Zn2  1  0.78144205  0.57924937  0.59028890  1
  Zn  Zn3  1  0.28144205  0.42075063  0.40971110  1
  Zn  Zn4  1  0.78144205  0.98895947  0.40971110  1
  Zn  Zn5  1  0.28144205  0.01104053  0.59028890  1
  Mo  Mo6  1  0.75735657  0.35538091  0.20679878  1
  Mo  Mo7  1  0.25735657  0.64461909  0.79320122  1
  Mo  Mo8  1  0.25735657  0.85141787  0.20679878  1
  Mo  Mo9  1  0.75735657  0.14858213  0.79320122  1
  O  O10  1  0.65792490  0.93620966  0.58971821  1
  O  O11  1  0.15792490  0.06379034  0.41028179  1
  O  O12  1  0.15792490  0.65350755  0.58971821  1
  O  O13  1  0.65792490  0.34649245  0.41028179  1
  O  O14  1  0.08217015  0.27723863  0.73209712  1
  O  O15  1  0.58217015  0.72276137  0.26790288  1
  O  O16  1  0.58217015  0.45485849  0.73209712  1
  O  O17  1  0.08217015  0.54514151  0.26790288  1
  O  O18  1  0.93358912  0.83987045  0.85070931  1
  O  O19  1  0.43358912  0.16012955  0.14929069  1
  O  O20  1  0.85816522  0.36944736  1.00000000  1
  O  O21  1  0.35816522  0.63055264  0.00000000  1
  O  O22  1  0.93358912  0.98916114  0.14929069  1
  O  O23  1  0.43358912  0.01083886  0.85070931  1
