# generated using pymatgen
data_NdNb3O9
_symmetry_space_group_name_H-M   'P 1'
_cell_length_a   16.81994319
_cell_length_b   12.54656759
_cell_length_c   9.77680780
_cell_angle_alpha   59.12215735
_cell_angle_beta   54.99805313
_cell_angle_gamma   26.54280115
_symmetry_Int_Tables_number   1
_chemical_formula_structural   NdNb3O9
_chemical_formula_sum   'Nd4 Nb12 O36'
_cell_volume   755.22827663
_cell_formula_units_Z   4
loop_
 _symmetry_equiv_pos_site_id
 _symmetry_equiv_pos_as_xyz
  1  'x, y, z'
loop_
 _atom_site_type_symbol
 _atom_site_label
 _atom_site_symmetry_multiplicity
 _atom_site_fract_x
 _atom_site_fract_y
 _atom_site_fract_z
 _atom_site_occupancy
  Nd  Nd0  1  -0.00000000  0.00000000  0.00000000  1
  Nd  Nd1  1  0.33322328  0.00156704  0.99876213  1
  Nd  Nd2  1  0.66677672  0.99843296  0.00123787  1
  Nd  Nd3  1  0.50000000  0.50000000  0.00000000  1
  Nb  Nb4  1  0.07539349  0.00906173  0.25745545  1
  Nb  Nb5  1  0.41528379  0.00113123  0.25268198  1
  Nb  Nb6  1  0.24940973  0.00678651  0.73789935  1
  Nb  Nb7  1  0.24350633  0.50029743  0.26210065  1
  Nb  Nb8  1  0.08438178  0.49920320  0.74731802  1
  Nb  Nb9  1  0.75059027  0.99321349  0.26210065  1
  Nb  Nb10  1  0.58471621  0.99886877  0.74731802  1
  Nb  Nb11  1  0.58269584  0.50175938  0.25745545  1
  Nb  Nb12  1  0.41730416  0.49824062  0.74254455  1
  Nb  Nb13  1  0.92460651  0.99093827  0.74254455  1
  Nb  Nb14  1  0.91561822  0.50079680  0.25268198  1
  Nb  Nb15  1  0.75649367  0.49970257  0.73789935  1
  O  O16  1  -0.00000000  0.00000000  0.50000000  1
  O  O17  1  0.17525502  0.98614121  0.00075678  1
  O  O18  1  0.01152505  0.24357612  0.23108174  1
  O  O19  1  -0.00000000  0.50000000  0.00000000  1
  O  O20  1  0.17937433  0.23178791  0.23008909  1
  O  O21  1  0.50000000  0.00000000  0.00000000  1
  O  O22  1  0.33409364  0.99891693  0.49929012  1
  O  O23  1  0.34375874  0.24753288  0.23066893  1
  O  O24  1  0.16571928  0.24298910  0.76933107  1
  O  O25  1  0.99819042  0.77608113  0.22934862  1
  O  O26  1  0.16639532  0.50059411  0.50070988  1
  O  O27  1  0.33740702  0.50119675  0.99924322  1
  O  O28  1  0.51199148  0.24588617  0.21813840  1
  O  O29  1  0.33270145  0.23188603  0.77001061  1
  O  O30  1  0.19047291  0.73526101  0.22062781  1
  O  O31  1  0.82474498  0.01385879  0.99924322  1
  O  O32  1  0.66590636  0.00108307  0.50070988  1
  O  O33  1  0.66316436  0.26256955  0.22062781  1
  O  O34  1  0.49770696  0.24719188  0.76891826  1
  O  O35  1  0.34235769  0.75288606  0.22004087  1
  O  O36  1  0.15098262  0.77759187  0.76945926  1
  O  O37  1  0.50000000  0.50000000  0.50000000  1
  O  O38  1  0.66259298  0.49880325  0.00075678  1
  O  O39  1  0.84901738  0.22240813  0.23054074  1
  O  O40  1  0.65764231  0.24711394  0.77995913  1
  O  O41  1  0.50229304  0.75280812  0.23108174  1
  O  O42  1  0.33683564  0.73743045  0.77937219  1
  O  O43  1  0.80952709  0.26473899  0.77937219  1
  O  O44  1  0.66729855  0.76811397  0.22998939  1
  O  O45  1  0.48800852  0.75411383  0.78186160  1
  O  O46  1  0.83360468  0.49940589  0.49929012  1
  O  O47  1  0.00180958  0.22391887  0.77065138  1
  O  O48  1  0.65624126  0.75246712  0.76933107  1
  O  O49  1  0.83428072  0.75701090  0.23066893  1
  O  O50  1  0.82062567  0.76821209  0.76991091  1
  O  O51  1  0.98847495  0.75642388  0.76891826  1
