# generated using pymatgen
data_Ag3SI
_symmetry_space_group_name_H-M   'P 1'
_cell_length_a   10.12110639
_cell_length_b   7.11559875
_cell_length_c   7.03282861
_cell_angle_alpha   59.21979070
_cell_angle_beta   43.98170527
_cell_angle_gamma   44.66805061
_symmetry_Int_Tables_number   1
_chemical_formula_structural   Ag3SI
_chemical_formula_sum   'Ag6 S2 I2'
_cell_volume   247.25856140
_cell_formula_units_Z   2
loop_
 _symmetry_equiv_pos_site_id
 _symmetry_equiv_pos_as_xyz
  1  'x, y, z'
loop_
 _atom_site_type_symbol
 _atom_site_label
 _atom_site_symmetry_multiplicity
 _atom_site_fract_x
 _atom_site_fract_y
 _atom_site_fract_z
 _atom_site_occupancy
  Ag  Ag0  1  0.05798250  0.50000000  0.00000000  1
  Ag  Ag1  1  0.04908105  0.39467414  0.50000000  1
  Ag  Ag2  1  0.54761406  0.00000000  0.50000000  1
  Ag  Ag3  1  0.55798250  0.50000000  -0.00000000  1
  Ag  Ag4  1  0.44375519  0.60532586  0.50000000  1
  Ag  Ag5  1  0.94587432  1.00000000  0.50000000  1
  S  S6  1  0.24281965  0.49860432  0.50000000  1
  S  S7  1  0.74142397  0.50139568  0.50000000  1
  I  I8  1  0.00345885  0.00000000  0.00154905  1
  I  I9  1  0.50500790  0.00000000  0.99845095  1
