# generated using pymatgen
data_Li4MnCo3O8
_symmetry_space_group_name_H-M   'P 1'
_cell_length_a   5.93982491
_cell_length_b   5.86145775
_cell_length_c   5.86145832
_cell_angle_alpha   59.99999679
_cell_angle_beta   119.56451658
_cell_angle_gamma   119.56451424
_symmetry_Int_Tables_number   1
_chemical_formula_structural   Li4MnCo3O8
_chemical_formula_sum   'Li4 Mn1 Co3 O8'
_cell_volume   145.24376167
_cell_formula_units_Z   1
loop_
 _symmetry_equiv_pos_site_id
 _symmetry_equiv_pos_as_xyz
  1  'x, y, z'
loop_
 _atom_site_type_symbol
 _atom_site_label
 _atom_site_symmetry_multiplicity
 _atom_site_fract_x
 _atom_site_fract_y
 _atom_site_fract_z
 _atom_site_occupancy
  Li  Li0  1  0.50000000  0.50000000  0.50000000  1
  Li  Li1  1  0.50000000  -0.00000000  0.00000000  1
  Li  Li2  1  0.50000000  -0.00000000  0.50000000  1
  Li  Li3  1  0.50000000  0.50000000  0.00000000  1
  Mn  Mn4  1  0.00000000  -0.00000000  0.50000000  1
  Co  Co5  1  0.00000000  -0.00000000  0.00000000  1
  Co  Co6  1  0.00000000  0.50000000  0.50000000  1
  Co  Co7  1  0.00000000  0.50000000  0.00000000  1
  O  O8  1  0.22964550  0.76111822  0.73426364  1
  O  O9  1  0.22964550  0.23426364  0.26111822  1
  O  O10  1  0.22964550  0.23426364  0.73426364  1
  O  O11  1  0.22431504  0.74143835  0.24143835  1
  O  O12  1  0.77035450  0.23888178  0.26573636  1
  O  O13  1  0.77035450  0.76573636  0.73888178  1
  O  O14  1  0.77035450  0.76573636  0.26573636  1
  O  O15  1  0.77568496  0.25856165  0.75856165  1
