# generated using pymatgen
data_NaCaH6S2NO9
_symmetry_space_group_name_H-M   'P 1'
_cell_length_a   7.54763077
_cell_length_b   10.55069471
_cell_length_c   11.29089180
_cell_angle_alpha   90.00000000
_cell_angle_beta   90.00000000
_cell_angle_gamma   105.45789848
_symmetry_Int_Tables_number   1
_chemical_formula_structural   NaCaH6S2NO9
_chemical_formula_sum   'Na4 Ca4 H24 S8 N4 O36'
_cell_volume   866.60030860
_cell_formula_units_Z   4
loop_
 _symmetry_equiv_pos_site_id
 _symmetry_equiv_pos_as_xyz
  1  'x, y, z'
loop_
 _atom_site_type_symbol
 _atom_site_label
 _atom_site_symmetry_multiplicity
 _atom_site_fract_x
 _atom_site_fract_y
 _atom_site_fract_z
 _atom_site_occupancy
  Na  Na0  1  0.10624552  0.71699800  0.18070024  1
  Na  Na1  1  0.10624552  0.21699800  0.31929976  1
  Na  Na2  1  0.88821305  0.78061787  0.68269964  1
  Na  Na3  1  0.88821305  0.28061787  0.81730036  1
  Ca  Ca4  1  0.39944464  0.68336939  0.59880159  1
  Ca  Ca5  1  0.39944464  0.18336939  0.90119841  1
  Ca  Ca6  1  0.59791069  0.81646848  0.09886862  1
  Ca  Ca7  1  0.59791069  0.31646848  0.40113138  1
  H  H8  1  0.18133351  0.93669144  0.55059827  1
  H  H9  1  0.01963224  0.65018720  0.50066383  1
  H  H10  1  0.98502400  0.55170644  0.60624098  1
  H  H11  1  0.18133351  0.43669144  0.94940173  1
  H  H12  1  0.01963224  0.15018720  0.99933617  1
  H  H13  1  0.98502400  0.05170644  0.89375902  1
  H  H14  1  0.14230155  0.54301595  0.86403620  1
  H  H15  1  0.14230155  0.04301595  0.63596380  1
  H  H16  1  0.34374308  0.87795939  0.40207342  1
  H  H17  1  0.46400474  0.96598486  0.49936159  1
  H  H18  1  0.34374308  0.37795939  0.09792658  1
  H  H19  1  0.46400474  0.46598486  0.00063841  1
  H  H20  1  0.64735737  0.62170244  0.90295469  1
  H  H21  1  0.64735737  0.12170244  0.59704531  1
  H  H22  1  0.82964201  0.95885955  0.36148266  1
  H  H23  1  0.73488405  0.58966067  0.02456871  1
  H  H24  1  0.82964201  0.45885955  0.13851734  1
  H  H25  1  0.01439428  0.94801205  0.10688292  1
  H  H26  1  0.97989796  0.85017734  0.00070959  1
  H  H27  1  0.73488405  0.08966067  0.47543129  1
  H  H28  1  0.95988473  0.50420705  0.02615698  1
  H  H29  1  0.01439428  0.44801205  0.39311708  1
  H  H30  1  0.97989796  0.35017734  0.49929041  1
  H  H31  1  0.95988473  0.00420705  0.47384302  1
  S  S32  1  0.25524215  0.80734315  0.87428024  1
  S  S33  1  0.25524215  0.30734315  0.62571976  1
  S  S34  1  0.40207741  0.54404022  0.29846114  1
  S  S35  1  0.59629606  0.95548002  0.79578976  1
  S  S36  1  0.40207741  0.04404022  0.20153886  1
  S  S37  1  0.59629606  0.45548002  0.70421024  1
  S  S38  1  0.74365714  0.69226406  0.37440117  1
  S  S39  1  0.74365714  0.19226406  0.12559883  1
  N  N40  1  0.38379669  0.94587581  0.82660395  1
  N  N41  1  0.38379669  0.44587581  0.67339605  1
  N  N42  1  0.61555522  0.55343395  0.32733440  1
  N  N43  1  0.61555522  0.05343395  0.17266560  1
  O  O44  1  0.07896162  0.96511519  0.58891349  1
  O  O45  1  0.06616761  0.82248458  0.86985277  1
  O  O46  1  0.06269440  0.63785987  0.58267457  1
  O  O47  1  0.07896162  0.46511519  0.91108651  1
  O  O48  1  0.06616761  0.32248458  0.63014723  1
  O  O49  1  0.06269440  0.13785987  0.91732543  1
  O  O50  1  0.30640257  0.78162589  0.99696865  1
  O  O51  1  0.27346933  0.69852234  0.79544140  1
  O  O52  1  0.33196605  0.90473218  0.23847939  1
  O  O53  1  0.36448339  0.88206040  0.48885988  1
  O  O54  1  0.30607708  0.57304862  0.40565596  1
  O  O55  1  0.38417705  0.63367798  0.20102952  1
  O  O56  1  0.30640257  0.28162589  0.50303135  1
  O  O57  1  0.27346933  0.19852234  0.70455860  1
  O  O58  1  0.33196605  0.40473218  0.26152061  1
  O  O59  1  0.36448339  0.38206040  0.01114012  1
  O  O60  1  0.30607708  0.07304862  0.09434404  1
  O  O61  1  0.38417705  0.13367798  0.29897048  1
  O  O62  1  0.61170777  0.86598995  0.69741429  1
  O  O63  1  0.69504015  0.92613764  0.90154094  1
  O  O64  1  0.62919596  0.61971095  0.98980379  1
  O  O65  1  0.66543427  0.59455172  0.74161362  1
  O  O66  1  0.72250934  0.80009802  0.29529754  1
  O  O67  1  0.69382513  0.71804333  0.49739428  1
  O  O68  1  0.61170777  0.36598995  0.80258571  1
  O  O69  1  0.69504015  0.42613764  0.59845906  1
  O  O70  1  0.62919596  0.11971095  0.51019621  1
  O  O71  1  0.66543427  0.09455172  0.75838638  1
  O  O72  1  0.72250934  0.30009802  0.20470246  1
  O  O73  1  0.69382513  0.21804333  0.00260572  1
  O  O74  1  0.93538668  0.86273183  0.08218785  1
  O  O75  1  0.93356537  0.67838501  0.36923780  1
  O  O76  1  0.89539813  0.53716920  0.09254243  1
  O  O77  1  0.93538668  0.36273183  0.41781215  1
  O  O78  1  0.93356537  0.17838501  0.13076220  1
  O  O79  1  0.89539813  0.03716920  0.40745757  1
