# generated using pymatgen
data_Li5Co3O8
_symmetry_space_group_name_H-M   'P 1'
_cell_length_a   5.78860741
_cell_length_b   5.85816397
_cell_length_c   5.80271191
_cell_angle_alpha   120.13872878
_cell_angle_beta   90.00000020
_cell_angle_gamma   60.39199306
_symmetry_Int_Tables_number   1
_chemical_formula_structural   Li5Co3O8
_chemical_formula_sum   'Li5 Co3 O8'
_cell_volume   139.66783169
_cell_formula_units_Z   1
loop_
 _symmetry_equiv_pos_site_id
 _symmetry_equiv_pos_as_xyz
  1  'x, y, z'
loop_
 _atom_site_type_symbol
 _atom_site_label
 _atom_site_symmetry_multiplicity
 _atom_site_fract_x
 _atom_site_fract_y
 _atom_site_fract_z
 _atom_site_occupancy
  Li  Li0  1  0.50000000  0.50000000  0.00000000  1
  Li  Li1  1  -0.00000000  0.50000000  0.00000000  1
  Li  Li2  1  -0.00000000  0.00000000  0.50000000  1
  Li  Li3  1  0.50000000  0.00000000  0.50000000  1
  Li  Li4  1  0.50000000  0.00000000  0.00000000  1
  Co  Co5  1  -0.00000000  0.00000000  0.00000000  1
  Co  Co6  1  0.50000000  0.50000000  0.50000000  1
  Co  Co7  1  -0.00000000  0.50000000  0.50000000  1
  O  O8  1  0.78922323  0.95478358  0.74629418  1
  O  O9  1  0.25599319  0.95478358  0.74629418  1
  O  O10  1  0.25116816  0.49766368  0.27989096  1
  O  O11  1  0.74068242  0.51863517  0.25586578  1
  O  O12  1  0.21077677  0.04521642  0.25370582  1
  O  O13  1  0.74400681  0.04521642  0.25370582  1
  O  O14  1  0.74883184  0.50233632  0.72010904  1
  O  O15  1  0.25931758  0.48136483  0.74413422  1
