# generated using pymatgen
data_Li4MnCo3O8
_symmetry_space_group_name_H-M   'P 1'
_cell_length_a   2.94144171
_cell_length_b   5.06163726
_cell_length_c   9.85288273
_cell_angle_alpha   79.57760996
_cell_angle_beta   91.64510037
_cell_angle_gamma   91.20256786
_symmetry_Int_Tables_number   1
_chemical_formula_structural   Li4MnCo3O8
_chemical_formula_sum   'Li4 Mn1 Co3 O8'
_cell_volume   144.19633611
_cell_formula_units_Z   1
loop_
 _symmetry_equiv_pos_site_id
 _symmetry_equiv_pos_as_xyz
  1  'x, y, z'
loop_
 _atom_site_type_symbol
 _atom_site_label
 _atom_site_symmetry_multiplicity
 _atom_site_fract_x
 _atom_site_fract_y
 _atom_site_fract_z
 _atom_site_occupancy
  Li  Li0  1  0.99854233  0.24978753  0.25111017  1
  Li  Li1  1  0.49654342  0.24841834  0.75396144  1
  Li  Li2  1  0.50345658  0.75158166  0.24603856  1
  Li  Li3  1  0.00145767  0.75021247  0.74888983  1
  Mn  Mn4  1  -0.00000000  0.50000000  0.50000000  1
  Co  Co5  1  -0.00000000  -0.00000000  0.00000000  1
  Co  Co6  1  0.50000000  -0.00000000  0.50000000  1
  Co  Co7  1  0.50000000  0.50000000  0.00000000  1
  O  O8  1  0.49078505  0.13120206  0.11580343  1
  O  O9  1  0.01964850  0.12218665  0.60555585  1
  O  O10  1  0.99588590  0.63060146  0.11707951  1
  O  O11  1  0.46408604  0.63857389  0.61371530  1
  O  O12  1  0.53591396  0.36142611  0.38628470  1
  O  O13  1  0.00411410  0.36939854  0.88292049  1
  O  O14  1  0.98035150  0.87781335  0.39444415  1
  O  O15  1  0.50921495  0.86879794  0.88419657  1
