# generated using pymatgen
data_Li5Mn(CoO4)2
_symmetry_space_group_name_H-M   'P 1'
_cell_length_a   2.91623876
_cell_length_b   5.10405659
_cell_length_c   9.76688377
_cell_angle_alpha   78.95966678
_cell_angle_beta   90.00000000
_cell_angle_gamma   90.00000000
_symmetry_Int_Tables_number   1
_chemical_formula_structural   Li5Mn(CoO4)2
_chemical_formula_sum   'Li5 Mn1 Co2 O8'
_cell_volume   142.68608344
_cell_formula_units_Z   1
loop_
 _symmetry_equiv_pos_site_id
 _symmetry_equiv_pos_as_xyz
  1  'x, y, z'
loop_
 _atom_site_type_symbol
 _atom_site_label
 _atom_site_symmetry_multiplicity
 _atom_site_fract_x
 _atom_site_fract_y
 _atom_site_fract_z
 _atom_site_occupancy
  Li  Li0  1  -0.00000000  0.25052937  0.25708245  1
  Li  Li1  1  0.50000000  -0.00000000  0.50000000  1
  Li  Li2  1  -0.00000000  0.74947063  0.74291755  1
  Li  Li3  1  0.50000000  0.50000000  0.00000000  1
  Li  Li4  1  -0.00000000  0.50000000  0.50000000  1
  Mn  Mn5  1  0.00000000  -0.00000000  0.00000000  1
  Co  Co6  1  0.50000000  0.72657814  0.26618963  1
  Co  Co7  1  0.50000000  0.27342186  0.73381037  1
  O  O8  1  -0.00000000  0.87252169  0.36261161  1
  O  O9  1  0.50000000  0.60528144  0.63683711  1
  O  O10  1  -0.00000000  0.34401703  0.87702858  1
  O  O11  1  0.50000000  0.10523602  0.11149453  1
  O  O12  1  0.00000000  0.65598297  0.12297142  1
  O  O13  1  0.50000000  0.39471856  0.36316289  1
  O  O14  1  0.00000000  0.12747831  0.63738839  1
  O  O15  1  0.50000000  0.89476398  0.88850547  1
