# generated using pymatgen
data_Li6Mn3CoO10
_symmetry_space_group_name_H-M   'P 1'
_cell_length_a   2.88918100
_cell_length_b   5.08822600
_cell_length_c   13.19988933
_cell_angle_alpha   99.40455420
_cell_angle_beta   96.28300742
_cell_angle_gamma   73.50638402
_symmetry_Int_Tables_number   1
_chemical_formula_structural   Li6Mn3CoO10
_chemical_formula_sum   'Li6 Mn3 Co1 O10'
_cell_volume   183.15514757
_cell_formula_units_Z   1
loop_
 _symmetry_equiv_pos_site_id
 _symmetry_equiv_pos_as_xyz
  1  'x, y, z'
loop_
 _atom_site_type_symbol
 _atom_site_label
 _atom_site_symmetry_multiplicity
 _atom_site_fract_x
 _atom_site_fract_y
 _atom_site_fract_z
 _atom_site_occupancy
  Li  Li0  1  0.29863465  0.49633518  0.09360447  1
  Li  Li1  1  0.89487823  0.52661329  0.31636976  1
  Li  Li2  1  0.50302098  0.50950792  0.51554988  1
  Li  Li3  1  0.11752828  0.45243269  0.68748925  1
  Li  Li4  1  0.69987018  0.48475571  0.88449607  1
  Li  Li5  1  0.79834921  0.00181944  0.59851785  1
  Mn  Mn6  1  0.00144924  0.99245619  0.99535467  1
  Mn  Mn7  1  0.19011590  0.03122557  0.41145736  1
  Mn  Mn8  1  0.59891915  0.00484168  0.20267997  1
  Co  Co9  1  0.40506106  0.96506910  0.77519122  1
  O  O10  1  0.36837939  0.22509134  0.96185012  1
  O  O11  1  0.96477265  0.21569692  0.14524222  1
  O  O12  1  0.55420040  0.24835622  0.35675702  1
  O  O13  1  0.14855800  0.23953411  0.53665011  1
  O  O14  1  0.76452345  0.22322445  0.75227135  1
  O  O15  1  0.23189965  0.79260371  0.25640301  1
  O  O16  1  0.82308568  0.79783622  0.44400759  1
  O  O17  1  0.45979051  0.73723427  0.65681529  1
  O  O18  1  0.03892249  0.78567821  0.86352319  1
  O  O19  1  0.63804090  0.76968780  0.04576961  1
