# generated using pymatgen
data_Li5Mn(CoO4)2
_symmetry_space_group_name_H-M   'P 1'
_cell_length_a   2.91791713
_cell_length_b   6.52700592
_cell_length_c   7.82260976
_cell_angle_alpha   93.60764313
_cell_angle_beta   79.25108775
_cell_angle_gamma   102.91624571
_symmetry_Int_Tables_number   1
_chemical_formula_structural   Li5Mn(CoO4)2
_chemical_formula_sum   'Li5 Mn1 Co2 O8'
_cell_volume   142.63103328
_cell_formula_units_Z   1
loop_
 _symmetry_equiv_pos_site_id
 _symmetry_equiv_pos_as_xyz
  1  'x, y, z'
loop_
 _atom_site_type_symbol
 _atom_site_label
 _atom_site_symmetry_multiplicity
 _atom_site_fract_x
 _atom_site_fract_y
 _atom_site_fract_z
 _atom_site_occupancy
  Li  Li0  1  0.12471327  0.86706183  0.61763529  1
  Li  Li1  1  0.37391518  0.62013204  0.87230168  1
  Li  Li2  1  0.62608482  0.37986796  0.12769832  1
  Li  Li3  1  0.87528673  0.13293817  0.38236471  1
  Li  Li4  1  0.50000000  0.50000000  0.50000000  1
  Mn  Mn5  1  0.00000000  -0.00000000  0.00000000  1
  Co  Co6  1  0.23140214  0.72764219  0.26483791  1
  Co  Co7  1  0.76859786  0.27235781  0.73516209  1
  O  O8  1  0.18016034  0.28890209  0.92858142  1
  O  O9  1  0.44249617  0.05070138  0.16570905  1
  O  O10  1  0.69645702  0.81450118  0.42158715  1
  O  O11  1  0.92585218  0.54748854  0.69578417  1
  O  O12  1  0.07414782  0.45251146  0.30421583  1
  O  O13  1  0.30354298  0.18549882  0.57841285  1
  O  O14  1  0.55750383  0.94929862  0.83429095  1
  O  O15  1  0.81983966  0.71109791  0.07141858  1
