# generated using pymatgen
data_Li7Co5O12
_symmetry_space_group_name_H-M   'P 1'
_cell_length_a   5.82687859
_cell_length_b   5.77671748
_cell_length_c   6.57089837
_cell_angle_alpha   102.59495386
_cell_angle_beta   76.82017611
_cell_angle_gamma   89.47829927
_symmetry_Int_Tables_number   1
_chemical_formula_structural   Li7Co5O12
_chemical_formula_sum   'Li7 Co5 O12'
_cell_volume   209.76663282
_cell_formula_units_Z   1
loop_
 _symmetry_equiv_pos_site_id
 _symmetry_equiv_pos_as_xyz
  1  'x, y, z'
loop_
 _atom_site_type_symbol
 _atom_site_label
 _atom_site_symmetry_multiplicity
 _atom_site_fract_x
 _atom_site_fract_y
 _atom_site_fract_z
 _atom_site_occupancy
  Li  Li0  1  0.50000000  0.00000000  -0.00000000  1
  Li  Li1  1  0.16764584  0.33546926  0.32695842  1
  Li  Li2  1  0.83247222  0.17316127  0.67721073  1
  Li  Li3  1  0.50000000  0.50000000  -0.00000000  1
  Li  Li4  1  0.83235416  0.66453074  0.67304158  1
  Li  Li5  1  0.16752778  0.82683873  0.32278927  1
  Li  Li6  1  -0.00000000  0.50000000  -0.00000000  1
  Co  Co7  1  -0.00000000  0.00000000  -0.00000000  1
  Co  Co8  1  0.67443135  0.82731217  0.32515587  1
  Co  Co9  1  0.67338991  0.33563814  0.33067156  1
  Co  Co10  1  0.32661009  0.66436186  0.66932844  1
  Co  Co11  1  0.32556865  0.17268783  0.67484413  1
  O  O12  1  0.23382213  0.76729163  0.98892470  1
  O  O13  1  0.92282757  0.08079702  0.31065086  1
  O  O14  1  0.55871298  0.91812143  0.65397833  1
  O  O15  1  0.23300327  0.22412445  0.98589174  1
  O  O16  1  0.57745558  0.41790293  0.66633083  1
  O  O17  1  0.88964411  0.59066595  0.34065388  1
  O  O18  1  0.76617787  0.23270837  0.01107530  1
  O  O19  1  0.42254442  0.58209707  0.33366917  1
  O  O20  1  0.11035589  0.40933405  0.65934612  1
  O  O21  1  0.76699673  0.77587555  0.01410826  1
  O  O22  1  0.07717243  0.91920298  0.68934914  1
  O  O23  1  0.44128702  0.08187857  0.34602167  1
