# generated using pymatgen
data_Li7Co5O12
_symmetry_space_group_name_H-M   'P 1'
_cell_length_a   5.08957368
_cell_length_b   7.75142949
_cell_length_c   5.77486473
_cell_angle_alpha   79.06361149
_cell_angle_beta   106.76960239
_cell_angle_gamma   101.87631197
_symmetry_Int_Tables_number   1
_chemical_formula_structural   Li7Co5O12
_chemical_formula_sum   'Li7 Co5 O12'
_cell_volume   211.39311279
_cell_formula_units_Z   1
loop_
 _symmetry_equiv_pos_site_id
 _symmetry_equiv_pos_as_xyz
  1  'x, y, z'
loop_
 _atom_site_type_symbol
 _atom_site_label
 _atom_site_symmetry_multiplicity
 _atom_site_fract_x
 _atom_site_fract_y
 _atom_site_fract_z
 _atom_site_occupancy
  Li  Li0  1  0.50206385  0.17137470  0.83565850  1
  Li  Li1  1  0.49976075  0.49445587  0.00520194  1
  Li  Li2  1  0.49793615  0.49529230  0.49767450  1
  Li  Li3  1  0.50000000  0.83333300  0.66666700  1
  Li  Li4  1  0.50000000  0.83333300  0.16666700  1
  Li  Li5  1  0.50023925  0.17221113  0.32813106  1
  Li  Li6  1  0.00000000  0.33333300  0.16666700  1
  Co  Co7  1  0.99971220  0.00538693  0.00104030  1
  Co  Co8  1  0.00000000  0.33333300  0.66666700  1
  Co  Co9  1  0.00028780  0.66128007  0.33229270  1
  Co  Co10  1  0.00171386  0.00830952  0.49458858  1
  Co  Co11  1  0.99828614  0.65835748  0.83874442  1
  O  O12  1  0.22069299  0.91763962  0.82227835  1
  O  O13  1  0.22368171  0.24811095  0.97447896  1
  O  O14  1  0.21891669  0.24801723  0.51405324  1
  O  O15  1  0.22704461  0.56534336  0.66588732  1
  O  O16  1  0.23075203  0.59546983  0.15744148  1
  O  O17  1  0.23576209  0.91483659  0.33164340  1
  O  O18  1  0.78108331  0.41864977  0.81927976  1
  O  O19  1  0.76423791  0.75183041  0.00168960  1
  O  O20  1  0.77930701  0.74902738  0.51105465  1
  O  O21  1  0.77295539  0.10132264  0.66744668  1
  O  O22  1  0.76924797  0.07119617  0.17589252  1
  O  O23  1  0.77631829  0.41855605  0.35885404  1
