# generated using pymatgen
data_Li7Co5O12
_symmetry_space_group_name_H-M   'P 1'
_cell_length_a   2.89726792
_cell_length_b   7.58218931
_cell_length_c   9.81913336
_cell_angle_alpha   78.99958285
_cell_angle_beta   90.00000042
_cell_angle_gamma   78.98550029
_symmetry_Int_Tables_number   1
_chemical_formula_structural   Li7Co5O12
_chemical_formula_sum   'Li7 Co5 O12'
_cell_volume   207.69044347
_cell_formula_units_Z   1
loop_
 _symmetry_equiv_pos_site_id
 _symmetry_equiv_pos_as_xyz
  1  'x, y, z'
loop_
 _atom_site_type_symbol
 _atom_site_label
 _atom_site_symmetry_multiplicity
 _atom_site_fract_x
 _atom_site_fract_y
 _atom_site_fract_z
 _atom_site_occupancy
  Li  Li0  1  0.58440227  0.83119446  0.24698620  1
  Li  Li1  1  0.74893073  0.50213854  0.75301380  1
  Li  Li2  1  0.91657855  0.16684390  0.24968030  1
  Li  Li3  1  0.24566022  0.50867957  0.23962401  1
  Li  Li4  1  0.41675545  0.16649010  0.75031970  1
  Li  Li5  1  0.08767278  0.82465343  0.76037599  1
  Li  Li6  1  0.66666700  0.66666700  0.00000000  1
  Co  Co7  1  0.00356699  0.99286603  0.00410679  1
  Co  Co8  1  0.32976601  0.34046697  0.99589321  1
  Co  Co9  1  0.16666700  0.66666700  0.50000000  1
  Co  Co10  1  0.50078713  -0.00157426  0.50228174  1
  Co  Co11  1  0.83254587  0.33490726  0.49771826  1
  O  O12  1  0.45731579  0.08536742  0.10511864  1
  O  O13  1  0.62250821  0.75498358  0.61900354  1
  O  O14  1  0.80020036  0.39960028  0.10693297  1
  O  O15  1  0.11323514  0.77352971  0.11660864  1
  O  O16  1  0.28688945  0.42622210  0.61226113  1
  O  O17  1  0.95374586  0.09250728  0.61972948  1
  O  O18  1  0.71082479  0.57834942  0.38099646  1
  O  O19  1  0.87601721  0.24796558  0.89488136  1
  O  O20  1  0.04644455  0.90711190  0.38773887  1
  O  O21  1  0.37958714  0.24082572  0.38027052  1
  O  O22  1  0.53313364  0.93373372  0.89306703  1
  O  O23  1  0.22009786  0.55980329  0.88339136  1
