# generated using pymatgen
data_Li7Mn2(CoO4)3
_symmetry_space_group_name_H-M   'P 1'
_cell_length_a   5.91372039
_cell_length_b   5.89389364
_cell_length_c   7.68448601
_cell_angle_alpha   100.97567125
_cell_angle_beta   111.48378547
_cell_angle_gamma   59.86595447
_symmetry_Int_Tables_number   1
_chemical_formula_structural   Li7Mn2(CoO4)3
_chemical_formula_sum   'Li7 Mn2 Co3 O12'
_cell_volume   215.54220719
_cell_formula_units_Z   1
loop_
 _symmetry_equiv_pos_site_id
 _symmetry_equiv_pos_as_xyz
  1  'x, y, z'
loop_
 _atom_site_type_symbol
 _atom_site_label
 _atom_site_symmetry_multiplicity
 _atom_site_fract_x
 _atom_site_fract_y
 _atom_site_fract_z
 _atom_site_occupancy
  Li  Li0  1  0.50000000  0.33333300  0.33333300  1
  Li  Li1  1  0.49499892  0.16904014  0.66463905  1
  Li  Li2  1  0.50000000  0.83333300  0.33333300  1
  Li  Li3  1  0.48675248  0.66725477  0.65717970  1
  Li  Li4  1  0.50500108  0.49762686  0.00202795  1
  Li  Li5  1  0.51324752  0.99941223  0.00948730  1
  Li  Li6  1  0.00000000  0.83333300  0.33333300  1
  Mn  Mn7  1  0.00358335  -0.00306864  0.00463535  1
  Mn  Mn8  1  0.99641665  0.66973564  0.66203165  1
  Co  Co9  1  0.00422936  0.50423846  0.00905400  1
  Co  Co10  1  0.00000000  0.33333300  0.33333300  1
  Co  Co11  1  0.99577064  0.16242854  0.65761300  1
  O  O12  1  0.22495110  0.02697485  0.50551389  1
  O  O13  1  0.22249603  0.83242425  0.82692022  1
  O  O14  1  0.22769107  0.50399984  0.50840390  1
  O  O15  1  0.21449913  0.36114351  0.82673161  1
  O  O16  1  0.23614741  0.15854219  0.15594402  1
  O  O17  1  0.23179437  0.68620616  0.15269992  1
  O  O18  1  0.77504890  0.63969215  0.16115311  1
  O  O19  1  0.76385259  0.50812381  0.51072198  1
  O  O20  1  0.77230893  0.16266716  0.15826310  1
  O  O21  1  0.76820563  0.98045984  0.51396608  1
  O  O22  1  0.77750397  0.83424275  0.83974678  1
  O  O23  1  0.78550087  0.30552349  0.83993539  1
