# generated using pymatgen
data_Li4MnCo2O7
_symmetry_space_group_name_H-M   'P 1'
_cell_length_a   5.05232373
_cell_length_b   7.84203526
_cell_length_c   6.55243873
_cell_angle_alpha   86.15930978
_cell_angle_beta   96.60610363
_cell_angle_gamma   102.06699250
_symmetry_Int_Tables_number   1
_chemical_formula_structural   Li4MnCo2O7
_chemical_formula_sum   'Li8 Mn2 Co4 O14'
_cell_volume   251.94248768
_cell_formula_units_Z   2
loop_
 _symmetry_equiv_pos_site_id
 _symmetry_equiv_pos_as_xyz
  1  'x, y, z'
loop_
 _atom_site_type_symbol
 _atom_site_label
 _atom_site_symmetry_multiplicity
 _atom_site_fract_x
 _atom_site_fract_y
 _atom_site_fract_z
 _atom_site_occupancy
  Li  Li0  1  0.93043992  0.35586247  0.86594233  1
  Li  Li1  1  0.21645349  0.93929019  0.42619518  1
  Li  Li2  1  0.49129316  0.49432619  0.00510764  1
  Li  Li3  1  0.06930817  0.63219007  0.14523290  1
  Li  Li4  1  0.35526668  0.21560369  0.70545494  1
  Li  Li5  1  0.64282583  0.78570438  0.28572143  1
  Li  Li6  1  0.79436632  0.07708927  0.56632269  1
  Li  Li7  1  0.14291156  0.28570108  0.28573694  1
  Mn  Mn8  1  0.00045782  0.00329030  0.00093854  1
  Mn  Mn9  1  0.28528619  0.56814075  0.57045966  1
  Co  Co10  1  0.57474924  0.15176159  0.14970633  1
  Co  Co11  1  0.85675186  0.71162794  0.71308089  1
  Co  Co12  1  0.42897629  0.85980586  0.85832747  1
  Co  Co13  1  0.71099284  0.41961781  0.42173956  1
  O  O14  1  0.69675870  0.09537011  0.86859599  1
  O  O15  1  0.97976410  0.67371445  0.45090316  1
  O  O16  1  0.24864004  0.22428403  0.00280129  1
  O  O17  1  0.79787999  0.39093126  0.14619844  1
  O  O18  1  0.10222575  0.95857798  0.72994118  1
  O  O19  1  0.40298255  0.53882061  0.31091052  1
  O  O20  1  0.52149307  0.80429516  0.58704433  1
  O  O21  1  0.18348702  0.61280954  0.84148606  1
  O  O22  1  0.48775733  0.18049764  0.42529067  1
  O  O23  1  0.76424169  0.76717682  0.98437012  1
  O  O24  1  0.30589702  0.89769475  0.12054257  1
  O  O25  1  0.58902740  0.47605559  0.70280829  1
  O  O26  1  0.88260692  0.03264065  0.26048871  1
  O  O27  1  0.03715904  0.34711981  0.56865214  1
