# generated using pymatgen
data_Li6Mn3CoO10
_symmetry_space_group_name_H-M   'P 1'
_cell_length_a   2.88656289
_cell_length_b   5.87858567
_cell_length_c   11.00619433
_cell_angle_alpha   97.57031598
_cell_angle_beta   82.46489492
_cell_angle_gamma   90.00000393
_symmetry_Int_Tables_number   1
_chemical_formula_structural   Li6Mn3CoO10
_chemical_formula_sum   'Li6 Mn3 Co1 O10'
_cell_volume   183.50819004
_cell_formula_units_Z   1
loop_
 _symmetry_equiv_pos_site_id
 _symmetry_equiv_pos_as_xyz
  1  'x, y, z'
loop_
 _atom_site_type_symbol
 _atom_site_label
 _atom_site_symmetry_multiplicity
 _atom_site_fract_x
 _atom_site_fract_y
 _atom_site_fract_z
 _atom_site_occupancy
  Li  Li0  1  0.40281028  0.29825095  0.19437945  1
  Li  Li1  1  0.19231856  0.91383453  0.61536288  1
  Li  Li2  1  0.78820709  0.10985774  0.42358582  1
  Li  Li3  1  0.59827845  0.70803942  0.80344310  1
  Li  Li4  1  0.01369655  0.48692766  0.97260691  1
  Li  Li5  1  0.60092935  0.19290967  0.79814130  1
  Mn  Mn6  1  0.00774647  -0.00106536  0.98450706  1
  Mn  Mn7  1  0.79732094  0.59778063  0.40535812  1
  Mn  Mn8  1  0.40155884  0.80098744  0.19688232  1
  Co  Co9  1  0.18548107  0.39506971  0.62903786  1
  O  O10  1  0.49969645  0.22375471  0.00060710  1
  O  O11  1  0.29881425  0.82335789  0.40237150  1
  O  O12  1  0.90873988  0.02318711  0.18252024  1
  O  O13  1  0.71018941  0.62528278  0.57962117  1
  O  O14  1  0.10372968  0.45701271  0.79254064  1
  O  O15  1  0.30462882  0.37382437  0.39074235  1
  O  O16  1  0.09126939  0.95681903  0.81746121  1
  O  O17  1  0.69863773  0.16319812  0.60272454  1
  O  O18  1  0.50258569  0.77371701  0.99482863  1
  O  O19  1  0.89336110  0.57725387  0.21327780  1
