# generated using pymatgen
data_Li6Mn3CoO10
_symmetry_space_group_name_H-M   'P 1'
_cell_length_a   2.90211962
_cell_length_b   12.25574808
_cell_length_c   5.20397124
_cell_angle_alpha   92.36733036
_cell_angle_beta   90.00000031
_cell_angle_gamma   83.20032414
_symmetry_Int_Tables_number   1
_chemical_formula_structural   Li6Mn3CoO10
_chemical_formula_sum   'Li6 Mn3 Co1 O10'
_cell_volume   183.63201213
_cell_formula_units_Z   1
loop_
 _symmetry_equiv_pos_site_id
 _symmetry_equiv_pos_as_xyz
  1  'x, y, z'
loop_
 _atom_site_type_symbol
 _atom_site_label
 _atom_site_symmetry_multiplicity
 _atom_site_fract_x
 _atom_site_fract_y
 _atom_site_fract_z
 _atom_site_occupancy
  Li  Li0  1  0.49565325  0.00869349  0.49803067  1
  Li  Li1  1  0.89304575  0.21390850  0.71829514  1
  Li  Li2  1  0.30535888  0.38928223  0.89722863  1
  Li  Li3  1  0.70605773  0.58788455  0.10159092  1
  Li  Li4  1  0.10247019  0.79505961  0.29240564  1
  Li  Li5  1  0.79991080  0.40017841  0.39379829  1
  Mn  Mn6  1  0.99846080  0.00307841  0.01195354  1
  Mn  Mn7  1  0.20373305  0.59253391  0.57562483  1
  Mn  Mn8  1  0.60080061  0.79839878  0.79530757  1
  Co  Co9  1  0.39042725  0.21914550  0.23557388  1
  O  O10  1  0.54454146  0.91091708  0.14734397  1
  O  O11  1  0.95246926  0.09506149  0.31048880  1
  O  O12  1  0.35482330  0.29035341  0.54103157  1
  O  O13  1  0.74255721  0.51488559  0.73079494  1
  O  O14  1  0.14761282  0.70477436  0.91219512  1
  O  O15  1  0.45818233  0.08363534  0.86448687  1
  O  O16  1  0.85269275  0.29461449  0.05557766  1
  O  O17  1  0.24540580  0.50918840  0.28003678  1
  O  O18  1  0.65460806  0.69078389  0.44990323  1
  O  O19  1  0.05118872  0.89762256  0.68833194  1
