# generated using pymatgen
data_Li5Mn2CoO8
_symmetry_space_group_name_H-M   'P 1'
_cell_length_a   2.87835992
_cell_length_b   9.73022999
_cell_length_c   5.09456576
_cell_angle_alpha   80.14587177
_cell_angle_beta   89.89904893
_cell_angle_gamma   90.00918444
_symmetry_Int_Tables_number   1
_chemical_formula_structural   Li5Mn2CoO8
_chemical_formula_sum   'Li5 Mn2 Co1 O8'
_cell_volume   140.57873325
_cell_formula_units_Z   1
loop_
 _symmetry_equiv_pos_site_id
 _symmetry_equiv_pos_as_xyz
  1  'x, y, z'
loop_
 _atom_site_type_symbol
 _atom_site_label
 _atom_site_symmetry_multiplicity
 _atom_site_fract_x
 _atom_site_fract_y
 _atom_site_fract_z
 _atom_site_occupancy
  Li  Li0  1  -0.00000000  0.25000000  0.25000000  1
  Li  Li1  1  0.50316379  0.48996993  0.99820411  1
  Li  Li2  1  -0.00000000  0.75000000  0.75000000  1
  Li  Li3  1  0.49683621  0.01003007  0.50179589  1
  Li  Li4  1  0.50000000  0.25000000  0.75000000  1
  Mn  Mn5  1  0.99329273  0.00726878  0.98022434  1
  Mn  Mn6  1  0.00670727  0.49273122  0.51977566  1
  Co  Co7  1  0.50000000  0.75000000  0.25000000  1
  O  O8  1  0.49202654  0.10837979  0.11491606  1
  O  O9  1  0.00446478  0.38544543  0.84818926  1
  O  O10  1  0.50692147  0.61405717  0.61933631  1
  O  O11  1  0.99558788  0.86680108  0.33855184  1
  O  O12  1  0.50797346  0.39162021  0.38508394  1
  O  O13  1  0.00441212  0.63319892  0.16144816  1
  O  O14  1  0.49307853  0.88594283  0.88066369  1
  O  O15  1  0.99553522  0.11455457  0.65181074  1
