# generated using pymatgen
data_Li7Co5O12
_symmetry_space_group_name_H-M   'P 1'
_cell_length_a   5.11112389
_cell_length_b   7.62058085
_cell_length_c   5.84776712
_cell_angle_alpha   100.17276341
_cell_angle_beta   90.00571027
_cell_angle_gamma   108.74936029
_symmetry_Int_Tables_number   1
_chemical_formula_structural   Li7Co5O12
_chemical_formula_sum   'Li7 Co5 O12'
_cell_volume   211.89598370
_cell_formula_units_Z   1
loop_
 _symmetry_equiv_pos_site_id
 _symmetry_equiv_pos_as_xyz
  1  'x, y, z'
loop_
 _atom_site_type_symbol
 _atom_site_label
 _atom_site_symmetry_multiplicity
 _atom_site_fract_x
 _atom_site_fract_y
 _atom_site_fract_z
 _atom_site_occupancy
  Li  Li0  1  0.50499505  0.00056808  0.74644830  1
  Li  Li1  1  0.50134965  0.33647657  0.57911757  1
  Li  Li2  1  0.49500495  -0.00056808  0.25355170  1
  Li  Li3  1  0.49598038  0.33352194  0.08681459  1
  Li  Li4  1  0.50401962  0.66647806  0.91318541  1
  Li  Li5  1  0.49865035  0.66352343  0.42088243  1
  Li  Li6  1  0.00000000  0.00000000  0.50000000  1
  Co  Co7  1  0.00000000  0.00000000  0.00000000  1
  Co  Co8  1  0.99962399  0.33062785  0.82632828  1
  Co  Co9  1  0.01013842  0.67662923  0.66010887  1
  Co  Co10  1  0.98986158  0.32337077  0.33989113  1
  Co  Co11  1  0.00037601  0.66937215  0.17367172  1
  O  O12  1  0.22772314  0.83881655  0.95774852  1
  O  O13  1  0.21504288  0.16478249  0.81200808  1
  O  O14  1  0.24131919  0.81889349  0.46214377  1
  O  O15  1  0.21922975  0.15740617  0.26474578  1
  O  O16  1  0.22163958  0.49971858  0.12801158  1
  O  O17  1  0.23551715  0.49088110  0.62152473  1
  O  O18  1  0.75868081  0.18110651  0.53785623  1
  O  O19  1  0.76448285  0.50911890  0.37847527  1
  O  O20  1  0.77227686  0.16118345  0.04225148  1
  O  O21  1  0.77836042  0.50028142  0.87198842  1
  O  O22  1  0.78077025  0.84259383  0.73525422  1
  O  O23  1  0.78495712  0.83521751  0.18799192  1
