# generated using pymatgen
data_Li5Mn2CoO8
_symmetry_space_group_name_H-M   'P 1'
_cell_length_a   2.87266386
_cell_length_b   5.83888950
_cell_length_c   8.40172295
_cell_angle_alpha   89.63042803
_cell_angle_beta   90.07185048
_cell_angle_gamma   89.99682297
_symmetry_Int_Tables_number   1
_chemical_formula_structural   Li5Mn2CoO8
_chemical_formula_sum   'Li5 Mn2 Co1 O8'
_cell_volume   140.92045844
_cell_formula_units_Z   1
loop_
 _symmetry_equiv_pos_site_id
 _symmetry_equiv_pos_as_xyz
  1  'x, y, z'
loop_
 _atom_site_type_symbol
 _atom_site_label
 _atom_site_symmetry_multiplicity
 _atom_site_fract_x
 _atom_site_fract_y
 _atom_site_fract_z
 _atom_site_occupancy
  Li  Li0  1  0.99728324  0.50633374  0.03066849  1
  Li  Li1  1  0.50000000  0.25000000  0.25000000  1
  Li  Li2  1  0.50000000  0.75000000  0.75000000  1
  Li  Li3  1  0.00271676  0.99366626  0.46933151  1
  Li  Li4  1  0.50000000  0.75000000  0.25000000  1
  Mn  Mn5  1  0.00511427  0.99973500  0.01304834  1
  Mn  Mn6  1  0.99488573  0.50026500  0.48695166  1
  Co  Co7  1  0.50000000  0.25000000  0.75000000  1
  O  O8  1  0.50553962  0.23063486  0.00074796  1
  O  O9  1  0.00559572  0.99866630  0.22918303  1
  O  O10  1  0.99934555  0.47244442  0.73317144  1
  O  O11  1  0.49514807  0.72304439  0.50440350  1
  O  O12  1  0.50485193  0.77695561  0.99559650  1
  O  O13  1  0.99440428  0.50133370  0.27081697  1
  O  O14  1  0.00065445  0.02755558  0.76682856  1
  O  O15  1  0.49446038  0.26936514  0.49925204  1
