# generated using pymatgen
data_Cs2KCr(CN)6
_symmetry_space_group_name_H-M   'P 1'
_cell_length_a   7.83662855
_cell_length_b   8.42803942
_cell_length_c   11.42245249
_cell_angle_alpha   90.00051285
_cell_angle_beta   90.66986487
_cell_angle_gamma   89.99988345
_symmetry_Int_Tables_number   1
_chemical_formula_structural   Cs2KCr(CN)6
_chemical_formula_sum   'Cs4 K2 Cr2 C12 N12'
_cell_volume   754.37189296
_cell_formula_units_Z   2
loop_
 _symmetry_equiv_pos_site_id
 _symmetry_equiv_pos_as_xyz
  1  'x, y, z'
loop_
 _atom_site_type_symbol
 _atom_site_label
 _atom_site_symmetry_multiplicity
 _atom_site_fract_x
 _atom_site_fract_y
 _atom_site_fract_z
 _atom_site_occupancy
  Cs  Cs0  1  0.47415356  0.07710488  0.75253135  1
  Cs  Cs1  1  0.97415349  0.42289027  0.25253054  1
  Cs  Cs2  1  0.52586477  0.92288907  0.24746658  1
  Cs  Cs3  1  0.02586270  0.57710542  0.74746738  1
  K  K4  1  0.00001121  0.99999486  0.49999885  1
  K  K5  1  0.50000659  0.49999729  -0.00000024  1
  Cr  Cr6  1  0.49985790  0.49994184  0.49999199  1
  Cr  Cr7  1  0.99990043  0.00011039  0.00004209  1
  C  C8  1  0.28593170  0.37179111  0.53608175  1
  C  C9  1  0.78592754  0.12820748  0.03608268  1
  C  C10  1  0.71408703  0.62820650  0.46391488  1
  C  C11  1  0.21408878  0.87178901  0.96391527  1
  C  C12  1  0.37464671  0.70379691  0.54615067  1
  C  C13  1  0.87464817  0.79620158  0.04614993  1
  C  C14  1  0.62536706  0.29620555  0.45384840  1
  C  C15  1  0.12536606  0.20379293  0.95384810  1
  C  C16  1  0.58175805  0.47209474  0.66928214  1
  C  C17  1  0.08175268  0.02790544  0.16928236  1
  C  C18  1  0.41825651  0.52790304  0.33071464  1
  C  C19  1  0.91826236  0.97209289  0.83071300  1
  N  N20  1  0.16261401  0.29829693  0.55786337  1
  N  N21  1  0.66261892  0.20169758  0.05786387  1
  N  N22  1  0.83740290  0.70169843  0.44213410  1
  N  N23  1  0.33739442  0.79830033  0.94213553  1
  N  N24  1  0.30140569  0.81927271  0.57439146  1
  N  N25  1  0.80141169  0.68072835  0.07438995  1
  N  N26  1  0.69860944  0.18072607  0.42560827  1
  N  N27  1  0.19860513  0.31926632  0.92560930  1
  N  N28  1  0.62827990  0.45318933  0.76661320  1
  N  N29  1  0.12827738  0.04680586  0.26660978  1
  N  N30  1  0.37173765  0.54680672  0.23338189  1
  N  N31  1  0.87173956  0.95319018  0.73338692  1
