# generated using pymatgen
data_Li7Mn2(CoO4)3
_symmetry_space_group_name_H-M   'P 1'
_cell_length_a   5.01484621
_cell_length_b   6.58628031
_cell_length_c   6.58628061
_cell_angle_alpha   83.91583328
_cell_angle_beta   96.89127251
_cell_angle_gamma   96.89126985
_symmetry_Int_Tables_number   1
_chemical_formula_structural   Li7Mn2(CoO4)3
_chemical_formula_sum   'Li7 Mn2 Co3 O12'
_cell_volume   213.47981990
_cell_formula_units_Z   1
loop_
 _symmetry_equiv_pos_site_id
 _symmetry_equiv_pos_as_xyz
  1  'x, y, z'
loop_
 _atom_site_type_symbol
 _atom_site_label
 _atom_site_symmetry_multiplicity
 _atom_site_fract_x
 _atom_site_fract_y
 _atom_site_fract_z
 _atom_site_occupancy
  Li  Li0  1  0.24694386  0.74798184  0.74109589  1
  Li  Li1  1  0.24742131  0.42251568  0.08918168  1
  Li  Li2  1  0.24694386  0.07442889  0.41464884  1
  Li  Li3  1  0.75305614  0.25890411  0.25201816  1
  Li  Li4  1  0.75257869  0.91081832  0.57748432  1
  Li  Li5  1  0.75305614  0.58535116  0.92557111  1
  Li  Li6  1  -0.00000000  0.66666700  0.33333300  1
  Mn  Mn7  1  1.00000000  0.99656444  0.00343556  1
  Mn  Mn8  1  0.00000000  0.33676856  0.66323144  1
  Co  Co9  1  0.50000000  0.50950497  0.49049503  1
  Co  Co10  1  0.50000000  0.16666700  0.83333300  1
  Co  Co11  1  0.50000000  0.82382803  0.17617197  1
  O  O12  1  0.35502996  0.11417299  0.10780339  1
  O  O13  1  0.39487104  0.79023744  0.45690344  1
  O  O14  1  0.35502996  0.44113639  0.78083999  1
  O  O15  1  0.86524327  0.59700036  0.62847607  1
  O  O16  1  0.87990188  0.27757369  0.94423969  1
  O  O17  1  0.86524327  0.96180907  0.26366736  1
  O  O18  1  0.13475673  0.37152393  0.40299964  1
  O  O19  1  0.12009812  0.05576031  0.72242631  1
  O  O20  1  0.13475673  0.73633264  0.03819093  1
  O  O21  1  0.64497004  0.89219661  0.88582701  1
  O  O22  1  0.60512896  0.54309656  0.20976256  1
  O  O23  1  0.64497004  0.21916001  0.55886361  1
