# generated using pymatgen
data_Li4MnCo2O7
_symmetry_space_group_name_H-M   'P 1'
_cell_length_a   5.00251288
_cell_length_b   10.21084556
_cell_length_c   5.17381147
_cell_angle_alpha   98.87348440
_cell_angle_beta   79.27942648
_cell_angle_gamma   80.74920911
_symmetry_Int_Tables_number   1
_chemical_formula_structural   Li4MnCo2O7
_chemical_formula_sum   'Li8 Mn2 Co4 O14'
_cell_volume   251.62438889
_cell_formula_units_Z   2
loop_
 _symmetry_equiv_pos_site_id
 _symmetry_equiv_pos_as_xyz
  1  'x, y, z'
loop_
 _atom_site_type_symbol
 _atom_site_label
 _atom_site_symmetry_multiplicity
 _atom_site_fract_x
 _atom_site_fract_y
 _atom_site_fract_z
 _atom_site_occupancy
  Li  Li0  1  0.28442958  0.92010891  0.43040911  1
  Li  Li1  1  0.70977804  0.07499686  0.57482839  1
  Li  Li2  1  0.14641584  0.22230018  0.71661635  1
  Li  Li3  1  0.42213147  0.63559136  0.13476832  1
  Li  Li4  1  0.86842130  0.77275250  0.27801784  1
  Li  Li5  1  0.57148493  0.36179730  0.85855221  1
  Li  Li6  1  0.00053557  0.50716104  0.99936436  1
  Li  Li7  1  0.14584054  0.71168887  0.71340603  1
  Mn  Mn8  1  -0.00039215  0.99828138  0.99294401  1
  Mn  Mn9  1  0.57166898  0.85415039  0.85332040  1
  Co  Co10  1  0.43014049  0.14211968  0.14085401  1
  Co  Co11  1  0.85181514  0.28909770  0.29154375  1
  Co  Co12  1  0.28231578  0.43545697  0.43558705  1
  Co  Co13  1  0.70853739  0.57708993  0.58166977  1
  O  O14  1  0.21468142  0.83726559  0.06191071  1
  O  O15  1  0.64391775  0.97097666  0.18190483  1
  O  O16  1  0.08093442  0.10311753  0.31416499  1
  O  O17  1  0.37495679  0.53341204  0.76642208  1
  O  O18  1  0.75933253  0.69290270  0.92628892  1
  O  O19  1  0.51281740  0.25121173  0.48491693  1
  O  O20  1  0.93851293  0.39150661  0.62643021  1
  O  O21  1  0.34558309  0.02306678  0.79207195  1
  O  O22  1  0.78373061  0.16846525  0.94515947  1
  O  O23  1  0.22026296  0.30534811  0.08756132  1
  O  O24  1  0.51743821  0.75977515  0.53168323  1
  O  O25  1  0.90986574  0.90139470  0.68066672  1
  O  O26  1  0.64195360  0.46121823  0.23156667  1
  O  O27  1  0.06288966  0.59774582  0.36737036  1
