# generated using pymatgen
data_Li4MnCo2O7
_symmetry_space_group_name_H-M   'P 1'
_cell_length_a   5.89131097
_cell_length_b   6.63321492
_cell_length_c   7.73306704
_cell_angle_alpha   114.93393468
_cell_angle_beta   78.44511515
_cell_angle_gamma   76.73251653
_symmetry_Int_Tables_number   1
_chemical_formula_structural   Li4MnCo2O7
_chemical_formula_sum   'Li8 Mn2 Co4 O14'
_cell_volume   251.15419874
_cell_formula_units_Z   2
loop_
 _symmetry_equiv_pos_site_id
 _symmetry_equiv_pos_as_xyz
  1  'x, y, z'
loop_
 _atom_site_type_symbol
 _atom_site_label
 _atom_site_symmetry_multiplicity
 _atom_site_fract_x
 _atom_site_fract_y
 _atom_site_fract_z
 _atom_site_occupancy
  Li  Li0  1  0.22203860  0.26985522  0.84560016  1
  Li  Li1  1  0.49807360  0.99947238  0.99916695  1
  Li  Li2  1  0.92399969  0.57952353  0.71595253  1
  Li  Li3  1  0.64692602  0.85381004  0.56560287  1
  Li  Li4  1  0.35113530  0.14334289  0.43532682  1
  Li  Li5  1  0.07401678  0.43758695  0.29233550  1
  Li  Li6  1  0.78641518  0.71304802  0.14168878  1
  Li  Li7  1  0.14526269  0.85568200  0.57128599  1
  Mn  Mn8  1  0.99816826  0.99866721  0.99602276  1
  Mn  Mn9  1  0.57253663  0.43318602  0.28690866  1
  Co  Co10  1  0.27814319  0.71493742  0.15373788  1
  Co  Co11  1  0.85413936  0.14361658  0.43224056  1
  Co  Co12  1  0.42130932  0.58103269  0.71661132  1
  Co  Co13  1  0.72891193  0.27444865  0.84558262  1
  O  O14  1  0.30131903  0.92929753  0.80348012  1
  O  O15  1  0.57955441  0.63338881  0.92361831  1
  O  O16  1  0.01444236  0.22513509  0.65060631  1
  O  O17  1  0.73741300  0.49339973  0.48886183  1
  O  O18  1  0.47695127  0.75368038  0.34279985  1
  O  O19  1  0.15348835  0.06662121  0.21458268  1
  O  O20  1  0.88647558  0.33599562  0.07317971  1
  O  O21  1  0.09953550  0.66972765  0.93124056  1
  O  O22  1  0.41592702  0.36506353  0.07909469  1
  O  O23  1  0.83028813  0.94190777  0.80382211  1
  O  O24  1  0.55197681  0.21230918  0.63736586  1
  O  O25  1  0.28456248  0.49435296  0.49474790  1
  O  O26  1  0.97842573  0.78920079  0.34577755  1
  O  O27  1  0.68856380  0.09171016  0.21275912  1
