# generated using pymatgen
data_Li4MnCo2O7
_symmetry_space_group_name_H-M   'P 1'
_cell_length_a   4.99109862
_cell_length_b   5.88595227
_cell_length_c   8.96476521
_cell_angle_alpha   89.91718113
_cell_angle_beta   96.28001095
_cell_angle_gamma   74.37417143
_symmetry_Int_Tables_number   1
_chemical_formula_structural   Li4MnCo2O7
_chemical_formula_sum   'Li8 Mn2 Co4 O14'
_cell_volume   251.97427327
_cell_formula_units_Z   2
loop_
 _symmetry_equiv_pos_site_id
 _symmetry_equiv_pos_as_xyz
  1  'x, y, z'
loop_
 _atom_site_type_symbol
 _atom_site_label
 _atom_site_symmetry_multiplicity
 _atom_site_fract_x
 _atom_site_fract_y
 _atom_site_fract_z
 _atom_site_occupancy
  Li  Li0  1  0.57828150  0.35967319  0.14507753  1
  Li  Li1  1  0.27771143  0.93044991  0.56993633  1
  Li  Li2  1  0.14822051  0.21619237  0.29735800  1
  Li  Li3  1  0.84595477  0.78462649  0.70827788  1
  Li  Li4  1  0.71408008  0.07552341  0.43947875  1
  Li  Li5  1  0.43387661  0.63917172  0.84791768  1
  Li  Li6  1  0.99600904  0.49982130  0.99112895  1
  Li  Li7  1  0.85541149  0.28671350  0.71153032  1
  Mn  Mn8  1  0.00169747  -0.00029694  0.99585471  1
  Mn  Mn9  1  0.43045756  0.14372762  0.85252168  1
  Co  Co10  1  0.71315341  0.56859776  0.43501423  1
  Co  Co11  1  0.14526795  0.71580671  0.28875513  1
  Co  Co12  1  0.57072940  0.85855046  0.14266854  1
  Co  Co13  1  0.28665295  0.42331523  0.57910158  1
  O  O14  1  0.72196900  0.28843727  0.93250525  1
  O  O15  1  0.41649947  0.88488816  0.34970895  1
  O  O16  1  0.29264527  0.15532827  0.05928002  1
  O  O17  1  0.98655513  0.74157424  0.49287887  1
  O  O18  1  0.85610235  0.01908383  0.19439708  1
  O  O19  1  0.55470539  0.59729414  0.63353907  1
  O  O20  1  0.17390374  0.43722174  0.79340915  1
  O  O21  1  0.43288192  0.40861433  0.35887446  1
  O  O22  1  0.15355188  0.97181473  0.80726486  1
  O  O23  1  0.00702880  0.26863347  0.50042338  1
  O  O24  1  0.72053108  0.84402403  0.92661677  1
  O  O25  1  0.55155572  0.10943028  0.66025522  1
  O  O26  1  0.28337018  0.70685666  0.07504628  1
  O  O27  1  0.85119592  0.56492612  0.21117934  1
