# generated using pymatgen
data_Bi2SO7
_symmetry_space_group_name_H-M   'P 1'
_cell_length_a   5.86879619
_cell_length_b   8.06464622
_cell_length_c   12.86895038
_cell_angle_alpha   90.00000000
_cell_angle_beta   90.00000000
_cell_angle_gamma   109.97403715
_symmetry_Int_Tables_number   1
_chemical_formula_structural   Bi2SO7
_chemical_formula_sum   'Bi8 S4 O28'
_cell_volume   572.44645196
_cell_formula_units_Z   4
loop_
 _symmetry_equiv_pos_site_id
 _symmetry_equiv_pos_as_xyz
  1  'x, y, z'
loop_
 _atom_site_type_symbol
 _atom_site_label
 _atom_site_symmetry_multiplicity
 _atom_site_fract_x
 _atom_site_fract_y
 _atom_site_fract_z
 _atom_site_occupancy
  Bi  Bi0  1  0.93063273  0.54594563  0.36526263  1
  Bi  Bi1  1  0.56936727  0.45405437  0.86526263  1
  Bi  Bi2  1  0.06936727  0.45405437  0.63473737  1
  Bi  Bi3  1  0.43063273  0.54594563  0.13473737  1
  Bi  Bi4  1  0.22018702  0.20339817  0.37654007  1
  Bi  Bi5  1  0.27981298  0.79660183  0.87654007  1
  Bi  Bi6  1  0.77981298  0.79660183  0.62345993  1
  Bi  Bi7  1  0.72018702  0.20339817  0.12345993  1
  S  S8  1  0.59375522  0.87564299  0.36309288  1
  S  S9  1  0.90624478  0.12435701  0.86309288  1
  S  S10  1  0.40624478  0.12435701  0.63690712  1
  S  S11  1  0.09375522  0.87564299  0.13690712  1
  O  O12  1  0.13281316  0.39849130  0.26483829  1
  O  O13  1  0.36718684  0.60150870  0.76483829  1
  O  O14  1  0.86718684  0.60150870  0.73516171  1
  O  O15  1  0.63281316  0.39849130  0.23516171  1
  O  O16  1  0.04542341  0.35993372  0.46205712  1
  O  O17  1  0.45457659  0.64006628  0.96205712  1
  O  O18  1  0.95457659  0.64006628  0.53794288  1
  O  O19  1  0.54542341  0.35993372  0.03794288  1
  O  O20  1  0.55772259  0.40506410  0.41485600  1
  O  O21  1  0.94227741  0.59493590  0.91485600  1
  O  O22  1  0.44227741  0.59493590  0.58514400  1
  O  O23  1  0.05772259  0.40506410  0.08514400  1
  O  O24  1  0.63603569  0.73805261  0.29488367  1
  O  O25  1  0.86396431  0.26194739  0.79488367  1
  O  O26  1  0.36396431  0.26194739  0.70511633  1
  O  O27  1  0.13603569  0.73805261  0.20511633  1
  O  O28  1  0.78482394  0.91012425  0.44680114  1
  O  O29  1  0.71517606  0.08987575  0.94680114  1
  O  O30  1  0.21517606  0.08987575  0.55319886  1
  O  O31  1  0.28482394  0.91012425  0.05319886  1
  O  O32  1  0.63930949  0.04397220  0.30638208  1
  O  O33  1  0.86069051  0.95602780  0.80638208  1
  O  O34  1  0.36069051  0.95602780  0.69361792  1
  O  O35  1  0.13930949  0.04397220  0.19361792  1
  O  O36  1  0.34808298  0.81319842  0.40830283  1
  O  O37  1  0.15191702  0.18680158  0.90830283  1
  O  O38  1  0.65191702  0.18680158  0.59169717  1
  O  O39  1  0.84808298  0.81319842  0.09169717  1
