# generated using pymatgen
data_Li4MnCo2O7
_symmetry_space_group_name_H-M   'P 1'
_cell_length_a   5.09467275
_cell_length_b   7.77868455
_cell_length_c   7.64977603
_cell_angle_alpha   119.84206626
_cell_angle_beta   108.16225803
_cell_angle_gamma   83.93475546
_symmetry_Int_Tables_number   1
_chemical_formula_structural   Li4MnCo2O7
_chemical_formula_sum   'Li8 Mn2 Co4 O14'
_cell_volume   249.40920065
_cell_formula_units_Z   2
loop_
 _symmetry_equiv_pos_site_id
 _symmetry_equiv_pos_as_xyz
  1  'x, y, z'
loop_
 _atom_site_type_symbol
 _atom_site_label
 _atom_site_symmetry_multiplicity
 _atom_site_fract_x
 _atom_site_fract_y
 _atom_site_fract_z
 _atom_site_occupancy
  Li  Li0  1  0.49689627  0.21325015  0.06659176  1
  Li  Li1  1  0.50573303  0.50372059  0.50611218  1
  Li  Li2  1  0.48847318  0.63854437  0.20743771  1
  Li  Li3  1  0.50608031  0.92915995  0.64325067  1
  Li  Li4  1  0.50351289  0.07001458  0.36184347  1
  Li  Li5  1  0.50079656  0.36693519  0.78677000  1
  Li  Li6  1  0.50018858  0.77451822  0.92636419  1
  Li  Li7  1  0.99637433  0.56976419  0.85669415  1
  Mn  Mn8  1  -0.00311802  0.99738608  0.99636515  1
  Mn  Mn9  1  0.00173165  0.28816165  0.43197639  1
  Co  Co10  1  -0.00009645  0.84843511  0.28036682  1
  Co  Co11  1  0.00088934  0.15493365  0.71980858  1
  Co  Co12  1  0.99223300  0.43074120  0.14147104  1
  Co  Co13  1  0.00970918  0.71133260  0.57435704  1
  O  O14  1  0.23059554  0.96279099  0.82730526  1
  O  O15  1  0.21091216  0.24449533  0.23502503  1
  O  O16  1  0.21592533  0.38173121  0.96537582  1
  O  O17  1  0.24109658  0.68471776  0.40081115  1
  O  O18  1  0.22440350  0.83932224  0.11264861  1
  O  O19  1  0.22843891  0.12041329  0.53030977  1
  O  O20  1  0.23366502  0.51814266  0.65573058  1
  O  O21  1  0.77867156  0.45862797  0.32689813  1
  O  O22  1  0.78000347  0.76486227  0.75728674  1
  O  O23  1  0.78242857  0.90253086  0.47016714  1
  O  O24  1  0.76594723  0.16411228  0.89404295  1
  O  O25  1  0.76778712  0.31479830  0.59160732  1
  O  O26  1  0.76414355  0.60210162  0.05214482  1
  O  O27  1  0.77657762  0.04445568  0.18123751  1
