# generated using pymatgen
data_Li4MnCo2O7
_symmetry_space_group_name_H-M   'P 1'
_cell_length_a   5.07686910
_cell_length_b   8.75904268
_cell_length_c   5.91712675
_cell_angle_alpha   89.16343220
_cell_angle_beta   73.79338937
_cell_angle_gamma   95.02087953
_symmetry_Int_Tables_number   1
_chemical_formula_structural   Li4MnCo2O7
_chemical_formula_sum   'Li8 Mn2 Co4 O14'
_cell_volume   251.49050632
_cell_formula_units_Z   2
loop_
 _symmetry_equiv_pos_site_id
 _symmetry_equiv_pos_as_xyz
  1  'x, y, z'
loop_
 _atom_site_type_symbol
 _atom_site_label
 _atom_site_symmetry_multiplicity
 _atom_site_fract_x
 _atom_site_fract_y
 _atom_site_fract_z
 _atom_site_occupancy
  Li  Li0  1  0.57816655  0.14631293  0.35175155  1
  Li  Li1  1  0.14892597  0.28082430  0.21203491  1
  Li  Li2  1  0.99350024  0.00441664  0.50778031  1
  Li  Li3  1  0.43075179  0.86344702  0.64748460  1
  Li  Li4  1  0.70343572  0.41743137  0.06975877  1
  Li  Li5  1  0.28417062  0.57071846  0.92602452  1
  Li  Li6  1  0.86385898  0.71643449  0.78098798  1
  Li  Li7  1  0.57218216  0.14193281  0.85608357  1
  Mn  Mn8  1  0.00002777  0.00210529  0.99419538  1
  Mn  Mn9  1  0.28471698  0.57208537  0.42903474  1
  Co  Co10  1  0.14777996  0.28311160  0.72659704  1
  Co  Co11  1  0.71553775  0.41691017  0.57708822  1
  Co  Co12  1  0.85689106  0.71366798  0.28454915  1
  Co  Co13  1  0.42922637  0.86698669  0.13745527  1
  O  O14  1  0.87384769  0.20230699  0.02921801  1
  O  O15  1  0.42018827  0.35804667  0.87523635  1
  O  O16  1  0.27322502  0.05458799  0.17121937  1
  O  O17  1  0.73364947  0.92410658  0.30069625  1
  O  O18  1  0.01130482  0.50382532  0.72698313  1
  O  O19  1  0.56349318  0.63448811  0.58540290  1
  O  O20  1  0.15241828  0.77169402  0.45007894  1
  O  O21  1  0.25817241  0.06909620  0.70015298  1
  O  O22  1  0.86228385  0.23063345  0.54281897  1
  O  O23  1  0.72687891  0.92682275  0.84259333  1
  O  O24  1  0.13379337  0.79642706  0.97575395  1
  O  O25  1  0.42029731  0.36921196  0.40109855  1
  O  O26  1  0.00857511  0.51461444  0.26556987  1
  O  O27  1  0.55270038  0.64775334  0.13235136  1
