# generated using pymatgen
data_Li4MnCo2O7
_symmetry_space_group_name_H-M   'P 1'
_cell_length_a   5.08272783
_cell_length_b   7.74262985
_cell_length_c   6.63730489
_cell_angle_alpha   94.32889189
_cell_angle_beta   82.18341409
_cell_angle_gamma   103.46420676
_symmetry_Int_Tables_number   1
_chemical_formula_structural   Li4MnCo2O7
_chemical_formula_sum   'Li8 Mn2 Co4 O14'
_cell_volume   251.40275862
_cell_formula_units_Z   2
loop_
 _symmetry_equiv_pos_site_id
 _symmetry_equiv_pos_as_xyz
  1  'x, y, z'
loop_
 _atom_site_type_symbol
 _atom_site_label
 _atom_site_symmetry_multiplicity
 _atom_site_fract_x
 _atom_site_fract_y
 _atom_site_fract_z
 _atom_site_occupancy
  Li  Li0  1  0.78112331  0.07458934  0.43137071  1
  Li  Li1  1  0.92429033  0.35151912  0.13694919  1
  Li  Li2  1  0.63881403  0.79376372  0.71775184  1
  Li  Li3  1  0.50564488  0.48931166  0.99732820  1
  Li  Li4  1  0.35769817  0.21476922  0.28050460  1
  Li  Li5  1  0.22529579  0.93278202  0.58341752  1
  Li  Li6  1  0.06726061  0.64317959  0.85227789  1
  Li  Li7  1  0.57250522  0.14320260  0.85855056  1
  Mn  Mn8  1  0.00190456  -0.00082014  0.99503483  1
  Mn  Mn9  1  0.28505883  0.57248695  0.42929686  1
  Co  Co10  1  0.13216621  0.28441133  0.72460439  1
  Co  Co11  1  0.43475458  0.86521504  0.13494529  1
  Co  Co12  1  0.70618786  0.41748942  0.57866223  1
  Co  Co13  1  0.85651321  0.71401485  0.28619799  1
  O  O14  1  0.68553234  0.08647348  0.13882897  1
  O  O15  1  0.83925193  0.39162715  0.84285154  1
  O  O16  1  0.52453138  0.80635575  0.42253868  1
  O  O17  1  0.39397597  0.53706755  0.69263174  1
  O  O18  1  0.22978307  0.23471684  -0.00681279  1
  O  O19  1  0.09098447  0.95558265  0.26564790  1
  O  O20  1  0.97717569  0.66391977  0.55175858  1
  O  O21  1  0.90964873  0.03413910  0.73351600  1
  O  O22  1  0.04872081  0.33760390  0.43704147  1
  O  O23  1  0.75930336  0.76299160  0.00709116  1
  O  O24  1  0.59841287  0.48313510  0.29375882  1
  O  O25  1  0.46596613  0.19739869  0.57168948  1
  O  O26  1  0.29723166  0.89624441  0.87737290  1
  O  O27  1  0.19026400  0.61682929  0.16519345  1
