# generated using pymatgen
data_Li4MnCo2O7
_symmetry_space_group_name_H-M   'P 1'
_cell_length_a   5.09212702
_cell_length_b   10.12780691
_cell_length_c   5.15779434
_cell_angle_alpha   99.57095960
_cell_angle_beta   80.12055375
_cell_angle_gamma   79.77366022
_symmetry_Int_Tables_number   1
_chemical_formula_structural   Li4MnCo2O7
_chemical_formula_sum   'Li8 Mn2 Co4 O14'
_cell_volume   252.52566132
_cell_formula_units_Z   2
loop_
 _symmetry_equiv_pos_site_id
 _symmetry_equiv_pos_as_xyz
  1  'x, y, z'
loop_
 _atom_site_type_symbol
 _atom_site_label
 _atom_site_symmetry_multiplicity
 _atom_site_fract_x
 _atom_site_fract_y
 _atom_site_fract_z
 _atom_site_occupancy
  Li  Li0  1  0.29025983  0.92502461  0.43006890  1
  Li  Li1  1  0.70890314  0.06445662  0.57405514  1
  Li  Li2  1  0.14196031  0.21163436  0.70682602  1
  Li  Li3  1  0.42959515  0.65293360  0.14545383  1
  Li  Li4  1  0.84997857  0.78676323  0.28223866  1
  Li  Li5  1  0.57294227  0.35566571  0.85485627  1
  Li  Li6  1  0.00271922  0.50274873  0.00319066  1
  Li  Li7  1  0.57072824  0.85772814  0.85739351  1
  Mn  Mn8  1  0.00387514  0.99756198  0.99236522  1
  Mn  Mn9  1  0.28703946  0.42789360  0.43019291  1
  Co  Co10  1  0.43471666  0.13410067  0.13463691  1
  Co  Co11  1  0.85723057  0.28565008  0.28497771  1
  Co  Co12  1  0.70696572  0.58226023  0.57880184  1
  Co  Co13  1  0.13128808  0.71832464  0.72793328  1
  O  O14  1  0.19410176  0.83133715  0.06267238  1
  O  O15  1  0.65091219  0.97810477  0.20325169  1
  O  O16  1  0.05918082  0.10950309  0.32757260  1
  O  O17  1  0.36103362  0.52913304  0.75813818  1
  O  O18  1  0.80414809  0.67520754  0.90985359  1
  O  O19  1  0.49122648  0.25872634  0.48599004  1
  O  O20  1  0.94545795  0.39673485  0.61818901  1
  O  O21  1  0.33126584  0.03969235  0.80820432  1
  O  O22  1  0.79253567  0.17211332  0.93908021  1
  O  O23  1  0.22227461  0.32107358  0.10295305  1
  O  O24  1  0.50053798  0.73762436  0.50788909  1
  O  O25  1  0.94318244  0.89731660  0.66919591  1
  O  O26  1  0.63297308  0.45306364  0.23244518  1
  O  O27  1  0.08296710  0.59762316  0.37157390  1
