# generated using pymatgen
data_Li4MnCo2O7
_symmetry_space_group_name_H-M   'P 1'
_cell_length_a   5.15096264
_cell_length_b   7.69725051
_cell_length_c   7.62826051
_cell_angle_alpha   65.53931409
_cell_angle_beta   83.12044201
_cell_angle_gamma   108.60117158
_symmetry_Int_Tables_number   1
_chemical_formula_structural   Li4MnCo2O7
_chemical_formula_sum   'Li8 Mn2 Co4 O14'
_cell_volume   249.55286798
_cell_formula_units_Z   2
loop_
 _symmetry_equiv_pos_site_id
 _symmetry_equiv_pos_as_xyz
  1  'x, y, z'
loop_
 _atom_site_type_symbol
 _atom_site_label
 _atom_site_symmetry_multiplicity
 _atom_site_fract_x
 _atom_site_fract_y
 _atom_site_fract_z
 _atom_site_occupancy
  Li  Li0  1  0.57625262  0.07120888  0.78418093  1
  Li  Li1  1  0.00668641  0.50405272  0.49248954  1
  Li  Li2  1  0.42050081  0.91620675  0.22237094  1
  Li  Li3  1  0.85955923  0.36234113  0.92325997  1
  Li  Li4  1  0.28319474  0.78464848  0.64477890  1
  Li  Li5  1  0.71387512  0.22364306  0.36005359  1
  Li  Li6  1  0.14158555  0.63993393  0.07625492  1
  Li  Li7  1  0.56965373  0.57273991  0.28535411  1
  Mn  Mn8  1  0.00087458  0.99564500  0.00035000  1
  Mn  Mn9  1  0.28554313  0.29030908  0.14096976  1
  Co  Co10  1  0.43235973  0.43143404  0.70137805  1
  Co  Co11  1  0.84161683  0.84751774  0.43032656  1
  Co  Co12  1  0.71244597  0.71220714  0.85800283  1
  Co  Co13  1  0.15095008  0.14804958  0.56689702  1
  O  O14  1  0.14532029  0.90491568  0.82641891  1
  O  O15  1  0.56086271  0.32289376  0.54822922  1
  O  O16  1  0.99984937  0.77125063  0.24258432  1
  O  O17  1  0.39243720  0.17330575  0.97523047  1
  O  O18  1  0.83551687  0.61143584  0.68335748  1
  O  O19  1  0.28594493  0.05829198  0.38189422  1
  O  O20  1  0.67428205  0.46348449  0.09299592  1
  O  O21  1  0.01143757  0.23370310  0.75827905  1
  O  O22  1  0.43826076  0.68160696  0.47351104  1
  O  O23  1  0.88486659  0.10651676  0.17140209  1
  O  O24  1  0.27823362  0.51312841  0.90389285  1
  O  O25  1  0.73732801  0.95071381  0.61526828  1
  O  O26  1  0.14188775  0.37779784  0.31813709  1
  O  O27  1  0.61867375  0.83101756  0.02213196  1
