# generated using pymatgen
data_Li7Mn4CoO12
_symmetry_space_group_name_H-M   'P 1'
_cell_length_a   3.00216760
_cell_length_b   7.64184232
_cell_length_c   9.76757956
_cell_angle_alpha   91.92920356
_cell_angle_beta   84.04158563
_cell_angle_gamma   81.95695362
_symmetry_Int_Tables_number   1
_chemical_formula_structural   Li7Mn4CoO12
_chemical_formula_sum   'Li7 Mn4 Co1 O12'
_cell_volume   220.42130695
_cell_formula_units_Z   1
loop_
 _symmetry_equiv_pos_site_id
 _symmetry_equiv_pos_as_xyz
  1  'x, y, z'
loop_
 _atom_site_type_symbol
 _atom_site_label
 _atom_site_symmetry_multiplicity
 _atom_site_fract_x
 _atom_site_fract_y
 _atom_site_fract_z
 _atom_site_occupancy
  Li  Li0  1  0.74244579  0.25413152  0.24498050  1
  Li  Li1  1  0.91246108  0.41142750  0.76179813  1
  Li  Li2  1  0.08861346  0.58559623  0.24517192  1
  Li  Li3  1  0.25704966  0.74764088  0.75030454  1
  Li  Li4  1  0.42511372  0.91280702  0.24714014  1
  Li  Li5  1  0.56697376  0.09245183  0.75743865  1
  Li  Li6  1  0.34560133  0.33044675  0.99186217  1
  Mn  Mn7  1  0.99530515  0.00636372  0.99939080  1
  Mn  Mn8  1  0.49967947  0.50022651  0.50007792  1
  Mn  Mn9  1  0.16586956  0.16630730  0.49990833  1
  Mn  Mn10  1  0.83343049  0.83362850  0.49985627  1
  Co  Co11  1  0.66785254  0.65381895  0.00401589  1
  O  O12  1  0.41702676  0.10649044  0.10832883  1
  O  O13  1  0.51138939  0.29763463  0.61667854  1
  O  O14  1  0.69533523  0.48146185  0.11565474  1
  O  O15  1  0.84698960  0.63043276  0.61752024  1
  O  O16  1  0.02445141  0.79212448  0.11081668  1
  O  O17  1  0.17867287  0.96231769  0.61642437  1
  O  O18  1  0.15669157  0.36876810  0.38048610  1
  O  O19  1  0.29778646  0.55893841  0.88688826  1
  O  O20  1  0.48868498  0.70296800  0.38294617  1
  O  O21  1  0.58865738  0.87822981  0.89835793  1
  O  O22  1  0.82330985  0.03694716  0.38165602  1
  O  O23  1  0.97060848  0.18883996  0.88229686  1
