# generated using pymatgen
data_Li7Mn2(CoO4)3
_symmetry_space_group_name_H-M   'P 1'
_cell_length_a   5.02033973
_cell_length_b   6.61558336
_cell_length_c   6.61558367
_cell_angle_alpha   83.90160355
_cell_angle_beta   97.03276769
_cell_angle_gamma   97.03276509
_symmetry_Int_Tables_number   1
_chemical_formula_structural   Li7Mn2(CoO4)3
_chemical_formula_sum   'Li7 Mn2 Co3 O12'
_cell_volume   215.49555026
_cell_formula_units_Z   1
loop_
 _symmetry_equiv_pos_site_id
 _symmetry_equiv_pos_as_xyz
  1  'x, y, z'
loop_
 _atom_site_type_symbol
 _atom_site_label
 _atom_site_symmetry_multiplicity
 _atom_site_fract_x
 _atom_site_fract_y
 _atom_site_fract_z
 _atom_site_occupancy
  Li  Li0  1  0.24836779  0.74257269  0.74194259  1
  Li  Li1  1  0.25937783  0.42032571  0.09468163  1
  Li  Li2  1  0.24907176  0.09232745  0.41676525  1
  Li  Li3  1  0.75163221  0.25805741  0.25742731  1
  Li  Li4  1  0.74062217  0.90531837  0.57967429  1
  Li  Li5  1  0.75092824  0.58323475  0.90767255  1
  Li  Li6  1  0.50000000  0.49967363  0.50032637  1
  Mn  Mn7  1  1.00000000  0.99945241  0.00054759  1
  Mn  Mn8  1  0.50000000  0.16719476  0.83280524  1
  Co  Co9  1  1.00000000  0.66166022  0.33833978  1
  Co  Co10  1  0.00000000  0.34415256  0.65584744  1
  Co  Co11  1  0.50000000  0.81876237  0.18123763  1
  O  O12  1  0.36004478  0.11472564  0.10386859  1
  O  O13  1  0.36219039  0.79792682  0.43974099  1
  O  O14  1  0.36306106  0.42780406  0.79337889  1
  O  O15  1  0.88613006  0.61973480  0.61754149  1
  O  O16  1  0.85766867  0.26754402  0.95360123  1
  O  O17  1  0.87570159  0.95754512  0.26988162  1
  O  O18  1  0.11386994  0.38245851  0.38026520  1
  O  O19  1  0.14233133  0.04639877  0.73245598  1
  O  O20  1  0.12429841  0.73011838  0.04245487  1
  O  O21  1  0.63995522  0.89613141  0.88527436  1
  O  O22  1  0.63780961  0.56025901  0.20207318  1
  O  O23  1  0.63693894  0.20662111  0.57219594  1
