# generated using pymatgen
data_Li5Mn3O8
_symmetry_space_group_name_H-M   'P 1'
_cell_length_a   2.95204520
_cell_length_b   8.11326447
_cell_length_c   6.00212057
_cell_angle_alpha   89.57623264
_cell_angle_beta   90.00000000
_cell_angle_gamma   90.00000000
_symmetry_Int_Tables_number   1
_chemical_formula_structural   Li5Mn3O8
_chemical_formula_sum   'Li5 Mn3 O8'
_cell_volume   143.75119791
_cell_formula_units_Z   1
loop_
 _symmetry_equiv_pos_site_id
 _symmetry_equiv_pos_as_xyz
  1  'x, y, z'
loop_
 _atom_site_type_symbol
 _atom_site_label
 _atom_site_symmetry_multiplicity
 _atom_site_fract_x
 _atom_site_fract_y
 _atom_site_fract_z
 _atom_site_occupancy
  Li  Li0  1  -0.00000000  0.48249102  0.99043579  1
  Li  Li1  1  0.50000000  0.75000000  0.75000000  1
  Li  Li2  1  0.00000000  0.01750898  0.50956421  1
  Li  Li3  1  0.50000000  0.25000000  0.25000000  1
  Li  Li4  1  0.50000000  0.25000000  0.75000000  1
  Mn  Mn5  1  -0.00000000  0.00884685  0.99035983  1
  Mn  Mn6  1  0.00000000  0.49115315  0.50964017  1
  Mn  Mn7  1  0.50000000  0.75000000  0.25000000  1
  O  O8  1  -0.00000000  0.74231013  0.49158238  1
  O  O9  1  0.50000000  0.98846348  0.22235667  1
  O  O10  1  -0.00000000  0.23201538  0.00401098  1
  O  O11  1  0.50000000  0.49980862  0.72095334  1
  O  O12  1  0.00000000  0.26798462  0.49598902  1
  O  O13  1  0.50000000  0.51153652  0.27764333  1
  O  O14  1  0.00000000  0.75768987  0.00841762  1
  O  O15  1  0.50000000  0.00019138  0.77904666  1
