# generated using pymatgen
data_Li7Mn4CoO12
_symmetry_space_group_name_H-M   'P 1'
_cell_length_a   3.00771469
_cell_length_b   7.65984869
_cell_length_c   9.94862201
_cell_angle_alpha   78.77881515
_cell_angle_beta   93.62785380
_cell_angle_gamma   81.92178788
_symmetry_Int_Tables_number   1
_chemical_formula_structural   Li7Mn4CoO12
_chemical_formula_sum   'Li7 Mn4 Co1 O12'
_cell_volume   221.61903635
_cell_formula_units_Z   1
loop_
 _symmetry_equiv_pos_site_id
 _symmetry_equiv_pos_as_xyz
  1  'x, y, z'
loop_
 _atom_site_type_symbol
 _atom_site_label
 _atom_site_symmetry_multiplicity
 _atom_site_fract_x
 _atom_site_fract_y
 _atom_site_fract_z
 _atom_site_occupancy
  Li  Li0  1  0.92053022  0.15707506  0.26195059  1
  Li  Li1  1  0.41906805  0.17054354  0.74527423  1
  Li  Li2  1  0.25747031  0.49756314  0.25005082  1
  Li  Li3  1  0.75734228  0.49686966  0.74730368  1
  Li  Li4  1  0.57084694  0.84032141  0.25757513  1
  Li  Li5  1  0.07212645  0.83947413  0.74473433  1
  Li  Li6  1  0.50762405  0.99971391  0.49169823  1
  Mn  Mn7  1  0.99886867  0.99993241  0.00005572  1
  Mn  Mn8  1  0.16136078  0.67303227  0.49963048  1
  Mn  Mn9  1  0.33402068  0.33333700  0.00098356  1
  Mn  Mn10  1  0.66582821  0.66707731  0.99867236  1
  Co  Co11  1  0.83708591  0.31929614  0.50394253  1
  O  O12  1  0.42323785  0.09101471  0.11768234  1
  O  O13  1  0.93911911  0.10946601  0.61577905  1
  O  O14  1  0.75739663  0.42589607  0.11781445  1
  O  O15  1  0.26434379  0.42179456  0.61064502  1
  O  O16  1  0.08983232  0.75689517  0.11536862  1
  O  O17  1  0.65653578  0.73704345  0.60836282  1
  O  O18  1  0.38839670  0.26338676  0.38695749  1
  O  O19  1  0.91022218  0.24228164  0.88373999  1
  O  O20  1  0.68759322  0.57871043  0.39860613  1
  O  O21  1  0.24532470  0.57502413  0.88129524  1
  O  O22  1  0.05871107  0.89479649  0.38226027  1
  O  O23  1  0.57711409  0.90945461  0.87961693  1
