# generated using pymatgen
data_Li7Mn4CoO12
_symmetry_space_group_name_H-M   'P 1'
_cell_length_a   3.00341046
_cell_length_b   10.16716209
_cell_length_c   7.64467171
_cell_angle_alpha   72.73326856
_cell_angle_beta   98.01853737
_cell_angle_gamma   91.92428288
_symmetry_Int_Tables_number   1
_chemical_formula_structural   Li7Mn4CoO12
_chemical_formula_sum   'Li7 Mn4 Co1 O12'
_cell_volume   220.73156839
_cell_formula_units_Z   1
loop_
 _symmetry_equiv_pos_site_id
 _symmetry_equiv_pos_as_xyz
  1  'x, y, z'
loop_
 _atom_site_type_symbol
 _atom_site_label
 _atom_site_symmetry_multiplicity
 _atom_site_fract_x
 _atom_site_fract_y
 _atom_site_fract_z
 _atom_site_occupancy
  Li  Li0  1  0.82603392  0.25271500  0.66184585  1
  Li  Li1  1  0.15986158  0.74965635  0.33137755  1
  Li  Li2  1  0.50894099  0.25513010  0.00236701  1
  Li  Li3  1  0.16311336  0.25499600  0.33394863  1
  Li  Li4  1  0.50008190  0.73824752  0.99838823  1
  Li  Li5  1  0.84696515  0.74253636  0.67818818  1
  Li  Li6  1  0.99078531  0.50806321  0.99454361  1
  Mn  Mn7  1  0.99993707  0.00016061  -0.00005589  1
  Mn  Mn8  1  0.33799704  0.50057252  0.67279638  1
  Mn  Mn9  1  0.66730685  0.00095583  0.33316104  1
  Mn  Mn10  1  0.33377880  0.99900356  0.66711879  1
  Co  Co11  1  0.66409878  0.49598871  0.32179722  1
  O  O12  1  0.38282618  0.11780442  0.83025986  1
  O  O13  1  0.77852323  0.60175802  0.51099692  1
  O  O14  1  0.04908295  0.12037624  0.16130032  1
  O  O15  1  0.71827594  0.11678944  0.49882551  1
  O  O16  1  0.07299117  0.61330176  0.18776328  1
  O  O17  1  0.40193308  0.61768057  0.81622008  1
  O  O18  1  0.27177292  0.38914487  0.49573343  1
  O  O19  1  0.61456206  0.88328583  0.17019973  1
  O  O20  1  0.88059461  0.39156494  0.80942922  1
  O  O21  1  0.59954084  0.38430848  0.18679657  1
  O  O22  1  0.94973306  0.88223627  0.83720765  1
  O  O23  1  0.28126322  0.88372339  0.49979083  1
