# generated using pymatgen
data_TmB2HO5
_symmetry_space_group_name_H-M   'P 1'
_cell_length_a   5.89009817
_cell_length_b   5.89009817
_cell_length_c   11.19239498
_cell_angle_alpha   90.40434678
_cell_angle_beta   90.40434678
_cell_angle_gamma   110.06482849
_symmetry_Int_Tables_number   1
_chemical_formula_structural   TmB2HO5
_chemical_formula_sum   'Tm4 B8 H4 O20'
_cell_volume   364.70508356
_cell_formula_units_Z   4
loop_
 _symmetry_equiv_pos_site_id
 _symmetry_equiv_pos_as_xyz
  1  'x, y, z'
loop_
 _atom_site_type_symbol
 _atom_site_label
 _atom_site_symmetry_multiplicity
 _atom_site_fract_x
 _atom_site_fract_y
 _atom_site_fract_z
 _atom_site_occupancy
  Tm  Tm0  1  0.82443261  0.66793044  0.44761768  1
  Tm  Tm1  1  0.33206956  0.17556739  0.05238232  1
  Tm  Tm2  1  0.17556739  0.33206956  0.55238232  1
  Tm  Tm3  1  0.66793044  0.82443261  0.94761768  1
  B  B4  1  0.36803603  0.11307510  0.77402355  1
  B  B5  1  0.88692490  0.63196397  0.72597645  1
  B  B6  1  0.63196397  0.88692490  0.22597645  1
  B  B7  1  0.11307510  0.36803603  0.27402355  1
  B  B8  1  0.85117851  0.65140571  0.12882527  1
  B  B9  1  0.34859429  0.14882149  0.37117473  1
  B  B10  1  0.14882149  0.34859429  0.87117473  1
  B  B11  1  0.65140571  0.85117851  0.62882527  1
  H  H12  1  0.98902164  0.63654222  0.90877751  1
  H  H13  1  0.36345778  0.01097836  0.59122249  1
  H  H14  1  0.01097836  0.36345778  0.09122249  1
  H  H15  1  0.63654222  0.98902164  0.40877751  1
  O  O16  1  0.65879472  0.48515013  0.07245758  1
  O  O17  1  0.51484987  0.34120528  0.42754242  1
  O  O18  1  0.34120528  0.51484987  0.92754242  1
  O  O19  1  0.48515013  0.65879472  0.57245758  1
  O  O20  1  0.01039054  0.81808922  0.05508802  1
  O  O21  1  0.18191078  0.98960946  0.44491198  1
  O  O22  1  0.98960946  0.18191078  0.94491198  1
  O  O23  1  0.81808922  0.01039054  0.55508802  1
  O  O24  1  0.96509168  0.54786307  0.83026372  1
  O  O25  1  0.45213693  0.03490832  0.66973628  1
  O  O26  1  0.03490832  0.45213693  0.16973628  1
  O  O27  1  0.54786307  0.96509168  0.33026372  1
  O  O28  1  0.78491115  0.75164498  0.24324581  1
  O  O29  1  0.24835502  0.21508885  0.25675419  1
  O  O30  1  0.21508885  0.24835502  0.75675419  1
  O  O31  1  0.75164498  0.78491115  0.74324581  1
  O  O32  1  0.44147964  0.05508203  0.88017105  1
  O  O33  1  0.94491797  0.55852036  0.61982895  1
  O  O34  1  0.55852036  0.94491797  0.11982895  1
  O  O35  1  0.05508203  0.44147964  0.38017105  1
