# generated using pymatgen
data_Li7Mn2(CoO4)3
_symmetry_space_group_name_H-M   'P 1'
_cell_length_a   2.91409524
_cell_length_b   8.15299904
_cell_length_c   9.73789241
_cell_angle_alpha   113.41084436
_cell_angle_beta   90.00000000
_cell_angle_gamma   90.00000000
_symmetry_Int_Tables_number   1
_chemical_formula_structural   Li7Mn2(CoO4)3
_chemical_formula_sum   'Li7 Mn2 Co3 O12'
_cell_volume   212.31325422
_cell_formula_units_Z   1
loop_
 _symmetry_equiv_pos_site_id
 _symmetry_equiv_pos_as_xyz
  1  'x, y, z'
loop_
 _atom_site_type_symbol
 _atom_site_label
 _atom_site_symmetry_multiplicity
 _atom_site_fract_x
 _atom_site_fract_y
 _atom_site_fract_z
 _atom_site_occupancy
  Li  Li0  1  0.00000000  0.85228387  0.67776394  1
  Li  Li1  1  0.00000000  0.47470378  0.97915964  1
  Li  Li2  1  0.00000000  0.16922079  0.33911659  1
  Li  Li3  1  0.50000000  0.32861230  0.15890778  1
  Li  Li4  1  0.50000000  0.01101985  0.50901898  1
  Li  Li5  1  0.50000000  0.65896491  0.82814420  1
  Li  Li6  1  0.50000000  0.17058811  0.83744730  1
  Mn  Mn7  1  0.00000000  0.00558369  0.00012455  1
  Mn  Mn8  1  0.00000000  0.66698949  0.33023401  1
  Co  Co9  1  0.00000000  0.31873795  0.67837892  1
  Co  Co10  1  0.50000000  0.49259359  0.50963345  1
  Co  Co11  1  0.50000000  0.83200142  0.16414840  1
  O  O12  1  -0.00000000  0.23187721  0.00614441  1
  O  O13  1  0.00000000  0.89633840  0.31084047  1
  O  O14  1  -0.00000000  0.58593820  0.65894307  1
  O  O15  1  0.50000000  0.73939451  0.47444813  1
  O  O16  1  0.50000000  0.41517399  0.82557647  1
  O  O17  1  0.50000000  0.06100964  0.15159133  1
  O  O18  1  -0.00000000  0.44071360  0.34110169  1
  O  O19  1  0.00000000  0.08945611  0.65944192  1
  O  O20  1  -0.00000000  0.76898687  0.02142547  1
  O  O21  1  0.50000000  0.92560823  0.85808217  1
  O  O22  1  0.50000000  0.60309105  0.18258247  1
  O  O23  1  0.50000000  0.26111247  0.49774464  1
