# generated using pymatgen
data_Li4MnCo2O7
_symmetry_space_group_name_H-M   'P 1'
_cell_length_a   5.09385177
_cell_length_b   5.14803736
_cell_length_c   10.55060678
_cell_angle_alpha   84.88426162
_cell_angle_beta   102.88151159
_cell_angle_gamma   109.17961566
_symmetry_Int_Tables_number   1
_chemical_formula_structural   Li4MnCo2O7
_chemical_formula_sum   'Li8 Mn2 Co4 O14'
_cell_volume   254.70040542
_cell_formula_units_Z   2
loop_
 _symmetry_equiv_pos_site_id
 _symmetry_equiv_pos_as_xyz
  1  'x, y, z'
loop_
 _atom_site_type_symbol
 _atom_site_label
 _atom_site_symmetry_multiplicity
 _atom_site_fract_x
 _atom_site_fract_y
 _atom_site_fract_z
 _atom_site_occupancy
  Li  Li0  1  0.06912576  0.49893504  0.14273737  1
  Li  Li1  1  0.63448565  0.50132038  0.27770317  1
  Li  Li2  1  0.21166794  0.49743076  0.42394687  1
  Li  Li3  1  0.78412910  0.49909777  0.56914940  1
  Li  Li4  1  0.35492936  0.50052595  0.71565065  1
  Li  Li5  1  0.94042484  0.50581498  0.86280192  1
  Li  Li6  1  0.50671923  0.49694067  0.00787970  1
  Li  Li7  1  0.56951992  0.99762689  0.14262378  1
  Mn  Mn8  1  0.00086609  0.00565011  0.00241307  1
  Mn  Mn9  1  0.28580145  -0.00209614  0.57156912  1
  Co  Co10  1  0.14205222  0.98944138  0.27994646  1
  Co  Co11  1  0.70967275  0.00098471  0.41831914  1
  Co  Co12  1  0.85964863  0.00190959  0.71390173  1
  Co  Co13  1  0.43388160  0.00164479  0.86706696  1
  O  O14  1  0.76026344  0.22730593  0.99326860  1
  O  O15  1  0.28703528  0.22971903  0.13328594  1
  O  O16  1  0.89350486  0.22649354  0.29647637  1
  O  O17  1  0.45191117  0.22732883  0.43564932  1
  O  O18  1  0.04485124  0.22069681  0.57983310  1
  O  O19  1  0.58156694  0.21732865  0.70914497  1
  O  O20  1  0.16954084  0.23194153  0.86229731  1
  O  O21  1  0.38555979  0.76810355  0.29057062  1
  O  O22  1  0.98298312  0.77353944  0.43937318  1
  O  O23  1  0.53247512  0.78129482  0.57135902  1
  O  O24  1  0.11693344  0.77195194  0.70710029  1
  O  O25  1  0.70769012  0.78125177  0.86070811  1
  O  O26  1  0.24198216  0.77946256  0.98923394  1
  O  O27  1  0.84077797  0.76835474  0.13598989  1
