# generated using pymatgen
data_Li7Mn2(CoO4)3
_symmetry_space_group_name_H-M   'P 1'
_cell_length_a   5.03167609
_cell_length_b   5.11506991
_cell_length_c   8.84613676
_cell_angle_alpha   88.78048357
_cell_angle_beta   88.50207284
_cell_angle_gamma   108.51284117
_symmetry_Int_Tables_number   1
_chemical_formula_structural   Li7Mn2(CoO4)3
_chemical_formula_sum   'Li7 Mn2 Co3 O12'
_cell_volume   215.71575905
_cell_formula_units_Z   1
loop_
 _symmetry_equiv_pos_site_id
 _symmetry_equiv_pos_as_xyz
  1  'x, y, z'
loop_
 _atom_site_type_symbol
 _atom_site_label
 _atom_site_symmetry_multiplicity
 _atom_site_fract_x
 _atom_site_fract_y
 _atom_site_fract_z
 _atom_site_occupancy
  Li  Li0  1  0.00099131  0.50075187  0.17479752  1
  Li  Li1  1  0.49494656  0.49194874  0.34717917  1
  Li  Li2  1  0.01036931  0.50656742  0.50703204  1
  Li  Li3  1  0.48739915  0.49481662  0.65032100  1
  Li  Li4  1  0.99740943  0.49693648  0.82446153  1
  Li  Li5  1  0.50595643  0.50208031  0.99759159  1
  Li  Li6  1  0.49084499  0.99828711  0.49862421  1
  Mn  Mn7  1  0.00988560  0.01122024  0.99961852  1
  Mn  Mn8  1  0.50150027  0.00074761  0.17075349  1
  Co  Co9  1  0.97918187  0.98404251  0.35064473  1
  Co  Co10  1  0.00401737  0.00154093  0.66534496  1
  Co  Co11  1  0.50198191  0.00408148  0.82016792  1
  O  O12  1  0.75871659  0.22861000  0.00667227  1
  O  O13  1  0.24252834  0.21351629  0.16057793  1
  O  O14  1  0.72928474  0.22040910  0.31614048  1
  O  O15  1  0.21667893  0.22895338  0.50490941  1
  O  O16  1  0.75260893  0.22369903  0.67544521  1
  O  O17  1  0.24973582  0.24477436  0.84597222  1
  O  O18  1  0.25959071  0.76404075  0.31663344  1
  O  O19  1  0.75710466  0.74285696  0.49262578  1
  O  O20  1  0.24115960  0.77693557  0.67386145  1
  O  O21  1  0.78629278  0.78935530  0.84218522  1
  O  O22  1  0.26774506  0.79372613  0.00292315  1
  O  O23  1  0.75406964  0.78010183  0.15551676  1
