# generated using pymatgen
data_Li7Mn2(CoO4)3
_symmetry_space_group_name_H-M   'P 1'
_cell_length_a   5.80738913
_cell_length_b   6.55659884
_cell_length_c   6.60357448
_cell_angle_alpha   108.17687594
_cell_angle_beta   116.23455087
_cell_angle_gamma   77.21094322
_symmetry_Int_Tables_number   1
_chemical_formula_structural   Li7Mn2(CoO4)3
_chemical_formula_sum   'Li7 Mn2 Co3 O12'
_cell_volume   213.25672077
_cell_formula_units_Z   1
loop_
 _symmetry_equiv_pos_site_id
 _symmetry_equiv_pos_as_xyz
  1  'x, y, z'
loop_
 _atom_site_type_symbol
 _atom_site_label
 _atom_site_symmetry_multiplicity
 _atom_site_fract_x
 _atom_site_fract_y
 _atom_site_fract_z
 _atom_site_occupancy
  Li  Li0  1  0.42317882  0.65674317  0.16774648  1
  Li  Li1  1  0.24172831  0.00459227  0.49779531  1
  Li  Li2  1  0.07993654  0.33478376  0.83213243  1
  Li  Li3  1  0.91511980  0.66008186  0.16896309  1
  Li  Li4  1  0.75409991  0.00713887  0.49957543  1
  Li  Li5  1  0.58764108  0.33909139  0.84161572  1
  Li  Li6  1  0.82960887  0.33430695  0.32972018  1
  Mn  Mn7  1  0.00056461  0.00155636  0.00410299  1
  Mn  Mn8  1  0.50351431  0.00345319  0.00212683  1
  Co  Co9  1  0.67005016  0.65616307  0.65260655  1
  Co  Co10  1  0.33899214  0.34387706  0.33567244  1
  Co  Co11  1  0.16471712  0.64324252  0.65691333  1
  O  O12  1  0.14128729  0.98907554  0.77599969  1
  O  O13  1  0.98123557  0.31046285  0.09154052  1
  O  O14  1  0.78856959  0.67934793  0.43882627  1
  O  O15  1  0.64125069  0.00239058  0.78264480  1
  O  O16  1  0.45858243  0.31042247  0.08113598  1
  O  O17  1  0.29119493  0.66634924  0.42191367  1
  O  O18  1  0.68306264  0.33603621  0.57127562  1
  O  O19  1  0.53986744  0.68688970  0.90436928  1
  O  O20  1  0.36178455  0.00059776  0.22273470  1
  O  O21  1  0.20862251  0.34838134  0.58692062  1
  O  O22  1  0.03484118  0.68602960  0.91312363  1
  O  O23  1  0.86054953  0.99898630  0.22054444  1
