# generated using pymatgen
data_Li7Mn2(CoO4)3
_symmetry_space_group_name_H-M   'P 1'
_cell_length_a   4.98375720
_cell_length_b   9.81856102
_cell_length_c   4.98382154
_cell_angle_alpha   93.51345448
_cell_angle_beta   62.09574764
_cell_angle_gamma   100.79264327
_symmetry_Int_Tables_number   1
_chemical_formula_structural   Li7Mn2(CoO4)3
_chemical_formula_sum   'Li7 Mn2 Co3 O12'
_cell_volume   211.61000538
_cell_formula_units_Z   1
loop_
 _symmetry_equiv_pos_site_id
 _symmetry_equiv_pos_as_xyz
  1  'x, y, z'
loop_
 _atom_site_type_symbol
 _atom_site_label
 _atom_site_symmetry_multiplicity
 _atom_site_fract_x
 _atom_site_fract_y
 _atom_site_fract_z
 _atom_site_occupancy
  Li  Li0  1  0.75363809  0.25168745  0.00200018  1
  Li  Li1  1  0.58325174  0.74751070  0.34105892  1
  Li  Li2  1  0.42062994  0.25606534  0.65928613  1
  Li  Li3  1  0.07864692  0.25151519  0.33870160  1
  Li  Li4  1  0.91750339  0.74815977  0.65874424  1
  Li  Li5  1  0.24607356  0.74486776  0.00122979  1
  Li  Li6  1  0.83334703  0.50004333  0.33283265  1
  Mn  Mn7  1  0.99876848  0.99941459  0.00131406  1
  Mn  Mn8  1  0.50093046  0.50006974  0.00148814  1
  Co  Co9  1  0.66667439  0.00046410  0.66550546  1
  Co  Co10  1  0.33453692  -0.00001528  0.33285210  1
  Co  Co11  1  0.16624219  0.49995994  0.66686843  1
  O  O12  1  0.01579744  0.11483188  0.68247476  1
  O  O13  1  0.88492966  0.61031148  0.96277848  1
  O  O14  1  0.68187884  0.11855842  0.35855769  1
  O  O15  1  0.35482461  0.11489220  0.02370846  1
  O  O16  1  0.23609673  0.60966242  0.32559022  1
  O  O17  1  0.51291478  0.61219299  0.68746291  1
  O  O18  1  0.42663412  0.39025308  0.34817819  1
  O  O19  1  0.32251041  0.88651693  0.63866042  1
  O  O20  1  0.15030678  0.38724263  0.97566758  1
  O  O21  1  0.78895086  0.39044153  0.69942182  1
  O  O22  1  0.64390034  0.88409996  0.97892054  1
  O  O23  1  0.98101231  0.88125386  0.31669724  1
