# generated using pymatgen
data_Li9Mn2Co5O16
_symmetry_space_group_name_H-M   'P 1'
_cell_length_a   5.13077514
_cell_length_b   7.77340051
_cell_length_c   7.72248622
_cell_angle_alpha   81.01984063
_cell_angle_beta   108.69030642
_cell_angle_gamma   95.95070235
_symmetry_Int_Tables_number   1
_chemical_formula_structural   Li9Mn2Co5O16
_chemical_formula_sum   'Li9 Mn2 Co5 O16'
_cell_volume   287.70735655
_cell_formula_units_Z   1
loop_
 _symmetry_equiv_pos_site_id
 _symmetry_equiv_pos_as_xyz
  1  'x, y, z'
loop_
 _atom_site_type_symbol
 _atom_site_label
 _atom_site_symmetry_multiplicity
 _atom_site_fract_x
 _atom_site_fract_y
 _atom_site_fract_z
 _atom_site_occupancy
  Li  Li0  1  0.49863443  0.18797799  0.93631815  1
  Li  Li1  1  0.50535275  0.44144275  0.18980971  1
  Li  Li2  1  0.49418981  0.56798326  0.81284702  1
  Li  Li3  1  0.49509005  0.81205912  0.05761564  1
  Li  Li4  1  0.50581019  0.93201674  0.68715298  1
  Li  Li5  1  0.50136557  0.31202201  0.56368185  1
  Li  Li6  1  0.50490995  0.68794088  0.44238436  1
  Li  Li7  1  0.49464725  0.05855725  0.31019029  1
  Li  Li8  1  -0.00000000  0.75000000  0.75000000  1
  Mn  Mn9  1  0.99051127  -0.00125432  0.99575222  1
  Mn  Mn10  1  0.00948873  0.50125432  0.50424778  1
  Co  Co11  1  -0.00000000  0.25000000  0.25000000  1
  Co  Co12  1  -0.00573667  0.38169331  0.87295847  1
  Co  Co13  1  0.00577564  0.62685352  0.11540706  1
  Co  Co14  1  0.99422436  0.87314648  0.38459294  1
  Co  Co15  1  0.00573667  0.11830669  0.62704153  1
  O  O16  1  0.21982426  0.98061110  0.84126615  1
  O  O17  1  0.21923292  0.21244972  0.07953358  1
  O  O18  1  0.23146769  0.34947474  0.70885867  1
  O  O19  1  0.23631423  0.58704672  0.98256252  1
  O  O20  1  0.23457514  0.70566330  0.58159952  1
  O  O21  1  0.23335795  0.09576017  0.45868027  1
  O  O22  1  0.22792553  0.46646519  0.34967702  1
  O  O23  1  0.21971125  0.85275101  0.20589080  1
  O  O24  1  0.76664205  0.40423983  0.04131973  1
  O  O25  1  0.78028875  0.64724999  0.29411020  1
  O  O26  1  0.76542486  0.79433770  0.91840148  1
  O  O27  1  0.77207447  0.03353581  0.15032398  1
  O  O28  1  0.76853231  0.15052626  0.79114233  1
  O  O29  1  0.78017574  0.51938890  0.65873485  1
  O  O30  1  0.76368577  0.91295328  0.51743848  1
  O  O31  1  0.78076708  0.28755028  0.42046742  1
