# generated using pymatgen
data_Li7Mn4CoO12
_symmetry_space_group_name_H-M   'P 1'
_cell_length_a   3.01183056
_cell_length_b   7.83691341
_cell_length_c   10.16327765
_cell_angle_alpha   68.89572872
_cell_angle_beta   91.87024052
_cell_angle_gamma   83.60634573
_symmetry_Int_Tables_number   1
_chemical_formula_structural   Li7Mn4CoO12
_chemical_formula_sum   'Li7 Mn4 Co1 O12'
_cell_volume   221.72094860
_cell_formula_units_Z   1
loop_
 _symmetry_equiv_pos_site_id
 _symmetry_equiv_pos_as_xyz
  1  'x, y, z'
loop_
 _atom_site_type_symbol
 _atom_site_label
 _atom_site_symmetry_multiplicity
 _atom_site_fract_x
 _atom_site_fract_y
 _atom_site_fract_z
 _atom_site_occupancy
  Li  Li0  1  0.83202420  0.33009145  0.09650352  1
  Li  Li1  1  0.18745072  0.66295242  0.40706176  1
  Li  Li2  1  0.50439498  0.99840545  0.74884577  1
  Li  Li3  1  0.16862118  0.66466386  0.92170318  1
  Li  Li4  1  0.48511384  0.01234327  0.25120644  1
  Li  Li5  1  0.82049988  0.33997499  0.57603463  1
  Li  Li6  1  0.35005460  0.32798031  0.32616672  1
  Mn  Mn7  1  0.00519264  0.99390246  0.00429774  1
  Mn  Mn8  1  0.98936014  0.01334525  0.49352744  1
  Mn  Mn9  1  0.65232570  0.67027409  0.66685460  1
  Mn  Mn10  1  0.33220827  0.33126314  0.83375975  1
  Co  Co11  1  0.68323307  0.65120650  0.17432160  1
  O  O12  1  0.38365852  0.16770075  0.03393843  1
  O  O13  1  0.73317511  0.52229673  0.35615936  1
  O  O14  1  0.04306741  0.83641056  0.69767402  1
  O  O15  1  0.71641869  0.50137871  0.86397875  1
  O  O16  1  0.06152532  0.82754482  0.20027812  1
  O  O17  1  0.45236903  0.14777662  0.53416685  1
  O  O18  1  0.27328483  0.51404304  0.12930134  1
  O  O19  1  0.53909454  0.85233489  0.47034291  1
  O  O20  1  0.95691781  0.15982106  0.80184974  1
  O  O21  1  0.61886203  0.82242135  0.97713041  1
  O  O22  1  0.93098393  0.15299431  0.30487636  1
  O  O23  1  0.28016356  0.49887395  0.63002056  1
