# generated using pymatgen
data_Li7Mn4CoO12
_symmetry_space_group_name_H-M   'P 1'
_cell_length_a   3.01308870
_cell_length_b   8.15288025
_cell_length_c   9.92133502
_cell_angle_alpha   65.97554237
_cell_angle_beta   94.65144093
_cell_angle_gamma   90.96853707
_symmetry_Int_Tables_number   1
_chemical_formula_structural   Li7Mn4CoO12
_chemical_formula_sum   'Li7 Mn4 Co1 O12'
_cell_volume   221.84003280
_cell_formula_units_Z   1
loop_
 _symmetry_equiv_pos_site_id
 _symmetry_equiv_pos_as_xyz
  1  'x, y, z'
loop_
 _atom_site_type_symbol
 _atom_site_label
 _atom_site_symmetry_multiplicity
 _atom_site_fract_x
 _atom_site_fract_y
 _atom_site_fract_z
 _atom_site_occupancy
  Li  Li0  1  0.98661874  0.82953811  0.34500944  1
  Li  Li1  1  0.49064082  0.34517438  0.83281186  1
  Li  Li2  1  0.49648351  0.98182995  0.50746049  1
  Li  Li3  1  0.00873853  0.50792097  0.99737474  1
  Li  Li4  1  0.00601304  0.16310080  0.66520448  1
  Li  Li5  1  0.51203844  0.67157643  0.15769295  1
  Li  Li6  1  0.01400198  0.67679947  0.65742501  1
  Mn  Mn7  1  0.00323334  0.99849875  0.99543181  1
  Mn  Mn8  1  0.49529043  0.50608938  0.50677266  1
  Mn  Mn9  1  0.49620639  0.16624759  0.16554627  1
  Mn  Mn10  1  0.98974624  0.32959737  0.33877000  1
  Co  Co11  1  0.51239419  0.82599466  0.82474265  1
  O  O12  1  0.47019365  0.92939704  0.15836080  1
  O  O13  1  0.02498221  0.42853649  0.64642881  1
  O  O14  1  0.96609777  0.09364444  0.32819237  1
  O  O15  1  0.49531105  0.60702185  0.83724427  1
  O  O16  1  0.46425527  0.26490537  0.49541711  1
  O  O17  1  0.97889112  0.76101250  0.99428406  1
  O  O18  1  0.50596928  0.73427325  0.49901795  1
  O  O19  1  0.03414175  0.24130429  0.99802283  1
  O  O20  1  0.02736692  0.90880043  0.68148147  1
  O  O21  1  0.52662970  0.40438620  0.17433458  1
  O  O22  1  0.52762434  0.05954530  0.83654638  1
  O  O23  1  0.96713129  0.56480498  0.35642701  1
