# generated using pymatgen
data_Li9Mn2Co5O16
_symmetry_space_group_name_H-M   'P 1'
_cell_length_a   5.92517624
_cell_length_b   6.44215264
_cell_length_c   7.88675941
_cell_angle_alpha   88.81443397
_cell_angle_beta   76.21778424
_cell_angle_gamma   75.21117852
_symmetry_Int_Tables_number   1
_chemical_formula_structural   Li9Mn2Co5O16
_chemical_formula_sum   'Li9 Mn2 Co5 O16'
_cell_volume   282.43338750
_cell_formula_units_Z   1
loop_
 _symmetry_equiv_pos_site_id
 _symmetry_equiv_pos_as_xyz
  1  'x, y, z'
loop_
 _atom_site_type_symbol
 _atom_site_label
 _atom_site_symmetry_multiplicity
 _atom_site_fract_x
 _atom_site_fract_y
 _atom_site_fract_z
 _atom_site_occupancy
  Li  Li0  1  0.12278456  0.38094343  0.12448084  1
  Li  Li1  1  0.75000000  0.75000000  0.25000000  1
  Li  Li2  1  0.00274259  0.50721342  0.49299649  1
  Li  Li3  1  0.62034163  0.87757091  0.61950493  1
  Li  Li4  1  0.87965837  0.62242909  0.88049507  1
  Li  Li5  1  0.49725741  0.99278658  0.00700351  1
  Li  Li6  1  0.37721544  0.11905657  0.37551916  1
  Li  Li7  1  0.25000000  0.25000000  0.75000000  1
  Li  Li8  1  0.25000000  0.75000000  0.25000000  1
  Mn  Mn9  1  0.00403368  0.99946818  0.00324804  1
  Mn  Mn10  1  0.49596632  0.50053182  0.49675196  1
  Co  Co11  1  0.62591420  0.37845492  0.12424680  1
  Co  Co12  1  0.87408580  0.12154508  0.37575320  1
  Co  Co13  1  0.12101364  0.87312485  0.61736946  1
  Co  Co14  1  0.75000000  0.25000000  0.75000000  1
  Co  Co15  1  0.37898636  0.62687515  0.88263054  1
  O  O16  1  0.92669935  0.30129986  0.94411729  1
  O  O17  1  0.56705823  0.66519474  0.06219641  1
  O  O18  1  0.80381004  0.42672045  0.32838277  1
  O  O19  1  0.42740488  0.80283939  0.45247668  1
  O  O20  1  0.65936235  0.54815014  0.68304662  1
  O  O21  1  0.30548632  0.92661671  0.82923458  1
  O  O22  1  0.15367420  0.06294652  0.18066651  1
  O  O23  1  0.05000820  0.17575937  0.57804595  1
  O  O24  1  0.34632480  0.43705348  0.31933349  1
  O  O25  1  0.93294277  0.83480626  0.43780359  1
  O  O26  1  0.19451368  0.57338329  0.67076542  1
  O  O27  1  0.84063865  0.95185086  0.81695338  1
  O  O28  1  0.07259612  0.69716061  0.04752432  1
  O  O29  1  0.69619096  0.07328055  0.17161823  1
  O  O30  1  0.57330165  0.19870014  0.55588271  1
  O  O31  1  0.44999280  0.32424163  0.92195505  1
