# generated using pymatgen
data_Li9Mn2Co5O16
_symmetry_space_group_name_H-M   'P 1'
_cell_length_a   5.90751452
_cell_length_b   6.49225309
_cell_length_c   7.82553037
_cell_angle_alpha   87.77598911
_cell_angle_beta   77.20606206
_cell_angle_gamma   76.37972668
_symmetry_Int_Tables_number   1
_chemical_formula_structural   Li9Mn2Co5O16
_chemical_formula_sum   'Li9 Mn2 Co5 O16'
_cell_volume   284.42266383
_cell_formula_units_Z   1
loop_
 _symmetry_equiv_pos_site_id
 _symmetry_equiv_pos_as_xyz
  1  'x, y, z'
loop_
 _atom_site_type_symbol
 _atom_site_label
 _atom_site_symmetry_multiplicity
 _atom_site_fract_x
 _atom_site_fract_y
 _atom_site_fract_z
 _atom_site_occupancy
  Li  Li0  1  0.86611725  0.12989490  0.38073772  1
  Li  Li1  1  0.87292218  0.62311542  0.87397878  1
  Li  Li2  1  0.13388275  0.87010510  0.61926228  1
  Li  Li3  1  0.12707782  0.37688458  0.12602122  1
  Li  Li4  1  0.37999515  0.62131597  0.87213233  1
  Li  Li5  1  0.37939776  0.13016609  0.38044499  1
  Li  Li6  1  0.62000485  0.37868403  0.12786767  1
  Li  Li7  1  0.62060224  0.86983391  0.61955501  1
  Li  Li8  1  0.50000000  0.50000000  0.50000000  1
  Mn  Mn9  1  0.00000000  -0.00000000  0.00000000  1
  Mn  Mn10  1  0.00000000  0.50000000  0.50000000  1
  Co  Co11  1  0.26327714  0.74324658  0.25831017  1
  Co  Co12  1  0.24737355  0.24793586  0.74823264  1
  Co  Co13  1  0.50000000  -0.00000000  0.00000000  1
  Co  Co14  1  0.73672286  0.25675342  0.74168983  1
  Co  Co15  1  0.75262645  0.75206414  0.25176736  1
  O  O16  1  0.70943291  0.04962268  0.18276211  1
  O  O17  1  0.70749348  0.54955147  0.68375630  1
  O  O18  1  0.94944253  0.79664415  0.44453483  1
  O  O19  1  0.95019829  0.29286782  0.92697317  1
  O  O20  1  0.17798048  0.53801118  0.67708206  1
  O  O21  1  0.18912306  0.04536845  0.16344275  1
  O  O22  1  0.44499161  0.29332688  0.93991428  1
  O  O23  1  0.45104213  0.81263045  0.41434963  1
  O  O24  1  0.05055747  0.20335585  0.55546517  1
  O  O25  1  0.04980171  0.70713218  0.07302683  1
  O  O26  1  0.29056709  0.95037732  0.81723789  1
  O  O27  1  0.29250652  0.45044853  0.31624370  1
  O  O28  1  0.55500839  0.70667312  0.06008572  1
  O  O29  1  0.54895787  0.18736955  0.58565037  1
  O  O30  1  0.82201952  0.46198882  0.32291794  1
  O  O31  1  0.81087694  0.95463155  0.83655725  1
