# generated using pymatgen
data_K3TaO2F7
_symmetry_space_group_name_H-M   'P 1'
_cell_length_a   7.25164700
_cell_length_b   9.52096597
_cell_length_c   14.10889599
_cell_angle_alpha   90.00000000
_cell_angle_beta   90.00000000
_cell_angle_gamma   90.00000000
_symmetry_Int_Tables_number   1
_chemical_formula_structural   K3TaO2F7
_chemical_formula_sum   'K12 Ta4 O8 F28'
_cell_volume   974.11605185
_cell_formula_units_Z   4
loop_
 _symmetry_equiv_pos_site_id
 _symmetry_equiv_pos_as_xyz
  1  'x, y, z'
loop_
 _atom_site_type_symbol
 _atom_site_label
 _atom_site_symmetry_multiplicity
 _atom_site_fract_x
 _atom_site_fract_y
 _atom_site_fract_z
 _atom_site_occupancy
  K  K0  1  0.23767188  0.49839049  0.65604413  1
  K  K1  1  0.76232812  0.99839049  0.34395587  1
  K  K2  1  0.26232812  0.99839049  0.15604413  1
  K  K3  1  0.73767188  0.49839049  0.84395587  1
  K  K4  1  0.78419278  0.76250781  0.65338475  1
  K  K5  1  0.21580722  0.26250781  0.34661525  1
  K  K6  1  0.71580722  0.26250781  0.15338475  1
  K  K7  1  0.28419278  0.76250781  0.84661525  1
  K  K8  1  0.27257642  0.23623231  0.84218497  1
  K  K9  1  0.72742358  0.73623231  0.15781503  1
  K  K10  1  0.22742358  0.73623231  0.34218497  1
  K  K11  1  0.77257642  0.23623231  0.65781503  1
  Ta  Ta12  1  0.21543324  0.99861295  0.57116348  1
  Ta  Ta13  1  0.78456676  0.49861295  0.42883652  1
  Ta  Ta14  1  0.28456676  0.49861295  0.07116348  1
  Ta  Ta15  1  0.71543324  0.99861295  0.92883652  1
  O  O16  1  0.48521265  0.91690802  0.55403746  1
  O  O17  1  0.51478735  0.41690802  0.44596254  1
  O  O18  1  0.01478735  0.41690802  0.05403746  1
  O  O19  1  0.98521265  0.91690802  0.94596254  1
  O  O20  1  0.49374353  0.06034135  0.55150558  1
  O  O21  1  0.50625647  0.56034135  0.44849442  1
  O  O22  1  0.00625647  0.56034135  0.05150558  1
  O  O23  1  0.99374353  0.06034135  0.94849442  1
  F  F24  1  0.94884855  0.00685811  0.58740595  1
  F  F25  1  0.05115145  0.50685811  0.41259405  1
  F  F26  1  0.55115145  0.50685811  0.08740595  1
  F  F27  1  0.44884855  0.00685811  0.91259405  1
  F  F28  1  0.25848113  0.00533354  0.70566442  1
  F  F29  1  0.74151887  0.50533354  0.29433558  1
  F  F30  1  0.24151887  0.50533354  0.20566442  1
  F  F31  1  0.75848113  0.00533354  0.79433558  1
  F  F32  1  0.18343758  0.20279455  0.56381895  1
  F  F33  1  0.81656242  0.70279455  0.43618105  1
  F  F34  1  0.31656242  0.70279455  0.06381895  1
  F  F35  1  0.68343758  0.20279455  0.93618105  1
  F  F36  1  0.16190119  0.79693846  0.57146281  1
  F  F37  1  0.83809881  0.29693846  0.42853719  1
  F  F38  1  0.33809881  0.29693846  0.07146281  1
  F  F39  1  0.66190119  0.79693846  0.92853719  1
  F  F40  1  0.19300489  0.99501720  0.43441640  1
  F  F41  1  0.80699511  0.49501720  0.56558360  1
  F  F42  1  0.30699511  0.49501720  0.93441640  1
  F  F43  1  0.69300489  0.99501720  0.06558360  1
  F  F44  1  0.98882286  0.67061888  0.78146223  1
  F  F45  1  0.01117714  0.17061888  0.21853777  1
  F  F46  1  0.51117714  0.17061888  0.28146223  1
  F  F47  1  0.48882286  0.67061888  0.71853777  1
  F  F48  1  0.50481840  0.34964633  0.73857875  1
  F  F49  1  0.49518160  0.84964633  0.26142125  1
  F  F50  1  0.99518160  0.84964633  0.23857875  1
  F  F51  1  0.00481840  0.34964633  0.76142125  1
