# generated using pymatgen
data_Li7Mn4CoO12
_symmetry_space_group_name_H-M   'P 1'
_cell_length_a   3.01354718
_cell_length_b   12.16466032
_cell_length_c   6.46379814
_cell_angle_alpha   104.83010915
_cell_angle_beta   76.67237814
_cell_angle_gamma   87.36099362
_symmetry_Int_Tables_number   1
_chemical_formula_structural   Li7Mn4CoO12
_chemical_formula_sum   'Li7 Mn4 Co1 O12'
_cell_volume   221.49843337
_cell_formula_units_Z   1
loop_
 _symmetry_equiv_pos_site_id
 _symmetry_equiv_pos_as_xyz
  1  'x, y, z'
loop_
 _atom_site_type_symbol
 _atom_site_label
 _atom_site_symmetry_multiplicity
 _atom_site_fract_x
 _atom_site_fract_y
 _atom_site_fract_z
 _atom_site_occupancy
  Li  Li0  1  0.75941318  0.24885395  0.25070651  1
  Li  Li1  1  0.77122767  0.57339545  0.90903301  1
  Li  Li2  1  0.25796364  0.41544088  0.06729196  1
  Li  Li3  1  0.23872937  0.75439548  0.75549692  1
  Li  Li4  1  0.74390085  0.91840233  0.58376468  1
  Li  Li5  1  0.23632873  0.08419833  0.42853405  1
  Li  Li6  1  0.97653861  0.33942697  0.67972697  1
  Mn  Mn7  1  0.99458027  0.00408950  0.99830829  1
  Mn  Mn8  1  0.50587800  0.49293516  0.50486376  1
  Mn  Mn9  1  0.01614072  0.66292816  0.32847228  1
  Mn  Mn10  1  0.50231725  0.83400253  0.16638320  1
  Co  Co11  1  0.48751002  0.17550508  0.82777779  1
  O  O12  1  0.35625096  0.12681326  0.10165952  1
  O  O13  1  0.37594536  0.46227318  0.77295951  1
  O  O14  1  0.85217052  0.28032686  0.95028415  1
  O  O15  1  0.92581061  0.60913223  0.59836027  1
  O  O16  1  0.35686704  0.78803415  0.44416993  1
  O  O17  1  0.85081916  0.95839342  0.27489697  1
  O  O18  1  0.08290162  0.39101215  0.39237949  1
  O  O19  1  0.15019472  0.71184177  0.05598785  1
  O  O20  1  0.65297150  0.54333514  0.22549498  1
  O  O21  1  0.64882455  0.87695283  0.88724060  1
  O  O22  1  0.13781141  0.04723937  0.72630269  1
  O  O23  1  0.61890427  0.20107182  0.56990462  1
