# generated using pymatgen
data_Li9Mn2Co5O16
_symmetry_space_group_name_H-M   'P 1'
_cell_length_a   5.14155026
_cell_length_b   10.08482490
_cell_length_c   5.89473421
_cell_angle_alpha   88.27469280
_cell_angle_beta   71.18246657
_cell_angle_gamma   80.10627738
_symmetry_Int_Tables_number   1
_chemical_formula_structural   Li9Mn2Co5O16
_chemical_formula_sum   'Li9 Mn2 Co5 O16'
_cell_volume   284.90702048
_cell_formula_units_Z   1
loop_
 _symmetry_equiv_pos_site_id
 _symmetry_equiv_pos_as_xyz
  1  'x, y, z'
loop_
 _atom_site_type_symbol
 _atom_site_label
 _atom_site_symmetry_multiplicity
 _atom_site_fract_x
 _atom_site_fract_y
 _atom_site_fract_z
 _atom_site_occupancy
  Li  Li0  1  0.00679936  0.99887809  0.49717647  1
  Li  Li1  1  0.00427482  0.24873684  0.24706792  1
  Li  Li2  1  0.50000000  0.87500000  0.62500000  1
  Li  Li3  1  0.50091864  0.12223062  0.37606001  1
  Li  Li4  1  0.99320064  0.75112191  0.75282353  1
  Li  Li5  1  0.49908136  0.62776938  0.87393999  1
  Li  Li6  1  0.99572518  0.50126316  0.00293208  1
  Li  Li7  1  0.50000000  0.37500000  0.12500000  1
  Li  Li8  1  0.50000000  0.87500000  0.12500000  1
  Mn  Mn9  1  0.00283131  -0.00142330  0.99857389  1
  Mn  Mn10  1  0.99716869  0.75142330  0.25142611  1
  Co  Co11  1  0.00009190  0.24762709  0.74893174  1
  Co  Co12  1  -0.00009190  0.50237291  0.50106826  1
  Co  Co13  1  0.50189967  0.12158071  0.87508707  1
  Co  Co14  1  0.50000000  0.37500000  0.62500000  1
  Co  Co15  1  0.49810033  0.62841929  0.37491293  1
  O  O16  1  0.78340912  0.93249235  0.29957150  1
  O  O17  1  0.77727748  0.18147307  0.05409554  1
  O  O18  1  0.24683351  0.79606425  0.41522534  1
  O  O19  1  0.24731858  0.05992935  0.15354913  1
  O  O20  1  0.76303971  0.69203682  0.55269802  1
  O  O21  1  0.26089203  0.55770603  0.66377995  1
  O  O22  1  0.75847721  0.43725260  0.79688879  1
  O  O23  1  0.26627238  0.30150437  0.91957813  1
  O  O24  1  0.23696029  0.05796318  0.69730198  1
  O  O25  1  0.24152279  0.31274740  0.45311121  1
  O  O26  1  0.75316649  0.95393575  0.83477466  1
  O  O27  1  0.73910797  0.19229397  0.58622005  1
  O  O28  1  0.21659088  0.81750765  0.95042850  1
  O  O29  1  0.75268142  0.69007065  0.09645087  1
  O  O30  1  0.22272252  0.56852693  0.19590446  1
  O  O31  1  0.73372762  0.44849563  0.33042187  1
