# generated using pymatgen
data_Li9Mn2Co5O16
_symmetry_space_group_name_H-M   'P 1'
_cell_length_a   5.04499657
_cell_length_b   6.58957385
_cell_length_c   8.89706974
_cell_angle_alpha   82.17776123
_cell_angle_beta   83.70792690
_cell_angle_gamma   97.54886805
_symmetry_Int_Tables_number   1
_chemical_formula_structural   Li9Mn2Co5O16
_chemical_formula_sum   'Li9 Mn2 Co5 O16'
_cell_volume   288.02835620
_cell_formula_units_Z   1
loop_
 _symmetry_equiv_pos_site_id
 _symmetry_equiv_pos_as_xyz
  1  'x, y, z'
loop_
 _atom_site_type_symbol
 _atom_site_label
 _atom_site_symmetry_multiplicity
 _atom_site_fract_x
 _atom_site_fract_y
 _atom_site_fract_z
 _atom_site_occupancy
  Li  Li0  1  0.25646024  0.68850986  0.18580066  1
  Li  Li1  1  0.25477154  0.18752628  0.69102252  1
  Li  Li2  1  0.74202433  0.81580310  0.30799102  1
  Li  Li3  1  0.74961680  0.31256673  0.81532809  1
  Li  Li4  1  0.25038320  0.93743327  0.43467191  1
  Li  Li5  1  0.25797567  0.43419690  0.94200898  1
  Li  Li6  1  0.74353976  0.56149014  0.06419934  1
  Li  Li7  1  0.74522846  0.06247372  0.55897748  1
  Li  Li8  1  0.50000000  0.12500000  0.12500000  1
  Mn  Mn9  1  0.99750291  0.00073794  0.00451420  1
  Mn  Mn10  1  0.00249709  0.24926206  0.24548580  1
  Co  Co11  1  0.99479264  0.49537524  0.49917604  1
  Co  Co12  1  0.50000000  0.62500000  0.62500000  1
  Co  Co13  1  0.00520736  0.75462476  0.75082396  1
  Co  Co14  1  0.50053490  0.36743376  0.36736817  1
  Co  Co15  1  0.49946510  0.88256624  0.88263183  1
  O  O16  1  0.12034520  0.73951682  0.96767349  1
  O  O17  1  0.12013884  0.22289705  0.44951047  1
  O  O18  1  0.64538773  0.85226431  0.08388054  1
  O  O19  1  0.64014387  0.35489544  0.58797216  1
  O  O20  1  0.10446028  0.98581243  0.20806314  1
  O  O21  1  0.13946117  0.48276486  0.71027664  1
  O  O22  1  0.63381699  0.61497022  0.83773927  1
  O  O23  1  0.63902250  0.11728060  0.34041436  1
  O  O24  1  0.36618301  0.63502978  0.41226073  1
  O  O25  1  0.36097750  0.13271940  0.90958564  1
  O  O26  1  0.86053883  0.76723614  0.53972236  1
  O  O27  1  0.89553972  0.26418757  0.04193686  1
  O  O28  1  0.35985613  0.89510556  0.66202684  1
  O  O29  1  0.35461227  0.39773569  0.16611946  1
  O  O30  1  0.87965480  0.51048318  0.28232651  1
  O  O31  1  0.87986116  0.02710195  0.80048953  1
