# generated using pymatgen
data_Li7Mn4CoO12
_symmetry_space_group_name_H-M   'P 1'
_cell_length_a   3.01634196
_cell_length_b   14.97431569
_cell_length_c   5.09895654
_cell_angle_alpha   95.93663568
_cell_angle_beta   77.12999075
_cell_angle_gamma   86.60399410
_symmetry_Int_Tables_number   1
_chemical_formula_structural   Li7Mn4CoO12
_chemical_formula_sum   'Li7 Mn4 Co1 O12'
_cell_volume   222.51262969
_cell_formula_units_Z   1
loop_
 _symmetry_equiv_pos_site_id
 _symmetry_equiv_pos_as_xyz
  1  'x, y, z'
loop_
 _atom_site_type_symbol
 _atom_site_label
 _atom_site_symmetry_multiplicity
 _atom_site_fract_x
 _atom_site_fract_y
 _atom_site_fract_z
 _atom_site_occupancy
  Li  Li0  1  0.67056863  0.08643277  0.57518135  1
  Li  Li1  1  0.97470788  0.25400396  0.74762721  1
  Li  Li2  1  0.37826203  0.40669934  0.90073372  1
  Li  Li3  1  0.64610734  0.58336700  0.09922261  1
  Li  Li4  1  0.00201717  0.75076704  0.24831704  1
  Li  Li5  1  0.33087762  0.91798880  0.41960313  1
  Li  Li6  1  0.66034138  0.33160902  0.34449855  1
  Mn  Mn7  1  0.98341393  0.00406248  0.00550629  1
  Mn  Mn8  1  0.01319253  0.49270807  0.49836934  1
  Mn  Mn9  1  0.35044178  0.66524425  0.65963061  1
  Mn  Mn10  1  0.66508790  0.83441627  0.83406330  1
  Co  Co11  1  0.31793866  0.17533721  0.17013145  1
  O  O12  1  0.30751293  0.05085784  0.27471921  1
  O  O13  1  0.66232322  0.20453960  0.42576570  1
  O  O14  1  0.99059040  0.38364697  0.63101895  1
  O  O15  1  0.38958546  0.53990904  0.75158844  1
  O  O16  1  0.65043272  0.71088905  0.94257975  1
  O  O17  1  0.97103475  0.88047960  0.11430190  1
  O  O18  1  0.00010248  0.12393216  0.89760280  1
  O  O19  1  0.34165886  0.27889677  0.04299403  1
  O  O20  1  0.61515390  0.46211655  0.25443431  1
  O  O21  1  0.03311928  0.61885949  0.38755416  1
  O  O22  1  0.36121765  0.78764192  0.55310114  1
  O  O23  1  0.68431151  0.95559476  0.72145501  1
