# generated using pymatgen
data_Li9Mn2Co5O16
_symmetry_space_group_name_H-M   'P 1'
_cell_length_a   5.90516548
_cell_length_b   6.44407093
_cell_length_c   7.87907135
_cell_angle_alpha   87.56213982
_cell_angle_beta   75.62159552
_cell_angle_gamma   76.69313885
_symmetry_Int_Tables_number   1
_chemical_formula_structural   Li9Mn2Co5O16
_chemical_formula_sum   'Li9 Mn2 Co5 O16'
_cell_volume   282.60150103
_cell_formula_units_Z   1
loop_
 _symmetry_equiv_pos_site_id
 _symmetry_equiv_pos_as_xyz
  1  'x, y, z'
loop_
 _atom_site_type_symbol
 _atom_site_label
 _atom_site_symmetry_multiplicity
 _atom_site_fract_x
 _atom_site_fract_y
 _atom_site_fract_z
 _atom_site_occupancy
  Li  Li0  1  0.86715827  0.12084650  0.37373729  1
  Li  Li1  1  0.87400944  0.62501378  0.88504640  1
  Li  Li2  1  0.13037139  0.87283956  0.61880062  1
  Li  Li3  1  0.11706468  0.38933248  0.12493425  1
  Li  Li4  1  0.37867066  0.62882377  0.87986539  1
  Li  Li5  1  0.39389064  0.11191461  0.37263231  1
  Li  Li6  1  0.62159806  0.37909215  0.12653547  1
  Li  Li7  1  0.61472008  0.87274975  0.61353430  1
  Li  Li8  1  0.74858903  0.75250162  0.25091070  1
  Mn  Mn9  1  0.99915126  0.99698996  0.00446602  1
  Mn  Mn10  1  0.99625996  0.49889986  0.49578451  1
  Co  Co11  1  0.24702452  0.74876254  0.25049283  1
  Co  Co12  1  0.25036656  0.24895836  0.74845013  1
  Co  Co13  1  0.49937780  0.50234192  0.49690333  1
  Co  Co14  1  0.50355866  0.00023120  0.00654696  1
  Co  Co15  1  0.75237279  0.25057585  0.75136374  1
  O  O16  1  0.70473301  0.06462453  0.17648615  1
  O  O17  1  0.70643147  0.54808359  0.68597610  1
  O  O18  1  0.95967908  0.79219998  0.43376124  1
  O  O19  1  0.96119204  0.29831562  0.93215746  1
  O  O20  1  0.18811841  0.53860686  0.66514329  1
  O  O21  1  0.18651199  0.04425482  0.16877179  1
  O  O22  1  0.46114653  0.29194846  0.92849513  1
  O  O23  1  0.44001594  0.78999124  0.43897466  1
  O  O24  1  0.04216971  0.20181448  0.56935310  1
  O  O25  1  0.05839300  0.70614238  0.05414164  1
  O  O26  1  0.29861992  0.95643708  0.81707967  1
  O  O27  1  0.29085801  0.44783218  0.31506396  1
  O  O28  1  0.53540407  0.71097077  0.06940196  1
  O  O29  1  0.54440137  0.20565024  0.57087001  1
  O  O30  1  0.81339500  0.44508459  0.34021529  1
  O  O31  1  0.81474664  0.95816927  0.83410430  1
