# generated using pymatgen
data_Li9Mn2Co5O16
_symmetry_space_group_name_H-M   'P 1'
_cell_length_a   5.04399204
_cell_length_b   5.82920538
_cell_length_c   10.20670144
_cell_angle_alpha   73.40780699
_cell_angle_beta   98.80139630
_cell_angle_gamma   89.99999760
_symmetry_Int_Tables_number   1
_chemical_formula_structural   Li9Mn2Co5O16
_chemical_formula_sum   'Li9 Mn2 Co5 O16'
_cell_volume   283.91708408
_cell_formula_units_Z   1
loop_
 _symmetry_equiv_pos_site_id
 _symmetry_equiv_pos_as_xyz
  1  'x, y, z'
loop_
 _atom_site_type_symbol
 _atom_site_label
 _atom_site_symmetry_multiplicity
 _atom_site_fract_x
 _atom_site_fract_y
 _atom_site_fract_z
 _atom_site_occupancy
  Li  Li0  1  0.24617643  0.61983077  0.24719847  1
  Li  Li1  1  0.75455034  0.38114018  0.75027130  1
  Li  Li2  1  0.24544966  0.13141147  0.24972870  1
  Li  Li3  1  0.75162860  0.38140025  0.24324480  1
  Li  Li4  1  0.24877251  0.12142989  0.75120542  1
  Li  Li5  1  0.75122749  0.87263531  0.24879458  1
  Li  Li6  1  0.75382357  0.86702924  0.75280153  1
  Li  Li7  1  0.24837140  0.62464506  0.75675520  1
  Li  Li8  1  0.00000000  0.50291259  0.00000000  1
  Mn  Mn9  1  1.00000000  0.99496711  1.00000000  1
  Mn  Mn10  1  0.50000000  0.25815572  1.00000000  1
  Co  Co11  1  0.50006474  0.74917938  0.50138203  1
  Co  Co12  1  0.49993526  0.25056141  0.49861797  1
  Co  Co13  1  0.00026517  0.50011917  0.49976493  1
  Co  Co14  1  0.99973483  0.99988410  0.50023507  1
  Co  Co15  1  0.50000000  0.74863015  0.00000000  1
  O  O16  1  0.85799349  0.71034447  0.10973067  1
  O  O17  1  0.37919066  0.44094329  0.61576809  1
  O  O18  1  0.85422072  0.17925700  0.10961377  1
  O  O19  1  0.39460224  0.44254993  0.11160616  1
  O  O20  1  0.87971750  0.19248428  0.61549504  1
  O  O21  1  0.36041180  0.94652513  0.10832927  1
  O  O22  1  0.37883385  0.94270859  0.61618593  1
  O  O23  1  0.87862154  0.69075245  0.61820897  1
  O  O24  1  0.62116615  0.55889452  0.38381407  1
  O  O25  1  0.14577928  0.28887078  0.89038623  1
  O  O26  1  0.62080934  0.05671138  0.38423191  1
  O  O27  1  0.12137846  0.30896142  0.38179103  1
  O  O28  1  0.63958820  0.05485440  0.89167073  1
  O  O29  1  0.12028250  0.80797932  0.38450496  1
  O  O30  1  0.14200651  0.82007513  0.89026933  1
  O  O31  1  0.60539776  0.55415609  0.88839384  1
