# generated using pymatgen
data_Li9Mn2Co5O16
_symmetry_space_group_name_H-M   'P 1'
_cell_length_a   5.90859802
_cell_length_b   7.87108307
_cell_length_c   6.43654187
_cell_angle_alpha   85.96852531
_cell_angle_beta   76.79116798
_cell_angle_gamma   75.67741348
_symmetry_Int_Tables_number   1
_chemical_formula_structural   Li9Mn2Co5O16
_chemical_formula_sum   'Li9 Mn2 Co5 O16'
_cell_volume   282.33700853
_cell_formula_units_Z   1
loop_
 _symmetry_equiv_pos_site_id
 _symmetry_equiv_pos_as_xyz
  1  'x, y, z'
loop_
 _atom_site_type_symbol
 _atom_site_label
 _atom_site_symmetry_multiplicity
 _atom_site_fract_x
 _atom_site_fract_y
 _atom_site_fract_z
 _atom_site_occupancy
  Li  Li0  1  0.93208712  0.38038892  0.87468055  1
  Li  Li1  1  0.18846688  0.87328664  0.38280367  1
  Li  Li2  1  0.44802402  0.38548790  0.87204807  1
  Li  Li3  1  0.07108904  0.62788774  0.11828401  1
  Li  Li4  1  0.31306988  0.11618189  0.62514029  1
  Li  Li5  1  0.55257565  0.62568444  0.11404857  1
  Li  Li6  1  0.68688961  0.87472032  0.38263946  1
  Li  Li7  1  0.80878549  0.11964830  0.62739843  1
  Li  Li8  1  0.37515885  0.74889646  0.75212039  1
  Mn  Mn9  1  0.00300494  0.99674763  0.99768633  1
  Mn  Mn10  1  0.25399087  0.50326136  0.49842939  1
  Co  Co11  1  0.49540254  0.99282439  0.99966532  1
  Co  Co12  1  0.74992491  0.50364478  0.50327513  1
  Co  Co13  1  0.62418467  0.25053830  0.24961997  1
  Co  Co14  1  0.87822504  0.74959855  0.74987810  1
  Co  Co15  1  0.12352006  0.24985053  0.25010987  1
  O  O16  1  0.72507051  0.18391885  0.95742684  1
  O  O17  1  0.98169795  0.68459332  0.45199337  1
  O  O18  1  0.20461690  0.16606725  0.95700667  1
  O  O19  1  0.85594335  0.43019295  0.20951717  1
  O  O20  1  0.08877206  0.94536626  0.70558404  1
  O  O21  1  0.35336245  0.43037194  0.19966700  1
  O  O22  1  0.46597162  0.66010628  0.44237397  1
  O  O23  1  0.60875330  0.93106742  0.71127342  1
  O  O24  1  0.14422908  0.56601235  0.79251025  1
  O  O25  1  0.39413620  0.06850813  0.29000591  1
  O  O26  1  0.66432389  0.56056114  0.79066408  1
  O  O27  1  0.26398627  0.82432596  0.06224993  1
  O  O28  1  0.51745337  0.31407263  0.54724097  1
  O  O29  1  0.79196853  0.83064615  0.04613144  1
  O  O30  1  0.88982732  0.07082955  0.29912806  1
  O  O31  1  0.04548264  0.33471169  0.53939931  1
