# generated using pymatgen
data_Li9Mn2Co5O16
_symmetry_space_group_name_H-M   'P 1'
_cell_length_a   5.05388636
_cell_length_b   7.75686110
_cell_length_c   7.75686101
_cell_angle_alpha   96.60632217
_cell_angle_beta   76.55978253
_cell_angle_gamma   76.55978521
_symmetry_Int_Tables_number   1
_chemical_formula_structural   Li9Mn2Co5O16
_chemical_formula_sum   'Li9 Mn2 Co5 O16'
_cell_volume   283.02712487
_cell_formula_units_Z   1
loop_
 _symmetry_equiv_pos_site_id
 _symmetry_equiv_pos_as_xyz
  1  'x, y, z'
loop_
 _atom_site_type_symbol
 _atom_site_label
 _atom_site_symmetry_multiplicity
 _atom_site_fract_x
 _atom_site_fract_y
 _atom_site_fract_z
 _atom_site_occupancy
  Li  Li0  1  0.01636486  0.11605134  0.36552683  1
  Li  Li1  1  0.98363514  0.63447317  0.88394866  1
  Li  Li2  1  0.49381615  0.99065255  0.48576248  1
  Li  Li3  1  0.50618385  0.51423752  0.00934745  1
  Li  Li4  1  -0.00176064  0.86953788  0.62285953  1
  Li  Li5  1  0.00176064  0.37714047  0.13046212  1
  Li  Li6  1  0.50063927  0.74948949  0.75268919  1
  Li  Li7  1  0.49936073  0.24731081  0.25051051  1
  Li  Li8  1  0.50000000  0.87615628  0.12384372  1
  Mn  Mn9  1  0.00000000  0.99867377  0.00132623  1
  Mn  Mn10  1  0.00000000  0.25080327  0.74919673  1
  Co  Co11  1  1.00000000  0.50288382  0.49711618  1
  Co  Co12  1  0.50000000  0.37409088  0.62590912  1
  Co  Co13  1  1.00000000  0.75337986  0.24662014  1
  Co  Co14  1  0.50000000  0.63155459  0.36844541  1
  Co  Co15  1  0.50000000  0.12406832  0.87593168  1
  O  O16  1  0.77566986  0.99827070  0.23449080  1
  O  O17  1  0.77320668  0.48549928  0.74963505  1
  O  O18  1  0.24757926  0.86148695  0.37560889  1
  O  O19  1  0.25644093  0.35425527  0.85495511  1
  O  O20  1  0.75864819  0.74097681  0.49479136  1
  O  O21  1  0.75388512  0.23371595  0.98126227  1
  O  O22  1  0.26745064  0.60204914  0.61620273  1
  O  O23  1  0.24303472  0.12035541  0.10016735  1
  O  O24  1  0.22679332  0.25036495  0.51450072  1
  O  O25  1  0.22433014  0.76550920  0.00172930  1
  O  O26  1  0.74355907  0.14504489  0.64574473  1
  O  O27  1  0.75242074  0.62439111  0.13851305  1
  O  O28  1  0.24611488  0.01873773  0.76628405  1
  O  O29  1  0.24135181  0.50520864  0.25902319  1
  O  O30  1  0.75696528  0.89983265  0.87964459  1
  O  O31  1  0.73254936  0.38379727  0.39795086  1
