# generated using pymatgen
data_Li9Mn2Co5O16
_symmetry_space_group_name_H-M   'P 1'
_cell_length_a   5.01555627
_cell_length_b   7.80739519
_cell_length_c   7.79737295
_cell_angle_alpha   82.70841933
_cell_angle_beta   103.02079061
_cell_angle_gamma   77.64191066
_symmetry_Int_Tables_number   1
_chemical_formula_structural   Li9Mn2Co5O16
_chemical_formula_sum   'Li9 Mn2 Co5 O16'
_cell_volume   285.62654735
_cell_formula_units_Z   1
loop_
 _symmetry_equiv_pos_site_id
 _symmetry_equiv_pos_as_xyz
  1  'x, y, z'
loop_
 _atom_site_type_symbol
 _atom_site_label
 _atom_site_symmetry_multiplicity
 _atom_site_fract_x
 _atom_site_fract_y
 _atom_site_fract_z
 _atom_site_occupancy
  Li  Li0  1  0.48969304  0.26174280  0.74326792  1
  Li  Li1  1  0.00701177  0.86593990  0.38631820  1
  Li  Li2  1  0.50155115  0.50463685  0.98631253  1
  Li  Li3  1  0.99295739  0.38407120  0.86370639  1
  Li  Li4  1  0.51027171  0.98826041  0.50673616  1
  Li  Li5  1  0.99995268  0.62502308  0.12501974  1
  Li  Li6  1  0.00001491  0.12501628  0.62499459  1
  Li  Li7  1  0.49837962  0.74538207  0.26370538  1
  Li  Li8  1  0.49996624  0.62499830  0.62500265  1
  Mn  Mn9  1  0.99820695  0.00260711  0.99866254  1
  Mn  Mn10  1  0.00195262  0.24736140  0.25133592  1
  Co  Co11  1  0.49057176  0.87134667  0.86582673  1
  Co  Co12  1  0.00653984  0.50966142  0.49962177  1
  Co  Co13  1  0.50000430  0.12499756  0.12498949  1
  Co  Co14  1  0.99343284  0.74034423  0.75039060  1
  Co  Co15  1  0.50941938  0.37865057  0.38416468  1
  O  O16  1  0.76339634  0.00029585  0.76972844  1
  O  O17  1  0.24036330  0.61111755  0.37467355  1
  O  O18  1  0.75845350  0.23255842  0.01755028  1
  O  O19  1  0.24730402  0.11858470  0.89894127  1
  O  O20  1  0.76622485  0.74454138  0.50604205  1
  O  O21  1  0.26001505  0.34913195  0.14282499  1
  O  O22  1  0.25208748  0.87477789  0.64641705  1
  O  O23  1  0.76197887  0.47718109  0.24685637  1
  O  O24  1  0.23371950  0.50546496  0.74396162  1
  O  O25  1  0.75274146  0.13140886  0.35103611  1
  O  O26  1  0.23803379  0.77281182  0.00314659  1
  O  O27  1  0.75961370  0.63887364  0.87533748  1
  O  O28  1  0.23661188  0.24969869  0.48025153  1
  O  O29  1  0.74003857  0.90085567  0.10716294  1
  O  O30  1  0.74789123  0.37522145  0.60359039  1
  O  O31  1  0.24160027  0.01743722  0.23242107  1
