# generated using pymatgen
data_Rb5(PO4)4
_symmetry_space_group_name_H-M   'P 1'
_cell_length_a   6.23896380
_cell_length_b   10.69462267
_cell_length_c   29.88005883
_cell_angle_alpha   90.00000000
_cell_angle_beta   90.00000000
_cell_angle_gamma   90.00000000
_symmetry_Int_Tables_number   1
_chemical_formula_structural   Rb5(PO4)4
_chemical_formula_sum   'Rb20 P16 O64'
_cell_volume   1993.69803248
_cell_formula_units_Z   4
loop_
 _symmetry_equiv_pos_site_id
 _symmetry_equiv_pos_as_xyz
  1  'x, y, z'
loop_
 _atom_site_type_symbol
 _atom_site_label
 _atom_site_symmetry_multiplicity
 _atom_site_fract_x
 _atom_site_fract_y
 _atom_site_fract_z
 _atom_site_occupancy
  Rb  Rb0  1  0.25000000  0.67405132  0.11454976  1
  Rb  Rb1  1  0.25000000  0.82594868  0.61454976  1
  Rb  Rb2  1  0.75000000  0.32594868  0.88545024  1
  Rb  Rb3  1  0.75000000  0.17405132  0.38545024  1
  Rb  Rb4  1  0.75000000  0.91723838  0.08112947  1
  Rb  Rb5  1  0.75000000  0.58276162  0.58112947  1
  Rb  Rb6  1  0.25000000  0.08276162  0.91887053  1
  Rb  Rb7  1  0.25000000  0.41723838  0.41887053  1
  Rb  Rb8  1  0.75000000  0.79466239  0.44912871  1
  Rb  Rb9  1  0.75000000  0.70533761  0.94912871  1
  Rb  Rb10  1  0.25000000  0.20533761  0.55087129  1
  Rb  Rb11  1  0.25000000  0.29466239  0.05087129  1
  Rb  Rb12  1  0.75000000  0.66485514  0.21767497  1
  Rb  Rb13  1  0.75000000  0.83514486  0.71767497  1
  Rb  Rb14  1  0.25000000  0.33514486  0.78232503  1
  Rb  Rb15  1  0.25000000  0.16485514  0.28232503  1
  Rb  Rb16  1  0.25000000  0.71664125  0.31041000  1
  Rb  Rb17  1  0.25000000  0.78335875  0.81041000  1
  Rb  Rb18  1  0.75000000  0.28335875  0.68959000  1
  Rb  Rb19  1  0.75000000  0.21664125  0.18959000  1
  P  P20  1  0.75000000  0.95411863  0.28378069  1
  P  P21  1  0.75000000  0.54588137  0.78378069  1
  P  P22  1  0.25000000  0.04588137  0.71621931  1
  P  P23  1  0.25000000  0.45411863  0.21621931  1
  P  P24  1  0.25000000  0.67405216  0.50384622  1
  P  P25  1  0.25000000  0.82594784  0.00384622  1
  P  P26  1  0.75000000  0.32594784  0.49615378  1
  P  P27  1  0.75000000  0.17405216  0.99615378  1
  P  P28  1  0.25000000  0.00407244  0.15335703  1
  P  P29  1  0.25000000  0.49592756  0.65335703  1
  P  P30  1  0.75000000  0.99592756  0.84664297  1
  P  P31  1  0.75000000  0.50407244  0.34664297  1
  P  P32  1  0.75000000  0.51593030  0.09025156  1
  P  P33  1  0.75000000  0.98406970  0.59025156  1
  P  P34  1  0.25000000  0.48406970  0.90974844  1
  P  P35  1  0.25000000  0.01593030  0.40974844  1
  O  O36  1  0.25000000  0.59654649  0.22238862  1
  O  O37  1  0.25000000  0.90345351  0.72238862  1
  O  O38  1  0.75000000  0.40345351  0.77761138  1
  O  O39  1  0.75000000  0.09654649  0.27761138  1
  O  O40  1  0.75000000  0.92053841  0.33445581  1
  O  O41  1  0.75000000  0.57946159  0.83445581  1
  O  O42  1  0.25000000  0.07946159  0.66554419  1
  O  O43  1  0.25000000  0.42053841  0.16554419  1
  O  O44  1  0.95731332  0.89401252  0.26512919  1
  O  O45  1  0.54268668  0.60598748  0.76512919  1
  O  O46  1  0.45731332  0.10598748  0.73487081  1
  O  O47  1  0.04268668  0.39401252  0.23487081  1
  O  O48  1  0.04268668  0.10598748  0.73487081  1
  O  O49  1  0.45731332  0.39401252  0.23487081  1
  O  O50  1  0.54268668  0.89401252  0.26512919  1
  O  O51  1  0.95731332  0.60598748  0.76512919  1
  O  O52  1  0.04776885  0.77190031  0.02618096  1
  O  O53  1  0.45223115  0.72809969  0.52618096  1
  O  O54  1  0.54776885  0.22809969  0.97381904  1
  O  O55  1  0.95223115  0.27190031  0.47381904  1
  O  O56  1  0.95223115  0.22809969  0.97381904  1
  O  O57  1  0.54776885  0.27190031  0.47381904  1
  O  O58  1  0.45223115  0.77190031  0.02618096  1
  O  O59  1  0.04776885  0.72809969  0.52618096  1
  O  O60  1  0.25000000  0.53010957  0.51151575  1
  O  O61  1  0.25000000  0.96989043  0.01151575  1
  O  O62  1  0.75000000  0.46989043  0.48848425  1
  O  O63  1  0.75000000  0.03010957  0.98848425  1
  O  O64  1  0.25000000  0.68464470  0.45224603  1
  O  O65  1  0.25000000  0.81535530  0.95224603  1
  O  O66  1  0.75000000  0.31535530  0.54775397  1
  O  O67  1  0.75000000  0.18464470  0.04775397  1
  O  O68  1  0.45407050  0.92313851  0.15696962  1
  O  O69  1  0.04592950  0.57686149  0.65696962  1
  O  O70  1  0.95407050  0.07686149  0.84303038  1
  O  O71  1  0.54592950  0.42313851  0.34303038  1
  O  O72  1  0.54592950  0.07686149  0.84303038  1
  O  O73  1  0.95407050  0.42313851  0.34303038  1
  O  O74  1  0.04592950  0.92313851  0.15696962  1
  O  O75  1  0.45407050  0.57686149  0.65696962  1
  O  O76  1  0.75000000  0.61656685  0.31436830  1
  O  O77  1  0.75000000  0.88343315  0.81436830  1
  O  O78  1  0.25000000  0.38343315  0.68563170  1
  O  O79  1  0.25000000  0.11656685  0.18563170  1
  O  O80  1  0.75000000  0.56327558  0.39424787  1
  O  O81  1  0.75000000  0.93672442  0.89424787  1
  O  O82  1  0.25000000  0.43672442  0.60575213  1
  O  O83  1  0.25000000  0.06327558  0.10575213  1
  O  O84  1  0.04361370  0.00879811  0.43815761  1
  O  O85  1  0.45638630  0.49120189  0.93815761  1
  O  O86  1  0.54361370  0.99120189  0.56184239  1
  O  O87  1  0.95638630  0.50879811  0.06184239  1
  O  O88  1  0.95638630  0.99120189  0.56184239  1
  O  O89  1  0.54361370  0.50879811  0.06184239  1
  O  O90  1  0.45638630  0.00879811  0.43815761  1
  O  O91  1  0.04361370  0.49120189  0.93815761  1
  O  O92  1  0.25000000  0.89314137  0.38191442  1
  O  O93  1  0.25000000  0.60685863  0.88191442  1
  O  O94  1  0.75000000  0.10685863  0.61808558  1
  O  O95  1  0.75000000  0.39314137  0.11808558  1
  O  O96  1  0.75000000  0.63023527  0.12148631  1
  O  O97  1  0.75000000  0.86976473  0.62148631  1
  O  O98  1  0.25000000  0.36976473  0.87851369  1
  O  O99  1  0.25000000  0.13023527  0.37851369  1
