# generated using pymatgen
data_Li9Mn2Co5O16
_symmetry_space_group_name_H-M   'P 1'
_cell_length_a   6.43252101
_cell_length_b   6.44960571
_cell_length_c   7.86868384
_cell_angle_alpha   87.68600281
_cell_angle_beta   113.91313669
_cell_angle_gamma   108.38462685
_symmetry_Int_Tables_number   1
_chemical_formula_structural   Li9Mn2Co5O16
_chemical_formula_sum   'Li9 Mn2 Co5 O16'
_cell_volume   281.75294551
_cell_formula_units_Z   1
loop_
 _symmetry_equiv_pos_site_id
 _symmetry_equiv_pos_as_xyz
  1  'x, y, z'
loop_
 _atom_site_type_symbol
 _atom_site_label
 _atom_site_symmetry_multiplicity
 _atom_site_fract_x
 _atom_site_fract_y
 _atom_site_fract_z
 _atom_site_occupancy
  Li  Li0  1  0.87819161  0.05442050  0.31748040  1
  Li  Li1  1  0.87057651  0.56004733  0.81232432  1
  Li  Li2  1  0.12517734  0.93933654  0.67859128  1
  Li  Li3  1  0.13331002  0.44466614  0.19287417  1
  Li  Li4  1  0.38257082  0.81642144  0.07522154  1
  Li  Li5  1  0.37654251  0.31095682  0.56194455  1
  Li  Li6  1  0.61454604  0.68954385  0.43223627  1
  Li  Li7  1  0.61991941  0.18545040  0.93267458  1
  Li  Li8  1  0.25180336  0.87371393  0.37556349  1
  Mn  Mn9  1  0.00340672  0.00152221  0.00375686  1
  Mn  Mn10  1  0.00163164  0.50431851  0.49863005  1
  Co  Co11  1  0.24872935  0.37362035  0.87380460  1
  Co  Co12  1  0.49598616  0.74864334  0.74209124  1
  Co  Co13  1  0.49973254  0.24688514  0.25296631  1
  Co  Co14  1  0.75889075  0.63326437  0.13466737  1
  Co  Co15  1  0.74465260  0.12116857  0.61825700  1
  O  O16  1  0.70660351  0.90107840  0.03592130  1
  O  O17  1  0.70349039  0.39865911  0.53775683  1
  O  O18  1  0.93891712  0.76462448  0.41418994  1
  O  O19  1  0.95875290  0.27581043  0.91076004  1
  O  O20  1  0.18636463  0.63751702  0.76019183  1
  O  O21  1  0.18448966  0.14579473  0.25257372  1
  O  O22  1  0.45577171  0.51947761  0.15523530  1
  O  O23  1  0.46428512  0.02385279  0.66575321  1
  O  O24  1  0.04239935  0.22521718  0.59027748  1
  O  O25  1  0.03742132  0.72383907  0.08243669  1
  O  O26  1  0.29425913  0.09681981  0.96152910  1
  O  O27  1  0.29616460  0.58537234  0.47185363  1
  O  O28  1  0.55928702  0.98929790  0.33896876  1
  O  O29  1  0.53998741  0.47882461  0.84253407  1
  O  O30  1  0.81033500  0.86228971  0.73677110  1
  O  O31  1  0.81580374  0.36755135  0.24016495  1
