# generated using pymatgen
data_Li9Mn2Co5O16
_symmetry_space_group_name_H-M   'P 1'
_cell_length_a   5.82928615
_cell_length_b   6.49412236
_cell_length_c   7.69926947
_cell_angle_alpha   93.61530878
_cell_angle_beta   98.88868720
_cell_angle_gamma   76.87906264
_symmetry_Int_Tables_number   1
_chemical_formula_structural   Li9Mn2Co5O16
_chemical_formula_sum   'Li9 Mn2 Co5 O16'
_cell_volume   280.32746488
_cell_formula_units_Z   1
loop_
 _symmetry_equiv_pos_site_id
 _symmetry_equiv_pos_as_xyz
  1  'x, y, z'
loop_
 _atom_site_type_symbol
 _atom_site_label
 _atom_site_symmetry_multiplicity
 _atom_site_fract_x
 _atom_site_fract_y
 _atom_site_fract_z
 _atom_site_occupancy
  Li  Li0  1  0.06922747  0.11695443  0.37512236  1
  Li  Li1  1  0.32196464  0.62499668  0.87849858  1
  Li  Li2  1  0.42803536  0.87500332  0.62150142  1
  Li  Li3  1  0.68077253  0.38304557  0.12487764  1
  Li  Li4  1  0.81379958  0.62910484  0.87880526  1
  Li  Li5  1  0.18706940  0.37877395  0.12282330  1
  Li  Li6  1  0.56293060  0.12122605  0.37717670  1
  Li  Li7  1  0.93620042  0.87089516  0.62119474  1
  Li  Li8  1  0.37500000  0.75000000  0.25000000  1
  Mn  Mn9  1  0.00900089  0.99610400  0.00485943  1
  Mn  Mn10  1  0.74099911  0.50389600  0.49514057  1
  Co  Co11  1  0.24704106  0.49747581  0.49670761  1
  Co  Co12  1  0.50295894  0.00252419  0.00329239  1
  Co  Co13  1  0.63105157  0.25265156  0.75059976  1
  Co  Co14  1  0.87500000  0.75000000  0.25000000  1
  Co  Co15  1  0.11894843  0.24734844  0.74940024  1
  O  O16  1  0.80980420  0.04262665  0.18903519  1
  O  O17  1  0.01957560  0.55055900  0.66217176  1
  O  O18  1  0.13613524  0.78400036  0.42184302  1
  O  O19  1  0.41098829  0.29777498  0.93555718  1
  O  O20  1  0.54400923  0.56318975  0.67931531  1
  O  O21  1  0.91361701  0.29125841  0.94014638  1
  O  O22  1  0.27589146  0.05639053  0.16467907  1
  O  O23  1  0.67158051  0.79440183  0.42882054  1
  O  O24  1  0.33901171  0.20222502  0.56444282  1
  O  O25  1  0.61386576  0.71599964  0.07815698  1
  O  O26  1  0.73042440  0.94944100  0.83782824  1
  O  O27  1  0.94019680  0.45737335  0.31096481  1
  O  O28  1  0.07842049  0.70559817  0.07117946  1
  O  O29  1  0.47410954  0.44360947  0.33532093  1
  O  O30  1  0.83638299  0.20874159  0.55985362  1
  O  O31  1  0.20598977  0.93681025  0.82068469  1
