# generated using pymatgen
data_Li9Mn2Co5O16
_symmetry_space_group_name_H-M   'P 1'
_cell_length_a   5.13646956
_cell_length_b   7.79101009
_cell_length_c   7.71830919
_cell_angle_alpha   98.74034385
_cell_angle_beta   102.52339209
_cell_angle_gamma   101.94351094
_symmetry_Int_Tables_number   1
_chemical_formula_structural   Li9Mn2Co5O16
_chemical_formula_sum   'Li9 Mn2 Co5 O16'
_cell_volume   288.66461564
_cell_formula_units_Z   1
loop_
 _symmetry_equiv_pos_site_id
 _symmetry_equiv_pos_as_xyz
  1  'x, y, z'
loop_
 _atom_site_type_symbol
 _atom_site_label
 _atom_site_symmetry_multiplicity
 _atom_site_fract_x
 _atom_site_fract_y
 _atom_site_fract_z
 _atom_site_occupancy
  Li  Li0  1  0.49951257  0.12357822  0.87433352  1
  Li  Li1  1  0.50959795  0.50580237  0.00216287  1
  Li  Li2  1  0.50048743  0.37642178  0.62566648  1
  Li  Li3  1  0.50000000  0.75000000  0.75000000  1
  Li  Li4  1  0.49571793  0.63074367  0.36930672  1
  Li  Li5  1  0.49040205  0.99419763  0.49783713  1
  Li  Li6  1  0.50428207  0.86925633  0.13069328  1
  Li  Li7  1  0.50000000  0.25000000  0.25000000  1
  Li  Li8  1  -0.00000000  0.75000000  0.25000000  1
  Mn  Mn9  1  0.99483343  0.99830256  0.00060706  1
  Mn  Mn10  1  0.00516657  0.50169744  0.49939294  1
  Co  Co11  1  -0.00443190  0.38048614  0.12601703  1
  Co  Co12  1  0.00443190  0.11951386  0.37398297  1
  Co  Co13  1  0.99272713  0.87165931  0.61353078  1
  Co  Co14  1  -0.00000000  0.25000000  0.75000000  1
  Co  Co15  1  0.00727287  0.62834069  0.88646922  1
  O  O16  1  0.21794233  0.88072905  0.87344254  1
  O  O17  1  0.21890807  0.23809472  0.00100859  1
  O  O18  1  0.23272983  0.12430854  0.62578616  1
  O  O19  1  0.22711386  0.49392475  0.73570034  1
  O  O20  1  0.22704803  0.38060195  0.37687262  1
  O  O21  1  0.22789649  0.73368667  0.50588460  1
  O  O22  1  0.23883362  0.61566496  0.10634153  1
  O  O23  1  0.22425851  0.00986758  0.24215174  1
  O  O24  1  0.76727017  0.37569146  0.87421384  1
  O  O25  1  0.77210351  0.76631333  0.99411440  1
  O  O26  1  0.78205767  0.61927095  0.62655746  1
  O  O27  1  0.77288614  0.00607525  0.76429966  1
  O  O28  1  0.76116638  0.88433404  0.39365947  1
  O  O29  1  0.78109193  0.26190528  0.49899241  1
  O  O30  1  0.77295197  0.11939805  0.12312738  1
  O  O31  1  0.77574149  0.49013242  0.25784926  1
