# generated using pymatgen
data_SrCa2Yb10O18
_symmetry_space_group_name_H-M   'P 1'
_cell_length_a   3.43086560
_cell_length_b   17.31181190
_cell_length_c   17.34575416
_cell_angle_alpha   119.59484672
_cell_angle_beta   88.30389962
_cell_angle_gamma   91.59864273
_symmetry_Int_Tables_number   1
_chemical_formula_structural   SrCa2Yb10O18
_chemical_formula_sum   'Sr2 Ca4 Yb20 O36'
_cell_volume   895.33928216
_cell_formula_units_Z   2
loop_
 _symmetry_equiv_pos_site_id
 _symmetry_equiv_pos_as_xyz
  1  'x, y, z'
loop_
 _atom_site_type_symbol
 _atom_site_label
 _atom_site_symmetry_multiplicity
 _atom_site_fract_x
 _atom_site_fract_y
 _atom_site_fract_z
 _atom_site_occupancy
  Sr  Sr0  1  0.73790604  0.33287628  0.66674782  1
  Sr  Sr1  1  0.23916807  0.66587015  0.33384135  1
  Ca  Ca2  1  0.75464483  0.31957282  0.34448162  1
  Ca  Ca3  1  0.23721040  0.34669417  0.02606480  1
  Ca  Ca4  1  0.25695007  0.97386079  0.31804781  1
  Ca  Ca5  1  0.23250886  0.68129370  0.65479301  1
  Yb  Yb6  1  0.24892346  0.44499115  0.24751834  1
  Yb  Yb7  1  0.24062986  0.75294791  0.19982246  1
  Yb  Yb8  1  0.23741737  0.80094830  0.55266625  1
  Yb  Yb9  1  0.73303134  0.55319054  0.75140077  1
  Yb  Yb10  1  0.73336893  0.24820842  0.80039739  1
  Yb  Yb11  1  0.75593567  0.19970756  0.44888462  1
  Yb  Yb12  1  0.24790947  0.09870089  0.55553867  1
  Yb  Yb13  1  0.23056994  0.44532832  0.54491191  1
  Yb  Yb14  1  0.25103225  0.45761392  0.90119745  1
  Yb  Yb15  1  0.75228814  0.89858479  0.44510614  1
  Yb  Yb16  1  0.74626146  0.55491913  0.45480626  1
  Yb  Yb17  1  0.72811132  0.54763489  0.10180330  1
  Yb  Yb18  1  0.23939993  0.75793323  0.87002209  1
  Yb  Yb19  1  0.19047058  0.12911104  0.88595772  1
  Yb  Yb20  1  0.28550127  0.11164187  0.24383294  1
  Yb  Yb21  1  0.75322401  0.24045514  0.12806806  1
  Yb  Yb22  1  0.76920723  0.86914477  0.11021359  1
  Yb  Yb23  1  0.71046448  0.88846058  0.75644458  1
  Yb  Yb24  1  0.74561244  0.65644318  0.97551708  1
  Yb  Yb25  1  0.73337568  0.02415336  0.68003851  1
  O  O26  1  0.27300505  0.96277668  0.17012489  1
  O  O27  1  0.19611004  0.82909315  0.79254153  1
  O  O28  1  0.26571631  0.20807990  0.03245215  1
  O  O29  1  0.68895315  0.03638022  0.82257340  1
  O  O30  1  0.80154359  0.17288257  0.20908969  1
  O  O31  1  0.72923514  0.78704016  0.96323359  1
  O  O32  1  0.24596486  0.32392891  0.77758096  1
  O  O33  1  0.24242788  0.22494522  0.54947816  1
  O  O34  1  0.23240454  0.45301002  0.67808298  1
  O  O35  1  0.73099640  0.67855129  0.22671580  1
  O  O36  1  0.74676895  0.77271814  0.45148427  1
  O  O37  1  0.74576568  0.54598957  0.32135958  1
  O  O38  1  0.25887102  0.75643212  0.06992435  1
  O  O39  1  0.23082248  0.92972067  0.68562380  1
  O  O40  1  0.24191143  0.30735832  0.23659033  1
  O  O41  1  0.69325717  0.23870569  0.92670307  1
  O  O42  1  0.76674845  0.07299525  0.31545954  1
  O  O43  1  0.74627714  0.68945333  0.76086154  1
  O  O44  1  0.25196555  0.65250371  0.50157185  1
  O  O45  1  0.21218204  0.49951778  0.15288210  1
  O  O46  1  0.26209941  0.84933119  0.34782663  1
  O  O47  1  0.72423174  0.34725378  0.49718582  1
  O  O48  1  0.76606793  0.50827074  0.85306573  1
  O  O49  1  0.73894391  0.14801641  0.65360079  1
  O  O50  1  0.23034327  0.13538689  0.75545467  1
  O  O51  1  0.26574884  0.24055667  0.38021393  1
  O  O52  1  0.23226667  0.62052888  0.86294713  1
  O  O53  1  0.74698033  0.86129679  0.23876090  1
  O  O54  1  0.72851233  0.76160406  0.62185106  1
  O  O55  1  0.75347317  0.37820386  0.13896008  1
  O  O56  1  0.24384400  0.44537062  0.40836560  1
  O  O57  1  0.23995044  0.59627141  0.03815737  1
  O  O58  1  0.24289882  0.96136813  0.55694240  1
  O  O59  1  0.73461450  0.55487200  0.59029164  1
  O  O60  1  0.74035425  0.41411968  0.96787981  1
  O  O61  1  0.75762043  0.03517932  0.44603835  1
