# generated using pymatgen
data_Li9Mn2Co5O16
_symmetry_space_group_name_H-M   'P 1'
_cell_length_a   5.01237107
_cell_length_b   5.12140356
_cell_length_c   11.79026018
_cell_angle_alpha   89.90318571
_cell_angle_beta   89.58898382
_cell_angle_gamma   108.51613535
_symmetry_Int_Tables_number   1
_chemical_formula_structural   Li9Mn2Co5O16
_chemical_formula_sum   'Li9 Mn2 Co5 O16'
_cell_volume   286.98306436
_cell_formula_units_Z   1
loop_
 _symmetry_equiv_pos_site_id
 _symmetry_equiv_pos_as_xyz
  1  'x, y, z'
loop_
 _atom_site_type_symbol
 _atom_site_label
 _atom_site_symmetry_multiplicity
 _atom_site_fract_x
 _atom_site_fract_y
 _atom_site_fract_z
 _atom_site_occupancy
  Li  Li0  1  0.00000000  0.50000000  0.12500000  1
  Li  Li1  1  0.50045618  0.50110394  0.25350434  1
  Li  Li2  1  0.99871920  0.50024956  0.38026211  1
  Li  Li3  1  0.50488010  0.49716799  0.51139454  1
  Li  Li4  1  0.00000000  0.50000000  0.62500000  1
  Li  Li5  1  0.49511990  0.50283201  0.73860546  1
  Li  Li6  1  0.00128080  0.49975044  0.86973789  1
  Li  Li7  1  0.49954382  0.49889606  0.99649566  1
  Li  Li8  1  0.50000000  -0.00000000  0.62500000  1
  Mn  Mn9  1  0.00116187  0.00114024  0.00019857  1
  Mn  Mn10  1  0.99883813  0.99885976  0.24980143  1
  Co  Co11  1  0.50000000  -0.00000000  0.12500000  1
  Co  Co12  1  0.48898949  0.99159185  0.38374294  1
  Co  Co13  1  0.99152415  0.00928551  0.50634663  1
  Co  Co14  1  0.00847585  0.99071449  0.74365337  1
  Co  Co15  1  0.51101051  0.00840815  0.86625706  1
  O  O16  1  0.74932178  0.21986018  0.00870854  1
  O  O17  1  0.23963495  0.21643061  0.12469274  1
  O  O18  1  0.74033698  0.21167397  0.24448093  1
  O  O19  1  0.23460127  0.22871075  0.36202616  1
  O  O20  1  0.75491831  0.23524754  0.49177936  1
  O  O21  1  0.22817401  0.23875136  0.62549194  1
  O  O22  1  0.74506103  0.23016428  0.76058094  1
  O  O23  1  0.23371230  0.22898123  0.88638182  1
  O  O24  1  0.25067822  0.78013982  0.24129046  1
  O  O25  1  0.76628770  0.77101877  0.36361718  1
  O  O26  1  0.25493897  0.76983572  0.48941806  1
  O  O27  1  0.77182599  0.76124864  0.62450806  1
  O  O28  1  0.24508169  0.76475246  0.75821964  1
  O  O29  1  0.76539873  0.77128925  0.88797284  1
  O  O30  1  0.25966302  0.78832603  0.00552007  1
  O  O31  1  0.76036505  0.78356939  0.12530826  1
