# generated using pymatgen
data_Li9Mn2Co5O16
_symmetry_space_group_name_H-M   'P 1'
_cell_length_a   4.97902322
_cell_length_b   6.54495037
_cell_length_c   8.89164622
_cell_angle_alpha   81.96639556
_cell_angle_beta   83.77632880
_cell_angle_gamma   97.30802241
_symmetry_Int_Tables_number   1
_chemical_formula_structural   Li9Mn2Co5O16
_chemical_formula_sum   'Li9 Mn2 Co5 O16'
_cell_volume   282.22323763
_cell_formula_units_Z   1
loop_
 _symmetry_equiv_pos_site_id
 _symmetry_equiv_pos_as_xyz
  1  'x, y, z'
loop_
 _atom_site_type_symbol
 _atom_site_label
 _atom_site_symmetry_multiplicity
 _atom_site_fract_x
 _atom_site_fract_y
 _atom_site_fract_z
 _atom_site_occupancy
  Li  Li0  1  0.25564674  0.69243921  0.18484339  1
  Li  Li1  1  0.25982802  0.19215777  0.68856179  1
  Li  Li2  1  0.73540519  0.81572218  0.30068067  1
  Li  Li3  1  0.73908770  0.30707797  0.82384993  1
  Li  Li4  1  0.25426227  0.94754720  0.42293765  1
  Li  Li5  1  0.25732702  0.42806122  0.94625832  1
  Li  Li6  1  0.73117144  0.55103821  0.06963080  1
  Li  Li7  1  0.75279227  0.06905731  0.55579583  1
  Li  Li8  1  0.49498560  0.12445504  0.12145926  1
  Mn  Mn9  1  0.99853319  0.00244916  0.00243073  1
  Mn  Mn10  1  0.00622640  0.75099727  0.75450495  1
  Co  Co11  1  0.00037184  0.49717201  0.49458578  1
  Co  Co12  1  0.50826590  0.62347030  0.62652377  1
  Co  Co13  1  0.00098683  0.24816514  0.24149106  1
  Co  Co14  1  0.49395739  0.37203823  0.37048278  1
  Co  Co15  1  0.50355176  0.87582912  0.87683733  1
  O  O16  1  0.13576662  0.73859971  0.95486291  1
  O  O17  1  0.13646421  0.22856026  0.46074535  1
  O  O18  1  0.63729765  0.85203217  0.07226037  1
  O  O19  1  0.64292779  0.36088434  0.59720588  1
  O  O20  1  0.10141952  0.96685337  0.20209521  1
  O  O21  1  0.13334233  0.49324255  0.71867216  1
  O  O22  1  0.64408166  0.61464670  0.83950143  1
  O  O23  1  0.63196873  0.11719659  0.34504132  1
  O  O24  1  0.36828581  0.64221297  0.41636591  1
  O  O25  1  0.36072245  0.12975784  0.90629479  1
  O  O26  1  0.88403456  0.77612804  0.55287476  1
  O  O27  1  0.88536166  0.26184234  0.02825998  1
  O  O28  1  0.37151455  0.88955939  0.67478684  1
  O  O29  1  0.34867711  0.40316071  0.16368208  1
  O  O30  1  0.85264022  0.51771783  0.29220286  1
  O  O31  1  0.87309559  0.00992886  0.79427213  1
