# generated using pymatgen
data_Li9Mn2Co5O16
_symmetry_space_group_name_H-M   'P 1'
_cell_length_a   5.93419615
_cell_length_b   6.44824592
_cell_length_c   7.87921454
_cell_angle_alpha   88.65578250
_cell_angle_beta   76.13833706
_cell_angle_gamma   75.13853795
_symmetry_Int_Tables_number   1
_chemical_formula_structural   Li9Mn2Co5O16
_chemical_formula_sum   'Li9 Mn2 Co5 O16'
_cell_volume   282.69508602
_cell_formula_units_Z   1
loop_
 _symmetry_equiv_pos_site_id
 _symmetry_equiv_pos_as_xyz
  1  'x, y, z'
loop_
 _atom_site_type_symbol
 _atom_site_label
 _atom_site_symmetry_multiplicity
 _atom_site_fract_x
 _atom_site_fract_y
 _atom_site_fract_z
 _atom_site_occupancy
  Li  Li0  1  0.12636505  0.38095010  0.12922990  1
  Li  Li1  1  0.74642973  0.75212442  0.25230292  1
  Li  Li2  1  0.00823730  0.50765081  0.49632801  1
  Li  Li3  1  0.62128404  0.87377474  0.62031442  1
  Li  Li4  1  0.87748999  0.62337227  0.87635281  1
  Li  Li5  1  0.49706286  0.98832149  0.00799725  1
  Li  Li6  1  0.37436912  0.12041720  0.37678495  1
  Li  Li7  1  0.24912240  0.25182188  0.74398521  1
  Li  Li8  1  0.24813261  0.74879469  0.25224747  1
  Mn  Mn9  1  0.00538455  0.99883866  0.00200973  1
  Mn  Mn10  1  0.61858748  0.37961957  0.12658490  1
  Co  Co11  1  0.87234553  0.11964264  0.37485692  1
  Co  Co12  1  0.49035001  0.50168414  0.49591346  1
  Co  Co13  1  0.12332569  0.87346294  0.61774775  1
  Co  Co14  1  0.75490708  0.25216235  0.74908525  1
  Co  Co15  1  0.38068450  0.62864228  0.87971740  1
  O  O16  1  0.92972906  0.30088184  0.94888585  1
  O  O17  1  0.56892624  0.66839787  0.06684625  1
  O  O18  1  0.78323481  0.42113423  0.30808671  1
  O  O19  1  0.42463494  0.80122528  0.45451438  1
  O  O20  1  0.67403122  0.54942348  0.69916968  1
  O  O21  1  0.30617718  0.93090670  0.82816923  1
  O  O22  1  0.15076662  0.05882048  0.18117220  1
  O  O23  1  0.05273696  0.17937376  0.57120093  1
  O  O24  1  0.32931959  0.42791822  0.30147890  1
  O  O25  1  0.93084162  0.83283556  0.43879474  1
  O  O26  1  0.20034636  0.57550254  0.67619557  1
  O  O27  1  0.84184596  0.95560430  0.81299309  1
  O  O28  1  0.07675335  0.69776595  0.04262003  1
  O  O29  1  0.69582509  0.06808898  0.16890926  1
  O  O30  1  0.57707254  0.20243456  0.55807035  1
  O  O31  1  0.46368552  0.32841003  0.94143747  1
