# generated using pymatgen
data_Li9Mn2Co5O16
_symmetry_space_group_name_H-M   'P 1'
_cell_length_a   5.11584648
_cell_length_b   7.82437855
_cell_length_c   7.66273266
_cell_angle_alpha   80.05062375
_cell_angle_beta   108.87673846
_cell_angle_gamma   95.13915251
_symmetry_Int_Tables_number   1
_chemical_formula_structural   Li9Mn2Co5O16
_chemical_formula_sum   'Li9 Mn2 Co5 O16'
_cell_volume   285.67809013
_cell_formula_units_Z   1
loop_
 _symmetry_equiv_pos_site_id
 _symmetry_equiv_pos_as_xyz
  1  'x, y, z'
loop_
 _atom_site_type_symbol
 _atom_site_label
 _atom_site_symmetry_multiplicity
 _atom_site_fract_x
 _atom_site_fract_y
 _atom_site_fract_z
 _atom_site_occupancy
  Li  Li0  1  0.49564656  0.19554380  0.93859780  1
  Li  Li1  1  0.49573696  0.43774133  0.18443840  1
  Li  Li2  1  0.50366025  0.55426317  0.81291357  1
  Li  Li3  1  0.50011281  0.81152506  0.06394810  1
  Li  Li4  1  0.50232074  0.93871177  0.68721439  1
  Li  Li5  1  0.50506703  0.31632326  0.56437836  1
  Li  Li6  1  0.49485986  0.68364656  0.43601550  1
  Li  Li7  1  0.49865174  0.06407925  0.31244774  1
  Li  Li8  1  0.99601776  0.37439372  0.87320859  1
  Mn  Mn9  1  0.00754529  0.00256468  0.00198622  1
  Mn  Mn10  1  -0.00364629  0.13055139  0.62414823  1
  Co  Co11  1  0.98614080  0.25610923  0.23330309  1
  Co  Co12  1  0.99575280  0.49884406  0.49843588  1
  Co  Co13  1  0.00163487  0.73727192  0.75511725  1
  Co  Co14  1  0.00011115  0.62475189  0.12546502  1
  Co  Co15  1  0.01414877  0.87205948  0.38351545  1
  O  O16  1  0.22647345  0.97886119  0.84238948  1
  O  O17  1  0.22549306  0.20023992  0.09005927  1
  O  O18  1  0.21695274  0.33661153  0.69616911  1
  O  O19  1  0.22939181  0.60433529  0.97141385  1
  O  O20  1  0.24787437  0.72769010  0.59084143  1
  O  O21  1  0.21587472  0.09895794  0.46881190  1
  O  O22  1  0.21614019  0.47086045  0.33560986  1
  O  O23  1  0.23994690  0.85122727  0.21200042  1
  O  O24  1  0.74954421  0.39950553  0.04059407  1
  O  O25  1  0.78520932  0.65458350  0.28670464  1
  O  O26  1  0.78166624  0.78691269  0.92337925  1
  O  O27  1  0.78187186  0.02342972  0.15620787  1
  O  O28  1  0.77299370  0.14301184  0.78331757  1
  O  O29  1  0.77385347  0.54095200  0.64512183  1
  O  O30  1  0.78627806  0.91488988  0.54694942  1
  O  O31  1  0.75667482  0.26955460  0.41530345  1
