# generated using pymatgen
data_Na10US6O29
_symmetry_space_group_name_H-M   'P 1'
_cell_length_a   9.41797763
_cell_length_b   9.74607887
_cell_length_c   15.24126103
_cell_angle_alpha   88.84480146
_cell_angle_beta   72.00324194
_cell_angle_gamma   86.25864755
_symmetry_Int_Tables_number   1
_chemical_formula_structural   Na10US6O29
_chemical_formula_sum   'Na20 U2 S12 O58'
_cell_volume   1327.68858945
_cell_formula_units_Z   2
loop_
 _symmetry_equiv_pos_site_id
 _symmetry_equiv_pos_as_xyz
  1  'x, y, z'
loop_
 _atom_site_type_symbol
 _atom_site_label
 _atom_site_symmetry_multiplicity
 _atom_site_fract_x
 _atom_site_fract_y
 _atom_site_fract_z
 _atom_site_occupancy
  Na  Na0  1  0.20021853  0.20053694  0.36273364  1
  Na  Na1  1  0.56295217  0.70053694  0.63726636  1
  Na  Na2  1  0.76651198  0.28556840  0.50841806  1
  Na  Na3  1  0.27493004  0.78556840  0.49158194  1
  Na  Na4  1  0.51785553  0.06099721  0.49882797  1
  Na  Na5  1  0.01668349  0.56099721  0.50117203  1
  Na  Na6  1  0.91078609  0.77794869  0.71880125  1
  Na  Na7  1  0.62958734  0.27794869  0.28119875  1
  Na  Na8  1  0.94108603  0.45338325  0.86891662  1
  Na  Na9  1  0.81000265  0.95338325  0.13108338  1
  Na  Na10  1  0.03974710  0.07880203  0.91678656  1
  Na  Na11  1  0.95653367  0.57880203  0.08321344  1
  Na  Na12  1  0.49827396  0.89499402  0.86837069  1
  Na  Na13  1  0.36664465  0.39499402  0.13162931  1
  Na  Na14  1  0.17857154  0.71547257  0.86958426  1
  Na  Na15  1  0.04815580  0.21547257  0.13041574  1
  Na  Na16  1  0.62951802  0.28121460  0.87544328  1
  Na  Na17  1  0.50496130  0.78121460  0.12455672  1
  Na  Na18  1  0.42522642  0.30125667  0.72023306  1
  Na  Na19  1  0.14545948  0.80125667  0.27976694  1
  U  U20  1  0.05471632  0.19571948  0.65540078  1
  U  U21  1  0.71011710  0.69571948  0.34459922  1
  S  S22  1  0.27564068  0.95636925  0.68219148  1
  S  S23  1  0.95783217  0.45636925  0.31780852  1
  S  S24  1  0.77545301  0.46598184  0.67635786  1
  S  S25  1  0.45181087  0.96598184  0.32364214  1
  S  S26  1  0.19902080  0.54399943  0.67133309  1
  S  S27  1  0.87035389  0.04399943  0.32866691  1
  S  S28  1  0.81381464  0.79385419  0.93657652  1
  S  S29  1  0.75039116  0.29385419  0.06342348  1
  S  S30  1  0.24634886  0.37181775  0.93328969  1
  S  S31  1  0.17963855  0.87181775  0.06671031  1
  S  S32  1  0.69047636  0.04760920  0.67794797  1
  S  S33  1  0.36842433  0.54760920  0.32205203  1
  O  O34  1  0.14464843  0.17989072  0.53102790  1
  O  O35  1  0.67567633  0.67989072  0.46897210  1
  O  O36  1  0.96629937  0.20609080  0.78011720  1
  O  O37  1  0.74641657  0.70609080  0.21988280  1
  O  O38  1  0.85604923  0.07680235  0.64732936  1
  O  O39  1  0.50337859  0.57680235  0.35267064  1
  O  O40  1  0.17971192  0.39007532  0.66876694  1
  O  O41  1  0.84847886  0.89007532  0.33123306  1
  O  O42  1  0.90837569  0.37277348  0.61538135  1
  O  O43  1  0.52375705  0.87277348  0.38461865  1
  O  O44  1  0.29411358  0.11047027  0.67431174  1
  O  O45  1  0.96842532  0.61047027  0.32568826  1
  O  O46  1  0.11900289  0.94585978  0.67654148  1
  O  O47  1  0.79554437  0.44585978  0.32345852  1
  O  O48  1  0.29097406  0.90415133  0.76993872  1
  O  O49  1  0.06091278  0.40415133  0.23006128  1
  O  O50  1  0.38457455  0.88619708  0.60150912  1
  O  O51  1  0.98608366  0.38619709  0.39849088  1
  O  O52  1  0.64309200  0.42536025  0.65348881  1
  O  O53  1  0.29658081  0.92536025  0.34651119  1
  O  O54  1  0.76552909  0.44532713  0.77351926  1
  O  O55  1  0.53904835  0.94532713  0.22648074  1
  O  O56  1  0.81057825  0.60833430  0.64456971  1
  O  O57  1  0.45514796  0.10833430  0.35543029  1
  O  O58  1  0.35451534  0.55885805  0.66943384  1
  O  O59  1  0.02394918  0.05885805  0.33056616  1
  O  O60  1  0.16491380  0.61132310  0.59174152  1
  O  O61  1  0.75665532  0.11132310  0.40825848  1
  O  O62  1  0.09113809  0.60058991  0.75826663  1
  O  O63  1  0.84940472  0.10058991  0.24173337  1
  O  O64  1  0.95051181  0.87159623  0.89551660  1
  O  O65  1  0.84602841  0.37159623  0.10448340  1
  O  O66  1  0.86310042  0.65424519  0.96158398  1
  O  O67  1  0.82468440  0.15424519  0.03841602  1
  O  O68  1  0.73348219  0.78567675  0.86665471  1
  O  O69  1  0.60013690  0.28567675  0.13334529  1
  O  O70  1  0.71366822  0.86349590  0.02173868  1
  O  O71  1  0.73540690  0.36349590  0.97826132  1
  O  O72  1  0.17661043  0.27304771  0.88799760  1
  O  O73  1  0.06460804  0.77304771  0.11200240  1
  O  O74  1  0.15559267  0.50505467  0.94670634  1
  O  O75  1  0.10229900  0.00505467  0.05329366  1
  O  O76  1  0.25338294  0.31871061  0.02411699  1
  O  O77  1  0.27749992  0.81871061  0.97588301  1
  O  O78  1  0.40163610  0.39102417  0.86982680  1
  O  O79  1  0.27146290  0.89102417  0.13017320  1
  O  O80  1  0.62543501  0.11635777  0.61041878  1
  O  O81  1  0.23585379  0.61635777  0.38958122  1
  O  O82  1  0.68202130  0.89711144  0.67986889  1
  O  O83  1  0.36189019  0.39711144  0.32013111  1
  O  O84  1  0.61516315  0.10753719  0.77104879  1
  O  O85  1  0.38621194  0.60753719  0.22895121  1
  O  O86  1  0.30899411  0.15396160  0.18836335  1
  O  O87  1  0.49735746  0.65396160  0.81163665  1
  O  O88  1  0.50006606  0.34618107  0.50161072  1
  O  O89  1  0.00167678  0.84618107  0.49838928  1
  O  O90  1  0.48826987  0.57945131  0.03149254  1
  O  O91  1  0.51976241  0.07945131  0.96850746  1
