# generated using pymatgen
data_Li9Mn2Co5O16
_symmetry_space_group_name_H-M   'P 1'
_cell_length_a   5.90534483
_cell_length_b   8.59538161
_cell_length_c   5.91159157
_cell_angle_alpha   70.53946262
_cell_angle_beta   86.71032600
_cell_angle_gamma   87.96970451
_symmetry_Int_Tables_number   1
_chemical_formula_structural   Li9Mn2Co5O16
_chemical_formula_sum   'Li9 Mn2 Co5 O16'
_cell_volume   282.41370872
_cell_formula_units_Z   1
loop_
 _symmetry_equiv_pos_site_id
 _symmetry_equiv_pos_as_xyz
  1  'x, y, z'
loop_
 _atom_site_type_symbol
 _atom_site_label
 _atom_site_symmetry_multiplicity
 _atom_site_fract_x
 _atom_site_fract_y
 _atom_site_fract_z
 _atom_site_occupancy
  Li  Li0  1  0.24558552  0.24206340  0.13635055  1
  Li  Li1  1  0.99964470  0.49920374  0.25044273  1
  Li  Li2  1  0.24437178  0.24477407  0.62125578  1
  Li  Li3  1  0.00131311  0.49852924  0.75079677  1
  Li  Li4  1  0.75570106  0.75694357  0.86313600  1
  Li  Li5  1  0.75357469  0.75592243  0.37975151  1
  Li  Li6  1  0.49898055  0.00020169  0.49966040  1
  Li  Li7  1  0.50019765  0.00009417  0.00030119  1
  Li  Li8  1  0.00045241  0.00021870  0.50023095  1
  Mn  Mn9  1  0.00038574  0.00076748  0.99975696  1
  Mn  Mn10  1  0.49925925  0.49909880  0.24969267  1
  Co  Co11  1  0.75813500  0.24729337  0.13607607  1
  Co  Co12  1  0.24451371  0.75030783  0.37498658  1
  Co  Co13  1  0.75263445  0.24822897  0.62251327  1
  Co  Co14  1  0.50086135  0.50124642  0.74828855  1
  Co  Co15  1  0.24237831  0.75450128  0.86398266  1
  O  O16  1  0.99708947  0.24011868  0.90009391  1
  O  O17  1  0.74004730  0.48853228  0.01801527  1
  O  O18  1  0.98061517  0.25132276  0.39153273  1
  O  O19  1  0.71789207  0.49241134  0.48967093  1
  O  O20  1  0.49104388  0.73629525  0.64627841  1
  O  O21  1  0.48458534  0.73545617  0.14435734  1
  O  O22  1  0.22802549  0.98534675  0.23555470  1
  O  O23  1  0.24431528  0.98815409  0.76866761  1
  O  O24  1  0.50507931  0.25960480  0.35516162  1
  O  O25  1  0.26141917  0.50914295  0.48407946  1
  O  O26  1  0.51855857  0.26884408  0.85177846  1
  O  O27  1  0.28078094  0.50997329  0.00631091  1
  O  O28  1  0.00407491  0.76351434  0.09795852  1
  O  O29  1  0.01988427  0.74395910  0.61536967  1
  O  O30  1  0.77213641  0.01418400  0.76708751  1
  O  O31  1  0.75646316  0.01374497  0.23085829  1
