# generated using pymatgen
data_Li9Mn2Co5O16
_symmetry_space_group_name_H-M   'P 1'
_cell_length_a   5.91377554
_cell_length_b   6.45027045
_cell_length_c   8.60227843
_cell_angle_alpha   96.91608925
_cell_angle_beta   70.45714696
_cell_angle_gamma   114.05287521
_symmetry_Int_Tables_number   1
_chemical_formula_structural   Li9Mn2Co5O16
_chemical_formula_sum   'Li9 Mn2 Co5 O16'
_cell_volume   282.33503595
_cell_formula_units_Z   1
loop_
 _symmetry_equiv_pos_site_id
 _symmetry_equiv_pos_as_xyz
  1  'x, y, z'
loop_
 _atom_site_type_symbol
 _atom_site_label
 _atom_site_symmetry_multiplicity
 _atom_site_fract_x
 _atom_site_fract_y
 _atom_site_fract_z
 _atom_site_occupancy
  Li  Li0  1  0.26446027  0.24511498  0.24589935  1
  Li  Li1  1  0.74794847  0.00305013  0.50511133  1
  Li  Li2  1  0.73361633  0.24689518  0.24839661  1
  Li  Li3  1  0.25137662  0.00174384  0.50143359  1
  Li  Li4  1  0.25800772  0.75110237  0.75077741  1
  Li  Li5  1  0.74098794  0.75385642  0.75436648  1
  Li  Li6  1  0.75501910  0.49662625  0.99838517  1
  Li  Li7  1  0.24675216  0.49973842  0.99467509  1
  Li  Li8  1  0.50020584  0.00207927  0.99805941  1
  Mn  Mn9  1  0.99813855  0.00089738  0.99742021  1
  Mn  Mn10  1  0.50337435  0.75480156  0.24904467  1
  Co  Co11  1  0.00326483  0.50086232  0.50088076  1
  Co  Co12  1  0.49767082  0.24660839  0.75076948  1
  Co  Co13  1  0.01216688  0.75679104  0.24834555  1
  Co  Co14  1  0.50107433  0.49810561  0.50053117  1
  Co  Co15  1  0.98472283  0.24280570  0.75179335  1
  O  O16  1  0.85825526  0.97913708  0.24108559  1
  O  O17  1  0.39300902  0.73914666  0.48912707  1
  O  O18  1  0.38253628  0.98545258  0.25273743  1
  O  O19  1  0.89348994  0.73555543  0.48258266  1
  O  O20  1  0.88748790  0.48946791  0.73861446  1
  O  O21  1  0.38702369  0.48476600  0.73686241  1
  O  O22  1  0.34071188  0.22625894  0.98992631  1
  O  O23  1  0.88830560  0.24224104  0.98837526  1
  O  O24  1  0.61437705  0.50958616  0.26246949  1
  O  O25  1  0.11085880  0.26364415  0.51113152  1
  O  O26  1  0.15649679  0.53126289  0.25695628  1
  O  O27  1  0.62007956  0.26693782  0.50913017  1
  O  O28  1  0.61640118  0.01791192  0.75010592  1
  O  O29  1  0.09903676  0.00208625  0.76279800  1
  O  O30  1  0.10803694  0.75998647  0.01814492  1
  O  O31  1  0.64510633  0.76547983  0.01406287  1
