# generated using pymatgen
data_Li9Mn2Co5O16
_symmetry_space_group_name_H-M   'P 1'
_cell_length_a   5.13719970
_cell_length_b   5.01414431
_cell_length_c   11.47149546
_cell_angle_alpha   95.02784991
_cell_angle_beta   80.53064699
_cell_angle_gamma   99.60455208
_symmetry_Int_Tables_number   1
_chemical_formula_structural   Li9Mn2Co5O16
_chemical_formula_sum   'Li9 Mn2 Co5 O16'
_cell_volume   286.82751975
_cell_formula_units_Z   1
loop_
 _symmetry_equiv_pos_site_id
 _symmetry_equiv_pos_as_xyz
  1  'x, y, z'
loop_
 _atom_site_type_symbol
 _atom_site_label
 _atom_site_symmetry_multiplicity
 _atom_site_fract_x
 _atom_site_fract_y
 _atom_site_fract_z
 _atom_site_occupancy
  Li  Li0  1  0.56307840  0.24888592  0.93277303  1
  Li  Li1  1  0.43610215  0.73774710  0.05933288  1
  Li  Li2  1  0.68565905  0.75187167  0.80245542  1
  Li  Li3  1  0.81431115  0.26090246  0.68065350  1
  Li  Li4  1  0.93568885  0.73909754  0.56934650  1
  Li  Li5  1  0.06434095  0.24812833  0.44754458  1
  Li  Li6  1  0.18692160  0.75111408  0.31722697  1
  Li  Li7  1  0.31389785  0.26225290  0.19066712  1
  Li  Li8  1  0.37500000  0.50000000  0.62500000  1
  Mn  Mn9  1  0.00170326  0.99835266  0.00039763  1
  Mn  Mn10  1  0.74829674  0.00164734  0.24960237  1
  Co  Co11  1  0.87500000  0.50000000  0.12500000  1
  Co  Co12  1  0.61171674  0.50802250  0.38351314  1
  Co  Co13  1  0.50243776  0.01301871  0.50786688  1
  Co  Co14  1  0.24756224  0.98698129  0.74213312  1
  Co  Co15  1  0.13828326  0.49197750  0.86648686  1
  O  O16  1  0.31537458  0.87891535  0.91435617  1
  O  O17  1  0.18590186  0.35889795  0.03615501  1
  O  O18  1  0.44435807  0.37216074  0.79024263  1
  O  O19  1  0.58258226  0.89381661  0.65624299  1
  O  O20  1  0.71636055  0.36488930  0.52187452  1
  O  O21  1  0.83471637  0.88125660  0.39064209  1
  O  O22  1  0.93930993  0.36608567  0.27071552  1
  O  O23  1  0.06354482  0.86733717  0.15141256  1
  O  O24  1  0.81069007  0.63391433  0.97928448  1
  O  O25  1  0.68645518  0.13266283  0.09858744  1
  O  O26  1  0.91528363  0.11874340  0.85935791  1
  O  O27  1  0.03363945  0.63511070  0.72812548  1
  O  O28  1  0.16741774  0.10618339  0.59375701  1
  O  O29  1  0.30564193  0.62783926  0.45975737  1
  O  O30  1  0.43462542  0.12108465  0.33564383  1
  O  O31  1  0.56409814  0.64110205  0.21384499  1
