# generated using pymatgen
data_Li9Mn2Co5O16
_symmetry_space_group_name_H-M   'P 1'
_cell_length_a   5.00031248
_cell_length_b   7.79953902
_cell_length_c   7.77547791
_cell_angle_alpha   82.06263250
_cell_angle_beta   102.41667494
_cell_angle_gamma   78.12818063
_symmetry_Int_Tables_number   1
_chemical_formula_structural   Li9Mn2Co5O16
_chemical_formula_sum   'Li9 Mn2 Co5 O16'
_cell_volume   284.49440719
_cell_formula_units_Z   1
loop_
 _symmetry_equiv_pos_site_id
 _symmetry_equiv_pos_as_xyz
  1  'x, y, z'
loop_
 _atom_site_type_symbol
 _atom_site_label
 _atom_site_symmetry_multiplicity
 _atom_site_fract_x
 _atom_site_fract_y
 _atom_site_fract_z
 _atom_site_occupancy
  Li  Li0  1  0.48799712  0.26067461  0.74422244  1
  Li  Li1  1  0.01484229  0.86788919  0.38230137  1
  Li  Li2  1  0.50185800  0.50393581  0.99571658  1
  Li  Li3  1  0.97737510  0.38688414  0.86868244  1
  Li  Li4  1  0.49682826  0.99449870  0.50342690  1
  Li  Li5  1  0.99373503  0.62265138  0.12680732  1
  Li  Li6  1  0.00773052  0.12492964  0.62127922  1
  Li  Li7  1  0.50770398  0.74218512  0.26152692  1
  Li  Li8  1  0.49733596  0.62914351  0.62623604  1
  Mn  Mn9  1  0.00083887  0.99624772  -0.00466612  1
  Mn  Mn10  1  -0.00043500  0.74605152  0.74585387  1
  Co  Co11  1  0.00176970  0.25535811  0.25511745  1
  Co  Co12  1  0.50090184  0.87153487  0.87239672  1
  Co  Co13  1  0.00739397  0.50796247  0.50084161  1
  Co  Co14  1  0.50317948  0.12440519  0.12636865  1
  Co  Co15  1  0.50893674  0.38132743  0.38807108  1
  O  O16  1  0.76024223  0.98110045  0.76629798  1
  O  O17  1  0.23882200  0.61396345  0.37700685  1
  O  O18  1  0.75889242  0.22865163  0.00181564  1
  O  O19  1  0.25536339  0.10273033  0.88585929  1
  O  O20  1  0.77376462  0.74997249  0.51754491  1
  O  O21  1  0.25300350  0.36103264  0.13929030  1
  O  O22  1  0.24917327  0.86786567  0.64888946  1
  O  O23  1  0.75098231  0.49416840  0.25429590  1
  O  O24  1  0.22128244  0.51639599  0.75067723  1
  O  O25  1  0.75361134  0.13223522  0.35845669  1
  O  O26  1  0.24133205  0.76698967  0.98119448  1
  O  O27  1  0.75111794  0.64865452  0.86905445  1
  O  O28  1  0.24345459  0.25631630  0.49584348  1
  O  O29  1  0.74886152  0.88499637  0.10245949  1
  O  O30  1  0.74747708  0.37683794  0.60973763  1
  O  O31  1  0.24462743  0.00241050  0.22739070  1
