# generated using pymatgen
data_Li9Mn2Co5O16
_symmetry_space_group_name_H-M   'P 1'
_cell_length_a   5.00635478
_cell_length_b   10.21670948
_cell_length_c   5.90485397
_cell_angle_alpha   89.73857851
_cell_angle_beta   73.95891524
_cell_angle_gamma   80.56522627
_symmetry_Int_Tables_number   1
_chemical_formula_structural   Li9Mn2Co5O16
_chemical_formula_sum   'Li9 Mn2 Co5 O16'
_cell_volume   286.07371345
_cell_formula_units_Z   1
loop_
 _symmetry_equiv_pos_site_id
 _symmetry_equiv_pos_as_xyz
  1  'x, y, z'
loop_
 _atom_site_type_symbol
 _atom_site_label
 _atom_site_symmetry_multiplicity
 _atom_site_fract_x
 _atom_site_fract_y
 _atom_site_fract_z
 _atom_site_occupancy
  Li  Li0  1  0.50000000  0.12500000  0.37500000  1
  Li  Li1  1  0.01047652  0.25529582  0.24811308  1
  Li  Li2  1  0.98952348  0.99470418  0.50188692  1
  Li  Li3  1  0.49605223  0.38979577  0.13166330  1
  Li  Li4  1  0.98689684  0.50807698  0.00734544  1
  Li  Li5  1  0.50000000  0.62500000  0.87500000  1
  Li  Li6  1  0.01310316  0.74192302  0.74265456  1
  Li  Li7  1  0.50394777  0.86020423  0.61833670  1
  Li  Li8  1  0.50000000  0.62500000  0.37500000  1
  Mn  Mn9  1  0.00089784  0.00016693  0.99691199  1
  Mn  Mn10  1  0.99910216  0.24983307  0.75308801  1
  Co  Co11  1  0.50000000  0.12500000  0.87500000  1
  Co  Co12  1  0.49004609  0.38386007  0.62533872  1
  Co  Co13  1  0.99198128  0.50347182  0.48944749  1
  Co  Co14  1  0.00801872  0.74652818  0.26055251  1
  Co  Co15  1  0.50995391  0.86613993  0.12466128  1
  O  O16  1  0.76119016  0.17808764  0.03683956  1
  O  O17  1  0.25382791  0.29553518  0.92195773  1
  O  O18  1  0.25838849  0.05807036  0.15357940  1
  O  O19  1  0.76555830  0.42094864  0.80917724  1
  O  O20  1  0.25168277  0.54571564  0.68236381  1
  O  O21  1  0.76817126  0.68370621  0.55361601  1
  O  O22  1  0.24225915  0.81762189  0.41825076  1
  O  O23  1  0.76229322  0.94620104  0.28493550  1
  O  O24  1  0.23880984  0.07191236  0.71316044  1
  O  O25  1  0.74161151  0.19192964  0.59642060  1
  O  O26  1  0.74617209  0.95446482  0.82804127  1
  O  O27  1  0.23770678  0.30379896  0.46506450  1
  O  O28  1  0.75774085  0.43237711  0.33174824  1
  O  O29  1  0.23182874  0.56629379  0.19638399  1
  O  O30  1  0.74831723  0.70428436  0.06763619  1
  O  O31  1  0.23444170  0.82905136  0.94082276  1
