# generated using pymatgen
data_LiSiBiO4
_symmetry_space_group_name_H-M   'P 1'
_cell_length_a   10.47433188
_cell_length_b   14.59061717
_cell_length_c   5.38139772
_cell_angle_alpha   90.00000000
_cell_angle_beta   90.00000000
_cell_angle_gamma   90.00000000
_symmetry_Int_Tables_number   1
_chemical_formula_structural   LiSiBiO4
_chemical_formula_sum   'Li8 Si8 Bi8 O32'
_cell_volume   822.42268947
_cell_formula_units_Z   8
loop_
 _symmetry_equiv_pos_site_id
 _symmetry_equiv_pos_as_xyz
  1  'x, y, z'
loop_
 _atom_site_type_symbol
 _atom_site_label
 _atom_site_symmetry_multiplicity
 _atom_site_fract_x
 _atom_site_fract_y
 _atom_site_fract_z
 _atom_site_occupancy
  Li  Li0  1  0.02310321  0.50607648  0.94794562  1
  Li  Li1  1  0.21954474  0.74709228  0.55744656  1
  Li  Li2  1  0.28045526  0.24709228  0.55744656  1
  Li  Li3  1  0.47689679  0.00607648  0.94794562  1
  Li  Li4  1  0.52310321  0.50607648  0.05205438  1
  Li  Li5  1  0.71954474  0.74709228  0.44255344  1
  Li  Li6  1  0.78045526  0.24709228  0.44255344  1
  Li  Li7  1  0.97689679  0.00607648  0.05205438  1
  Si  Si8  1  0.03538884  0.37907171  0.44598992  1
  Si  Si9  1  0.22647011  0.12350070  0.07573769  1
  Si  Si10  1  0.27352989  0.62350070  0.07573769  1
  Si  Si11  1  0.46461116  0.87907171  0.44598992  1
  Si  Si12  1  0.53538884  0.37907171  0.55401008  1
  Si  Si13  1  0.72647011  0.12350070  0.92426231  1
  Si  Si14  1  0.77352989  0.62350070  0.92426231  1
  Si  Si15  1  0.96461116  0.87907171  0.55401008  1
  Bi  Bi16  1  0.01691106  0.75885705  0.05744060  1
  Bi  Bi17  1  0.20353864  0.99679698  0.59380800  1
  Bi  Bi18  1  0.29646136  0.49679698  0.59380800  1
  Bi  Bi19  1  0.48308894  0.25885705  0.05744060  1
  Bi  Bi20  1  0.51691106  0.75885705  0.94255940  1
  Bi  Bi21  1  0.70353864  0.99679698  0.40619200  1
  Bi  Bi22  1  0.79646136  0.49679698  0.40619200  1
  Bi  Bi23  1  0.98308894  0.25885705  0.94255940  1
  O  O24  1  0.02669613  0.89985177  0.83266853  1
  O  O25  1  0.99050982  0.46685115  0.61360944  1
  O  O26  1  0.03805418  0.78228099  0.46304447  1
  O  O27  1  0.07953736  0.11702105  0.96139039  1
  O  O28  1  0.18977110  0.36495669  0.46606654  1
  O  O29  1  0.20073535  0.53250733  0.97206916  1
  O  O30  1  0.28963619  0.21958359  0.95467482  1
  O  O31  1  0.23577306  0.13115122  0.37922364  1
  O  O32  1  0.26422694  0.63115122  0.37922364  1
  O  O33  1  0.21036381  0.71958359  0.95467482  1
  O  O34  1  0.29926465  0.03250733  0.97206916  1
  O  O35  1  0.31022890  0.86495669  0.46606654  1
  O  O36  1  0.42046264  0.61702105  0.96139039  1
  O  O37  1  0.46194582  0.28228099  0.46304447  1
  O  O38  1  0.50949018  0.96685115  0.61360944  1
  O  O39  1  0.47330387  0.39985177  0.83266853  1
  O  O40  1  0.52669613  0.89985177  0.16733147  1
  O  O41  1  0.49050982  0.46685115  0.38639056  1
  O  O42  1  0.53805418  0.78228099  0.53695553  1
  O  O43  1  0.57953736  0.11702105  0.03860961  1
  O  O44  1  0.68977110  0.36495669  0.53393346  1
  O  O45  1  0.70073535  0.53250733  0.02793084  1
  O  O46  1  0.78963619  0.21958359  0.04532518  1
  O  O47  1  0.73577306  0.13115122  0.62077636  1
  O  O48  1  0.76422694  0.63115122  0.62077636  1
  O  O49  1  0.71036381  0.71958359  0.04532518  1
  O  O50  1  0.79926465  0.03250733  0.02793084  1
  O  O51  1  0.81022890  0.86495669  0.53393346  1
  O  O52  1  0.92046264  0.61702105  0.03860961  1
  O  O53  1  0.96194582  0.28228099  0.53695553  1
  O  O54  1  0.00949018  0.96685115  0.38639056  1
  O  O55  1  0.97330387  0.39985177  0.16733147  1
