# generated using pymatgen
data_Li9Mn2Co5O16
_symmetry_space_group_name_H-M   'P 1'
_cell_length_a   4.99331877
_cell_length_b   5.11529529
_cell_length_c   11.77969567
_cell_angle_alpha   105.75745038
_cell_angle_beta   90.81164275
_cell_angle_gamma   100.23423322
_symmetry_Int_Tables_number   1
_chemical_formula_structural   Li9Mn2Co5O16
_chemical_formula_sum   'Li9 Mn2 Co5 O16'
_cell_volume   284.34672365
_cell_formula_units_Z   1
loop_
 _symmetry_equiv_pos_site_id
 _symmetry_equiv_pos_as_xyz
  1  'x, y, z'
loop_
 _atom_site_type_symbol
 _atom_site_label
 _atom_site_symmetry_multiplicity
 _atom_site_fract_x
 _atom_site_fract_y
 _atom_site_fract_z
 _atom_site_occupancy
  Li  Li0  1  0.74027594  0.50456177  0.06855538  1
  Li  Li1  1  0.74268946  0.49945465  0.31928412  1
  Li  Li2  1  0.26764926  0.51654976  0.19747717  1
  Li  Li3  1  0.26514524  0.50448572  0.43552847  1
  Li  Li4  1  0.74771167  0.48118620  0.55550724  1
  Li  Li5  1  0.74893258  0.49295492  0.80473561  1
  Li  Li6  1  0.24583272  0.50484800  0.93937261  1
  Li  Li7  1  0.25255943  0.48694702  0.67711850  1
  Li  Li8  1  0.50434389  0.99715896  0.37237881  1
  Mn  Mn9  1  0.99575686  0.00568956  0.00340450  1
  Mn  Mn10  1  0.00264764  0.00143729  0.25246859  1
  Co  Co11  1  0.99478944  0.98673078  0.49199332  1
  Co  Co12  1  0.99887435  0.99897529  0.74595539  1
  Co  Co13  1  0.50357901  0.99064011  0.61874287  1
  Co  Co14  1  0.49323593  0.01024818  0.87606925  1
  Co  Co15  1  0.49773156  0.00402601  0.12677597  1
  O  O16  1  0.87417640  0.23370811  0.91414627  1
  O  O17  1  0.86719258  0.21712154  0.14935478  1
  O  O18  1  0.35763715  0.22754306  0.03386252  1
  O  O19  1  0.36609619  0.22170451  0.26678109  1
  O  O20  1  0.90359805  0.23004587  0.39311521  1
  O  O21  1  0.86405916  0.22809673  0.65169807  1
  O  O22  1  0.36188244  0.23790415  0.79094364  1
  O  O23  1  0.36882044  0.21450338  0.53783590  1
  O  O24  1  0.63882651  0.78025506  0.21159666  1
  O  O25  1  0.64777789  0.75174712  0.47261165  1
  O  O26  1  0.11073855  0.76603110  0.33497449  1
  O  O27  1  0.14200209  0.77000995  0.59995608  1
  O  O28  1  0.62910651  0.78175399  0.72379106  1
  O  O29  1  0.62721053  0.78844475  0.97681246  1
  O  O30  1  0.12699248  0.78743419  0.09794519  1
  O  O31  1  0.11212806  0.77780226  0.85920914  1
