# generated using pymatgen
data_Li9Mn2Co5O16
_symmetry_space_group_name_H-M   'P 1'
_cell_length_a   5.01537306
_cell_length_b   5.10004173
_cell_length_c   11.72762160
_cell_angle_alpha   89.24062494
_cell_angle_beta   88.95408018
_cell_angle_gamma   108.32858917
_symmetry_Int_Tables_number   1
_chemical_formula_structural   Li9Mn2Co5O16
_chemical_formula_sum   'Li9 Mn2 Co5 O16'
_cell_volume   284.65363054
_cell_formula_units_Z   1
loop_
 _symmetry_equiv_pos_site_id
 _symmetry_equiv_pos_as_xyz
  1  'x, y, z'
loop_
 _atom_site_type_symbol
 _atom_site_label
 _atom_site_symmetry_multiplicity
 _atom_site_fract_x
 _atom_site_fract_y
 _atom_site_fract_z
 _atom_site_occupancy
  Li  Li0  1  0.99879843  0.49827513  0.12867808  1
  Li  Li1  1  0.49655356  0.50104597  0.24690191  1
  Li  Li2  1  0.98459856  0.48994313  0.37062636  1
  Li  Li3  1  0.48430822  0.48810116  0.48946686  1
  Li  Li4  1  0.00746979  0.50432229  0.62076269  1
  Li  Li5  1  0.51238115  0.50800060  0.75369619  1
  Li  Li6  1  0.00375965  0.50369786  0.88207843  1
  Li  Li7  1  0.49863942  0.49792860  0.01023556  1
  Li  Li8  1  0.49151030  0.99454279  0.12054797  1
  Mn  Mn9  1  0.99817075  0.99898543  0.00287970  1
  Mn  Mn10  1  0.01429747  0.01474771  0.75191427  1
  Co  Co11  1  0.99343916  0.98349941  0.24659112  1
  Co  Co12  1  0.49527565  0.98959785  0.36361448  1
  Co  Co13  1  0.99696290  0.99388855  0.49898337  1
  Co  Co14  1  0.51103805  0.01306410  0.62255620  1
  Co  Co15  1  0.50702316  0.00573089  0.87651238  1
  O  O16  1  0.74651773  0.21786471  0.98975315  1
  O  O17  1  0.21291043  0.22747493  0.11573269  1
  O  O18  1  0.73550775  0.22126978  0.25652334  1
  O  O19  1  0.22211369  0.21660590  0.38027096  1
  O  O20  1  0.75255712  0.22537983  0.50662789  1
  O  O21  1  0.25314847  0.24887796  0.63712496  1
  O  O22  1  0.76190197  0.23099688  0.75538546  1
  O  O23  1  0.24597183  0.22165277  0.87442913  1
  O  O24  1  0.23247106  0.75692373  0.25331545  1
  O  O25  1  0.73800239  0.74903673  0.37745878  1
  O  O26  1  0.25473748  0.78413602  0.50280926  1
  O  O27  1  0.78966478  0.78763346  0.63398608  1
  O  O28  1  0.27215446  0.79641222  0.75254488  1
  O  O29  1  0.76734308  0.78918197  0.87298711  1
  O  O30  1  0.25028888  0.78007257  0.98883314  1
  O  O31  1  0.77048266  0.76110908  0.11616917  1
