# generated using pymatgen
data_Li9Mn2Co5O16
_symmetry_space_group_name_H-M   'P 1'
_cell_length_a   4.96259840
_cell_length_b   7.81875447
_cell_length_c   7.75719766
_cell_angle_alpha   81.81141618
_cell_angle_beta   102.59813397
_cell_angle_gamma   78.76514937
_symmetry_Int_Tables_number   1
_chemical_formula_structural   Li9Mn2Co5O16
_chemical_formula_sum   'Li9 Mn2 Co5 O16'
_cell_volume   282.68621292
_cell_formula_units_Z   1
loop_
 _symmetry_equiv_pos_site_id
 _symmetry_equiv_pos_as_xyz
  1  'x, y, z'
loop_
 _atom_site_type_symbol
 _atom_site_label
 _atom_site_symmetry_multiplicity
 _atom_site_fract_x
 _atom_site_fract_y
 _atom_site_fract_z
 _atom_site_occupancy
  Li  Li0  1  0.47796785  0.26285281  0.73873990  1
  Li  Li1  1  0.00017286  0.85928415  0.38386185  1
  Li  Li2  1  0.51516320  0.50038873  0.99328369  1
  Li  Li3  1  0.99765618  0.38494294  0.85546274  1
  Li  Li4  1  0.50273455  0.99336864  0.50546513  1
  Li  Li5  1  0.01560531  0.61329243  0.13421804  1
  Li  Li6  1  0.98928552  0.13567789  0.62044849  1
  Li  Li7  1  0.51263593  0.74048691  0.25988533  1
  Li  Li8  1  0.99705642  0.50187973  0.49635648  1
  Mn  Mn9  1  0.99699872  0.00596831  -0.00035693  1
  Mn  Mn10  1  -0.00027727  0.24987127  0.25500826  1
  Co  Co11  1  0.50084525  0.61714593  0.61683087  1
  Co  Co12  1  0.50115234  0.87804653  0.87770228  1
  Co  Co13  1  0.49717320  0.12753225  0.12611215  1
  Co  Co14  1  -0.00056132  0.74133719  0.74828470  1
  Co  Co15  1  0.49030226  0.37741110  0.37642803  1
  O  O16  1  0.75102717  0.99575072  0.77257590  1
  O  O17  1  0.26459749  0.61848447  0.37288182  1
  O  O18  1  0.75957327  0.23127108  0.01744695  1
  O  O19  1  0.23990692  0.12789182  0.89653083  1
  O  O20  1  0.74032384  0.74929584  0.51151315  1
  O  O21  1  0.26538718  0.35191790  0.14419131  1
  O  O22  1  0.25411091  0.86883773  0.65160161  1
  O  O23  1  0.76102362  0.46897913  0.24972716  1
  O  O24  1  0.26480327  0.51261723  0.74851747  1
  O  O25  1  0.75366317  0.12787117  0.35362406  1
  O  O26  1  0.24633261  0.78119196  0.99555795  1
  O  O27  1  0.77075213  0.63270114  0.87395495  1
  O  O28  1  0.24845644  0.24384180  0.47902797  1
  O  O29  1  0.73088400  0.90116675  0.10824954  1
  O  O30  1  0.72047323  0.37895258  0.60589242  1
  O  O31  1  0.23477376  0.01974288  0.23097291  1
