# generated using pymatgen
data_Li9Mn2Co5O16
_symmetry_space_group_name_H-M   'P 1'
_cell_length_a   5.87243234
_cell_length_b   5.81340081
_cell_length_c   8.29257550
_cell_angle_alpha   90.16924137
_cell_angle_beta   88.97652117
_cell_angle_gamma   89.36039847
_symmetry_Int_Tables_number   1
_chemical_formula_structural   Li9Mn2Co5O16
_chemical_formula_sum   'Li9 Mn2 Co5 O16'
_cell_volume   283.03439123
_cell_formula_units_Z   1
loop_
 _symmetry_equiv_pos_site_id
 _symmetry_equiv_pos_as_xyz
  1  'x, y, z'
loop_
 _atom_site_type_symbol
 _atom_site_label
 _atom_site_symmetry_multiplicity
 _atom_site_fract_x
 _atom_site_fract_y
 _atom_site_fract_z
 _atom_site_occupancy
  Li  Li0  1  0.49901251  0.99667278  0.99314424  1
  Li  Li1  1  0.25242423  0.25434085  0.26079195  1
  Li  Li2  1  0.74478153  0.25849828  0.73856495  1
  Li  Li3  1  0.49619279  0.50140039  0.00114090  1
  Li  Li4  1  -0.00288301  0.50196632  0.50233973  1
  Li  Li5  1  0.74917778  0.74519105  0.73761510  1
  Li  Li6  1  0.25580076  0.74327701  0.26124150  1
  Li  Li7  1  0.00197003  -0.00068309  0.49997452  1
  Li  Li8  1  0.50000330  0.50445590  0.49912329  1
  Mn  Mn9  1  0.00334601  0.99732610  0.00257675  1
  Mn  Mn10  1  0.74470954  0.25442918  0.25694085  1
  Co  Co11  1  0.26015338  0.74128409  0.73728936  1
  Co  Co12  1  0.00072464  0.49928382  0.99567919  1
  Co  Co13  1  0.74325663  0.74609470  0.25936567  1
  Co  Co14  1  0.50240606  0.00152569  0.49894783  1
  Co  Co15  1  0.25363326  0.25462954  0.73467873  1
  O  O16  1  0.23051275  0.75752011  0.00560368  1
  O  O17  1  0.98810882  0.01550064  0.23653935  1
  O  O18  1  0.49573326  -0.00112200  0.73278491  1
  O  O19  1  0.22787364  0.23747530  0.98889698  1
  O  O20  1  0.73783079  0.23794822  0.48409790  1
  O  O21  1  0.48032776  0.50610466  0.76019408  1
  O  O22  1  0.96781996  0.49537127  0.25492475  1
  O  O23  1  0.73606841  0.76748748  0.48003023  1
  O  O24  1  0.76743163  0.23742121  0.01347820  1
  O  O25  1  0.51529437  0.48501476  0.24458432  1
  O  O26  1  0.00712750  0.50173273  0.74762653  1
  O  O27  1  0.77216403  0.75712982  0.02175250  1
  O  O28  1  0.26854663  0.77186005  0.50496597  1
  O  O29  1  0.01414895  0.99117920  0.76952440  1
  O  O30  1  0.52274209  0.00422824  0.26260578  1
  O  O31  1  0.26355997  0.23545571  0.51297587  1
