# generated using pymatgen
data_Li9Mn2Co5O16
_symmetry_space_group_name_H-M   'P 1'
_cell_length_a   4.99544975
_cell_length_b   5.87316564
_cell_length_c   10.22400443
_cell_angle_alpha   89.65760187
_cell_angle_beta   98.18897553
_cell_angle_gamma   106.55621820
_symmetry_Int_Tables_number   1
_chemical_formula_structural   Li9Mn2Co5O16
_chemical_formula_sum   'Li9 Mn2 Co5 O16'
_cell_volume   284.40566344
_cell_formula_units_Z   1
loop_
 _symmetry_equiv_pos_site_id
 _symmetry_equiv_pos_as_xyz
  1  'x, y, z'
loop_
 _atom_site_type_symbol
 _atom_site_label
 _atom_site_symmetry_multiplicity
 _atom_site_fract_x
 _atom_site_fract_y
 _atom_site_fract_z
 _atom_site_occupancy
  Li  Li0  1  0.00625923  0.25303813  0.25687590  1
  Li  Li1  1  0.49156312  0.87137437  0.61809036  1
  Li  Li2  1  0.98560955  0.99643836  0.49667884  1
  Li  Li3  1  0.49596644  0.62161409  0.87061178  1
  Li  Li4  1  0.99605471  0.74882471  0.73984950  1
  Li  Li5  1  0.50243420  0.37953513  0.13478162  1
  Li  Li6  1  0.00637343  0.49701556  0.00610536  1
  Li  Li7  1  0.50741800  0.12771427  0.37560542  1
  Li  Li8  1  0.49384624  0.62470627  0.37176595  1
  Mn  Mn9  1  0.00693285  0.00285402  0.00409767  1
  Mn  Mn10  1  -0.00017863  0.74538524  0.25402835  1
  Co  Co11  1  0.99796650  0.25192725  0.74195649  1
  Co  Co12  1  0.50919569  0.87553107  0.12913469  1
  Co  Co13  1  -0.00005108  0.49871671  0.49269387  1
  Co  Co14  1  0.50335533  0.12481644  0.87678090  1
  Co  Co15  1  0.49686692  0.38227081  0.61464347  1
  O  O16  1  0.76561546  0.16334850  0.06650472  1
  O  O17  1  0.21666058  0.80682178  0.42309370  1
  O  O18  1  0.74803454  0.92221308  0.29681006  1
  O  O19  1  0.23705905  0.55622763  0.68344020  1
  O  O20  1  0.74055800  0.66439826  0.56586327  1
  O  O21  1  0.25085404  0.28682639  0.93818522  1
  O  O22  1  0.74653495  0.40898928  0.81568660  1
  O  O23  1  0.24684632  0.03980458  0.17832945  1
  O  O24  1  0.23642344  0.32089971  0.44311986  1
  O  O25  1  0.76130353  0.95245079  0.83309411  1
  O  O26  1  0.24336328  0.08163023  0.69002805  1
  O  O27  1  0.76837954  0.71415673  0.07158750  1
  O  O28  1  0.27163604  0.84137532  0.95153609  1
  O  O29  1  0.76943813  0.45569854  0.30853756  1
  O  O30  1  0.25176241  0.59125558  0.18476217  1
  O  O31  1  0.74591818  0.19213818  0.56572826  1
