# generated using pymatgen
data_Mn3Fe2Sn(PO4)6
_symmetry_space_group_name_H-M   'P 1'
_cell_length_a   8.60629826
_cell_length_b   8.60629764
_cell_length_c   8.60629834
_cell_angle_alpha   60.59741952
_cell_angle_beta   60.59742235
_cell_angle_gamma   60.59741962
_symmetry_Int_Tables_number   1
_chemical_formula_structural   Mn3Fe2Sn(PO4)6
_chemical_formula_sum   'Mn3 Fe2 Sn1 P6 O24'
_cell_volume   456.83031457
_cell_formula_units_Z   1
loop_
 _symmetry_equiv_pos_site_id
 _symmetry_equiv_pos_as_xyz
  1  'x, y, z'
loop_
 _atom_site_type_symbol
 _atom_site_label
 _atom_site_symmetry_multiplicity
 _atom_site_fract_x
 _atom_site_fract_y
 _atom_site_fract_z
 _atom_site_occupancy
  Mn  Mn0  1  0.14387156  0.14387156  0.14387156  1
  Mn  Mn1  1  0.35651698  0.35651698  0.35651698  1
  Mn  Mn2  1  0.64291011  0.64291011  0.64291011  1
  Fe  Fe3  1  0.00363274  0.00363274  0.00363274  1
  Fe  Fe4  1  0.50041429  0.50041429  0.50041429  1
  Sn  Sn5  1  0.85683939  0.85683939  0.85683939  1
  P  P6  1  0.25363018  0.53963295  0.95875709  1
  P  P7  1  0.53963295  0.95875709  0.25363018  1
  P  P8  1  0.95875709  0.25363018  0.53963295  1
  P  P9  1  0.04562544  0.74708689  0.45130700  1
  P  P10  1  0.45130700  0.04562544  0.74708689  1
  P  P11  1  0.74708689  0.45130700  0.04562544  1
  O  O12  1  0.11695773  0.31342498  0.50554683  1
  O  O13  1  0.31342498  0.50554683  0.11695773  1
  O  O14  1  0.06165672  0.90894905  0.25822195  1
  O  O15  1  0.50554683  0.11695773  0.31342498  1
  O  O16  1  0.01721620  0.80694581  0.60793569  1
  O  O17  1  0.24195618  0.58426011  0.43899536  1
  O  O18  1  0.25822195  0.06165672  0.90894905  1
  O  O19  1  0.43899536  0.24195618  0.58426011  1
  O  O20  1  0.19107885  0.38617497  0.98925083  1
  O  O21  1  0.58426011  0.43899536  0.24195618  1
  O  O22  1  0.09160437  0.73853389  0.94500898  1
  O  O23  1  0.38617497  0.98925083  0.19107885  1
  O  O24  1  0.60793569  0.01721620  0.80694581  1
  O  O25  1  0.90894905  0.25822195  0.06165672  1
  O  O26  1  0.41278320  0.55647421  0.76207732  1
  O  O27  1  0.80694581  0.60793569  0.01721620  1
  O  O28  1  0.55647421  0.76207732  0.41278320  1
  O  O29  1  0.73853389  0.94500898  0.09160437  1
  O  O30  1  0.76207732  0.41278320  0.55647421  1
  O  O31  1  0.98925083  0.19107885  0.38617497  1
  O  O32  1  0.48880074  0.88516668  0.69075374  1
  O  O33  1  0.94500898  0.09160437  0.73853389  1
  O  O34  1  0.69075374  0.48880074  0.88516668  1
  O  O35  1  0.88516668  0.69075374  0.48880074  1
