# generated using pymatgen
data_Mn3CrFe2(PO4)6
_symmetry_space_group_name_H-M   'P 1'
_cell_length_a   8.48920547
_cell_length_b   8.48920599
_cell_length_c   8.48920616
_cell_angle_alpha   61.01302440
_cell_angle_beta   61.01302733
_cell_angle_gamma   61.01302942
_symmetry_Int_Tables_number   1
_chemical_formula_structural   Mn3CrFe2(PO4)6
_chemical_formula_sum   'Mn3 Cr1 Fe2 P6 O24'
_cell_volume   442.47000794
_cell_formula_units_Z   1
loop_
 _symmetry_equiv_pos_site_id
 _symmetry_equiv_pos_as_xyz
  1  'x, y, z'
loop_
 _atom_site_type_symbol
 _atom_site_label
 _atom_site_symmetry_multiplicity
 _atom_site_fract_x
 _atom_site_fract_y
 _atom_site_fract_z
 _atom_site_occupancy
  Mn  Mn0  1  0.14527676  0.14527676  0.14527676  1
  Mn  Mn1  1  0.35806884  0.35806884  0.35806884  1
  Mn  Mn2  1  0.64233198  0.64233198  0.64233198  1
  Cr  Cr3  1  0.85770085  0.85770085  0.85770085  1
  Fe  Fe4  1  0.00151516  0.00151516  0.00151516  1
  Fe  Fe5  1  0.50099836  0.50099836  0.50099836  1
  P  P6  1  0.04020470  0.74812378  0.45467275  1
  P  P7  1  0.45467275  0.04020470  0.74812378  1
  P  P8  1  0.74812378  0.45467275  0.04020470  1
  P  P9  1  0.24997317  0.54696344  0.95908704  1
  P  P10  1  0.54696344  0.95908704  0.24997317  1
  P  P11  1  0.95908704  0.24997317  0.54696344  1
  O  O12  1  0.11804704  0.31511197  0.50754484  1
  O  O13  1  0.31511197  0.50754484  0.11804704  1
  O  O14  1  0.05896538  0.90266159  0.25077757  1
  O  O15  1  0.50754484  0.11804704  0.31511197  1
  O  O16  1  0.00550629  0.81571490  0.60856384  1
  O  O17  1  0.24039601  0.58600161  0.44235212  1
  O  O18  1  0.25077757  0.05896538  0.90266159  1
  O  O19  1  0.44235212  0.24039601  0.58600161  1
  O  O20  1  0.18296153  0.39678229  0.98779337  1
  O  O21  1  0.58600161  0.44235212  0.24039601  1
  O  O22  1  0.08954100  0.74964336  0.94536525  1
  O  O23  1  0.39678229  0.98779337  0.18296153  1
  O  O24  1  0.60856384  0.00550629  0.81571490  1
  O  O25  1  0.90266159  0.25077757  0.05896538  1
  O  O26  1  0.41025845  0.56399317  0.75949871  1
  O  O27  1  0.81571490  0.60856384  0.00550629  1
  O  O28  1  0.56399317  0.75949871  0.41025845  1
  O  O29  1  0.74964336  0.94536525  0.08954100  1
  O  O30  1  0.75949871  0.41025845  0.56399317  1
  O  O31  1  0.98779337  0.18296153  0.39678229  1
  O  O32  1  0.49001299  0.88241296  0.68517894  1
  O  O33  1  0.94536525  0.08954100  0.74964336  1
  O  O34  1  0.68517894  0.49001299  0.88241296  1
  O  O35  1  0.88241296  0.68517894  0.49001299  1
