# generated using pymatgen
data_Fe3Se3O10
_symmetry_space_group_name_H-M   'P 1'
_cell_length_a   8.33301081
_cell_length_b   8.33236024
_cell_length_c   8.61283166
_cell_angle_alpha   70.05119521
_cell_angle_beta   62.51336348
_cell_angle_gamma   68.91737367
_symmetry_Int_Tables_number   1
_chemical_formula_structural   Fe3Se3O10
_chemical_formula_sum   'Fe6 Se6 O20'
_cell_volume   483.79388234
_cell_formula_units_Z   2
loop_
 _symmetry_equiv_pos_site_id
 _symmetry_equiv_pos_as_xyz
  1  'x, y, z'
loop_
 _atom_site_type_symbol
 _atom_site_label
 _atom_site_symmetry_multiplicity
 _atom_site_fract_x
 _atom_site_fract_y
 _atom_site_fract_z
 _atom_site_occupancy
  Fe  Fe0  1  0.66270778  0.52907639  0.29681774  1
  Fe  Fe1  1  0.33729222  0.47092361  0.70318226  1
  Fe  Fe2  1  0.72686900  0.36205789  0.89857139  1
  Fe  Fe3  1  0.27313100  0.63794211  0.10142861  1
  Fe  Fe4  1  0.50000000  0.00000000  -0.00000000  1
  Fe  Fe5  1  0.00000000  0.50000000  0.50000000  1
  Se  Se6  1  0.56683605  0.73061462  0.72957454  1
  Se  Se7  1  0.43316395  0.26938538  0.27042546  1
  Se  Se8  1  0.82198751  0.82903817  0.19650944  1
  Se  Se9  1  0.17801249  0.17096183  0.80349056  1
  Se  Se10  1  0.79384530  0.17650382  0.55640326  1
  Se  Se11  1  0.20615470  0.82349618  0.44359674  1
  O  O12  1  0.44927662  0.80567213  0.92819525  1
  O  O13  1  0.55072338  0.19432787  0.07180475  1
  O  O14  1  0.59242980  0.34604407  0.53058449  1
  O  O15  1  0.40757020  0.65395593  0.46941551  1
  O  O16  1  0.87022361  0.28273407  0.64119944  1
  O  O17  1  0.12977639  0.71726593  0.35880056  1
  O  O18  1  0.78326430  0.61191122  0.73089722  1
  O  O19  1  0.21673570  0.38808878  0.26910278  1
  O  O20  1  0.79811620  0.64315418  0.37704741  1
  O  O21  1  0.20188380  0.35684582  0.62295259  1
  O  O22  1  0.69242269  0.77356996  0.11864389  1
  O  O23  1  0.30757731  0.22643004  0.88135611  1
  O  O24  1  0.04438900  0.78101171  0.04877034  1
  O  O25  1  0.95561100  0.21898829  0.95122966  1
  O  O26  1  0.86627976  0.39139431  0.20997919  1
  O  O27  1  0.13372024  0.60860569  0.79002081  1
  O  O28  1  0.69942315  0.02548511  0.73557185  1
  O  O29  1  0.30057685  0.97451489  0.26442815  1
  O  O30  1  0.46931547  0.54373793  0.82428667  1
  O  O31  1  0.53068453  0.45626207  0.17571333  1
