# generated using pymatgen
data_Li9Mn2Co5O16
_symmetry_space_group_name_H-M   'P 1'
_cell_length_a   5.14494985
_cell_length_b   11.56063930
_cell_length_c   5.07929427
_cell_angle_alpha   90.00000000
_cell_angle_beta   69.43507450
_cell_angle_gamma   90.00000000
_symmetry_Int_Tables_number   1
_chemical_formula_structural   Li9Mn2Co5O16
_chemical_formula_sum   'Li9 Mn2 Co5 O16'
_cell_volume   282.85879086
_cell_formula_units_Z   1
loop_
 _symmetry_equiv_pos_site_id
 _symmetry_equiv_pos_as_xyz
  1  'x, y, z'
loop_
 _atom_site_type_symbol
 _atom_site_label
 _atom_site_symmetry_multiplicity
 _atom_site_fract_x
 _atom_site_fract_y
 _atom_site_fract_z
 _atom_site_occupancy
  Li  Li0  1  0.50000000  0.12330951  0.00000000  1
  Li  Li1  1  0.50000000  0.24646018  0.50000000  1
  Li  Li2  1  0.50000000  0.37354336  0.00000000  1
  Li  Li3  1  0.50000000  0.49786167  0.50000000  1
  Li  Li4  1  0.50000000  0.62733038  0.00000000  1
  Li  Li5  1  0.50000000  0.75906852  0.50000000  1
  Li  Li6  1  0.50000000  0.87342502  0.00000000  1
  Li  Li7  1  0.50000000  0.99680783  0.50000000  1
  Li  Li8  1  -0.00000000  0.87547829  0.50000000  1
  Mn  Mn9  1  -0.00000000  0.99699002  0.00000000  1
  Mn  Mn10  1  -0.00000000  0.63124251  0.50000000  1
  Co  Co11  1  -0.00000000  0.12171843  0.50000000  1
  Co  Co12  1  -0.00000000  0.24548233  0.00000000  1
  Co  Co13  1  -0.00000000  0.37390633  0.50000000  1
  Co  Co14  1  -0.00000000  0.49921839  0.00000000  1
  Co  Co15  1  -0.00000000  0.75240021  0.00000000  1
  O  O16  1  0.23736921  0.12085443  0.77331577  1
  O  O17  1  0.22364959  0.24765752  0.26718696  1
  O  O18  1  0.23397665  0.37600890  0.76254196  1
  O  O19  1  0.22876928  0.50365174  0.26435899  1
  O  O20  1  0.21778788  0.62901759  0.74839361  1
  O  O21  1  0.22150624  0.74229494  0.24655515  1
  O  O22  1  0.23054575  0.87590022  0.78157049  1
  O  O23  1  0.21402894  0.00749317  0.25037763  1
  O  O24  1  0.76263079  0.12085443  0.22668423  1
  O  O25  1  0.77635041  0.24765752  0.73281304  1
  O  O26  1  0.76602335  0.37600890  0.23745804  1
  O  O27  1  0.77123072  0.50365174  0.73564101  1
  O  O28  1  0.78221212  0.62901759  0.25160639  1
  O  O29  1  0.77849376  0.74229494  0.75344485  1
  O  O30  1  0.76945425  0.87590022  0.21842951  1
  O  O31  1  0.78597106  0.00749317  0.74962237  1
