# generated using pymatgen
data_Mn3FeO8
_symmetry_space_group_name_H-M   'P 1'
_cell_length_a   10.05562895
_cell_length_b   10.05530668
_cell_length_c   14.18962235
_cell_angle_alpha   19.78467909
_cell_angle_beta   19.78644342
_cell_angle_gamma   34.09636559
_symmetry_Int_Tables_number   1
_chemical_formula_structural   Mn3FeO8
_chemical_formula_sum   'Mn3 Fe1 O8'
_cell_volume   142.34749229
_cell_formula_units_Z   1
loop_
 _symmetry_equiv_pos_site_id
 _symmetry_equiv_pos_as_xyz
  1  'x, y, z'
loop_
 _atom_site_type_symbol
 _atom_site_label
 _atom_site_symmetry_multiplicity
 _atom_site_fract_x
 _atom_site_fract_y
 _atom_site_fract_z
 _atom_site_occupancy
  Mn  Mn0  1  -0.00004984  0.49994769  -0.00001258  1
  Mn  Mn1  1  0.50007957  0.00004696  -0.00018916  1
  Mn  Mn2  1  0.49993890  0.49998991  0.00017204  1
  Fe  Fe3  1  0.00011217  0.00017221  -0.00015684  1
  O  O4  1  0.00002721  0.00014870  0.26552557  1
  O  O5  1  0.00068003  0.48931241  0.27229219  1
  O  O6  1  0.48983058  0.00062252  0.27209682  1
  O  O7  1  0.99928293  0.99930022  0.73531170  1
  O  O8  1  0.51114015  0.51112220  0.25069956  1
  O  O9  1  -0.00005632  0.51098386  0.72713106  1
  O  O10  1  0.51026256  0.99976288  0.72769756  1
  O  O11  1  0.48875306  0.48859044  0.74943107  1
