# generated using pymatgen
data_Li4Nb3V3(FeO8)2
_symmetry_space_group_name_H-M   'P 1'
_cell_length_a   6.08471458
_cell_length_b   6.14014151
_cell_length_c   9.89487317
_cell_angle_alpha   89.99839113
_cell_angle_beta   89.37163346
_cell_angle_gamma   120.30338924
_symmetry_Int_Tables_number   1
_chemical_formula_structural   Li4Nb3V3(FeO8)2
_chemical_formula_sum   'Li4 Nb3 V3 Fe2 O16'
_cell_volume   319.14532427
_cell_formula_units_Z   1
loop_
 _symmetry_equiv_pos_site_id
 _symmetry_equiv_pos_as_xyz
  1  'x, y, z'
loop_
 _atom_site_type_symbol
 _atom_site_label
 _atom_site_symmetry_multiplicity
 _atom_site_fract_x
 _atom_site_fract_y
 _atom_site_fract_z
 _atom_site_occupancy
  Li  Li0  1  0.33629091  0.66815724  0.90101761  1
  Li  Li1  1  0.01457530  0.00731072  0.99903504  1
  Li  Li2  1  0.02488495  0.01245079  0.49408929  1
  Li  Li3  1  0.66894179  0.33448801  0.38558162  1
  Nb  Nb4  1  0.66096661  0.83051243  0.21426120  1
  Nb  Nb5  1  0.82090097  0.65736110  0.71339997  1
  Nb  Nb6  1  0.82085909  0.16350193  0.71336537  1
  V  V7  1  0.16924767  0.83308227  0.21529210  1
  V  V8  1  0.16926291  0.33620202  0.21529983  1
  V  V9  1  0.34614920  0.17307940  0.70972340  1
  Fe  Fe10  1  0.30334418  0.65168291  0.47977108  1
  Fe  Fe11  1  0.65277967  0.32640981  0.00308596  1
  O  O12  1  0.15163963  0.82533693  0.59730158  1
  O  O13  1  0.03721691  0.51860557  0.33712191  1
  O  O14  1  0.34423468  0.67209088  0.10195549  1
  O  O15  1  0.99121067  0.99564562  0.31607398  1
  O  O16  1  0.99455127  0.99727963  0.81196533  1
  O  O17  1  0.15162728  0.32632063  0.59730745  1
  O  O18  1  0.48190678  0.95819080  0.34301841  1
  O  O19  1  0.48193273  0.52377666  0.34305417  1
  O  O20  1  0.31765867  0.15884712  0.11022723  1
  O  O21  1  0.67666095  0.83834607  0.59978420  1
  O  O22  1  0.52913118  0.49843401  0.83573531  1
  O  O23  1  0.52916488  0.03075176  0.83575659  1
  O  O24  1  0.68332736  0.34167841  0.59566672  1
  O  O25  1  0.83661389  0.68354228  0.10583435  1
  O  O26  1  0.96832130  0.48416519  0.82731335  1
  O  O27  1  0.83659559  0.15304778  0.10579946  1
