# generated using pymatgen
data_Li9Fe4(PO5)4
_symmetry_space_group_name_H-M   'P 1'
_cell_length_a   4.91327384
_cell_length_b   5.64028020
_cell_length_c   15.97465368
_cell_angle_alpha   89.64614092
_cell_angle_beta   89.95973089
_cell_angle_gamma   89.74631504
_symmetry_Int_Tables_number   1
_chemical_formula_structural   Li9Fe4(PO5)4
_chemical_formula_sum   'Li9 Fe4 P4 O20'
_cell_volume   442.68057185
_cell_formula_units_Z   1
loop_
 _symmetry_equiv_pos_site_id
 _symmetry_equiv_pos_as_xyz
  1  'x, y, z'
loop_
 _atom_site_type_symbol
 _atom_site_label
 _atom_site_symmetry_multiplicity
 _atom_site_fract_x
 _atom_site_fract_y
 _atom_site_fract_z
 _atom_site_occupancy
  Li  Li0  1  0.99615433  0.64583902  0.59562347  1
  Li  Li1  1  0.00745881  0.15342244  0.90132801  1
  Li  Li2  1  0.00158190  0.17125398  0.50068628  1
  Li  Li3  1  0.50370138  0.32097493  0.79944477  1
  Li  Li4  1  0.50332419  0.33174242  0.41098092  1
  Li  Li5  1  0.49696505  0.83791184  0.09340843  1
  Li  Li6  1  0.50340019  0.34204615  0.98841569  1
  Li  Li7  1  0.49510363  0.83901371  0.51146394  1
  Li  Li8  1  0.00018702  0.68151314  0.19561547  1
  Fe  Fe9  1  0.02231205  0.15029026  0.70185692  1
  Fe  Fe10  1  0.00856847  0.66137553  0.79635114  1
  Fe  Fe11  1  0.50803433  0.33952835  0.20077310  1
  Fe  Fe12  1  0.50505398  0.84033557  0.30082326  1
  P  P13  1  0.01983645  0.17622840  0.09947361  1
  P  P14  1  0.00995673  0.66542120  0.40390951  1
  P  P15  1  0.50590666  0.33255775  0.59429676  1
  P  P16  1  0.49824909  0.82705026  0.90435756  1
  O  O17  1  0.12674128  0.35715869  0.16807792  1
  O  O18  1  0.12467900  0.76116199  0.31717080  1
  O  O19  1  0.10485546  0.34224059  0.80332520  1
  O  O20  1  0.05218435  0.80819606  0.69494408  1
  O  O21  1  0.09738563  0.40854009  0.41521028  1
  O  O22  1  0.12039183  0.92919301  0.12459307  1
  O  O23  1  0.11095666  0.25870422  0.01351082  1
  O  O24  1  0.10046476  0.82889362  0.47538005  1
  O  O25  1  0.18522621  0.32624952  0.59614361  1
  O  O26  1  0.18476205  0.84191048  0.88508463  1
  O  O27  1  0.60955273  0.24141271  0.68059585  1
  O  O28  1  0.62472308  0.67083868  0.83283846  1
  O  O29  1  0.55337858  0.16688201  0.29944293  1
  O  O30  1  0.60113310  0.66550580  0.20423308  1
  O  O31  1  0.60929071  0.58309358  0.57544793  1
  O  O32  1  0.60885903  0.08482053  0.90231852  1
  O  O33  1  0.60021293  0.16750263  0.52052239  1
  O  O34  1  0.54655583  0.69766630  0.98805563  1
  O  O35  1  0.69479404  0.18869140  0.10653583  1
  O  O36  1  0.68716849  0.68311412  0.39423408  1
