# generated using pymatgen
data_LiMn2(BO3)2
_symmetry_space_group_name_H-M   'P 1'
_cell_length_a   15.78013208
_cell_length_b   5.30893009
_cell_length_c   6.13714597
_cell_angle_alpha   86.99428197
_cell_angle_beta   103.52638849
_cell_angle_gamma   88.63191603
_symmetry_Int_Tables_number   1
_chemical_formula_structural   LiMn2(BO3)2
_chemical_formula_sum   'Li4 Mn8 B8 O24'
_cell_volume   498.84843356
_cell_formula_units_Z   4
loop_
 _symmetry_equiv_pos_site_id
 _symmetry_equiv_pos_as_xyz
  1  'x, y, z'
loop_
 _atom_site_type_symbol
 _atom_site_label
 _atom_site_symmetry_multiplicity
 _atom_site_fract_x
 _atom_site_fract_y
 _atom_site_fract_z
 _atom_site_occupancy
  Li  Li0  1  0.59925600  0.41044142  0.74151181  1
  Li  Li1  1  0.84910927  0.90618190  0.49098414  1
  Li  Li2  1  0.34967934  0.90900067  0.98823368  1
  Li  Li3  1  0.14818316  0.09654443  0.51563593  1
  Mn  Mn4  1  0.84033885  0.09352059  0.91283713  1
  Mn  Mn5  1  0.90899114  0.41045109  0.34258617  1
  Mn  Mn6  1  0.41000073  0.40989993  0.84312997  1
  Mn  Mn7  1  0.65952729  0.91080655  0.59614180  1
  Mn  Mn8  1  0.33985293  0.08843799  0.41130602  1
  Mn  Mn9  1  0.59024203  0.59145547  0.16577797  1
  Mn  Mn10  1  0.08636428  0.58546287  0.65921953  1
  Mn  Mn11  1  0.15745656  0.90785974  0.09381160  1
  B  B12  1  0.75300801  0.58016118  0.98862013  1
  B  B13  1  0.74803415  0.42356523  0.50676637  1
  B  B14  1  0.99640092  0.92624338  0.27220495  1
  B  B15  1  0.49821477  0.92362591  0.75502658  1
  B  B16  1  0.50307661  0.07764529  0.23818114  1
  B  B17  1  0.00172586  0.07305638  0.72998846  1
  B  B18  1  0.25174661  0.57666556  0.50572045  1
  B  B19  1  0.24810888  0.42167801  0.99662927  1
  O  O20  1  0.99010894  0.32223376  0.63658562  1
  O  O21  1  0.83874205  0.47225372  0.03856305  1
  O  O22  1  0.93555398  0.94070163  0.77297253  1
  O  O23  1  0.91417405  0.04661413  0.25883033  1
  O  O24  1  0.75927734  0.16525775  0.56139690  1
  O  O25  1  0.74226920  0.82582751  0.88520228  1
  O  O26  1  0.56348262  0.06849568  0.70805081  1
  O  O27  1  0.81255912  0.56753913  0.45634799  1
  O  O28  1  0.41755907  0.04308104  0.75912711  1
  O  O29  1  0.66763290  0.54258468  0.51454059  1
  O  O30  1  0.50915328  0.66584798  0.80922036  1
  O  O31  1  0.31652032  0.56451224  0.96095950  1
  O  O32  1  0.68470245  0.44723078  0.02018734  1
  O  O33  1  0.49286772  0.32215317  0.13299393  1
  O  O34  1  0.33662018  0.46625559  0.53735891  1
  O  O35  1  0.58843953  0.96751051  0.29193012  1
  O  O36  1  0.18641325  0.43099126  0.54330316  1
  O  O37  1  0.43440548  0.94498139  0.26868354  1
  O  O38  1  0.25965063  0.16475596  0.06159122  1
  O  O39  1  0.23695486  0.83170360  0.42497514  1
  O  O40  1  0.08701885  0.96374582  0.75860355  1
  O  O41  1  0.06421735  0.05822704  0.22998376  1
  O  O42  1  0.16749595  0.54826426  0.97726399  1
  O  O43  1  0.00497351  0.67431577  0.34987519  1
