# generated using pymatgen
data_Li4V3O8
_symmetry_space_group_name_H-M   'P 1'
_cell_length_a   10.80568622
_cell_length_b   10.80644526
_cell_length_c   10.80644541
_cell_angle_alpha   31.39910998
_cell_angle_beta   31.39800174
_cell_angle_gamma   31.39800055
_symmetry_Int_Tables_number   1
_chemical_formula_structural   Li4V3O8
_chemical_formula_sum   'Li8 V6 O16'
_cell_volume   304.02955481
_cell_formula_units_Z   2
loop_
 _symmetry_equiv_pos_site_id
 _symmetry_equiv_pos_as_xyz
  1  'x, y, z'
loop_
 _atom_site_type_symbol
 _atom_site_label
 _atom_site_symmetry_multiplicity
 _atom_site_fract_x
 _atom_site_fract_y
 _atom_site_fract_z
 _atom_site_occupancy
  Li  Li0  1  -0.00000000  0.00000000  -0.00000000  1
  Li  Li1  1  0.17904272  0.17908762  0.17908762  1
  Li  Li2  1  0.24955543  0.24954216  0.24954216  1
  Li  Li3  1  0.32045794  0.32044057  0.32044057  1
  Li  Li4  1  0.50000000  0.50000000  0.50000000  1
  Li  Li5  1  0.67954206  0.67955943  0.67955943  1
  Li  Li6  1  0.75044457  0.75045784  0.75045784  1
  Li  Li7  1  0.82095728  0.82091238  0.82091238  1
  V  V8  1  0.25037531  0.74946329  0.25036554  1
  V  V9  1  0.25037531  0.25036554  0.74946329  1
  V  V10  1  0.74947057  0.25037076  0.25037076  1
  V  V11  1  0.25052943  0.74962924  0.74962924  1
  V  V12  1  0.74962469  0.74963446  0.25053671  1
  V  V13  1  0.74962469  0.25053671  0.74963446  1
  O  O14  1  0.11786565  0.11786318  0.11786318  1
  O  O15  1  0.10982965  0.63185612  0.10985980  1
  O  O16  1  0.10982965  0.10985980  0.63185612  1
  O  O17  1  0.63183714  0.10985974  0.10985974  1
  O  O18  1  0.38205210  0.38206639  0.38206639  1
  O  O19  1  0.13250112  0.60984392  0.60984392  1
  O  O20  1  0.60980606  0.60984213  0.13252778  1
  O  O21  1  0.60980606  0.13252778  0.60984213  1
  O  O22  1  0.39019394  0.86747222  0.39015787  1
  O  O23  1  0.39019394  0.39015787  0.86747222  1
  O  O24  1  0.86749888  0.39015608  0.39015608  1
  O  O25  1  0.61794790  0.61793361  0.61793361  1
  O  O26  1  0.36816286  0.89014026  0.89014026  1
  O  O27  1  0.89017035  0.89014020  0.36814388  1
  O  O28  1  0.89017035  0.36814388  0.89014020  1
  O  O29  1  0.88213435  0.88213682  0.88213682  1
