# generated using pymatgen
data_Li4Fe3Ni2Sb3O16
_symmetry_space_group_name_H-M   'P 1'
_cell_length_a   6.11408938
_cell_length_b   6.10684326
_cell_length_c   9.81698553
_cell_angle_alpha   90.00021801
_cell_angle_beta   90.55843599
_cell_angle_gamma   119.96110330
_symmetry_Int_Tables_number   1
_chemical_formula_structural   Li4Fe3Ni2Sb3O16
_chemical_formula_sum   'Li4 Fe3 Ni2 Sb3 O16'
_cell_volume   317.54109138
_cell_formula_units_Z   1
loop_
 _symmetry_equiv_pos_site_id
 _symmetry_equiv_pos_as_xyz
  1  'x, y, z'
loop_
 _atom_site_type_symbol
 _atom_site_label
 _atom_site_symmetry_multiplicity
 _atom_site_fract_x
 _atom_site_fract_y
 _atom_site_fract_z
 _atom_site_occupancy
  Li  Li0  1  0.32454054  0.66227973  0.87296844  1
  Li  Li1  1  0.97970837  0.98986320  0.99091192  1
  Li  Li2  1  0.98390987  0.99196438  0.50691183  1
  Li  Li3  1  0.65656322  0.32829790  0.39927238  1
  Fe  Fe4  1  0.66389553  0.83196349  0.21744543  1
  Fe  Fe5  1  0.83281066  0.66223157  0.71509058  1
  Fe  Fe6  1  0.83286191  0.17063866  0.71509839  1
  Ni  Ni7  1  0.34716618  0.67358053  0.51121161  1
  Ni  Ni8  1  0.68478963  0.34237009  0.97442186  1
  Sb  Sb9  1  0.16947514  0.83220623  0.21572086  1
  Sb  Sb10  1  0.16946149  0.33729316  0.21571964  1
  Sb  Sb11  1  0.34220088  0.17110438  0.71478739  1
  O  O12  1  0.16830000  0.84953874  0.60052454  1
  O  O13  1  0.02880405  0.51442128  0.33231022  1
  O  O14  1  0.32733921  0.66368326  0.10174855  1
  O  O15  1  0.00709005  0.00355980  0.32094085  1
  O  O16  1  0.00968105  0.00485230  0.81179368  1
  O  O17  1  0.16831113  0.31878409  0.60052605  1
  O  O18  1  0.47865598  0.96766973  0.32907013  1
  O  O19  1  0.47864850  0.51100972  0.32907791  1
  O  O20  1  0.31022073  0.15512779  0.10372993  1
  O  O21  1  0.68235640  0.84119282  0.60455356  1
  O  O22  1  0.51242744  0.47760338  0.83765951  1
  O  O23  1  0.51242357  0.03484276  0.83765983  1
  O  O24  1  0.66087682  0.33044903  0.60165388  1
  O  O25  1  0.85187207  0.68912867  0.10679911  1
  O  O26  1  0.96373606  0.48188117  0.83343669  1
  O  O27  1  0.85187250  0.16276111  0.10679524  1
