# generated using pymatgen
data_LiCu2C2O7
_symmetry_space_group_name_H-M   'P 1'
_cell_length_a   10.09609488
_cell_length_b   5.67575529
_cell_length_c   9.95993261
_cell_angle_alpha   90.00000000
_cell_angle_beta   111.29487277
_cell_angle_gamma   90.00000000
_symmetry_Int_Tables_number   1
_chemical_formula_structural   LiCu2C2O7
_chemical_formula_sum   'Li4 Cu8 C8 O28'
_cell_volume   531.76609394
_cell_formula_units_Z   4
loop_
 _symmetry_equiv_pos_site_id
 _symmetry_equiv_pos_as_xyz
  1  'x, y, z'
loop_
 _atom_site_type_symbol
 _atom_site_label
 _atom_site_symmetry_multiplicity
 _atom_site_fract_x
 _atom_site_fract_y
 _atom_site_fract_z
 _atom_site_occupancy
  Li  Li0  1  0.48379337  0.56616722  0.74910290  1
  Li  Li1  1  0.51620663  0.06616722  0.75089710  1
  Li  Li2  1  0.48379337  0.93383278  0.24910290  1
  Li  Li3  1  0.51620663  0.43383278  0.25089710  1
  Cu  Cu4  1  0.02698390  0.63379452  0.78610156  1
  Cu  Cu5  1  0.02698390  0.86620548  0.28610156  1
  Cu  Cu6  1  0.12079205  0.33831717  0.53130865  1
  Cu  Cu7  1  0.12079205  0.16168283  0.03130865  1
  Cu  Cu8  1  0.87920795  0.83831717  0.96869135  1
  Cu  Cu9  1  0.87920795  0.66168283  0.46869135  1
  Cu  Cu10  1  0.97301610  0.13379452  0.71389844  1
  Cu  Cu11  1  0.97301610  0.36620548  0.21389844  1
  C  C12  1  0.21930297  0.87331879  0.68560217  1
  C  C13  1  0.35925247  0.24783786  0.95403027  1
  C  C14  1  0.21930297  0.62668121  0.18560217  1
  C  C15  1  0.35925247  0.25216214  0.45403027  1
  C  C16  1  0.64074753  0.74783786  0.54596973  1
  C  C17  1  0.78069703  0.37331879  0.81439783  1
  C  C18  1  0.64074753  0.75216214  0.04596973  1
  C  C19  1  0.78069703  0.12668121  0.31439783  1
  O  O20  1  0.01815749  0.92517688  0.88554022  1
  O  O21  1  0.01815749  0.57482312  0.38554022  1
  O  O22  1  0.21770398  0.25973303  0.91488637  1
  O  O23  1  0.12146321  0.04469510  0.63975547  1
  O  O24  1  0.19874680  0.71084685  0.76722379  1
  O  O25  1  0.21770398  0.24026697  0.41488637  1
  O  O26  1  0.12146321  0.45530490  0.13975547  1
  O  O27  1  0.32489490  0.86466284  0.64953127  1
  O  O28  1  0.40436897  0.29625300  0.85413538  1
  O  O29  1  0.19874680  0.78915315  0.26722379  1
  O  O30  1  0.56552897  0.81120573  0.91843607  1
  O  O31  1  0.43447103  0.31120573  0.58156393  1
  O  O32  1  0.32489490  0.63533716  0.14953127  1
  O  O33  1  0.40436897  0.20374700  0.35413538  1
  O  O34  1  0.59563103  0.79625300  0.64586462  1
  O  O35  1  0.67510510  0.36466284  0.85046873  1
  O  O36  1  0.56552897  0.68879427  0.41843607  1
  O  O37  1  0.43447103  0.18879427  0.08156393  1
  O  O38  1  0.80125320  0.21084685  0.73277621  1
  O  O39  1  0.59563103  0.70374700  0.14586462  1
  O  O40  1  0.67510510  0.13533716  0.35046873  1
  O  O41  1  0.87853679  0.54469510  0.86024453  1
  O  O42  1  0.78229602  0.75973303  0.58511363  1
  O  O43  1  0.80125320  0.28915315  0.23277621  1
  O  O44  1  0.87853679  0.95530490  0.36024453  1
  O  O45  1  0.78229602  0.74026697  0.08511363  1
  O  O46  1  0.98184251  0.42517688  0.61445978  1
  O  O47  1  0.98184251  0.07482312  0.11445978  1
