# generated using pymatgen
data_Li6Fe5WO12
_symmetry_space_group_name_H-M   'P 1'
_cell_length_a   5.23621443
_cell_length_b   5.23621446
_cell_length_c   10.22215083
_cell_angle_alpha   93.44538810
_cell_angle_beta   86.55461299
_cell_angle_gamma   59.17409387
_symmetry_Int_Tables_number   1
_chemical_formula_structural   Li6Fe5WO12
_chemical_formula_sum   'Li6 Fe5 W1 O12'
_cell_volume   238.88660642
_cell_formula_units_Z   1
loop_
 _symmetry_equiv_pos_site_id
 _symmetry_equiv_pos_as_xyz
  1  'x, y, z'
loop_
 _atom_site_type_symbol
 _atom_site_label
 _atom_site_symmetry_multiplicity
 _atom_site_fract_x
 _atom_site_fract_y
 _atom_site_fract_z
 _atom_site_occupancy
  Li  Li0  1  0.30136779  0.05110963  0.24356322  1
  Li  Li1  1  0.05177830  0.30190221  0.75657870  1
  Li  Li2  1  0.38624598  0.61375402  0.75236704  1
  Li  Li3  1  0.61372352  0.38627648  0.24773590  1
  Li  Li4  1  0.94889037  0.69863221  0.24356322  1
  Li  Li5  1  0.69809779  0.94822170  0.75657870  1
  Fe  Fe6  1  0.66792260  0.67280956  -0.00005612  1
  Fe  Fe7  1  0.50002510  0.49997490  0.50011446  1
  Fe  Fe8  1  0.32719044  0.33207740  -0.00005612  1
  Fe  Fe9  1  0.83436829  0.83415024  0.49993815  1
  Fe  Fe10  1  0.16584976  0.16563171  0.49993815  1
  W  W11  1  0.00091819  -0.00091819  0.00007622  1
  O  O12  1  0.65326856  0.03073964  0.11865834  1
  O  O13  1  0.03547518  0.65180730  0.88027565  1
  O  O14  1  0.53358221  0.80172492  0.38781824  1
  O  O15  1  0.13853667  0.86146333  0.60780229  1
  O  O16  1  0.80196994  0.53360952  0.61227117  1
  O  O17  1  0.27899643  0.72100357  0.11610469  1
  O  O18  1  0.71820995  0.28179005  0.88535872  1
  O  O19  1  0.19827508  0.46641779  0.38781824  1
  O  O20  1  0.86145632  0.13854368  0.39234797  1
  O  O21  1  0.46639048  0.19803006  0.61227117  1
  O  O22  1  0.96926036  0.34673144  0.11865834  1
  O  O23  1  0.34819270  0.96452482  0.88027565  1
