# generated using pymatgen
data_Li7Mn3Fe(PO4)6
_symmetry_space_group_name_H-M   'P 1'
_cell_length_a   8.91782890
_cell_length_b   8.91782828
_cell_length_c   8.80718879
_cell_angle_alpha   59.58355972
_cell_angle_beta   120.41643833
_cell_angle_gamma   120.00000251
_symmetry_Int_Tables_number   1
_chemical_formula_structural   Li7Mn3Fe(PO4)6
_chemical_formula_sum   'Li7 Mn3 Fe1 P6 O24'
_cell_volume   492.12792716
_cell_formula_units_Z   1
loop_
 _symmetry_equiv_pos_site_id
 _symmetry_equiv_pos_as_xyz
  1  'x, y, z'
loop_
 _atom_site_type_symbol
 _atom_site_label
 _atom_site_symmetry_multiplicity
 _atom_site_fract_x
 _atom_site_fract_y
 _atom_site_fract_z
 _atom_site_occupancy
  Li  Li0  1  0.64896279  0.76540848  0.70139237  1
  Li  Li1  1  0.23459152  0.18216294  0.70139237  1
  Li  Li2  1  0.22457608  0.60180414  0.34489307  1
  Li  Li3  1  0.01584836  0.98415164  0.04754407  1
  Li  Li4  1  0.81783706  0.35103721  0.70139237  1
  Li  Li5  1  0.72212112  0.77542392  0.34489307  1
  Li  Li6  1  0.39819586  0.27787888  0.34489307  1
  Mn  Mn7  1  0.85049137  0.14950863  0.55147410  1
  Mn  Mn8  1  0.35253052  0.64746948  0.05759257  1
  Mn  Mn9  1  0.64613907  0.35386093  0.93841621  1
  Fe  Fe10  1  0.14650064  0.85349936  0.43950193  1
  P  P11  1  0.24504088  0.45790024  0.74918049  1
  P  P12  1  0.96203984  0.75495912  0.74918049  1
  P  P13  1  0.54209976  0.03796016  0.74918049  1
  P  P14  1  0.44765770  0.94976623  0.24662298  1
  P  P15  1  0.05023377  0.25126849  0.24662298  1
  P  P16  1  0.74873151  0.55234230  0.24662298  1
  O  O17  1  0.12723515  0.71213590  0.92411220  1
  O  O18  1  0.50901295  0.87276485  0.92411220  1
  O  O19  1  0.28786410  0.49098705  0.92411220  1
  O  O20  1  0.07759819  0.27708325  0.74778468  1
  O  O21  1  0.40146974  0.43302708  0.74395201  1
  O  O22  1  0.20130557  0.62125784  0.56519873  1
  O  O23  1  0.94726974  0.92240181  0.74778468  1
  O  O24  1  0.77551035  0.59853026  0.74395201  1
  O  O25  1  0.56697292  0.22448965  0.74395201  1
  O  O26  1  0.60865746  0.96752849  0.43306227  1
  O  O27  1  0.25644470  0.90262145  0.25372576  1
  O  O28  1  0.03247151  0.20806570  0.43306227  1
  O  O29  1  0.98515100  0.79869443  0.56519873  1
  O  O30  1  0.72291675  0.05273026  0.74778468  1
  O  O31  1  0.37874216  0.01484900  0.56519873  1
  O  O32  1  0.44410705  0.77011391  0.24869937  1
  O  O33  1  0.22988609  0.42529377  0.24869937  1
  O  O34  1  0.09737855  0.10009748  0.25372576  1
  O  O35  1  0.79193430  0.39134254  0.43306227  1
  O  O36  1  0.57470623  0.55589295  0.24869937  1
  O  O37  1  0.89990252  0.74355530  0.25372576  1
  O  O38  1  0.71783940  0.52612314  0.07483410  1
  O  O39  1  0.47387686  0.11688316  0.07483410  1
  O  O40  1  0.88311684  0.28216060  0.07483410  1
