# generated using pymatgen
data_LiMn(P2O7)2
_symmetry_space_group_name_H-M   'P 1'
_cell_length_a   8.72041776
_cell_length_b   8.72041776
_cell_length_c   8.96938265
_cell_angle_alpha   110.55338742
_cell_angle_beta   110.55338742
_cell_angle_gamma   99.98456876
_symmetry_Int_Tables_number   1
_chemical_formula_structural   LiMn(P2O7)2
_chemical_formula_sum   'Li2 Mn2 P8 O28'
_cell_volume   562.74218017
_cell_formula_units_Z   2
loop_
 _symmetry_equiv_pos_site_id
 _symmetry_equiv_pos_as_xyz
  1  'x, y, z'
loop_
 _atom_site_type_symbol
 _atom_site_label
 _atom_site_symmetry_multiplicity
 _atom_site_fract_x
 _atom_site_fract_y
 _atom_site_fract_z
 _atom_site_occupancy
  Li  Li0  1  0.36178219  0.63821781  0.25000000  1
  Li  Li1  1  0.63821781  0.36178219  0.75000000  1
  Mn  Mn2  1  0.50000000  -0.00000000  -0.00000000  1
  Mn  Mn3  1  -0.00000000  0.50000000  0.50000000  1
  P  P4  1  0.21281594  0.31266997  0.30726699  1
  P  P5  1  0.68733003  0.78718406  0.19273301  1
  P  P6  1  0.78718406  0.68733003  0.69273301  1
  P  P7  1  0.31266997  0.21281594  0.80726699  1
  P  P8  1  0.28053284  0.85570302  0.57576883  1
  P  P9  1  0.14429698  0.71946716  0.92423117  1
  P  P10  1  0.71946716  0.14429698  0.42423117  1
  P  P11  1  0.85570302  0.28053284  0.07576883  1
  O  O12  1  0.03477006  0.23936390  0.12472550  1
  O  O13  1  0.76063610  0.96522994  0.37527450  1
  O  O14  1  0.96522994  0.76063610  0.87527450  1
  O  O15  1  0.23936390  0.03477006  0.62472550  1
  O  O16  1  0.26050759  0.15821092  0.32475131  1
  O  O17  1  0.84178908  0.73949241  0.17524869  1
  O  O18  1  0.73949241  0.84178908  0.67524869  1
  O  O19  1  0.15821092  0.26050759  0.82475131  1
  O  O20  1  0.35099282  0.43604904  0.29969256  1
  O  O21  1  0.56395096  0.64900718  0.20030744  1
  O  O22  1  0.64900718  0.56395096  0.70030744  1
  O  O23  1  0.43604904  0.35099282  0.79969256  1
  O  O24  1  0.17530117  0.40880179  0.46503308  1
  O  O25  1  0.59119821  0.82469883  0.03496692  1
  O  O26  1  0.82469883  0.59119821  0.53496692  1
  O  O27  1  0.40880179  0.17530117  0.96503308  1
  O  O28  1  0.35587903  0.83454524  0.44469483  1
  O  O29  1  0.16545476  0.64412097  0.05530517  1
  O  O30  1  0.64412097  0.16545476  0.55530517  1
  O  O31  1  0.83454524  0.35587903  0.94469483  1
  O  O32  1  0.40248439  0.85927111  0.75029989  1
  O  O33  1  0.14072889  0.59751561  0.74970011  1
  O  O34  1  0.59751561  0.14072889  0.24970011  1
  O  O35  1  0.85927111  0.40248439  0.25029989  1
  O  O36  1  0.10176436  0.71114483  0.48591771  1
  O  O37  1  0.28885517  0.89823564  0.01408229  1
  O  O38  1  0.89823564  0.28885517  0.51408229  1
  O  O39  1  0.71114483  0.10176436  0.98591771  1
