# generated using pymatgen
data_Li3MnV(PO4)3
_symmetry_space_group_name_H-M   'P 1'
_cell_length_a   10.31122212
_cell_length_b   10.31122261
_cell_length_c   10.07918472
_cell_angle_alpha   109.16964448
_cell_angle_beta   109.16964942
_cell_angle_gamma   108.97971643
_symmetry_Int_Tables_number   1
_chemical_formula_structural   Li3MnV(PO4)3
_chemical_formula_sum   'Li12 Mn4 V4 P12 O48'
_cell_volume   835.89923938
_cell_formula_units_Z   4
loop_
 _symmetry_equiv_pos_site_id
 _symmetry_equiv_pos_as_xyz
  1  'x, y, z'
loop_
 _atom_site_type_symbol
 _atom_site_label
 _atom_site_symmetry_multiplicity
 _atom_site_fract_x
 _atom_site_fract_y
 _atom_site_fract_z
 _atom_site_occupancy
  Li  Li0  1  0.25583770  0.87822703  0.62738299  1
  Li  Li1  1  0.13685582  0.36314418  0.75000000  1
  Li  Li2  1  0.12152238  0.25186926  0.38255938  1
  Li  Li3  1  0.61688857  0.88311143  0.75000000  1
  Li  Li4  1  0.37822703  0.75583770  0.12738299  1
  Li  Li5  1  0.24813074  0.37847762  0.11744062  1
  Li  Li6  1  0.75186926  0.62152238  0.88255938  1
  Li  Li7  1  0.62177297  0.24416230  0.87261701  1
  Li  Li8  1  0.38311143  0.11688857  0.25000000  1
  Li  Li9  1  0.87847762  0.74813074  0.61744062  1
  Li  Li10  1  0.86314418  0.63685582  0.25000000  1
  Li  Li11  1  0.74416230  0.12177297  0.37261701  1
  Mn  Mn12  1  0.00000000  -0.00000000  0.50000000  1
  Mn  Mn13  1  0.50000000  -0.00000000  0.50000000  1
  Mn  Mn14  1  0.50000000  0.50000000  -0.00000000  1
  Mn  Mn15  1  0.50000000  -0.00000000  -0.00000000  1
  V  V16  1  0.00000000  0.50000000  0.50000000  1
  V  V17  1  0.00000000  0.50000000  -0.00000000  1
  V  V18  1  0.00000000  -0.00000000  -0.00000000  1
  V  V19  1  0.50000000  0.50000000  0.50000000  1
  P  P20  1  0.12246268  0.75135533  0.87590088  1
  P  P21  1  0.12280160  0.87306419  0.24800412  1
  P  P22  1  0.37306419  0.62280160  0.74800412  1
  P  P23  1  0.25135533  0.62246268  0.37590088  1
  P  P24  1  0.24311178  0.12432036  0.87010043  1
  P  P25  1  0.37567964  0.25688822  0.62989957  1
  P  P26  1  0.62432036  0.74311178  0.37010043  1
  P  P27  1  0.74864467  0.37753732  0.62409912  1
  P  P28  1  0.75688822  0.87567964  0.12989957  1
  P  P29  1  0.62693581  0.37719840  0.25199588  1
  P  P30  1  0.87719840  0.12693581  0.75199588  1
  P  P31  1  0.87753732  0.24864467  0.12409912  1
  O  O32  1  0.10390750  0.99333064  0.69589187  1
  O  O33  1  0.10872193  0.60991794  0.90692281  1
  O  O34  1  0.00590571  0.29723498  0.88629284  1
  O  O35  1  0.08428093  0.70786371  0.69888083  1
  O  O36  1  0.09324720  0.88894676  0.39415735  1
  O  O37  1  0.10991794  0.60872193  0.40692281  1
  O  O38  1  0.20276502  0.49409429  0.61370716  1
  O  O39  1  0.40697741  0.79027631  0.78435337  1
  O  O40  1  0.38894676  0.59324720  0.89415735  1
  O  O41  1  0.27833571  0.29348568  0.90714416  1
  O  O42  1  0.29027631  0.90697741  0.28435337  1
  O  O43  1  0.00823034  0.20168860  0.11554465  1
  O  O44  1  0.20651432  0.22166429  0.59285584  1
  O  O45  1  0.20786371  0.58428093  0.19888083  1
  O  O46  1  0.38387813  0.78917343  0.50475506  1
  O  O47  1  0.29831140  0.49176966  0.38445535  1
  O  O48  1  0.28917343  0.88387813  0.00475506  1
  O  O49  1  0.10856067  0.00238730  0.20083747  1
  O  O50  1  0.50238730  0.60856067  0.70083747  1
  O  O51  1  0.37905294  0.09156950  0.87774191  1
  O  O52  1  0.50666936  0.39609250  0.80410813  1
  O  O53  1  0.39132007  0.30300492  0.49780553  1
  O  O54  1  0.59156950  0.87905294  0.37774191  1
  O  O55  1  0.19699508  0.10867993  0.00219447  1
  O  O56  1  0.80300492  0.89132007  0.99780553  1
  O  O57  1  0.40843050  0.12094706  0.62225809  1
  O  O58  1  0.60867993  0.69699508  0.50219447  1
  O  O59  1  0.49333064  0.60390750  0.19589187  1
  O  O60  1  0.62094706  0.90843050  0.12225809  1
  O  O61  1  0.49761270  0.39143933  0.29916253  1
  O  O62  1  0.89143933  0.99761270  0.79916253  1
  O  O63  1  0.71082657  0.11612187  0.99524494  1
  O  O64  1  0.70168860  0.50823034  0.61554465  1
  O  O65  1  0.61612187  0.21082657  0.49524494  1
  O  O66  1  0.79213629  0.41571907  0.80111917  1
  O  O67  1  0.79348568  0.77833571  0.40714416  1
  O  O68  1  0.99176966  0.79831140  0.88445535  1
  O  O69  1  0.70972369  0.09302259  0.71564663  1
  O  O70  1  0.72166429  0.70651432  0.09285584  1
  O  O71  1  0.61105324  0.40675280  0.10584265  1
  O  O72  1  0.59302259  0.20972369  0.21564663  1
  O  O73  1  0.79723498  0.50590571  0.38629284  1
  O  O74  1  0.89008206  0.39127807  0.59307719  1
  O  O75  1  0.90675280  0.11105324  0.60584265  1
  O  O76  1  0.91571907  0.29213629  0.30111917  1
  O  O77  1  0.99409429  0.70276502  0.11370716  1
  O  O78  1  0.89127807  0.39008206  0.09307719  1
  O  O79  1  0.89609250  0.00666936  0.30410813  1
