# generated using pymatgen
data_Li3Co2Ni3O10
_symmetry_space_group_name_H-M   'P 1'
_cell_length_a   20.67987077
_cell_length_b   2.87373683
_cell_length_c   5.84240154
_cell_angle_alpha   90.00000000
_cell_angle_beta   82.43634120
_cell_angle_gamma   90.00000000
_symmetry_Int_Tables_number   1
_chemical_formula_structural   Li3Co2Ni3O10
_chemical_formula_sum   'Li6 Co4 Ni6 O20'
_cell_volume   344.18424337
_cell_formula_units_Z   2
loop_
 _symmetry_equiv_pos_site_id
 _symmetry_equiv_pos_as_xyz
  1  'x, y, z'
loop_
 _atom_site_type_symbol
 _atom_site_label
 _atom_site_symmetry_multiplicity
 _atom_site_fract_x
 _atom_site_fract_y
 _atom_site_fract_z
 _atom_site_occupancy
  Li  Li0  1  0.39483881  -0.00000000  0.29005657  1
  Li  Li1  1  0.49984302  0.50000000  0.50001143  1
  Li  Li2  1  0.60393618  -0.00000000  0.71155430  1
  Li  Li3  1  0.79606382  -0.00000000  0.08844570  1
  Li  Li4  1  0.90015698  0.50000000  0.29998857  1
  Li  Li5  1  0.00516119  -0.00000000  0.50994343  1
  Co  Co6  1  0.10320473  0.50000000  0.18984591  1
  Co  Co7  1  0.20000000  -0.00000000  0.40000000  1
  Co  Co8  1  0.29679527  0.50000000  0.61015409  1
  Co  Co9  1  0.70000000  0.50000000  0.40000000  1
  Ni  Ni10  1  0.39778849  -0.00000000  0.80508660  1
  Ni  Ni11  1  0.49935304  0.50000000  0.00124340  1
  Ni  Ni12  1  0.60175561  -0.00000000  0.19173325  1
  Ni  Ni13  1  0.79824439  0.00000000  0.60826675  1
  Ni  Ni14  1  0.90064696  0.50000000  0.79875660  1
  Ni  Ni15  1  0.00221151  -0.00000000  0.99491340  1
  O  O16  1  0.01047929  0.50000000  0.22938123  1
  O  O17  1  0.10445664  0.00000000  0.40639365  1
  O  O18  1  0.09973196  -0.00000000  0.98614232  1
  O  O19  1  0.19404211  0.50000000  0.18689553  1
  O  O20  1  0.20595789  0.50000000  0.61310447  1
  O  O21  1  0.29554336  0.00000000  0.39360635  1
  O  O22  1  0.30026804  -0.00000000  0.81385768  1
  O  O23  1  0.40836373  0.50000000  0.03194889  1
  O  O24  1  0.38952071  0.50000000  0.57061877  1
  O  O25  1  0.49989875  -0.00000000  0.23336205  1
  O  O26  1  0.49890507  -0.00000000  0.76744305  1
  O  O27  1  0.60794281  0.50000000  0.42676026  1
  O  O28  1  0.59071258  0.50000000  0.96850601  1
  O  O29  1  0.70052145  -0.00000000  0.18736615  1
  O  O30  1  0.69947855  -0.00000000  0.61263385  1
  O  O31  1  0.79205719  0.50000000  0.37323974  1
  O  O32  1  0.80928742  0.50000000  0.83149399  1
  O  O33  1  0.90109493  -0.00000000  0.03255695  1
  O  O34  1  0.90010125  -0.00000000  0.56663795  1
  O  O35  1  0.99163627  0.50000000  0.76805111  1
