# generated using pymatgen
data_Li3V2(CO3)4
_symmetry_space_group_name_H-M   'P 1'
_cell_length_a   6.33810965
_cell_length_b   6.33810920
_cell_length_c   6.19678176
_cell_angle_alpha   104.32512356
_cell_angle_beta   104.32512325
_cell_angle_gamma   91.47702268
_symmetry_Int_Tables_number   1
_chemical_formula_structural   Li3V2(CO3)4
_chemical_formula_sum   'Li3 V2 C4 O12'
_cell_volume   232.68982592
_cell_formula_units_Z   1
loop_
 _symmetry_equiv_pos_site_id
 _symmetry_equiv_pos_as_xyz
  1  'x, y, z'
loop_
 _atom_site_type_symbol
 _atom_site_label
 _atom_site_symmetry_multiplicity
 _atom_site_fract_x
 _atom_site_fract_y
 _atom_site_fract_z
 _atom_site_occupancy
  Li  Li0  1  0.67463052  0.50244907  0.06560030  1
  Li  Li1  1  0.49755093  0.32536948  0.43439970  1
  Li  Li2  1  0.32025723  0.67974277  0.75000000  1
  V  V3  1  0.82635574  0.17364426  0.75000000  1
  V  V4  1  0.18857997  0.81142003  0.25000000  1
  C  C5  1  0.87403784  0.68434808  0.77654726  1
  C  C6  1  0.68419726  0.87895894  0.27815630  1
  C  C7  1  0.31565192  0.12596216  0.72345274  1
  C  C8  1  0.12104106  0.31580274  0.22184370  1
  O  O9  1  0.92240800  0.31248276  0.09117441  1
  O  O10  1  0.85787132  0.78599705  0.26358013  1
  O  O11  1  0.75418217  0.49519529  0.69270799  1
  O  O12  1  0.68751724  0.07759200  0.40882559  1
  O  O13  1  0.77821470  0.85766212  0.75715793  1
  O  O14  1  0.49810252  0.76824021  0.16009535  1
  O  O15  1  0.50480471  0.24581783  0.80729201  1
  O  O16  1  0.21400295  0.14212868  0.23641987  1
  O  O17  1  0.31003477  0.92303353  0.61845846  1
  O  O18  1  0.23175979  0.50189748  0.33990465  1
  O  O19  1  0.14233788  0.22178530  0.74284207  1
  O  O20  1  0.07696647  0.68996523  0.88154154  1
