# generated using pymatgen
data_Li3MnV(PO4)3
_symmetry_space_group_name_H-M   'P 1'
_cell_length_a   10.23476396
_cell_length_b   10.23476404
_cell_length_c   10.23476448
_cell_angle_alpha   108.79327412
_cell_angle_beta   108.79327090
_cell_angle_gamma   110.83579623
_symmetry_Int_Tables_number   1
_chemical_formula_structural   Li3MnV(PO4)3
_chemical_formula_sum   'Li12 Mn4 V4 P12 O48'
_cell_volume   824.94753399
_cell_formula_units_Z   4
loop_
 _symmetry_equiv_pos_site_id
 _symmetry_equiv_pos_as_xyz
  1  'x, y, z'
loop_
 _atom_site_type_symbol
 _atom_site_label
 _atom_site_symmetry_multiplicity
 _atom_site_fract_x
 _atom_site_fract_y
 _atom_site_fract_z
 _atom_site_occupancy
  Li  Li0  1  0.24924805  0.87359955  0.63102939  1
  Li  Li1  1  0.12472165  0.37472165  0.75000000  1
  Li  Li2  1  0.12640045  0.25742984  0.37564850  1
  Li  Li3  1  0.62527835  0.87527835  0.75000000  1
  Li  Li4  1  0.38178134  0.75075195  0.12435150  1
  Li  Li5  1  0.25742984  0.38178134  0.13102939  1
  Li  Li6  1  0.74257016  0.61821866  0.86897061  1
  Li  Li7  1  0.61821866  0.24924805  0.87564850  1
  Li  Li8  1  0.37472165  0.12472165  0.25000000  1
  Li  Li9  1  0.87359955  0.74257016  0.62435150  1
  Li  Li10  1  0.87527835  0.62527835  0.25000000  1
  Li  Li11  1  0.75075195  0.12640045  0.36897061  1
  Mn  Mn12  1  -0.00000000  0.50000000  0.50000000  1
  Mn  Mn13  1  0.50000000  0.50000000  0.50000000  1
  Mn  Mn14  1  0.50000000  0.50000000  0.00000000  1
  Mn  Mn15  1  0.50000000  -0.00000000  0.00000000  1
  V  V16  1  -0.00000000  -0.00000000  0.50000000  1
  V  V17  1  -0.00000000  0.50000000  0.00000000  1
  V  V18  1  -0.00000000  -0.00000000  0.00000000  1
  V  V19  1  0.50000000  -0.00000000  0.50000000  1
  P  P20  1  0.12784457  0.75588419  0.87734712  1
  P  P21  1  0.12500000  0.87500000  0.25000000  1
  P  P22  1  0.37500000  0.62500000  0.75000000  1
  P  P23  1  0.24411581  0.62146293  0.37196038  1
  P  P24  1  0.25049745  0.12784457  0.87196038  1
  P  P25  1  0.37853707  0.25049745  0.62265288  1
  P  P26  1  0.62146293  0.74950255  0.37734712  1
  P  P27  1  0.75588419  0.37853707  0.62803962  1
  P  P28  1  0.74950255  0.87215543  0.12803962  1
  P  P29  1  0.62500000  0.37500000  0.25000000  1
  P  P30  1  0.87500000  0.12500000  0.75000000  1
  P  P31  1  0.87215543  0.24411581  0.12265288  1
  O  O32  1  0.10725775  0.99792135  0.70071818  1
  O  O33  1  0.11802348  0.61553037  0.91033062  1
  O  O34  1  0.00639767  0.29941619  0.88751998  1
  O  O35  1  0.09590305  0.71956181  0.70824866  1
  O  O36  1  0.08810379  0.88112232  0.38751998  1
  O  O37  1  0.10429601  0.61448855  0.40929691  1
  O  O38  1  0.20028867  0.49462476  0.61191186  1
  O  O39  1  0.41162319  0.79971133  0.79433608  1
  O  O40  1  0.38271289  0.58837681  0.88808814  1
  O  O41  1  0.29480735  0.30500090  0.90929691  1
  O  O42  1  0.29941619  0.91189621  0.29301952  1
  O  O43  1  0.00207865  0.20279783  0.10933740  1
  O  O44  1  0.20519975  0.20769286  0.58966938  1
  O  O45  1  0.20279783  0.59346043  0.20071818  1
  O  O46  1  0.38446963  0.79480025  0.50249311  1
  O  O47  1  0.28043819  0.48868685  0.37634224  1
  O  O48  1  0.30500090  0.89570399  0.01019354  1
  O  O49  1  0.11887768  0.00639767  0.20698048  1
  O  O50  1  0.50537524  0.61728711  0.70566392  1
  O  O51  1  0.38765440  0.09590305  0.87634224  1
  O  O52  1  0.51131315  0.38765440  0.79175134  1
  O  O53  1  0.38551145  0.29480735  0.48980646  1
  O  O54  1  0.59346043  0.89274225  0.39066260  1
  O  O55  1  0.20769286  0.11802348  0.00249311  1
  O  O56  1  0.79230714  0.88197652  0.99750689  1
  O  O57  1  0.40653957  0.10725775  0.60933740  1
  O  O58  1  0.61448855  0.70519265  0.51019354  1
  O  O59  1  0.48868685  0.61234560  0.20824866  1
  O  O60  1  0.61234560  0.90409695  0.12365776  1
  O  O61  1  0.49462476  0.38271289  0.29433608  1
  O  O62  1  0.88112232  0.99360233  0.79301952  1
  O  O63  1  0.69499910  0.10429601  0.98980646  1
  O  O64  1  0.71956181  0.51131315  0.62365776  1
  O  O65  1  0.61553037  0.20519975  0.49750689  1
  O  O66  1  0.79720217  0.40653957  0.79928182  1
  O  O67  1  0.79480025  0.79230714  0.41033062  1
  O  O68  1  0.99792135  0.79720217  0.89066260  1
  O  O69  1  0.70058381  0.08810379  0.70698048  1
  O  O70  1  0.70519265  0.69499910  0.09070309  1
  O  O71  1  0.61728711  0.41162319  0.11191186  1
  O  O72  1  0.58837681  0.20028867  0.20566392  1
  O  O73  1  0.79971133  0.50537524  0.38808814  1
  O  O74  1  0.89570399  0.38551145  0.59070309  1
  O  O75  1  0.91189621  0.11887768  0.61248002  1
  O  O76  1  0.90409695  0.28043819  0.29175134  1
  O  O77  1  0.99360233  0.70058381  0.11248002  1
  O  O78  1  0.88197652  0.38446963  0.08966938  1
  O  O79  1  0.89274225  0.00207865  0.29928182  1
