# generated using pymatgen
data_Li3MnV(PO4)3
_symmetry_space_group_name_H-M   'P 1'
_cell_length_a   9.88636482
_cell_length_b   9.82383374
_cell_length_c   9.82383381
_cell_angle_alpha   88.17438102
_cell_angle_beta   86.55209197
_cell_angle_gamma   86.55208937
_symmetry_Int_Tables_number   1
_chemical_formula_structural   Li3MnV(PO4)3
_chemical_formula_sum   'Li12 Mn4 V4 P12 O48'
_cell_volume   950.27753508
_cell_formula_units_Z   4
loop_
 _symmetry_equiv_pos_site_id
 _symmetry_equiv_pos_as_xyz
  1  'x, y, z'
loop_
 _atom_site_type_symbol
 _atom_site_label
 _atom_site_symmetry_multiplicity
 _atom_site_fract_x
 _atom_site_fract_y
 _atom_site_fract_z
 _atom_site_occupancy
  Li  Li0  1  0.00214271  0.04429991  0.98090750  1
  Li  Li1  1  0.04993021  0.73534817  0.14056117  1
  Li  Li2  1  0.13654087  0.06521013  0.72721990  1
  Li  Li3  1  0.22715679  0.54875153  0.65061436  1
  Li  Li4  1  0.27284321  0.84938564  0.95124847  1
  Li  Li5  1  0.36345913  0.77278010  0.43478987  1
  Li  Li6  1  0.45006979  0.35943883  0.76465183  1
  Li  Li7  1  0.49785729  0.51909250  0.45570009  1
  Li  Li8  1  0.64487934  0.23200824  0.54759226  1
  Li  Li9  1  0.77099765  0.47357183  0.33213498  1
  Li  Li10  1  0.72900235  0.16786502  0.02642817  1
  Li  Li11  1  0.85512066  0.95240774  0.26799176  1
  Mn  Mn12  1  0.52878902  0.96729215  0.74072445  1
  Mn  Mn13  1  0.75000000  0.53150224  0.96849776  1
  Mn  Mn14  1  0.75000000  0.74468374  0.75531626  1
  Mn  Mn15  1  0.97121098  0.75927555  0.53270785  1
  V  V16  1  0.02984477  0.25780983  0.47669806  1
  V  V17  1  0.25000000  0.24930660  0.25069340  1
  V  V18  1  0.25000000  0.46540330  0.03459670  1
  V  V19  1  0.47015523  0.02330194  0.24219017  1
  P  P20  1  0.05222693  0.67057396  0.85549353  1
  P  P21  1  0.14743343  0.95343819  0.33244247  1
  P  P22  1  0.17265834  0.55327914  0.35568544  1
  P  P23  1  0.32734166  0.14431456  0.94672086  1
  P  P24  1  0.35256657  0.16755753  0.54656181  1
  P  P25  1  0.44777307  0.64450647  0.82942604  1
  P  P26  1  0.54806844  0.34416244  0.17611822  1
  P  P27  1  0.64577913  0.82451796  0.45064914  1
  P  P28  1  0.67732330  0.84343847  0.04832852  1
  P  P29  1  0.82267670  0.45167148  0.65656153  1
  P  P30  1  0.85422087  0.04935086  0.67548204  1
  P  P31  1  0.95193156  0.32388178  0.15583756  1
  O  O32  1  0.03266928  0.62032736  0.40666962  1
  O  O33  1  0.05565615  0.90603540  0.22527784  1
  O  O34  1  0.11291697  0.32772201  0.12216116  1
  O  O35  1  0.12195348  0.11448179  0.33558468  1
  O  O36  1  0.08973266  0.69207961  0.70125032  1
  O  O37  1  0.11324773  0.89071708  0.47572519  1
  O  O38  1  0.09483214  0.78351935  0.94624776  1
  O  O39  1  0.12086523  0.53054656  0.89794756  1
  O  O40  1  0.16879011  0.39332933  0.38142500  1
  O  O41  1  0.18564068  0.58878645  0.20068304  1
  O  O42  1  0.19824190  0.19915595  0.58309222  1
  O  O43  1  0.21229078  0.05981249  0.90330337  1
  O  O44  1  0.33120989  0.11857500  0.10667067  1
  O  O45  1  0.28770922  0.59669663  0.44018751  1
  O  O46  1  0.30175810  0.91690778  0.30084405  1
  O  O47  1  0.31435932  0.29931696  0.91121355  1
  O  O48  1  0.37804652  0.16441532  0.38551821  1
  O  O49  1  0.38708303  0.37783884  0.17227799  1
  O  O50  1  0.38675227  0.02427481  0.60928292  1
  O  O51  1  0.37913477  0.60205244  0.96945344  1
  O  O52  1  0.40516786  0.55375224  0.71648065  1
  O  O53  1  0.44434385  0.27472216  0.59396460  1
  O  O54  1  0.41026734  0.79874968  0.80792039  1
  O  O55  1  0.46733072  0.09333038  0.87967264  1
  O  O56  1  0.53317675  0.88918524  0.10602507  1
  O  O57  1  0.57699798  0.18541605  0.18193662  1
  O  O58  1  0.59338565  0.41180958  0.30169771  1
  O  O59  1  0.56047689  0.70759941  0.41604766  1
  O  O60  1  0.61676028  0.38810260  0.03861972  1
  O  O61  1  0.59798754  0.96253383  0.38363577  1
  O  O62  1  0.60653671  0.62010442  0.83518134  1
  O  O63  1  0.62189767  0.83920250  0.61317137  1
  O  O64  1  0.69983871  0.08778793  0.69436942  1
  O  O65  1  0.70284215  0.68905929  0.08424683  1
  O  O66  1  0.71462100  0.40547135  0.56598236  1
  O  O67  1  0.67445540  0.87104989  0.88623862  1
  O  O68  1  0.78537900  0.93401764  0.09452865  1
  O  O69  1  0.79715785  0.41575317  0.81094071  1
  O  O70  1  0.80016129  0.80563058  0.41221207  1
  O  O71  1  0.82554460  0.61376138  0.62895011  1
  O  O72  1  0.88323972  0.46138028  0.11189740  1
  O  O73  1  0.90661435  0.19830229  0.08819042  1
  O  O74  1  0.90201246  0.11636423  0.53746617  1
  O  O75  1  0.92300202  0.31806338  0.31458395  1
  O  O76  1  0.87810233  0.88682863  0.66079750  1
  O  O77  1  0.93952311  0.08395234  0.79240059  1
  O  O78  1  0.89346329  0.66481866  0.87989558  1
  O  O79  1  0.96682325  0.39397493  0.61081476  1
