# generated using pymatgen
data_Li3VFe3O8
_symmetry_space_group_name_H-M   'P 1'
_cell_length_a   5.87910167
_cell_length_b   5.90243115
_cell_length_c   9.60868645
_cell_angle_alpha   90.12795961
_cell_angle_beta   90.24640002
_cell_angle_gamma   60.12272942
_symmetry_Int_Tables_number   1
_chemical_formula_structural   Li3VFe3O8
_chemical_formula_sum   'Li6 V2 Fe6 O16'
_cell_volume   289.11345406
_cell_formula_units_Z   2
loop_
 _symmetry_equiv_pos_site_id
 _symmetry_equiv_pos_as_xyz
  1  'x, y, z'
loop_
 _atom_site_type_symbol
 _atom_site_label
 _atom_site_symmetry_multiplicity
 _atom_site_fract_x
 _atom_site_fract_y
 _atom_site_fract_z
 _atom_site_occupancy
  Li  Li0  1  0.82825409  0.82317793  0.94344561  1
  Li  Li1  1  0.34796022  0.82633175  0.94197078  1
  Li  Li2  1  0.82812150  0.35075526  0.94276651  1
  Li  Li3  1  0.17904844  0.64941878  0.44340674  1
  Li  Li4  1  0.65150891  0.17728947  0.44345389  1
  Li  Li5  1  0.17402371  0.17368278  0.44204660  1
  V  V6  1  0.66909864  0.66937552  0.48982899  1
  V  V7  1  0.33814792  0.33083529  0.98988054  1
  Fe  Fe8  1  0.83355965  0.82902138  0.21432673  1
  Fe  Fe9  1  0.33402035  0.83404358  0.21138931  1
  Fe  Fe10  1  0.83427747  0.33808497  0.21344858  1
  Fe  Fe11  1  0.17246177  0.66171329  0.71373800  1
  Fe  Fe12  1  0.66252741  0.17096541  0.71432581  1
  Fe  Fe13  1  0.16792807  0.16585391  0.71127005  1
  O  O14  1  0.99876806  0.00105759  0.32228187  1
  O  O15  1  0.82802723  0.82579972  0.59136027  1
  O  O16  1  0.51775646  0.96327340  0.34660803  1
  O  O17  1  0.96525805  0.51769572  0.34699496  1
  O  O18  1  0.32956001  0.83270645  0.59083941  1
  O  O19  1  0.66535950  0.66809056  0.09595602  1
  O  O20  1  0.52149656  0.52213157  0.34855866  1
  O  O21  1  0.83401244  0.32979350  0.59159577  1
  O  O22  1  0.16443467  0.66977540  0.09165228  1
  O  O23  1  0.48304414  0.48228494  0.84692469  1
  O  O24  1  0.04340679  0.47784398  0.84851189  1
  O  O25  1  0.99979709  0.99888309  0.82226838  1
  O  O26  1  0.33318059  0.33200231  0.59593957  1
  O  O27  1  0.65439712  0.17404338  0.09129256  1
  O  O28  1  0.48077544  0.03691625  0.84657321  1
  O  O29  1  0.16274670  0.16714283  0.09095029  1
