# generated using pymatgen
data_VH15C4S2(NO5)2
_symmetry_space_group_name_H-M   'P 1'
_cell_length_a   7.25543553
_cell_length_b   9.54231855
_cell_length_c   18.69191160
_cell_angle_alpha   90.00000000
_cell_angle_beta   90.00000000
_cell_angle_gamma   99.61965943
_symmetry_Int_Tables_number   1
_chemical_formula_structural   VH15C4S2(NO5)2
_chemical_formula_sum   'V4 H60 C16 S8 N8 O40'
_cell_volume   1275.91297899
_cell_formula_units_Z   4
loop_
 _symmetry_equiv_pos_site_id
 _symmetry_equiv_pos_as_xyz
  1  'x, y, z'
loop_
 _atom_site_type_symbol
 _atom_site_label
 _atom_site_symmetry_multiplicity
 _atom_site_fract_x
 _atom_site_fract_y
 _atom_site_fract_z
 _atom_site_occupancy
  V  V0  1  0.40812058  0.30104219  0.24791228  1
  V  V1  1  0.09187942  0.69895781  0.74791228  1
  V  V2  1  0.59187942  0.69895781  0.75208772  1
  V  V3  1  0.90812058  0.30104219  0.25208772  1
  H  H4  1  0.16387467  0.29482471  0.34825803  1
  H  H5  1  0.33612533  0.70517529  0.84825803  1
  H  H6  1  0.83612533  0.70517529  0.65174197  1
  H  H7  1  0.66387467  0.29482471  0.15174197  1
  H  H8  1  0.53091911  0.84897979  0.21350195  1
  H  H9  1  0.96908089  0.15102021  0.71350195  1
  H  H10  1  0.46908089  0.15102021  0.78649805  1
  H  H11  1  0.03091911  0.84897979  0.28649805  1
  H  H12  1  0.91901021  0.86787769  0.06183779  1
  H  H13  1  0.58098979  0.13212231  0.56183779  1
  H  H14  1  0.08098979  0.13212231  0.93816221  1
  H  H15  1  0.41901021  0.86787769  0.43816221  1
  H  H16  1  0.38644479  0.31165976  0.43708765  1
  H  H17  1  0.11355521  0.68834024  0.93708765  1
  H  H18  1  0.61355521  0.68834024  0.56291235  1
  H  H19  1  0.88644479  0.31165976  0.06291235  1
  H  H20  1  0.24907362  0.32937704  0.49803244  1
  H  H21  1  0.25092638  0.67062296  0.99803244  1
  H  H22  1  0.75092638  0.67062296  0.50196756  1
  H  H23  1  0.74907362  0.32937704  0.00196756  1
  H  H24  1  0.41666718  0.74058693  0.14746205  1
  H  H25  1  0.08333282  0.25941307  0.64746205  1
  H  H26  1  0.58333282  0.25941307  0.85253795  1
  H  H27  1  0.91666718  0.74058693  0.35253795  1
  H  H28  1  0.82452804  0.76432347  0.99276617  1
  H  H29  1  0.67547196  0.23567653  0.49276617  1
  H  H30  1  0.17547196  0.23567653  0.00723383  1
  H  H31  1  0.32452804  0.76432347  0.50723383  1
  H  H32  1  0.81927464  0.78713343  0.19010332  1
  H  H33  1  0.68072536  0.21286657  0.69010332  1
  H  H34  1  0.18072536  0.21286657  0.80989668  1
  H  H35  1  0.31927464  0.78713343  0.30989668  1
  H  H36  1  0.65223901  0.62647836  0.19903185  1
  H  H37  1  0.84776099  0.37352164  0.69903185  1
  H  H38  1  0.34776099  0.37352164  0.80096815  1
  H  H39  1  0.15223901  0.62647836  0.30096815  1
  H  H40  1  0.62920008  0.60324883  0.06658314  1
  H  H41  1  0.87079992  0.39675117  0.56658314  1
  H  H42  1  0.37079992  0.39675117  0.93341686  1
  H  H43  1  0.12920008  0.60324883  0.43341686  1
  H  H44  1  0.86613776  0.61752354  0.09473376  1
  H  H45  1  0.63386224  0.38247646  0.59473376  1
  H  H46  1  0.13386224  0.38247646  0.90526624  1
  H  H47  1  0.36613776  0.61752354  0.40526624  1
  H  H48  1  0.70313432  0.00421071  0.13800536  1
  H  H49  1  0.79686568  0.99578929  0.63800536  1
  H  H50  1  0.29686568  0.99578929  0.86199464  1
  H  H51  1  0.20313432  0.00421071  0.36199464  1
  H  H52  1  0.46674847  0.98287787  0.11049699  1
  H  H53  1  0.03325153  0.01712213  0.61049699  1
  H  H54  1  0.53325153  0.01712213  0.88950301  1
  H  H55  1  0.96674847  0.98287787  0.38950301  1
  H  H56  1  0.69409665  0.97967143  0.00749558  1
  H  H57  1  0.80590335  0.02032857  0.50749558  1
  H  H58  1  0.30590335  0.02032857  0.99250442  1
  H  H59  1  0.19409665  0.97967143  0.49250442  1
  H  H60  1  0.52533667  0.82039853  0.01145380  1
  H  H61  1  0.97466333  0.17960147  0.51145380  1
  H  H62  1  0.47466333  0.17960147  0.98854620  1
  H  H63  1  0.02533667  0.82039853  0.48854620  1
  C  C64  1  0.69823681  0.72005492  0.16559266  1
  C  C65  1  0.80176319  0.27994508  0.66559266  1
  C  C66  1  0.30176319  0.27994508  0.83440734  1
  C  C67  1  0.19823681  0.72005492  0.33440734  1
  C  C68  1  0.74674956  0.67362454  0.09144059  1
  C  C69  1  0.75325044  0.32637546  0.59144059  1
  C  C70  1  0.25325044  0.32637546  0.90855941  1
  C  C71  1  0.24674956  0.67362454  0.40855941  1
  C  C72  1  0.58931265  0.92981978  0.11330744  1
  C  C73  1  0.91068735  0.07018022  0.61330744  1
  C  C74  1  0.41068735  0.07018022  0.88669256  1
  C  C75  1  0.08931265  0.92981978  0.38669256  1
  C  C76  1  0.64248710  0.88508086  0.03941740  1
  C  C77  1  0.85751290  0.11491914  0.53941740  1
  C  C78  1  0.35751290  0.11491914  0.96058260  1
  C  C79  1  0.14248710  0.88508086  0.46058260  1
  S  S80  1  0.19264851  0.48254383  0.13378911  1
  S  S81  1  0.30735149  0.51745617  0.63378911  1
  S  S82  1  0.80735149  0.51745617  0.86621089  1
  S  S83  1  0.69264851  0.48254383  0.36621089  1
  S  S84  1  0.10756326  0.06144607  0.16391394  1
  S  S85  1  0.39243674  0.93855393  0.66391394  1
  S  S86  1  0.89243674  0.93855393  0.83608606  1
  S  S87  1  0.60756326  0.06144607  0.33608606  1
  N  N88  1  0.54322254  0.80545556  0.16254270  1
  N  N89  1  0.95677746  0.19454444  0.66254270  1
  N  N90  1  0.45677746  0.19454444  0.83745730  1
  N  N91  1  0.04322254  0.80545556  0.33745730  1
  N  N92  1  0.79804299  0.80019186  0.04372608  1
  N  N93  1  0.70195701  0.19980814  0.54372608  1
  N  N94  1  0.20195701  0.19980814  0.95627392  1
  N  N95  1  0.29804299  0.80019186  0.45627392  1
  O  O96  1  0.15980880  0.29957995  0.29565537  1
  O  O97  1  0.34019120  0.70042005  0.79565537  1
  O  O98  1  0.84019120  0.70042005  0.70434463  1
  O  O99  1  0.65980880  0.29957995  0.20434463  1
  O  O100  1  0.36007391  0.45754868  0.17660127  1
  O  O101  1  0.13992609  0.54245132  0.67660127  1
  O  O102  1  0.63992609  0.54245132  0.82339873  1
  O  O103  1  0.86007391  0.45754868  0.32339873  1
  O  O104  1  0.29542734  0.15399388  0.17244119  1
  O  O105  1  0.20457266  0.84600612  0.67244119  1
  O  O106  1  0.70457266  0.84600612  0.82755881  1
  O  O107  1  0.79542734  0.15399388  0.32755881  1
  O  O108  1  0.52306653  0.46195705  0.31823393  1
  O  O109  1  0.97693347  0.53804295  0.81823393  1
  O  O110  1  0.47693347  0.53804295  0.68176607  1
  O  O111  1  0.02306653  0.46195705  0.18176607  1
  O  O112  1  0.45524213  0.14578849  0.31812313  1
  O  O113  1  0.04475787  0.85421151  0.81812313  1
  O  O114  1  0.54475787  0.85421151  0.68187687  1
  O  O115  1  0.95524213  0.14578849  0.18187687  1
  O  O116  1  0.09478036  0.93652324  0.21092728  1
  O  O117  1  0.40521964  0.06347676  0.71092728  1
  O  O118  1  0.90521964  0.06347676  0.78907272  1
  O  O119  1  0.59478036  0.93652324  0.28907272  1
  O  O120  1  0.15827051  0.38573733  0.07205508  1
  O  O121  1  0.34172949  0.61426267  0.57205508  1
  O  O122  1  0.84172949  0.61426267  0.92794492  1
  O  O123  1  0.65827051  0.38573733  0.42794492  1
  O  O124  1  0.08490114  0.01744779  0.08818335  1
  O  O125  1  0.41509886  0.98255221  0.58818335  1
  O  O126  1  0.91509886  0.98255221  0.91181665  1
  O  O127  1  0.58490114  0.01744779  0.41181665  1
  O  O128  1  0.22873586  0.63307478  0.10972762  1
  O  O129  1  0.27126414  0.36692522  0.60972762  1
  O  O130  1  0.77126414  0.36692522  0.89027238  1
  O  O131  1  0.72873586  0.63307478  0.39027238  1
  O  O132  1  0.25433270  0.28551886  0.45077758  1
  O  O133  1  0.24566730  0.71448114  0.95077758  1
  O  O134  1  0.74566730  0.71448114  0.54922242  1
  O  O135  1  0.75433270  0.28551886  0.04922242  1
