# generated using pymatgen
data_Li2V3BiO8
_symmetry_space_group_name_H-M   'P 1'
_cell_length_a   8.76434119
_cell_length_b   8.76502966
_cell_length_c   8.73847216
_cell_angle_alpha   89.98891816
_cell_angle_beta   89.98124515
_cell_angle_gamma   90.17940339
_symmetry_Int_Tables_number   1
_chemical_formula_structural   Li2V3BiO8
_chemical_formula_sum   'Li8 V12 Bi4 O32'
_cell_volume   671.28356274
_cell_formula_units_Z   4
loop_
 _symmetry_equiv_pos_site_id
 _symmetry_equiv_pos_as_xyz
  1  'x, y, z'
loop_
 _atom_site_type_symbol
 _atom_site_label
 _atom_site_symmetry_multiplicity
 _atom_site_fract_x
 _atom_site_fract_y
 _atom_site_fract_z
 _atom_site_occupancy
  Li  Li0  1  0.99987769  0.00350420  0.00247914  1
  Li  Li1  1  0.24653389  0.24976742  0.24693327  1
  Li  Li2  1  0.25215165  0.75150092  0.74430985  1
  Li  Li3  1  0.49879095  0.99713346  0.50574028  1
  Li  Li4  1  0.50425922  0.49550519  0.99735918  1
  Li  Li5  1  0.74839316  0.25458929  0.75290110  1
  Li  Li6  1  0.75422080  0.74503719  0.25260511  1
  Li  Li7  1  0.99554982  0.50207077  0.49706084  1
  V  V8  1  0.10574871  0.14444045  0.62538049  1
  V  V9  1  0.12347496  0.39251138  0.85648741  1
  V  V10  1  0.14086158  0.62725893  0.10766023  1
  V  V11  1  0.35860237  0.37433610  0.61127476  1
  V  V12  1  0.37422587  0.61105835  0.35689644  1
  V  V13  1  0.39628768  0.85384866  0.12485210  1
  V  V14  1  0.60991173  0.35920059  0.37369392  1
  V  V15  1  0.62332881  0.10914119  0.14264056  1
  V  V16  1  0.63843120  0.87561956  0.89318249  1
  V  V17  1  0.85783012  0.12704919  0.39409733  1
  V  V18  1  0.87537328  0.89120877  0.63809937  1
  V  V19  1  0.89084684  0.64021521  0.87608451  1
  Bi  Bi20  1  0.12393021  0.88291915  0.37474354  1
  Bi  Bi21  1  0.36798324  0.12692892  0.87535026  1
  Bi  Bi22  1  0.62513663  0.62471449  0.62506986  1
  Bi  Bi23  1  0.87669679  0.37363496  0.12492011  1
  O  O24  1  0.08774801  0.13683089  0.38430094  1
  O  O25  1  0.10072537  0.91141168  0.64112607  1
  O  O26  1  0.12342565  0.62371589  0.88609287  1
  O  O27  1  0.11367092  0.16287821  0.86572028  1
  O  O28  1  0.13821682  0.39724089  0.08617075  1
  O  O29  1  0.13051838  0.37335574  0.62655059  1
  O  O30  1  0.14718929  0.60754002  0.32791139  1
  O  O31  1  0.16323159  0.85253085  0.11005218  1
  O  O32  1  0.33781108  0.14808781  0.60909468  1
  O  O33  1  0.36451861  0.38902250  0.82700009  1
  O  O34  1  0.37088996  0.62577807  0.12850518  1
  O  O35  1  0.36124373  0.60554829  0.58670540  1
  O  O36  1  0.39022008  0.82411591  0.36602437  1
  O  O37  1  0.37747263  0.38713666  0.38160660  1
  O  O38  1  0.39734563  0.08663090  0.13938831  1
  O  O39  1  0.42571997  0.85987463  0.88371268  1
  O  O40  1  0.58566776  0.36378673  0.60869401  1
  O  O41  1  0.60390298  0.58669038  0.36276772  1
  O  O42  1  0.62441881  0.87931590  0.12160468  1
  O  O43  1  0.61416105  0.33462700  0.13635629  1
  O  O44  1  0.64247617  0.10281164  0.92208795  1
  O  O45  1  0.62645631  0.12662346  0.36398433  1
  O  O46  1  0.64418141  0.88857844  0.66312626  1
  O  O47  1  0.66331256  0.64634719  0.88763556  1
  O  O48  1  0.83501607  0.36210316  0.38554500  1
  O  O49  1  0.85286762  0.11198332  0.16438560  1
  O  O50  1  0.86249979  0.87272719  0.86758041  1
  O  O51  1  0.86047679  0.88508652  0.42340019  1
  O  O52  1  0.88587581  0.66362798  0.64154306  1
  O  O53  1  0.87685594  0.11955645  0.62381343  1
  O  O54  1  0.88813455  0.41532001  0.86454244  1
  O  O55  1  0.91529844  0.63606035  0.11328855  1
