# generated using pymatgen
data_Li3CrPCO7
_symmetry_space_group_name_H-M   'P 1'
_cell_length_a   8.69533797
_cell_length_b   10.01524432
_cell_length_c   6.47643418
_cell_angle_alpha   89.73181182
_cell_angle_beta   90.27026523
_cell_angle_gamma   85.09437207
_symmetry_Int_Tables_number   1
_chemical_formula_structural   Li3CrPCO7
_chemical_formula_sum   'Li12 Cr4 P4 C4 O28'
_cell_volume   561.92674180
_cell_formula_units_Z   4
loop_
 _symmetry_equiv_pos_site_id
 _symmetry_equiv_pos_as_xyz
  1  'x, y, z'
loop_
 _atom_site_type_symbol
 _atom_site_label
 _atom_site_symmetry_multiplicity
 _atom_site_fract_x
 _atom_site_fract_y
 _atom_site_fract_z
 _atom_site_occupancy
  Li  Li0  1  0.11396738  0.39077811  0.25035989  1
  Li  Li1  1  0.11045509  0.88197175  0.26442319  1
  Li  Li2  1  0.29137324  0.11336009  0.47363754  1
  Li  Li3  1  0.27027777  0.64513935  0.01871625  1
  Li  Li4  1  0.27254275  0.64198416  0.47582965  1
  Li  Li5  1  0.34836612  0.87327004  0.74137670  1
  Li  Li6  1  0.72563091  0.37188021  0.52574789  1
  Li  Li7  1  0.72341672  0.37294684  0.97474434  1
  Li  Li8  1  0.72139270  0.86925779  0.53111276  1
  Li  Li9  1  0.72315509  0.86968037  0.97215635  1
  Li  Li10  1  0.88484655  0.10068777  0.74684046  1
  Li  Li11  1  0.89899133  0.62459882  0.74828811  1
  Cr  Cr12  1  0.24502006  0.11413255  0.96981796  1
  Cr  Cr13  1  0.33404980  0.40672240  0.75200125  1
  Cr  Cr14  1  0.66443185  0.09986544  0.25494665  1
  Cr  Cr15  1  0.66517682  0.60455414  0.24989797  1
  P  P16  1  0.41190303  0.36458997  0.25555012  1
  P  P17  1  0.41083099  0.86382458  0.25101079  1
  P  P18  1  0.58558907  0.13965028  0.75263450  1
  P  P19  1  0.58872708  0.64058246  0.74999723  1
  C  C20  1  0.03039286  0.34888268  0.75877155  1
  C  C21  1  0.03957583  0.85476963  0.75562092  1
  C  C22  1  0.96526471  0.14649342  0.24313465  1
  C  C23  1  0.96697317  0.64691432  0.24915867  1
  O  O24  1  0.04646397  0.47406594  0.74862612  1
  O  O25  1  0.10333300  0.19025778  0.21979354  1
  O  O26  1  0.06723950  0.98006618  0.76067026  1
  O  O27  1  0.16026480  0.26664854  0.76354595  1
  O  O28  1  0.10535247  0.68772788  0.25018633  1
  O  O29  1  0.15057311  0.76015700  0.75419494  1
  O  O30  1  0.31458861  0.42026871  0.06587813  1
  O  O31  1  0.31193180  0.42471982  0.43831590  1
  O  O32  1  0.31682024  0.91994080  0.05788633  1
  O  O33  1  0.31302846  0.91507342  0.43807984  1
  O  O34  1  0.41934125  0.09488575  0.74577731  1
  O  O35  1  0.41958804  0.20937707  0.26399750  1
  O  O36  1  0.42276863  0.59513313  0.74913868  1
  O  O37  1  0.41959992  0.70824705  0.24363772  1
  O  O38  1  0.58157021  0.29466465  0.75046611  1
  O  O39  1  0.57835713  0.40872076  0.25403218  1
  O  O40  1  0.57785081  0.79510742  0.74994818  1
  O  O41  1  0.57799590  0.90802391  0.25375099  1
  O  O42  1  0.68230528  0.08137599  0.94081045  1
  O  O43  1  0.68390729  0.07989099  0.56857980  1
  O  O44  1  0.68732639  0.58327923  0.56409524  1
  O  O45  1  0.68747369  0.58185869  0.93663156  1
  O  O46  1  0.84552708  0.23326600  0.25958007  1
  O  O47  1  0.89869641  0.29914954  0.76049044  1
  O  O48  1  0.84649470  0.73540236  0.24875339  1
  O  O49  1  0.94899874  0.02087662  0.24830742  1
  O  O50  1  0.89505781  0.82375285  0.75024965  1
  O  O51  1  0.94519483  0.52152274  0.24880161  1
