# generated using pymatgen
data_Li4Fe3(NiO4)3
_symmetry_space_group_name_H-M   'P 1'
_cell_length_a   5.22655796
_cell_length_b   5.22700426
_cell_length_c   8.99314795
_cell_angle_alpha   100.01008086
_cell_angle_beta   80.00270409
_cell_angle_gamma   66.17881536
_symmetry_Int_Tables_number   1
_chemical_formula_structural   Li4Fe3(NiO4)3
_chemical_formula_sum   'Li4 Fe3 Ni3 O12'
_cell_volume   213.07528523
_cell_formula_units_Z   1
loop_
 _symmetry_equiv_pos_site_id
 _symmetry_equiv_pos_as_xyz
  1  'x, y, z'
loop_
 _atom_site_type_symbol
 _atom_site_label
 _atom_site_symmetry_multiplicity
 _atom_site_fract_x
 _atom_site_fract_y
 _atom_site_fract_z
 _atom_site_occupancy
  Li  Li0  1  0.16919531  0.83028856  0.65946013  1
  Li  Li1  1  0.82968008  0.16934954  0.34052558  1
  Li  Li2  1  0.92009622  0.57893589  0.15942016  1
  Li  Li3  1  0.57904910  0.91966238  0.84060709  1
  Fe  Fe4  1  0.41408826  0.08620978  0.17229805  1
  Fe  Fe5  1  0.08641655  0.41413851  0.82753970  1
  Fe  Fe6  1  0.75029158  0.75034461  0.50008217  1
  Ni  Ni7  1  -0.00013735  0.99942800  0.00005168  1
  Ni  Ni8  1  0.33603287  0.66450367  0.32907482  1
  Ni  Ni9  1  0.66427577  0.33613094  0.67092314  1
  O  O10  1  0.21759238  0.21676050  0.00025091  1
  O  O11  1  0.10337572  0.45096419  0.32666743  1
  O  O12  1  0.18322112  0.87751243  0.17321861  1
  O  O13  1  0.45004142  0.10355137  0.67347228  1
  O  O14  1  0.64645481  0.29318654  0.17268537  1
  O  O15  1  0.29397889  0.64639909  0.82723078  1
  O  O16  1  0.53324524  0.53401509  0.49950173  1
  O  O17  1  0.56987328  0.87591532  0.32657521  1
  O  O18  1  0.78282173  0.78187848  0.99987863  1
  O  O19  1  0.87815670  0.18310626  0.82731099  1
  O  O20  1  0.87605390  0.57036587  0.67317576  1
  O  O21  1  0.96619543  0.96735398  0.50005078  1
