# generated using pymatgen
data_Li12Cr3NiP4(CO7)4
_symmetry_space_group_name_H-M   'P 1'
_cell_length_a   8.61857421
_cell_length_b   9.99521452
_cell_length_c   6.46254974
_cell_angle_alpha   90.00000000
_cell_angle_beta   90.00000000
_cell_angle_gamma   85.41046955
_symmetry_Int_Tables_number   1
_chemical_formula_structural   Li12Cr3NiP4(CO7)4
_chemical_formula_sum   'Li12 Cr3 Ni1 P4 C4 O28'
_cell_volume   554.92801261
_cell_formula_units_Z   1
loop_
 _symmetry_equiv_pos_site_id
 _symmetry_equiv_pos_as_xyz
  1  'x, y, z'
loop_
 _atom_site_type_symbol
 _atom_site_label
 _atom_site_symmetry_multiplicity
 _atom_site_fract_x
 _atom_site_fract_y
 _atom_site_fract_z
 _atom_site_occupancy
  Li  Li0  1  0.09691479  0.38705760  0.25000000  1
  Li  Li1  1  0.10620750  0.88212375  0.25000000  1
  Li  Li2  1  0.27336442  0.12854076  0.02281397  1
  Li  Li3  1  0.27336442  0.12854076  0.47718603  1
  Li  Li4  1  0.27315454  0.62791350  0.02107404  1
  Li  Li5  1  0.27315454  0.62791350  0.47892596  1
  Li  Li6  1  0.72666636  0.37509611  0.52499858  1
  Li  Li7  1  0.72666636  0.37509611  0.97500142  1
  Li  Li8  1  0.72758784  0.87064444  0.52274754  1
  Li  Li9  1  0.72758784  0.87064444  0.97725246  1
  Li  Li10  1  0.89639168  0.11524093  0.75000000  1
  Li  Li11  1  0.89513684  0.61619498  0.75000000  1
  Cr  Cr12  1  0.33435797  0.39667921  0.75000000  1
  Cr  Cr13  1  0.33599234  0.89261027  0.75000000  1
  Cr  Cr14  1  0.66776068  0.10584377  0.25000000  1
  Ni  Ni15  1  0.66698722  0.60116030  0.25000000  1
  P  P16  1  0.41183115  0.36361866  0.25000000  1
  P  P17  1  0.41707868  0.85734725  0.25000000  1
  P  P18  1  0.58904210  0.13964116  0.75000000  1
  P  P19  1  0.58985671  0.63901664  0.75000000  1
  C  C20  1  0.03202762  0.35196638  0.75000000  1
  C  C21  1  0.03237091  0.85170877  0.75000000  1
  C  C22  1  0.97038636  0.14762951  0.25000000  1
  C  C23  1  0.95692804  0.64971758  0.25000000  1
  O  O24  1  0.05765810  0.47703345  0.75000000  1
  O  O25  1  0.11112060  0.18652368  0.25000000  1
  O  O26  1  0.06027799  0.97626317  0.75000000  1
  O  O27  1  0.15130487  0.26155761  0.75000000  1
  O  O28  1  0.10043515  0.68169036  0.25000000  1
  O  O29  1  0.14998555  0.75975018  0.75000000  1
  O  O30  1  0.31145028  0.41964199  0.06339166  1
  O  O31  1  0.31145028  0.41964199  0.43660834  1
  O  O32  1  0.31362463  0.90941888  0.06396764  1
  O  O33  1  0.31362463  0.90941888  0.43603236  1
  O  O34  1  0.42198990  0.09265884  0.75000000  1
  O  O35  1  0.42131546  0.20801036  0.25000000  1
  O  O36  1  0.42186826  0.59373844  0.75000000  1
  O  O37  1  0.43656294  0.70066435  0.25000000  1
  O  O38  1  0.57990062  0.29523271  0.75000000  1
  O  O39  1  0.57899727  0.41048840  0.25000000  1
  O  O40  1  0.58082477  0.79491535  0.75000000  1
  O  O41  1  0.57932049  0.91129157  0.25000000  1
  O  O42  1  0.68881011  0.08324538  0.93657851  1
  O  O43  1  0.68881011  0.08324538  0.56342149  1
  O  O44  1  0.68852654  0.58288830  0.56219782  1
  O  O45  1  0.68852654  0.58288830  0.93780218  1
  O  O46  1  0.85164138  0.23847090  0.25000000  1
  O  O47  1  0.89141411  0.31351453  0.75000000  1
  O  O48  1  0.84106297  0.74255389  0.25000000  1
  O  O49  1  0.94499549  0.02271310  0.25000000  1
  O  O50  1  0.89103519  0.81485752  0.75000000  1
  O  O51  1  0.92264785  0.52573712  0.25000000  1
