# generated using pymatgen
data_FeOF
_symmetry_space_group_name_H-M   'P 1'
_cell_length_a   14.22877443
_cell_length_b   9.52444930
_cell_length_c   3.09707454
_cell_angle_alpha   90.00000000
_cell_angle_beta   90.00000000
_cell_angle_gamma   90.61116453
_symmetry_Int_Tables_number   1
_chemical_formula_structural   FeOF
_chemical_formula_sum   'Fe12 O12 F12'
_cell_volume   419.69550614
_cell_formula_units_Z   12
loop_
 _symmetry_equiv_pos_site_id
 _symmetry_equiv_pos_as_xyz
  1  'x, y, z'
loop_
 _atom_site_type_symbol
 _atom_site_label
 _atom_site_symmetry_multiplicity
 _atom_site_fract_x
 _atom_site_fract_y
 _atom_site_fract_z
 _atom_site_occupancy
  Fe  Fe0  1  0.00833129  0.99057926  -0.00000000  1
  Fe  Fe1  1  0.00432667  0.50344527  0.00000000  1
  Fe  Fe2  1  0.19163322  0.24595202  0.50000000  1
  Fe  Fe3  1  0.15596320  0.74522716  0.50000000  1
  Fe  Fe4  1  0.34201883  0.00525116  0.00000000  1
  Fe  Fe5  1  0.33809421  0.48437506  0.00000000  1
  Fe  Fe6  1  0.49987939  0.77962812  0.50000000  1
  Fe  Fe7  1  0.48812463  0.24893865  0.50000000  1
  Fe  Fe8  1  0.67091216  0.99123572  -0.00000000  1
  Fe  Fe9  1  0.67611896  0.49681847  -0.00000000  1
  Fe  Fe10  1  0.81320075  0.24660606  0.50000000  1
  Fe  Fe11  1  0.81199664  0.75038330  0.50000000  1
  O  O12  1  0.06555613  0.90302211  0.50000000  1
  O  O13  1  0.09783966  0.64489223  -0.00000000  1
  O  O14  1  0.22805176  0.35653010  0.00000000  1
  O  O15  1  0.26681341  0.08827783  0.50000000  1
  O  O16  1  0.40051344  0.40848361  0.50000000  1
  O  O17  1  0.39368690  0.89867779  0.50000000  1
  O  O18  1  0.43897964  0.15592132  0.00000000  1
  O  O19  1  0.56803844  0.85079330  -0.00000000  1
  O  O20  1  0.73230702  0.40545676  0.50000000  1
  O  O21  1  0.73380230  0.90830540  0.50000000  1
  O  O22  1  0.76793526  0.15172324  0.00000000  1
  O  O23  1  0.77004108  0.64973103  0.00000000  1
  F  F24  1  0.05879158  0.39836929  0.50000000  1
  F  F25  1  0.09635469  0.15964379  0.00000000  1
  F  F26  1  0.22670484  0.83652326  0.00000000  1
  F  F27  1  0.26805128  0.60541037  0.50000000  1
  F  F28  1  0.43543780  0.65214510  -0.00000000  1
  F  F29  1  0.56800504  0.35082524  -0.00000000  1
  F  F30  1  0.60339512  0.10679758  0.50000000  1
  F  F31  1  0.60119919  0.59366590  0.50000000  1
  F  F32  1  0.90369141  0.35090008  -0.00000000  1
  F  F33  1  0.90071263  0.84493844  0.00000000  1
  F  F34  1  0.93815855  0.09644990  0.50000000  1
  F  F35  1  0.93533386  0.59407709  0.50000000  1
