# generated using pymatgen
data_FeH7(CO2)4
_symmetry_space_group_name_H-M   'P 1'
_cell_length_a   7.76376535
_cell_length_b   7.84707225
_cell_length_c   8.22296509
_cell_angle_alpha   106.91844153
_cell_angle_beta   94.68676028
_cell_angle_gamma   115.59755117
_symmetry_Int_Tables_number   1
_chemical_formula_structural   FeH7(CO2)4
_chemical_formula_sum   'Fe2 H14 C8 O16'
_cell_volume   419.56508466
_cell_formula_units_Z   2
loop_
 _symmetry_equiv_pos_site_id
 _symmetry_equiv_pos_as_xyz
  1  'x, y, z'
loop_
 _atom_site_type_symbol
 _atom_site_label
 _atom_site_symmetry_multiplicity
 _atom_site_fract_x
 _atom_site_fract_y
 _atom_site_fract_z
 _atom_site_occupancy
  Fe  Fe0  1  0.68923311  0.69686546  0.60650289  1
  Fe  Fe1  1  0.31076689  0.30313454  0.39349711  1
  H  H2  1  0.58400596  0.35204496  0.64544611  1
  H  H3  1  0.41599404  0.64795504  0.35455389  1
  H  H4  1  0.76968188  0.04047014  0.55043229  1
  H  H5  1  0.23031812  0.95952986  0.44956771  1
  H  H6  1  0.86517958  0.10254206  0.75709029  1
  H  H7  1  0.13482042  0.89745794  0.24290971  1
  H  H8  1  0.96036989  0.74118386  0.86659580  1
  H  H9  1  0.03963011  0.25881614  0.13340420  1
  H  H10  1  0.07118148  0.80595182  0.71304244  1
  H  H11  1  0.92881852  0.19404818  0.28695756  1
  H  H12  1  0.38683441  0.01344926  0.72105586  1
  H  H13  1  0.61316559  0.98655074  0.27894414  1
  H  H14  1  0.32366455  0.78915690  0.59194415  1
  H  H15  1  0.67633545  0.21084310  0.40805585  1
  C  C16  1  0.75229316  0.57209988  0.24554985  1
  C  C17  1  0.24770684  0.42790012  0.75445015  1
  C  C18  1  0.57338319  0.38402723  0.14298952  1
  C  C19  1  0.42661681  0.61597277  0.85701048  1
  C  C20  1  0.64516480  0.38405517  0.98224018  1
  C  C21  1  0.35483520  0.61594483  0.01775982  1
  C  C22  1  0.82476075  0.57949798  0.08703019  1
  C  C23  1  0.17523925  0.42050202  0.91296981  1
  O  O24  1  0.82092213  0.69469361  0.40344762  1
  O  O25  1  0.17907787  0.30530639  0.59655238  1
  O  O26  1  0.41158246  0.27090093  0.17009285  1
  O  O27  1  0.58841754  0.72909907  0.82990715  1
  O  O28  1  0.57491580  0.27150382  0.82360975  1
  O  O29  1  0.42508420  0.72849618  0.17639025  1
  O  O30  1  0.97232828  0.70900114  0.05800073  1
  O  O31  1  0.02767172  0.29099886  0.94199927  1
  O  O32  1  0.57750400  0.39328270  0.54250904  1
  O  O33  1  0.42249600  0.60671730  0.45749096  1
  O  O34  1  0.76364758  0.99112667  0.64927166  1
  O  O35  1  0.23635242  0.00887333  0.35072834  1
  O  O36  1  0.94637713  0.76558960  0.75437872  1
  O  O37  1  0.05362287  0.23441040  0.24562128  1
  O  O38  1  0.27378380  0.88613899  0.63588439  1
  O  O39  1  0.72621620  0.11386101  0.36411561  1
