# generated using pymatgen
data_Li(CoO2)2
_symmetry_space_group_name_H-M   'P 1'
_cell_length_a   8.18372323
_cell_length_b   8.26349454
_cell_length_c   8.25456218
_cell_angle_alpha   90.38966616
_cell_angle_beta   89.59911402
_cell_angle_gamma   90.24226278
_symmetry_Int_Tables_number   1
_chemical_formula_structural   Li(CoO2)2
_chemical_formula_sum   'Li8 Co16 O32'
_cell_volume   558.19282633
_cell_formula_units_Z   8
loop_
 _symmetry_equiv_pos_site_id
 _symmetry_equiv_pos_as_xyz
  1  'x, y, z'
loop_
 _atom_site_type_symbol
 _atom_site_label
 _atom_site_symmetry_multiplicity
 _atom_site_fract_x
 _atom_site_fract_y
 _atom_site_fract_z
 _atom_site_occupancy
  Li  Li0  1  0.99885983  0.00511151  0.99967813  1
  Li  Li1  1  0.24893074  0.24578765  0.25076810  1
  Li  Li2  1  0.25249292  0.74823847  0.74910732  1
  Li  Li3  1  0.49596606  0.99912884  0.50139537  1
  Li  Li4  1  0.50060548  0.50286209  0.99642695  1
  Li  Li5  1  0.74989882  0.24760731  0.75331930  1
  Li  Li6  1  0.75176954  0.74690197  0.25201234  1
  Li  Li7  1  0.99747840  0.50395577  0.49749284  1
  Co  Co8  1  0.12609196  0.12708587  0.62294867  1
  Co  Co9  1  0.12220837  0.37338318  0.87023602  1
  Co  Co10  1  0.13210439  0.88114704  0.37623312  1
  Co  Co11  1  0.12731184  0.62544685  0.12333446  1
  Co  Co12  1  0.37209835  0.37625361  0.62590203  1
  Co  Co13  1  0.37876838  0.12327352  0.87463858  1
  Co  Co14  1  0.37367950  0.62636975  0.37713055  1
  Co  Co15  1  0.37492420  0.87556662  0.12380985  1
  Co  Co16  1  0.62585074  0.37429520  0.37640278  1
  Co  Co17  1  0.62662974  0.12259858  0.13127032  1
  Co  Co18  1  0.61913917  0.62521950  0.62957514  1
  Co  Co19  1  0.61962954  0.86915957  0.87517704  1
  Co  Co20  1  0.87682274  0.12624344  0.37450901  1
  Co  Co21  1  0.87809614  0.37243014  0.12073673  1
  Co  Co22  1  0.87445562  0.87703569  0.62627492  1
  Co  Co23  1  0.87727514  0.62565903  0.87367558  1
  O  O24  1  0.12661091  0.10786240  0.39670415  1
  O  O25  1  0.12187356  0.89425892  0.60907852  1
  O  O26  1  0.11850601  0.60006729  0.87924193  1
  O  O27  1  0.13179713  0.14378459  0.85187665  1
  O  O28  1  0.10960554  0.37883651  0.10312354  1
  O  O29  1  0.13701893  0.36097685  0.63700649  1
  O  O30  1  0.13693088  0.65201770  0.37094553  1
  O  O31  1  0.14473924  0.87162733  0.14258119  1
  O  O32  1  0.35576171  0.14798944  0.63024075  1
  O  O33  1  0.35373719  0.36966161  0.85452473  1
  O  O34  1  0.36527275  0.64544771  0.13322972  1
  O  O35  1  0.39070990  0.60353836  0.62610568  1
  O  O36  1  0.35969365  0.87143420  0.35562831  1
  O  O37  1  0.38271527  0.38253404  0.39835356  1
  O  O38  1  0.37973427  0.10255497  0.11253951  1
  O  O39  1  0.39026353  0.87981957  0.89153409  1
  O  O40  1  0.60658380  0.39263028  0.62016096  1
  O  O41  1  0.61134093  0.62081144  0.40226138  1
  O  O42  1  0.60346413  0.87533295  0.10741825  1
  O  O43  1  0.64778030  0.36884881  0.13235717  1
  O  O44  1  0.61431275  0.10022900  0.88522562  1
  O  O45  1  0.63570156  0.12979356  0.36371794  1
  O  O46  1  0.62716022  0.85773134  0.64469926  1
  O  O47  1  0.62668669  0.64322939  0.85721730  1
  O  O48  1  0.86827478  0.36388874  0.35325385  1
  O  O49  1  0.87084658  0.14812809  0.13301457  1
  O  O50  1  0.84965548  0.86676491  0.87048641  1
  O  O51  1  0.90254060  0.88748696  0.38062326  1
  O  O52  1  0.84982459  0.63574329  0.63502782  1
  O  O53  1  0.89802683  0.11451082  0.61936033  1
  O  O54  1  0.89511978  0.37824518  0.88890707  1
  O  O55  1  0.88662589  0.60359451  0.11163832  1
