# generated using pymatgen
data_Fe3CoSb2(PO4)6
_symmetry_space_group_name_H-M   'P 1'
_cell_length_a   8.80823513
_cell_length_b   8.80823526
_cell_length_c   8.80823567
_cell_angle_alpha   58.70195994
_cell_angle_beta   58.70195553
_cell_angle_gamma   58.70195263
_symmetry_Int_Tables_number   1
_chemical_formula_structural   Fe3CoSb2(PO4)6
_chemical_formula_sum   'Fe3 Co1 Sb2 P6 O24'
_cell_volume   468.89508952
_cell_formula_units_Z   1
loop_
 _symmetry_equiv_pos_site_id
 _symmetry_equiv_pos_as_xyz
  1  'x, y, z'
loop_
 _atom_site_type_symbol
 _atom_site_label
 _atom_site_symmetry_multiplicity
 _atom_site_fract_x
 _atom_site_fract_y
 _atom_site_fract_z
 _atom_site_occupancy
  Fe  Fe0  1  0.14745109  0.14745109  0.14745109  1
  Fe  Fe1  1  0.35085978  0.35085978  0.35085978  1
  Fe  Fe2  1  0.64871719  0.64871719  0.64871719  1
  Co  Co3  1  0.85395485  0.85395485  0.85395485  1
  Sb  Sb4  1  0.99831325  0.99831325  0.99831325  1
  Sb  Sb5  1  0.49892614  0.49892614  0.49892614  1
  P  P6  1  0.03679082  0.75118761  0.46601721  1
  P  P7  1  0.46601721  0.03679082  0.75118761  1
  P  P8  1  0.75118761  0.46601721  0.03679082  1
  P  P9  1  0.24717543  0.54092956  0.95824432  1
  P  P10  1  0.54092956  0.95824432  0.24717543  1
  P  P11  1  0.95824432  0.24717543  0.54092956  1
  O  O12  1  0.11642444  0.29607995  0.51238543  1
  O  O13  1  0.29607995  0.51238543  0.11642444  1
  O  O14  1  0.05809618  0.91789308  0.27078850  1
  O  O15  1  0.51238543  0.11642444  0.29607995  1
  O  O16  1  0.00828555  0.79906102  0.62477176  1
  O  O17  1  0.23195070  0.58252284  0.44282421  1
  O  O18  1  0.27078850  0.05809618  0.91789308  1
  O  O19  1  0.44282421  0.23195070  0.58252284  1
  O  O20  1  0.19680481  0.38326239  0.99144627  1
  O  O21  1  0.58252284  0.44282421  0.23195070  1
  O  O22  1  0.07607856  0.73515644  0.93862495  1
  O  O23  1  0.38326239  0.99144627  0.19680481  1
  O  O24  1  0.62477176  0.00828555  0.79906102  1
  O  O25  1  0.91789308  0.27078850  0.05809618  1
  O  O26  1  0.41524054  0.56289446  0.76614316  1
  O  O27  1  0.79906102  0.62477176  0.00828555  1
  O  O28  1  0.56289446  0.76614316  0.41524054  1
  O  O29  1  0.73515644  0.93862495  0.07607856  1
  O  O30  1  0.76614316  0.41524054  0.56289446  1
  O  O31  1  0.99144627  0.19680481  0.38326239  1
  O  O32  1  0.49393597  0.88309084  0.69767268  1
  O  O33  1  0.93862495  0.07607856  0.73515644  1
  O  O34  1  0.69767268  0.49393597  0.88309084  1
  O  O35  1  0.88309084  0.69767268  0.49393597  1
