# generated using pymatgen
data_Li2Cr(CO3)2
_symmetry_space_group_name_H-M   'P 1'
_cell_length_a   5.31222730
_cell_length_b   6.49390092
_cell_length_c   8.73266610
_cell_angle_alpha   97.15494423
_cell_angle_beta   107.71696572
_cell_angle_gamma   65.84700639
_symmetry_Int_Tables_number   1
_chemical_formula_structural   Li2Cr(CO3)2
_chemical_formula_sum   'Li4 Cr2 C4 O12'
_cell_volume   261.84162835
_cell_formula_units_Z   2
loop_
 _symmetry_equiv_pos_site_id
 _symmetry_equiv_pos_as_xyz
  1  'x, y, z'
loop_
 _atom_site_type_symbol
 _atom_site_label
 _atom_site_symmetry_multiplicity
 _atom_site_fract_x
 _atom_site_fract_y
 _atom_site_fract_z
 _atom_site_occupancy
  Li  Li0  1  0.75897805  0.45190713  0.16520873  1
  Li  Li1  1  0.84375978  0.95191638  0.33475933  1
  Li  Li2  1  0.46094252  0.04806759  0.66519556  1
  Li  Li3  1  0.04575099  0.54820327  0.83475310  1
  Cr  Cr4  1  0.13312857  0.99993628  0.99998182  1
  Cr  Cr5  1  0.38310159  0.49995926  0.50004040  1
  C  C6  1  0.24481417  0.59428813  0.20457793  1
  C  C7  1  0.29036907  0.09444815  0.29578001  1
  C  C8  1  0.63466417  0.40569423  0.79552898  1
  C  C9  1  0.08932262  0.90563413  0.70422755  1
  O  O10  1  0.20292530  0.62923947  0.05677089  1
  O  O11  1  0.43992691  0.05542478  0.19225414  1
  O  O12  1  0.49770900  0.55524861  0.30771178  1
  O  O13  1  0.04499899  0.59812200  0.26580132  1
  O  O14  1  0.02906874  0.09803983  0.23409170  1
  O  O15  1  0.39585897  0.12926463  0.44298155  1
  O  O16  1  0.08246835  0.87089990  0.55702141  1
  O  O17  1  0.74531020  0.44487090  0.69242348  1
  O  O18  1  0.89331794  0.90185651  0.76582247  1
  O  O19  1  0.37746481  0.40180384  0.73422166  1
  O  O20  1  0.30332337  0.94469020  0.80781451  1
  O  O21  1  0.77555489  0.37068178  0.94329368  1
