# generated using pymatgen
data_Li2FeTeO6
_symmetry_space_group_name_H-M   'P 1'
_cell_length_a   5.42695676
_cell_length_b   10.80532599
_cell_length_c   9.51483524
_cell_angle_alpha   28.41591084
_cell_angle_beta   51.37823691
_cell_angle_gamma   56.90521840
_symmetry_Int_Tables_number   1
_chemical_formula_structural   Li2FeTeO6
_chemical_formula_sum   'Li4 Fe2 Te2 O12'
_cell_volume   207.43278819
_cell_formula_units_Z   2
loop_
 _symmetry_equiv_pos_site_id
 _symmetry_equiv_pos_as_xyz
  1  'x, y, z'
loop_
 _atom_site_type_symbol
 _atom_site_label
 _atom_site_symmetry_multiplicity
 _atom_site_fract_x
 _atom_site_fract_y
 _atom_site_fract_z
 _atom_site_occupancy
  Li  Li0  1  0.28029729  0.00189192  0.28675131  1
  Li  Li1  1  0.28029729  0.50189192  0.28675131  1
  Li  Li2  1  0.79443845  0.99923146  0.79254449  1
  Li  Li3  1  0.79443845  0.49923146  0.79254449  1
  Fe  Fe4  1  0.00322694  0.99879491  0.00458904  1
  Fe  Fe5  1  0.00322694  0.49879491  0.00458904  1
  Te  Te6  1  0.50052138  0.99934503  0.50140862  1
  Te  Te7  1  0.50052138  0.49934503  0.50140862  1
  O  O8  1  0.38248994  0.29698540  0.12700064  1
  O  O9  1  0.23524291  0.12919770  0.61500833  1
  O  O10  1  0.12661228  0.33008329  0.72060862  1
  O  O11  1  0.87292281  0.19314550  0.23045202  1
  O  O12  1  0.38248994  0.79698540  0.12700064  1
  O  O13  1  0.72723976  0.37071958  0.38289008  1
  O  O14  1  0.23524291  0.62919770  0.61500833  1
  O  O15  1  0.61260823  0.18060522  0.87434785  1
  O  O16  1  0.12661228  0.83008329  0.72060862  1
  O  O17  1  0.87292281  0.69314550  0.23045202  1
  O  O18  1  0.72723976  0.87071958  0.38289008  1
  O  O19  1  0.61260823  0.68060522  0.87434785  1
