# generated using pymatgen
data_Li2Fe3SnO8
_symmetry_space_group_name_H-M   'P 1'
_cell_length_a   8.53984515
_cell_length_b   8.54435925
_cell_length_c   8.55032461
_cell_angle_alpha   90.00017577
_cell_angle_beta   90.00077518
_cell_angle_gamma   89.99893700
_symmetry_Int_Tables_number   1
_chemical_formula_structural   Li2Fe3SnO8
_chemical_formula_sum   'Li8 Fe12 Sn4 O32'
_cell_volume   623.89585280
_cell_formula_units_Z   4
loop_
 _symmetry_equiv_pos_site_id
 _symmetry_equiv_pos_as_xyz
  1  'x, y, z'
loop_
 _atom_site_type_symbol
 _atom_site_label
 _atom_site_symmetry_multiplicity
 _atom_site_fract_x
 _atom_site_fract_y
 _atom_site_fract_z
 _atom_site_occupancy
  Li  Li0  1  0.12314165  0.87685918  0.37688626  1
  Li  Li1  1  0.24913505  0.74910449  0.75084022  1
  Li  Li2  1  0.25084404  0.25089783  0.25086210  1
  Li  Li3  1  0.37688643  0.12316148  0.87685806  1
  Li  Li4  1  0.62313704  0.62310469  0.62311906  1
  Li  Li5  1  0.74913434  0.75085192  0.24917021  1
  Li  Li6  1  0.75084407  0.24912631  0.74916546  1
  Li  Li7  1  0.87686922  0.37686808  0.12311407  1
  Fe  Fe8  1  0.11248269  0.61869036  0.12459348  1
  Fe  Fe9  1  0.11875952  0.37540366  0.88747299  1
  Fe  Fe10  1  0.12452509  0.11254868  0.61884267  1
  Fe  Fe11  1  0.37546347  0.88746044  0.11883636  1
  Fe  Fe12  1  0.38124215  0.62460467  0.38747028  1
  Fe  Fe13  1  0.38751028  0.38131748  0.62458050  1
  Fe  Fe14  1  0.61247190  0.88131243  0.87543063  1
  Fe  Fe15  1  0.61875613  0.12460630  0.11252803  1
  Fe  Fe16  1  0.62453088  0.38744387  0.38117000  1
  Fe  Fe17  1  0.87547139  0.61253852  0.88116384  1
  Fe  Fe18  1  0.88125564  0.87539664  0.61252692  1
  Fe  Fe19  1  0.88751914  0.11871015  0.37541564  1
  Sn  Sn20  1  0.00270554  0.49737748  0.50267039  1
  Sn  Sn21  1  0.49730316  0.50262399  0.00267070  1
  Sn  Sn22  1  0.50270099  0.00261512  0.49733746  1
  Sn  Sn23  1  0.99731386  0.99739651  0.99732021  1
  O  O24  1  0.11074929  0.12498031  0.38874558  1
  O  O25  1  0.11109166  0.88903796  0.62498838  1
  O  O26  1  0.11282380  0.61290357  0.88714819  1
  O  O27  1  0.12496099  0.38899651  0.11096116  1
  O  O28  1  0.12681224  0.13703948  0.86323545  1
  O  O29  1  0.13918717  0.36098065  0.63902721  1
  O  O30  1  0.13687846  0.62680362  0.36297300  1
  O  O31  1  0.13708598  0.86308542  0.12677633  1
  O  O32  1  0.36292267  0.13691262  0.62677326  1
  O  O33  1  0.36312962  0.37320015  0.86296448  1
  O  O34  1  0.36081305  0.63904036  0.13903683  1
  O  O35  1  0.37318752  0.86295972  0.36323751  1
  O  O36  1  0.37504726  0.61103996  0.61093343  1
  O  O37  1  0.38717597  0.38711709  0.38713682  1
  O  O38  1  0.38888783  0.11094374  0.12499488  1
  O  O39  1  0.38925648  0.87502371  0.88872816  1
  O  O40  1  0.61074429  0.37502227  0.61124626  1
  O  O41  1  0.61108732  0.61095186  0.37501032  1
  O  O42  1  0.61282263  0.88709988  0.11284181  1
  O  O43  1  0.62494363  0.11103599  0.88906590  1
  O  O44  1  0.62680678  0.36296551  0.13676659  1
  O  O45  1  0.63916717  0.13902017  0.36097115  1
  O  O46  1  0.63688654  0.87319290  0.63704294  1
  O  O47  1  0.63707422  0.63690988  0.87322665  1
  O  O48  1  0.86291753  0.36308801  0.37324182  1
  O  O49  1  0.86312912  0.12680121  0.13705222  1
  O  O50  1  0.86081710  0.86099208  0.86094368  1
  O  O51  1  0.87319207  0.63703407  0.63677235  1
  O  O52  1  0.87505821  0.88894698  0.38909204  1
  O  O53  1  0.88716985  0.11289462  0.61284304  1
  O  O54  1  0.88890177  0.38905006  0.87500766  1
  O  O55  1  0.88926614  0.62498736  0.11125234  1
