# generated using pymatgen
data_Zn2SiHO5
_symmetry_space_group_name_H-M   'P 1'
_cell_length_a   5.17676504
_cell_length_b   8.46097696
_cell_length_c   10.81191216
_cell_angle_alpha   90.00000000
_cell_angle_beta   90.00000000
_cell_angle_gamma   90.00000000
_symmetry_Int_Tables_number   1
_chemical_formula_structural   Zn2SiHO5
_chemical_formula_sum   'Zn8 Si4 H4 O20'
_cell_volume   473.56704753
_cell_formula_units_Z   4
loop_
 _symmetry_equiv_pos_site_id
 _symmetry_equiv_pos_as_xyz
  1  'x, y, z'
loop_
 _atom_site_type_symbol
 _atom_site_label
 _atom_site_symmetry_multiplicity
 _atom_site_fract_x
 _atom_site_fract_y
 _atom_site_fract_z
 _atom_site_occupancy
  Zn  Zn0  1  0.49602446  0.73734314  0.35513134  1
  Zn  Zn1  1  0.49602446  0.26265686  0.64486866  1
  Zn  Zn2  1  0.99602446  0.76265686  0.85513134  1
  Zn  Zn3  1  0.99602446  0.23734314  0.14486866  1
  Zn  Zn4  1  0.99314988  0.82756321  0.17512227  1
  Zn  Zn5  1  0.99314988  0.17243679  0.82487773  1
  Zn  Zn6  1  0.49314988  0.67243679  0.67512227  1
  Zn  Zn7  1  0.49314988  0.32756321  0.32487773  1
  Si  Si8  1  0.00389513  0.52568804  0.35496335  1
  Si  Si9  1  0.00389513  0.47431196  0.64503665  1
  Si  Si10  1  0.50389513  0.97431196  0.85496335  1
  Si  Si11  1  0.50389513  0.02568804  0.14503665  1
  H  H12  1  0.67136115  0.88481277  0.53480195  1
  H  H13  1  0.67136115  0.11518723  0.46519805  1
  H  H14  1  0.17136115  0.61518723  0.03480195  1
  H  H15  1  0.17136115  0.38481277  0.96519805  1
  O  O16  1  0.13178694  0.69517946  0.31204381  1
  O  O17  1  0.13178694  0.30482054  0.68795619  1
  O  O18  1  0.63178694  0.80482054  0.81204381  1
  O  O19  1  0.63178694  0.19517946  0.18795619  1
  O  O20  1  0.63276958  0.87769519  0.22264228  1
  O  O21  1  0.63276958  0.12230481  0.77735772  1
  O  O22  1  0.13276958  0.62230481  0.72264228  1
  O  O23  1  0.13276958  0.37769519  0.27735772  1
  O  O24  1  0.68995596  0.53053554  0.33555905  1
  O  O25  1  0.68995596  0.46946446  0.66444095  1
  O  O26  1  0.18995596  0.96946446  0.83555905  1
  O  O27  1  0.18995596  0.03053554  0.16444095  1
  O  O28  1  0.54047451  0.80141870  0.52628868  1
  O  O29  1  0.54047451  0.19858130  0.47371132  1
  O  O30  1  0.04047451  0.69858130  0.02628868  1
  O  O31  1  0.04047451  0.30141870  0.97371132  1
  O  O32  1  0.09177815  0.50000000  0.50000000  1
  O  O33  1  0.59177815  0.00000000  -0.00000000  1
  O  O34  1  0.00328664  -0.00000000  0.50000000  1
  O  O35  1  0.50328664  0.50000000  -0.00000000  1
