# generated using pymatgen
data_CsLiSO4
_symmetry_space_group_name_H-M   'P 1'
_cell_length_a   5.52881758
_cell_length_b   10.01826207
_cell_length_c   11.96618945
_cell_angle_alpha   90.00000000
_cell_angle_beta   90.00000000
_cell_angle_gamma   90.00000000
_symmetry_Int_Tables_number   1
_chemical_formula_structural   CsLiSO4
_chemical_formula_sum   'Cs4 Li4 S4 O16'
_cell_volume   662.79698404
_cell_formula_units_Z   4
loop_
 _symmetry_equiv_pos_site_id
 _symmetry_equiv_pos_as_xyz
  1  'x, y, z'
loop_
 _atom_site_type_symbol
 _atom_site_label
 _atom_site_symmetry_multiplicity
 _atom_site_fract_x
 _atom_site_fract_y
 _atom_site_fract_z
 _atom_site_occupancy
  Cs  Cs0  1  0.25000000  0.55495912  0.15028634  1
  Cs  Cs1  1  0.25000000  0.05495912  0.34971366  1
  Cs  Cs2  1  0.75000000  0.44504088  0.84971366  1
  Cs  Cs3  1  0.75000000  0.94504088  0.65028634  1
  Li  Li4  1  0.25000000  0.87701272  0.01452921  1
  Li  Li5  1  0.25000000  0.37701272  0.48547079  1
  Li  Li6  1  0.75000000  0.12298728  0.98547079  1
  Li  Li7  1  0.75000000  0.62298728  0.51452921  1
  S  S8  1  0.25000000  0.69467440  0.43617298  1
  S  S9  1  0.25000000  0.19467440  0.06382702  1
  S  S10  1  0.75000000  0.30532560  0.56382702  1
  S  S11  1  0.75000000  0.80532560  0.93617298  1
  O  O12  1  0.25000000  0.76039686  0.32488055  1
  O  O13  1  0.25000000  0.26039686  0.17511945  1
  O  O14  1  0.75000000  0.23960314  0.67511945  1
  O  O15  1  0.75000000  0.73960314  0.82488055  1
  O  O16  1  0.25000000  0.54642917  0.41975241  1
  O  O17  1  0.25000000  0.04642917  0.08024759  1
  O  O18  1  0.75000000  0.45357083  0.58024759  1
  O  O19  1  0.75000000  0.95357083  0.91975241  1
  O  O20  1  0.02942672  0.73537848  0.50039107  1
  O  O21  1  0.47057328  0.23537848  0.99960893  1
  O  O22  1  0.52942672  0.26462152  0.49960893  1
  O  O23  1  0.97057328  0.76462152  0.00039107  1
  O  O24  1  0.97057328  0.26462152  0.49960893  1
  O  O25  1  0.52942672  0.76462152  0.00039107  1
  O  O26  1  0.47057328  0.73537848  0.50039107  1
  O  O27  1  0.02942672  0.23537848  0.99960893  1
