# generated using pymatgen
data_UBi4(AsO8)2
_symmetry_space_group_name_H-M   'P 1'
_cell_length_a   5.59800758
_cell_length_b   6.70489259
_cell_length_c   11.31646929
_cell_angle_alpha   95.15456238
_cell_angle_beta   72.12106599
_cell_angle_gamma   71.96657925
_symmetry_Int_Tables_number   1
_chemical_formula_structural   UBi4(AsO8)2
_chemical_formula_sum   'U1 Bi4 As2 O16'
_cell_volume   376.27515252
_cell_formula_units_Z   1
loop_
 _symmetry_equiv_pos_site_id
 _symmetry_equiv_pos_as_xyz
  1  'x, y, z'
loop_
 _atom_site_type_symbol
 _atom_site_label
 _atom_site_symmetry_multiplicity
 _atom_site_fract_x
 _atom_site_fract_y
 _atom_site_fract_z
 _atom_site_occupancy
  U  U0  1  0.00000000  -0.00000000  0.00000000  1
  Bi  Bi1  1  0.04481519  0.22880984  0.54203939  1
  Bi  Bi2  1  0.95518481  0.77119016  0.45796061  1
  Bi  Bi3  1  0.67854507  0.40546081  0.32414859  1
  Bi  Bi4  1  0.32145493  0.59453919  0.67585141  1
  As  As5  1  0.40225970  0.93045884  0.22600947  1
  As  As6  1  0.59774030  0.06954116  0.77399053  1
  O  O7  1  0.75391869  0.26935198  0.08561672  1
  O  O8  1  0.24608131  0.73064802  0.91438328  1
  O  O9  1  0.84205117  0.09588732  0.43401513  1
  O  O10  1  0.15794883  0.90411268  0.56598487  1
  O  O11  1  0.25858694  0.49968888  0.48240784  1
  O  O12  1  0.74141306  0.50031112  0.51759216  1
  O  O13  1  0.36977738  0.13022024  0.34586478  1
  O  O14  1  0.63022262  0.86977976  0.65413522  1
  O  O15  1  0.35622468  0.71199407  0.28791048  1
  O  O16  1  0.64377532  0.28800593  0.71208952  1
  O  O17  1  0.71328991  0.85684821  0.11327123  1
  O  O18  1  0.28671009  0.14315179  0.88672877  1
  O  O19  1  0.16229978  0.03298106  0.16033923  1
  O  O20  1  0.83770022  0.96701894  0.83966077  1
  O  O21  1  0.12959990  0.34935289  0.69119425  1
  O  O22  1  0.87040010  0.65064711  0.30880575  1
