# generated using pymatgen
data_Fe10O11F9
_symmetry_space_group_name_H-M   'P 1'
_cell_length_a   4.76108782
_cell_length_b   4.76626846
_cell_length_c   15.33557223
_cell_angle_alpha   89.88565653
_cell_angle_beta   90.07392361
_cell_angle_gamma   93.88956566
_symmetry_Int_Tables_number   1
_chemical_formula_structural   Fe10O11F9
_chemical_formula_sum   'Fe10 O11 F9'
_cell_volume   347.20185449
_cell_formula_units_Z   1
loop_
 _symmetry_equiv_pos_site_id
 _symmetry_equiv_pos_as_xyz
  1  'x, y, z'
loop_
 _atom_site_type_symbol
 _atom_site_label
 _atom_site_symmetry_multiplicity
 _atom_site_fract_x
 _atom_site_fract_y
 _atom_site_fract_z
 _atom_site_occupancy
  Fe  Fe0  1  0.00420388  0.98505164  0.99779616  1
  Fe  Fe1  1  0.00478173  0.98436456  0.20496193  1
  Fe  Fe2  1  0.04354290  0.00440264  0.39895604  1
  Fe  Fe3  1  0.00271117  0.97722647  0.59197756  1
  Fe  Fe4  1  0.03798469  0.01577136  0.80409131  1
  Fe  Fe5  1  0.50593660  0.49080671  0.10094710  1
  Fe  Fe6  1  0.46335164  0.51292826  0.50332998  1
  Fe  Fe7  1  0.46440994  0.51435284  0.29560567  1
  Fe  Fe8  1  0.49966026  0.47971751  0.69465425  1
  Fe  Fe9  1  0.46125007  0.51847962  0.90648255  1
  O  O10  1  0.19154898  0.81118910  0.29766256  1
  O  O11  1  0.19200584  0.80767110  0.49782661  1
  O  O12  1  0.18809090  0.81422824  0.90128070  1
  O  O13  1  0.30136845  0.30130084  0.00658195  1
  O  O14  1  0.30317167  0.29846962  0.19399126  1
  O  O15  1  0.31765777  0.31839912  0.39781818  1
  O  O16  1  0.28972508  0.29464074  0.60168758  1
  O  O17  1  0.31804141  0.32048047  0.80077419  1
  O  O18  1  0.69138920  0.68978497  0.00517432  1
  O  O19  1  0.69294539  0.68779048  0.19570410  1
  O  O20  1  0.69160195  0.69156804  0.60139603  1
  F  F21  1  0.19100893  0.80146834  0.10079453  1
  F  F22  1  0.19418333  0.80513890  0.70225687  1
  F  F23  1  0.70071281  0.70715000  0.39754329  1
  F  F24  1  0.70428181  0.71167131  0.80036797  1
  F  F25  1  0.81123659  0.18018319  0.10069283  1
  F  F26  1  0.80605909  0.19459786  0.49626779  1
  F  F27  1  0.80942674  0.19680029  0.29954431  1
  F  F28  1  0.80721958  0.19781482  0.89997862  1
  F  F29  1  0.81049158  0.18654999  0.70385376  1
