# generated using pymatgen
data_Fe5O3F7
_symmetry_space_group_name_H-M   'P 1'
_cell_length_a   4.79952870
_cell_length_b   4.80716451
_cell_length_c   15.70167275
_cell_angle_alpha   90.05119523
_cell_angle_beta   89.87555299
_cell_angle_gamma   91.28620734
_symmetry_Int_Tables_number   1
_chemical_formula_structural   Fe5O3F7
_chemical_formula_sum   'Fe10 O6 F14'
_cell_volume   362.17868092
_cell_formula_units_Z   2
loop_
 _symmetry_equiv_pos_site_id
 _symmetry_equiv_pos_as_xyz
  1  'x, y, z'
loop_
 _atom_site_type_symbol
 _atom_site_label
 _atom_site_symmetry_multiplicity
 _atom_site_fract_x
 _atom_site_fract_y
 _atom_site_fract_z
 _atom_site_occupancy
  Fe  Fe0  1  0.99481827  0.99351939  0.99977287  1
  Fe  Fe1  1  0.03040158  0.02857852  0.19870588  1
  Fe  Fe2  1  0.96742113  0.96507449  0.39989623  1
  Fe  Fe3  1  0.04147274  0.02011534  0.60666443  1
  Fe  Fe4  1  0.00044465  0.98851950  0.79762851  1
  Fe  Fe5  1  0.48556221  0.48424440  0.09383908  1
  Fe  Fe6  1  0.50164039  0.49075019  0.49701075  1
  Fe  Fe7  1  0.50370758  0.50124640  0.29456083  1
  Fe  Fe8  1  0.46160262  0.51895563  0.69543692  1
  Fe  Fe9  1  0.50292115  0.49854739  0.91455903  1
  O  O10  1  0.20225308  0.81162192  0.69530942  1
  O  O11  1  0.30072438  0.29715385  0.99884972  1
  O  O12  1  0.32768926  0.32640395  0.20174622  1
  O  O13  1  0.31522618  0.31837888  0.59674481  1
  O  O14  1  0.69188622  0.68894197  0.00261078  1
  O  O15  1  0.67116954  0.66547767  0.40235620  1
  F  F16  1  0.21095714  0.79297189  0.10207019  1
  F  F17  1  0.20839966  0.79239681  0.30243659  1
  F  F18  1  0.19948746  0.80082589  0.50681107  1
  F  F19  1  0.20767119  0.78406983  0.89399204  1
  F  F20  1  0.28849134  0.28357523  0.40280818  1
  F  F21  1  0.30438366  0.31203980  0.79619952  1
  F  F22  1  0.71391477  0.71197901  0.20386058  1
  F  F23  1  0.70413547  0.70897510  0.59910398  1
  F  F24  1  0.68219674  0.68516969  0.79708841  1
  F  F25  1  0.79445950  0.20937549  0.10219640  1
  F  F26  1  0.80454998  0.19271400  0.50867427  1
  F  F27  1  0.79421030  0.20491117  0.30261355  1
  F  F28  1  0.78963868  0.20453394  0.89180901  1
  F  F29  1  0.79856113  0.21893168  0.69464454  1
