# generated using pymatgen
data_VHO3
_symmetry_space_group_name_H-M   'P 1'
_cell_length_a   6.18254487
_cell_length_b   6.19490129
_cell_length_c   12.11118205
_cell_angle_alpha   93.92381152
_cell_angle_beta   85.68986590
_cell_angle_gamma   145.47285212
_symmetry_Int_Tables_number   1
_chemical_formula_structural   VHO3
_chemical_formula_sum   'V4 H4 O12'
_cell_volume   262.15410346
_cell_formula_units_Z   4
loop_
 _symmetry_equiv_pos_site_id
 _symmetry_equiv_pos_as_xyz
  1  'x, y, z'
loop_
 _atom_site_type_symbol
 _atom_site_label
 _atom_site_symmetry_multiplicity
 _atom_site_fract_x
 _atom_site_fract_y
 _atom_site_fract_z
 _atom_site_occupancy
  V  V0  1  0.07932030  0.92675669  0.86756518  1
  V  V1  1  0.92183635  0.07409559  0.13313731  1
  V  V2  1  0.78630643  0.22025252  0.86597809  1
  V  V3  1  0.21304262  0.77985388  0.13390815  1
  H  H4  1  0.59169762  0.88123687  0.46814972  1
  H  H5  1  0.45622907  0.53872138  0.49133859  1
  H  H6  1  0.85160640  0.53269630  0.49498207  1
  H  H7  1  0.51185545  0.27193728  0.58076590  1
  O  O8  1  0.61432133  0.39001525  0.89390748  1
  O  O9  1  0.38582909  0.61138497  0.10591698  1
  O  O10  1  0.92847739  0.07585709  0.91645807  1
  O  O11  1  0.07234125  0.92432138  0.08153759  1
  O  O12  1  0.24790555  0.75649164  0.90206624  1
  O  O13  1  0.75210626  0.24378152  0.09782960  1
  O  O14  1  0.08698109  0.93253301  0.73463688  1
  O  O15  1  0.91833536  0.06840307  0.26508791  1
  O  O16  1  0.81021920  0.20423655  0.73403294  1
  O  O17  1  0.18585806  0.79632209  0.26564730  1
  O  O18  1  0.36785671  0.61787489  0.49151129  1
  O  O19  1  0.58390748  0.35665605  0.50439672  1
