# generated using pymatgen
data_V2P2H6PbO14
_symmetry_space_group_name_H-M   'P 1'
_cell_length_a   6.30030528
_cell_length_b   6.30030528
_cell_length_c   14.42973850
_cell_angle_alpha   82.64462054
_cell_angle_beta   97.35537946
_cell_angle_gamma   89.35430020
_symmetry_Int_Tables_number   1
_chemical_formula_structural   V2P2H6PbO14
_chemical_formula_sum   'V4 P4 H12 Pb2 O28'
_cell_volume   563.16132998
_cell_formula_units_Z   2
loop_
 _symmetry_equiv_pos_site_id
 _symmetry_equiv_pos_as_xyz
  1  'x, y, z'
loop_
 _atom_site_type_symbol
 _atom_site_label
 _atom_site_symmetry_multiplicity
 _atom_site_fract_x
 _atom_site_fract_y
 _atom_site_fract_z
 _atom_site_occupancy
  V  V0  1  0.73651905  0.04595264  0.47128320  1
  V  V1  1  0.95404736  0.26348095  0.97128320  1
  V  V2  1  0.25498991  0.50021615  0.56922357  1
  V  V3  1  0.49978385  0.74501009  0.06922357  1
  P  P4  1  0.25108155  0.02154014  0.52120286  1
  P  P5  1  0.97845986  0.74891845  0.02120286  1
  P  P6  1  0.74756332  0.52144646  0.52591622  1
  P  P7  1  0.47855354  0.25243668  0.02591622  1
  H  H8  1  0.82378619  0.03604252  0.30241837  1
  H  H9  1  0.96395748  0.17621381  0.80241837  1
  H  H10  1  0.14767824  0.42074207  0.76414756  1
  H  H11  1  0.57925793  0.85232176  0.26414756  1
  H  H12  1  0.34721242  0.56901303  0.76273440  1
  H  H13  1  0.43098697  0.65278758  0.26273440  1
  H  H14  1  0.11621403  0.92872132  0.70312746  1
  H  H15  1  0.07127868  0.88378597  0.20312746  1
  H  H16  1  0.77857083  0.57873841  0.78612009  1
  H  H17  1  0.42126159  0.22142917  0.28612009  1
  H  H18  1  0.89376255  0.79656681  0.77831378  1
  H  H19  1  0.20343319  0.10623745  0.27831378  1
  Pb  Pb20  1  0.48864168  0.04136379  0.78990237  1
  Pb  Pb21  1  0.95863621  0.51135832  0.28990237  1
  O  O22  1  0.78715644  0.02825622  0.58630486  1
  O  O23  1  0.97174378  0.21284356  0.08630486  1
  O  O24  1  0.43173081  0.04141981  0.45902243  1
  O  O25  1  0.95858019  0.56826919  0.95902243  1
  O  O26  1  0.04160640  0.05931182  0.45367792  1
  O  O27  1  0.94068818  0.95839360  0.95367792  1
  O  O28  1  0.72735512  0.36161191  0.45206078  1
  O  O29  1  0.63838809  0.27264488  0.95206078  1
  O  O30  1  0.74301169  0.73951726  0.46501585  1
  O  O31  1  0.26048274  0.25698831  0.96501585  1
  O  O32  1  0.21161938  0.52247003  0.45502877  1
  O  O33  1  0.47752997  0.78838062  0.95502877  1
  O  O34  1  0.26053296  0.79984181  0.58396541  1
  O  O35  1  0.20015819  0.73946704  0.08396541  1
  O  O36  1  0.96313637  0.48569649  0.59296574  1
  O  O37  1  0.51430351  0.03686363  0.09296574  1
  O  O38  1  0.56539021  0.49586949  0.58896887  1
  O  O39  1  0.50413051  0.43460979  0.08896887  1
  O  O40  1  0.27858523  0.18657758  0.59449217  1
  O  O41  1  0.81342242  0.72141477  0.09449217  1
  O  O42  1  0.69050874  0.06872556  0.32679270  1
  O  O43  1  0.93127444  0.30949126  0.82679270  1
  O  O44  1  0.28594808  0.44488328  0.73591272  1
  O  O45  1  0.55511672  0.71405192  0.23591272  1
  O  O46  1  0.15714197  0.90680117  0.77147319  1
  O  O47  1  0.09319883  0.84285803  0.27147319  1
  O  O48  1  0.74846990  0.73450727  0.76929870  1
  O  O49  1  0.26549273  0.25153010  0.26929870  1
