# generated using pymatgen
data_Eu2NiO4
_symmetry_space_group_name_H-M   'P 1'
_cell_length_a   6.67927414
_cell_length_b   6.67927414
_cell_length_c   5.39704275
_cell_angle_alpha   90.00000000
_cell_angle_beta   90.00000000
_cell_angle_gamma   47.55487373
_symmetry_Int_Tables_number   1
_chemical_formula_structural   Eu2NiO4
_chemical_formula_sum   'Eu4 Ni2 O8'
_cell_volume   177.67488718
_cell_formula_units_Z   2
loop_
 _symmetry_equiv_pos_site_id
 _symmetry_equiv_pos_as_xyz
  1  'x, y, z'
loop_
 _atom_site_type_symbol
 _atom_site_label
 _atom_site_symmetry_multiplicity
 _atom_site_fract_x
 _atom_site_fract_y
 _atom_site_fract_z
 _atom_site_occupancy
  Eu  Eu0  1  0.14010353  0.14010353  0.49224054  1
  Eu  Eu1  1  0.35989647  0.35989647  0.99224054  1
  Eu  Eu2  1  0.64010353  0.64010353  0.00775946  1
  Eu  Eu3  1  0.85989647  0.85989647  0.50775946  1
  Ni  Ni4  1  0.00000000  0.00000000  -0.00000000  1
  Ni  Ni5  1  0.50000000  0.50000000  0.50000000  1
  O  O6  1  0.24430668  0.74430668  0.25000000  1
  O  O7  1  0.25569332  0.75569332  0.75000000  1
  O  O8  1  0.17266778  0.17266778  0.02057099  1
  O  O9  1  0.32733222  0.32733222  0.52057099  1
  O  O10  1  0.67266778  0.67266778  0.47942901  1
  O  O11  1  0.82733222  0.82733222  0.97942901  1
  O  O12  1  0.75569332  0.25569332  0.75000000  1
  O  O13  1  0.74430668  0.24430668  0.25000000  1
