# generated using pymatgen
data_TlNiO3
_symmetry_space_group_name_H-M   'P 1'
_cell_length_a   5.32758842
_cell_length_b   5.45750073
_cell_length_c   7.69178816
_cell_angle_alpha   90.00000000
_cell_angle_beta   89.96281455
_cell_angle_gamma   90.00000000
_symmetry_Int_Tables_number   1
_chemical_formula_structural   TlNiO3
_chemical_formula_sum   'Tl4 Ni4 O12'
_cell_volume   223.64113722
_cell_formula_units_Z   4
loop_
 _symmetry_equiv_pos_site_id
 _symmetry_equiv_pos_as_xyz
  1  'x, y, z'
loop_
 _atom_site_type_symbol
 _atom_site_label
 _atom_site_symmetry_multiplicity
 _atom_site_fract_x
 _atom_site_fract_y
 _atom_site_fract_z
 _atom_site_occupancy
  Tl  Tl0  1  0.51608568  0.55040900  0.24748617  1
  Tl  Tl1  1  0.01608568  0.94959100  0.74748617  1
  Tl  Tl2  1  0.48391432  0.44959100  0.75251383  1
  Tl  Tl3  1  0.98391432  0.05040900  0.25251383  1
  Ni  Ni4  1  0.50000000  -0.00000000  0.00000000  1
  Ni  Ni5  1  0.50000000  -0.00000000  0.50000000  1
  Ni  Ni6  1  0.00000000  0.50000000  0.50000000  1
  Ni  Ni7  1  0.00000000  0.50000000  0.00000000  1
  O  O8  1  0.69354529  0.29043222  0.43938310  1
  O  O9  1  0.70664707  0.30207798  0.05315762  1
  O  O10  1  0.20664707  0.19792202  0.55315762  1
  O  O11  1  0.79335293  0.80207798  0.44684238  1
  O  O12  1  0.80645471  0.79043222  0.06061690  1
  O  O13  1  0.39514586  0.95179261  0.25580586  1
  O  O14  1  0.19354529  0.20956778  0.93938310  1
  O  O15  1  0.60485414  0.04820739  0.74419414  1
  O  O16  1  0.89514586  0.54820739  0.75580586  1
  O  O17  1  0.29335293  0.69792202  0.94684238  1
  O  O18  1  0.10485414  0.45179261  0.24419414  1
  O  O19  1  0.30645471  0.70956778  0.56061690  1
