# generated using pymatgen
data_Cd5(SiO5)2
_symmetry_space_group_name_H-M   'P 1'
_cell_length_a   17.57364086
_cell_length_b   5.01266758
_cell_length_c   11.41202073
_cell_angle_alpha   90.00000000
_cell_angle_beta   109.40723054
_cell_angle_gamma   90.00000000
_symmetry_Int_Tables_number   1
_chemical_formula_structural   Cd5(SiO5)2
_chemical_formula_sum   'Cd20 Si8 O40'
_cell_volume   948.17417832
_cell_formula_units_Z   4
loop_
 _symmetry_equiv_pos_site_id
 _symmetry_equiv_pos_as_xyz
  1  'x, y, z'
loop_
 _atom_site_type_symbol
 _atom_site_label
 _atom_site_symmetry_multiplicity
 _atom_site_fract_x
 _atom_site_fract_y
 _atom_site_fract_z
 _atom_site_occupancy
  Cd  Cd0  1  -0.00000000  0.50000000  0.50000000  1
  Cd  Cd1  1  -0.00000000  -0.00000000  -0.00000000  1
  Cd  Cd2  1  0.50000000  -0.00000000  0.50000000  1
  Cd  Cd3  1  0.50000000  0.50000000  -0.00000000  1
  Cd  Cd4  1  0.90034760  0.50929336  0.73049624  1
  Cd  Cd5  1  0.09965240  0.00929336  0.76950376  1
  Cd  Cd6  1  0.09965240  0.49070664  0.26950376  1
  Cd  Cd7  1  0.90034760  0.99070664  0.23049624  1
  Cd  Cd8  1  0.60015850  0.48487033  0.76429687  1
  Cd  Cd9  1  0.39984150  0.98487033  0.73570313  1
  Cd  Cd10  1  0.39984150  0.51512967  0.23570313  1
  Cd  Cd11  1  0.60015850  0.01512967  0.26429687  1
  Cd  Cd12  1  0.71197840  0.01419567  0.59243450  1
  Cd  Cd13  1  0.28802160  0.51419567  0.90756550  1
  Cd  Cd14  1  0.28802160  0.98580433  0.40756550  1
  Cd  Cd15  1  0.71197840  0.48580433  0.09243450  1
  Cd  Cd16  1  0.78755507  0.97753307  0.89728862  1
  Cd  Cd17  1  0.21244493  0.47753307  0.60271138  1
  Cd  Cd18  1  0.21244493  0.02246693  0.10271138  1
  Cd  Cd19  1  0.78755507  0.52246693  0.39728862  1
  Si  Si20  1  0.89800734  0.07551513  0.54049300  1
  Si  Si21  1  0.10199266  0.57551513  0.95950700  1
  Si  Si22  1  0.10199266  0.92448487  0.45950700  1
  Si  Si23  1  0.89800734  0.42448487  0.04049300  1
  Si  Si24  1  0.59993546  0.92472873  0.95268993  1
  Si  Si25  1  0.40006454  0.42472873  0.54731007  1
  Si  Si26  1  0.40006454  0.07527127  0.04731007  1
  Si  Si27  1  0.59993546  0.57527127  0.45268993  1
  O  O28  1  0.81828452  0.21695575  0.56156572  1
  O  O29  1  0.18171548  0.71695575  0.93843428  1
  O  O30  1  0.18171548  0.78304425  0.43843428  1
  O  O31  1  0.81828452  0.28304425  0.06156572  1
  O  O32  1  0.67860750  0.78456279  0.92724650  1
  O  O33  1  0.32139250  0.28456279  0.57275350  1
  O  O34  1  0.32139250  0.21543721  0.07275350  1
  O  O35  1  0.67860750  0.71543721  0.42724650  1
  O  O36  1  0.90215365  0.29666961  0.90812589  1
  O  O37  1  0.09784635  0.79666961  0.59187411  1
  O  O38  1  0.09784635  0.70333039  0.09187411  1
  O  O39  1  0.90215365  0.20333039  0.40812589  1
  O  O40  1  0.59803912  0.70088788  0.58672573  1
  O  O41  1  0.40196088  0.20088788  0.91327427  1
  O  O42  1  0.40196088  0.29911212  0.41327427  1
  O  O43  1  0.59803912  0.79911212  0.08672573  1
  O  O44  1  0.97695819  0.20250311  0.65163045  1
  O  O45  1  0.02304181  0.70250311  0.84836955  1
  O  O46  1  0.02304181  0.79749689  0.34836955  1
  O  O47  1  0.97695819  0.29749689  0.15163045  1
  O  O48  1  0.52068394  0.79173105  0.84514573  1
  O  O49  1  0.47931606  0.29173105  0.65485427  1
  O  O50  1  0.47931606  0.20826895  0.15485427  1
  O  O51  1  0.52068394  0.70826895  0.34514573  1
  O  O52  1  0.60267993  0.25232439  0.95245241  1
  O  O53  1  0.39732007  0.75232439  0.54754759  1
  O  O54  1  0.39732007  0.74767561  0.04754759  1
  O  O55  1  0.60267993  0.24767561  0.45245241  1
  O  O56  1  0.89480747  0.74787071  0.54105303  1
  O  O57  1  0.10519253  0.24787071  0.95894697  1
  O  O58  1  0.10519253  0.25212929  0.45894697  1
  O  O59  1  0.89480747  0.75212929  0.04105303  1
  O  O60  1  0.79119480  0.73089490  0.73664609  1
  O  O61  1  0.20880520  0.23089490  0.76335391  1
  O  O62  1  0.20880520  0.26910510  0.26335391  1
  O  O63  1  0.79119480  0.76910510  0.23664609  1
  O  O64  1  0.70830674  0.25956368  0.75336677  1
  O  O65  1  0.29169326  0.75956368  0.74663323  1
  O  O66  1  0.29169326  0.74043632  0.24663323  1
  O  O67  1  0.70830674  0.24043632  0.25336677  1
