# generated using pymatgen
data_Gd(BO2)6
_symmetry_space_group_name_H-M   'P 1'
_cell_length_a   8.77001057
_cell_length_b   8.77001057
_cell_length_c   8.47999174
_cell_angle_alpha   58.86206145
_cell_angle_beta   58.86206145
_cell_angle_gamma   59.99999769
_symmetry_Int_Tables_number   1
_chemical_formula_structural   Gd(BO2)6
_chemical_formula_sum   'Gd2 B12 O24'
_cell_volume   453.09851461
_cell_formula_units_Z   2
loop_
 _symmetry_equiv_pos_site_id
 _symmetry_equiv_pos_as_xyz
  1  'x, y, z'
loop_
 _atom_site_type_symbol
 _atom_site_label
 _atom_site_symmetry_multiplicity
 _atom_site_fract_x
 _atom_site_fract_y
 _atom_site_fract_z
 _atom_site_occupancy
  Gd  Gd0  1  0.50172497  0.50172497  0.49482510  1
  Gd  Gd1  1  0.00172497  0.00172497  0.99482510  1
  B  B2  1  0.90748564  0.20331996  0.25684670  1
  B  B3  1  0.20331996  0.63234771  0.25684670  1
  B  B4  1  0.63234771  0.90748564  0.25684670  1
  B  B5  1  0.40748564  0.13234771  0.75684670  1
  B  B6  1  0.13234771  0.70331996  0.75684670  1
  B  B7  1  0.70331996  0.40748564  0.75684670  1
  B  B8  1  0.60034757  0.11686982  0.90215295  1
  B  B9  1  0.11686982  0.38062967  0.90215295  1
  B  B10  1  0.38062967  0.60034757  0.90215295  1
  B  B11  1  0.10034757  0.88062967  0.40215295  1
  B  B12  1  0.88062967  0.61686982  0.40215295  1
  B  B13  1  0.61686982  0.10034757  0.40215295  1
  O  O14  1  0.51660026  0.80847516  0.30010894  1
  O  O15  1  0.80847516  0.37481564  0.30010894  1
  O  O16  1  0.37481564  0.51660026  0.30010894  1
  O  O17  1  0.01660026  0.87481564  0.80010894  1
  O  O18  1  0.87481564  0.30847516  0.80010894  1
  O  O19  1  0.30847516  0.01660026  0.80010894  1
  O  O20  1  0.03771377  0.24094800  0.04817407  1
  O  O21  1  0.24094800  0.67316417  0.04817407  1
  O  O22  1  0.67316417  0.03771377  0.04817407  1
  O  O23  1  0.53771377  0.17316417  0.54817407  1
  O  O24  1  0.17316417  0.74094800  0.54817407  1
  O  O25  1  0.74094800  0.53771377  0.54817407  1
  O  O26  1  0.28373493  0.32957090  0.75555497  1
  O  O27  1  0.32957090  0.63113921  0.75555497  1
  O  O28  1  0.63113921  0.28373493  0.75555497  1
  O  O29  1  0.78373493  0.13113921  0.25555497  1
  O  O30  1  0.13113921  0.82957090  0.25555497  1
  O  O31  1  0.82957090  0.78373493  0.25555497  1
  O  O32  1  0.00421128  0.06192804  0.39518735  1
  O  O33  1  0.06192804  0.53867333  0.39518735  1
  O  O34  1  0.53867333  0.00421128  0.39518735  1
  O  O35  1  0.50421128  0.03867333  0.89518735  1
  O  O36  1  0.03867333  0.56192804  0.89518735  1
  O  O37  1  0.56192804  0.50421128  0.89518735  1
