# generated using pymatgen
data_KZr(PO4)2
_symmetry_space_group_name_H-M   'P 1'
_cell_length_a   9.34586328
_cell_length_b   5.44353677
_cell_length_c   17.02477889
_cell_angle_alpha   90.00000000
_cell_angle_beta   114.04891733
_cell_angle_gamma   90.00000000
_symmetry_Int_Tables_number   1
_chemical_formula_structural   KZr(PO4)2
_chemical_formula_sum   'K4 Zr4 P8 O32'
_cell_volume   790.94621520
_cell_formula_units_Z   4
loop_
 _symmetry_equiv_pos_site_id
 _symmetry_equiv_pos_as_xyz
  1  'x, y, z'
loop_
 _atom_site_type_symbol
 _atom_site_label
 _atom_site_symmetry_multiplicity
 _atom_site_fract_x
 _atom_site_fract_y
 _atom_site_fract_z
 _atom_site_occupancy
  K  K0  1  0.50000000  0.93698681  0.75000000  1
  K  K1  1  0.50000000  0.06301319  0.25000000  1
  K  K2  1  0.00000000  0.05409430  0.75000000  1
  K  K3  1  0.00000000  0.94590570  0.25000000  1
  Zr  Zr4  1  0.74814061  0.22933631  0.49772549  1
  Zr  Zr5  1  0.25185939  0.22933631  0.00227451  1
  Zr  Zr6  1  0.25185939  0.77066369  0.50227451  1
  Zr  Zr7  1  0.74814061  0.77066369  0.99772549  1
  P  P8  1  0.16463852  0.27534519  0.61459585  1
  P  P9  1  0.83536148  0.27534519  0.88540415  1
  P  P10  1  0.83536148  0.72465481  0.38540415  1
  P  P11  1  0.16463852  0.72465481  0.11459585  1
  P  P12  1  0.66687957  0.72650326  0.61174799  1
  P  P13  1  0.33312043  0.72650326  0.88825201  1
  P  P14  1  0.33312043  0.27349674  0.38825201  1
  P  P15  1  0.66687957  0.27349674  0.11174799  1
  O  O16  1  0.98459411  0.25270077  0.58384445  1
  O  O17  1  0.01540589  0.25270077  0.91615555  1
  O  O18  1  0.01540589  0.74729923  0.41615555  1
  O  O19  1  0.98459411  0.74729923  0.08384445  1
  O  O20  1  0.20547881  0.51555697  0.58041097  1
  O  O21  1  0.79452119  0.51555697  0.91958903  1
  O  O22  1  0.79452119  0.48444303  0.41958903  1
  O  O23  1  0.20547881  0.48444303  0.08041097  1
  O  O24  1  0.22372409  0.05363568  0.57875636  1
  O  O25  1  0.77627591  0.05363568  0.92124364  1
  O  O26  1  0.77627591  0.94636432  0.42124364  1
  O  O27  1  0.22372409  0.94636432  0.07875636  1
  O  O28  1  0.68928892  0.48729658  0.56968084  1
  O  O29  1  0.31071108  0.48729658  0.93031916  1
  O  O30  1  0.31071108  0.51270342  0.43031916  1
  O  O31  1  0.68928892  0.51270342  0.06968084  1
  O  O32  1  0.51011147  0.22820026  0.41284637  1
  O  O33  1  0.48988853  0.22820026  0.08715363  1
  O  O34  1  0.48988853  0.77179974  0.58715363  1
  O  O35  1  0.51011147  0.77179974  0.91284637  1
  O  O36  1  0.73166602  0.94628930  0.57818886  1
  O  O37  1  0.26833398  0.94628930  0.92181114  1
  O  O38  1  0.26833398  0.05371070  0.42181114  1
  O  O39  1  0.73166602  0.05371070  0.07818886  1
  O  O40  1  0.24642067  0.26126494  0.71344690  1
  O  O41  1  0.75357933  0.26126494  0.78655310  1
  O  O42  1  0.75357933  0.73873506  0.28655310  1
  O  O43  1  0.24642067  0.73873506  0.21344690  1
  O  O44  1  0.24337473  0.71755377  0.78966728  1
  O  O45  1  0.75662527  0.71755377  0.71033272  1
  O  O46  1  0.75662527  0.28244623  0.21033272  1
  O  O47  1  0.24337473  0.28244623  0.28966728  1
