# generated using pymatgen
data_MgO
_symmetry_space_group_name_H-M   'P 1'
_cell_length_a   8.18373600
_cell_length_b   8.18373600
_cell_length_c   8.18373600
_cell_angle_alpha   54.52036625
_cell_angle_beta   135.48981435
_cell_angle_gamma   150.14496629
_symmetry_Int_Tables_number   1
_chemical_formula_structural   MgO
_chemical_formula_sum   'Mg8 O8'
_cell_volume   190.13256564
_cell_formula_units_Z   8
loop_
 _symmetry_equiv_pos_site_id
 _symmetry_equiv_pos_as_xyz
  1  'x, y, z'
loop_
 _atom_site_type_symbol
 _atom_site_label
 _atom_site_symmetry_multiplicity
 _atom_site_fract_x
 _atom_site_fract_y
 _atom_site_fract_z
 _atom_site_occupancy
  Mg  Mg0  1  0.33365788  0.92921553  0.26287341  1
  Mg  Mg1  1  0.66634212  0.07078447  0.73712659  1
  Mg  Mg2  1  0.83365788  0.57078447  0.40444235  1
  Mg  Mg3  1  0.16634212  0.42921553  0.59555765  1
  Mg  Mg4  1  0.66380857  0.31001852  0.97382709  1
  Mg  Mg5  1  0.33619143  0.68998148  0.02617291  1
  Mg  Mg6  1  0.16380857  0.18998148  0.35379006  1
  Mg  Mg7  1  0.83619143  0.81001852  0.64620994  1
  O  O8  1  0.16427083  0.80984186  0.97411269  1
  O  O9  1  0.83572917  0.19015814  0.02588731  1
  O  O10  1  0.66427083  0.69015814  0.35442897  1
  O  O11  1  0.33572917  0.30984186  0.64557103  1
  O  O12  1  0.82923662  0.42921861  0.25845523  1
  O  O13  1  0.17076338  0.57078139  0.74154477  1
  O  O14  1  0.32923662  0.07078139  0.40001802  1
  O  O15  1  0.67076338  0.92921861  0.59998198  1
