# generated using pymatgen
data_Ca2Ta3CuBrO10
_symmetry_space_group_name_H-M   'P 1'
_cell_length_a   3.94326066
_cell_length_b   3.94326066
_cell_length_c   15.78642346
_cell_angle_alpha   90.00000000
_cell_angle_beta   90.00000000
_cell_angle_gamma   90.00000000
_symmetry_Int_Tables_number   1
_chemical_formula_structural   Ca2Ta3CuBrO10
_chemical_formula_sum   'Ca2 Ta3 Cu1 Br1 O10'
_cell_volume   245.46790744
_cell_formula_units_Z   1
loop_
 _symmetry_equiv_pos_site_id
 _symmetry_equiv_pos_as_xyz
  1  'x, y, z'
loop_
 _atom_site_type_symbol
 _atom_site_label
 _atom_site_symmetry_multiplicity
 _atom_site_fract_x
 _atom_site_fract_y
 _atom_site_fract_z
 _atom_site_occupancy
  Ca  Ca0  1  0.50000000  0.50000000  0.85539479  1
  Ca  Ca1  1  0.50000000  0.50000000  0.14460521  1
  Ta  Ta2  1  0.00000000  0.00000000  -0.00000000  1
  Ta  Ta3  1  -0.00000000  -0.00000000  0.73176709  1
  Ta  Ta4  1  0.00000000  0.00000000  0.26823291  1
  Cu  Cu5  1  0.00000000  -0.00000000  0.50000000  1
  Br  Br6  1  0.50000000  0.50000000  0.50000000  1
  O  O7  1  0.50000000  -0.00000000  0.00000000  1
  O  O8  1  -0.00000000  0.50000000  -0.00000000  1
  O  O9  1  0.00000000  0.00000000  0.87531243  1
  O  O10  1  -0.00000000  -0.00000000  0.12468757  1
  O  O11  1  0.50000000  0.00000000  0.75872385  1
  O  O12  1  0.00000000  0.50000000  0.75872385  1
  O  O13  1  0.50000000  -0.00000000  0.24127615  1
  O  O14  1  -0.00000000  0.50000000  0.24127615  1
  O  O15  1  -0.00000000  -0.00000000  0.61796969  1
  O  O16  1  0.00000000  0.00000000  0.38203031  1
