# generated using pymatgen
data_NiH20Se2(NO7)2
_symmetry_space_group_name_H-M   'P 1'
_cell_length_a   9.32853195
_cell_length_b   12.84361304
_cell_length_c   6.55011922
_cell_angle_alpha   90.00000000
_cell_angle_beta   105.86680919
_cell_angle_gamma   90.00000000
_symmetry_Int_Tables_number   1
_chemical_formula_structural   NiH20Se2(NO7)2
_chemical_formula_sum   'Ni2 H40 Se4 N4 O28'
_cell_volume   754.88288188
_cell_formula_units_Z   2
loop_
 _symmetry_equiv_pos_site_id
 _symmetry_equiv_pos_as_xyz
  1  'x, y, z'
loop_
 _atom_site_type_symbol
 _atom_site_label
 _atom_site_symmetry_multiplicity
 _atom_site_fract_x
 _atom_site_fract_y
 _atom_site_fract_z
 _atom_site_occupancy
  Ni  Ni0  1  0.50000000  0.50000000  -0.00000000  1
  Ni  Ni1  1  0.00000000  0.00000000  -0.00000000  1
  H  H2  1  0.57406558  0.16972694  0.20323182  1
  H  H3  1  0.92593442  0.66972694  0.79676818  1
  H  H4  1  0.42593442  0.83027306  0.79676818  1
  H  H5  1  0.07406558  0.33027306  0.20323182  1
  H  H6  1  0.73050577  0.20019999  0.40298432  1
  H  H7  1  0.76949423  0.70019999  0.59701568  1
  H  H8  1  0.26949423  0.79980001  0.59701568  1
  H  H9  1  0.23050577  0.29980001  0.40298432  1
  H  H10  1  0.56450269  0.17873655  0.45310728  1
  H  H11  1  0.93549731  0.67873655  0.54689272  1
  H  H12  1  0.43549731  0.82126345  0.54689272  1
  H  H13  1  0.06450269  0.32126345  0.45310728  1
  H  H14  1  0.66091848  0.07758507  0.37954052  1
  H  H15  1  0.83908152  0.57758507  0.62045948  1
  H  H16  1  0.33908152  0.92241493  0.62045948  1
  H  H17  1  0.16091848  0.42241493  0.37954052  1
  H  H18  1  0.71406676  0.41619851  0.30973981  1
  H  H19  1  0.78593324  0.91619851  0.69026019  1
  H  H20  1  0.28593324  0.58380149  0.69026019  1
  H  H21  1  0.21406676  0.08380149  0.30973981  1
  H  H22  1  0.74677696  0.37903938  0.09339748  1
  H  H23  1  0.75322304  0.87903938  0.90660252  1
  H  H24  1  0.25322304  0.62096062  0.90660252  1
  H  H25  1  0.24677696  0.12096062  0.09339748  1
  H  H26  1  0.23850738  0.40457110  0.94620003  1
  H  H27  1  0.26149262  0.90457110  0.05379997  1
  H  H28  1  0.76149262  0.59542890  0.05379997  1
  H  H29  1  0.73850738  0.09542890  0.94620003  1
  H  H30  1  0.36613764  0.31996879  0.01285365  1
  H  H31  1  0.13386236  0.81996879  0.98714635  1
  H  H32  1  0.63386236  0.68003121  0.98714635  1
  H  H33  1  0.86613764  0.18003121  0.01285365  1
  H  H34  1  0.40073917  0.55810699  0.32359372  1
  H  H35  1  0.09926083  0.05810699  0.67640628  1
  H  H36  1  0.59926083  0.44189301  0.67640628  1
  H  H37  1  0.90073917  0.94189301  0.32359372  1
  H  H38  1  0.52473595  0.64084285  0.31566923  1
  H  H39  1  0.97526405  0.14084285  0.68433077  1
  H  H40  1  0.47526405  0.35915715  0.68433077  1
  H  H41  1  0.02473595  0.85915715  0.31566923  1
  Se  Se42  1  0.91236205  0.36426108  0.74161593  1
  Se  Se43  1  0.58763795  0.86426108  0.25838407  1
  Se  Se44  1  0.08763795  0.63573892  0.25838407  1
  Se  Se45  1  0.41236205  0.13573892  0.74161593  1
  N  N46  1  0.63344758  0.15662651  0.35961371  1
  N  N47  1  0.86655242  0.65662651  0.64038629  1
  N  N48  1  0.36655242  0.84337349  0.64038629  1
  N  N49  1  0.13344758  0.34337349  0.35961371  1
  O  O50  1  0.91951537  0.26318296  0.57925763  1
  O  O51  1  0.58048463  0.76318296  0.42074237  1
  O  O52  1  0.08048463  0.73681704  0.42074237  1
  O  O53  1  0.41951537  0.23681704  0.57925763  1
  O  O54  1  0.07018701  0.43135736  0.78789863  1
  O  O55  1  0.42981299  0.93135736  0.21210137  1
  O  O56  1  0.92981299  0.56864264  0.21210137  1
  O  O57  1  0.57018701  0.06864264  0.78789863  1
  O  O58  1  0.77155663  0.44188849  0.61100016  1
  O  O59  1  0.72844337  0.94188849  0.38899984  1
  O  O60  1  0.22844337  0.55811151  0.38899984  1
  O  O61  1  0.27155663  0.05811151  0.61100016  1
  O  O62  1  0.88432843  0.31865296  0.96898443  1
  O  O63  1  0.61567157  0.81865296  0.03101557  1
  O  O64  1  0.11567157  0.68134704  0.03101557  1
  O  O65  1  0.38432843  0.18134704  0.96898443  1
  O  O66  1  0.66667591  0.39483120  0.16127346  1
  O  O67  1  0.83332409  0.89483120  0.83872654  1
  O  O68  1  0.33332409  0.60516880  0.83872654  1
  O  O69  1  0.16667591  0.10516880  0.16127346  1
  O  O70  1  0.34124532  0.39262522  0.04077485  1
  O  O71  1  0.15875468  0.89262522  0.95922515  1
  O  O72  1  0.65875468  0.60737478  0.95922515  1
  O  O73  1  0.84124532  0.10737478  0.04077485  1
  O  O74  1  0.49576685  0.56671504  0.28500770  1
  O  O75  1  0.00423315  0.06671504  0.71499230  1
  O  O76  1  0.50423315  0.43328496  0.71499230  1
  O  O77  1  0.99576685  0.93328496  0.28500770  1
