# generated using pymatgen
data_Pu
_symmetry_space_group_name_H-M   'P 1'
_cell_length_a   6.89740076
_cell_length_b   3.60405067
_cell_length_c   6.35451760
_cell_angle_alpha   90.22116105
_cell_angle_beta   106.22914313
_cell_angle_gamma   89.97212337
_symmetry_Int_Tables_number   1
_chemical_formula_structural   Pu
_chemical_formula_sum   Pu8
_cell_volume   151.66852097
_cell_formula_units_Z   8
loop_
 _symmetry_equiv_pos_site_id
 _symmetry_equiv_pos_as_xyz
  1  'x, y, z'
loop_
 _atom_site_type_symbol
 _atom_site_label
 _atom_site_symmetry_multiplicity
 _atom_site_fract_x
 _atom_site_fract_y
 _atom_site_fract_z
 _atom_site_occupancy
  Pu  Pu0  1  0.67170197  0.38346161  0.07385748  1
  Pu  Pu1  1  0.14009205  0.12698390  0.44228497  1
  Pu  Pu2  1  0.35945400  0.62772787  0.55758211  1
  Pu  Pu3  1  0.82826119  0.88264809  0.92576090  1
  Pu  Pu4  1  0.32811861  0.61584738  0.92615015  1
  Pu  Pu5  1  0.85988073  0.87369428  0.55761152  1
  Pu  Pu6  1  0.64063197  0.37289217  0.44242071  1
  Pu  Pu7  1  0.17185849  0.11674469  0.07433216  1
