# generated using pymatgen
data_MnAl6Si4O19
_symmetry_space_group_name_H-M   'P 1'
_cell_length_a   9.61367311
_cell_length_b   5.74431626
_cell_length_c   11.96088453
_cell_angle_alpha   90.00000000
_cell_angle_beta   107.53149704
_cell_angle_gamma   90.00000000
_symmetry_Int_Tables_number   1
_chemical_formula_structural   MnAl6Si4O19
_chemical_formula_sum   'Mn2 Al12 Si8 O38'
_cell_volume   629.84711553
_cell_formula_units_Z   2
loop_
 _symmetry_equiv_pos_site_id
 _symmetry_equiv_pos_as_xyz
  1  'x, y, z'
loop_
 _atom_site_type_symbol
 _atom_site_label
 _atom_site_symmetry_multiplicity
 _atom_site_fract_x
 _atom_site_fract_y
 _atom_site_fract_z
 _atom_site_occupancy
  Mn  Mn0  1  0.35986345  0.25000000  0.62076326  1
  Mn  Mn1  1  0.64013655  0.75000000  0.37923674  1
  Al  Al2  1  0.32295787  0.25000000  0.90416806  1
  Al  Al3  1  0.67704213  0.75000000  0.09583194  1
  Al  Al4  1  0.09139696  0.25000000  0.13458340  1
  Al  Al5  1  0.90860304  0.75000000  0.86541660  1
  Al  Al6  1  0.93031770  0.50819366  0.30810362  1
  Al  Al7  1  0.06968230  0.00819366  0.69189638  1
  Al  Al8  1  0.06968230  0.49180634  0.69189638  1
  Al  Al9  1  0.93031770  0.99180634  0.30810362  1
  Al  Al10  1  0.40576486  0.49869687  0.16524073  1
  Al  Al11  1  0.59423514  0.99869687  0.83475927  1
  Al  Al12  1  0.59423514  0.50130313  0.83475927  1
  Al  Al13  1  0.40576486  0.00130313  0.16524073  1
  Si  Si14  1  0.82979942  0.25000000  0.47128500  1
  Si  Si15  1  0.17020058  0.75000000  0.52871500  1
  Si  Si16  1  0.51107074  0.25000000  0.41547121  1
  Si  Si17  1  0.48892926  0.75000000  0.58452879  1
  Si  Si18  1  0.67600254  0.25000000  0.09384530  1
  Si  Si19  1  0.32399746  0.75000000  0.90615470  1
  Si  Si20  1  0.89985379  0.25000000  0.85103270  1
  Si  Si21  1  0.10014621  0.75000000  0.14896730  1
  O  O22  1  0.98857789  0.25000000  0.98859346  1
  O  O23  1  0.01142211  0.75000000  0.01140654  1
  O  O24  1  0.46421832  0.25000000  0.83517999  1
  O  O25  1  0.53578168  0.75000000  0.16482001  1
  O  O26  1  0.53067527  0.25000000  0.13879583  1
  O  O27  1  0.46932473  0.75000000  0.86120417  1
  O  O28  1  0.72257615  0.25000000  0.83243199  1
  O  O29  1  0.27742385  0.75000000  0.16756801  1
  O  O30  1  0.37469594  0.25000000  0.47149723  1
  O  O31  1  0.62530406  0.75000000  0.52850277  1
  O  O32  1  0.67189773  0.25000000  0.50963185  1
  O  O33  1  0.32810227  0.75000000  0.49036815  1
  O  O34  1  0.28206927  0.25000000  0.15896341  1
  O  O35  1  0.71793073  0.75000000  0.84103659  1
  O  O36  1  0.82632216  0.25000000  0.20064280  1
  O  O37  1  0.17367784  0.75000000  0.79935720  1
  O  O38  1  0.95065491  0.25000000  0.60508681  1
  O  O39  1  0.04934509  0.75000000  0.39491319  1
  O  O40  1  0.98194391  0.25000000  0.40188230  1
  O  O41  1  0.01805609  0.75000000  0.59811770  1
  O  O42  1  0.16785123  0.25000000  0.78451611  1
  O  O43  1  0.83214877  0.75000000  0.21548389  1
  O  O44  1  0.78960828  0.51174979  0.39607386  1
  O  O45  1  0.21039172  0.01174979  0.60392614  1
  O  O46  1  0.21039172  0.48825021  0.60392614  1
  O  O47  1  0.78960828  0.98825021  0.39607386  1
  O  O48  1  0.66782310  0.48708220  0.01437965  1
  O  O49  1  0.33217690  0.98708220  0.98562035  1
  O  O50  1  0.33217690  0.51291780  0.98562035  1
  O  O51  1  0.66782310  0.01291780  0.01437965  1
  O  O52  1  0.06261972  0.50672314  0.20902669  1
  O  O53  1  0.93738028  0.00672314  0.79097331  1
  O  O54  1  0.93738028  0.49327686  0.79097331  1
  O  O55  1  0.06261972  0.99327686  0.20902669  1
  O  O56  1  0.49365421  0.48646113  0.32965675  1
  O  O57  1  0.50634579  0.98646113  0.67034325  1
  O  O58  1  0.50634579  0.51353887  0.67034325  1
  O  O59  1  0.49365421  0.01353887  0.32965675  1
