# generated using pymatgen
data_NaMg3Al6Si6B3O31
_symmetry_space_group_name_H-M   'P 1'
_cell_length_a   9.63005509
_cell_length_b   9.62990339
_cell_length_c   9.62999959
_cell_angle_alpha   113.86176619
_cell_angle_beta   113.86085726
_cell_angle_gamma   113.86013199
_symmetry_Int_Tables_number   1
_chemical_formula_structural   NaMg3Al6Si6B3O31
_chemical_formula_sum   'Na1 Mg3 Al6 Si6 B3 O31'
_cell_volume   548.12583114
_cell_formula_units_Z   1
loop_
 _symmetry_equiv_pos_site_id
 _symmetry_equiv_pos_as_xyz
  1  'x, y, z'
loop_
 _atom_site_type_symbol
 _atom_site_label
 _atom_site_symmetry_multiplicity
 _atom_site_fract_x
 _atom_site_fract_y
 _atom_site_fract_z
 _atom_site_occupancy
  Na  Na0  1  0.76849100  0.76848049  0.76842784  1
  Mg  Mg1  1  0.09033074  0.28107737  0.09031920  1
  Mg  Mg2  1  0.28108377  0.09027473  0.09027970  1
  Mg  Mg3  1  0.09028421  0.09026294  0.28111590  1
  Al  Al4  1  0.10694228  0.88199176  0.44405314  1
  Al  Al5  1  0.88202547  0.44403567  0.10694708  1
  Al  Al6  1  0.44407860  0.10701176  0.88203964  1
  Al  Al7  1  0.10695400  0.44404169  0.88200991  1
  Al  Al8  1  0.44405455  0.88200484  0.10697471  1
  Al  Al9  1  0.88202429  0.10696493  0.44405781  1
  Si  Si10  1  0.52807126  0.72181315  0.33904499  1
  Si  Si11  1  0.72180753  0.33907580  0.52809762  1
  Si  Si12  1  0.33906209  0.52809239  0.72177617  1
  Si  Si13  1  0.52809873  0.33906925  0.72180248  1
  Si  Si14  1  0.33906269  0.72182134  0.52808066  1
  Si  Si15  1  0.72178135  0.52809498  0.33905046  1
  B  B16  1  0.09581463  0.09581118  0.76611657  1
  B  B17  1  0.09578520  0.76608325  0.09579167  1
  B  B18  1  0.76611466  0.09581256  0.09582019  1
  O  O19  1  0.29379620  0.29376755  0.29382630  1
  O  O20  1  0.06688065  0.06687081  0.88292917  1
  O  O21  1  0.06687402  0.88292628  0.06687159  1
  O  O22  1  0.88296035  0.06690576  0.06690838  1
  O  O23  1  0.93566461  0.34203296  0.93565321  1
  O  O24  1  0.34204665  0.93563499  0.93564244  1
  O  O25  1  0.93556718  0.93555756  0.34199489  1
  O  O26  1  0.69172035  0.69175530  0.41034674  1
  O  O27  1  0.69177951  0.41032144  0.69178064  1
  O  O28  1  0.41035213  0.69173405  0.69170425  1
  O  O29  1  0.52185003  0.79612810  0.52184529  1
  O  O30  1  0.79600109  0.52187101  0.52185844  1
  O  O31  1  0.52186559  0.52186945  0.79603148  1
  O  O32  1  0.29944198  0.50579561  0.11642444  1
  O  O33  1  0.50581822  0.11644493  0.29943501  1
  O  O34  1  0.11643083  0.29941896  0.50579418  1
  O  O35  1  0.29941775  0.11643288  0.50583398  1
  O  O36  1  0.11644399  0.50580678  0.29944095  1
  O  O37  1  0.50578142  0.29944599  0.11642267  1
  O  O38  1  0.61404615  0.89850245  0.32806969  1
  O  O39  1  0.89848591  0.32807631  0.61406804  1
  O  O40  1  0.32807131  0.61406174  0.89846056  1
  O  O41  1  0.61408275  0.32808718  0.89849126  1
  O  O42  1  0.32808363  0.89851104  0.61408187  1
  O  O43  1  0.89846922  0.61403617  0.32806983  1
  O  O44  1  0.18691110  0.03668375  0.70651151  1
  O  O45  1  0.03666981  0.70649338  0.18690026  1
  O  O46  1  0.70651320  0.18691964  0.03669923  1
  O  O47  1  0.18689937  0.70649224  0.03667910  1
  O  O48  1  0.70650890  0.03667672  0.18690800  1
  O  O49  1  0.03669709  0.18691790  0.70650986  1
