# generated using pymatgen
data_Tb4NiB13
_symmetry_space_group_name_H-M   'P 1'
_cell_length_a   7.36204440
_cell_length_b   7.36204440
_cell_length_c   6.95828048
_cell_angle_alpha   90.00000000
_cell_angle_beta   90.00000000
_cell_angle_gamma   90.00000000
_symmetry_Int_Tables_number   1
_chemical_formula_structural   Tb4NiB13
_chemical_formula_sum   'Tb8 Ni2 B26'
_cell_volume   377.13669886
_cell_formula_units_Z   2
loop_
 _symmetry_equiv_pos_site_id
 _symmetry_equiv_pos_as_xyz
  1  'x, y, z'
loop_
 _atom_site_type_symbol
 _atom_site_label
 _atom_site_symmetry_multiplicity
 _atom_site_fract_x
 _atom_site_fract_y
 _atom_site_fract_z
 _atom_site_occupancy
  Tb  Tb0  1  0.18036685  0.68524656  0.50000000  1
  Tb  Tb1  1  0.81963315  0.31475344  0.50000000  1
  Tb  Tb2  1  0.31963315  0.18524656  -0.00000000  1
  Tb  Tb3  1  0.68036685  0.81475344  0.00000000  1
  Tb  Tb4  1  0.68524656  0.81963315  0.50000000  1
  Tb  Tb5  1  0.31475344  0.18036685  0.50000000  1
  Tb  Tb6  1  0.18524656  0.68036685  0.00000000  1
  Tb  Tb7  1  0.81475344  0.31963315  -0.00000000  1
  Ni  Ni8  1  0.50000000  0.50000000  0.50000000  1
  Ni  Ni9  1  0.00000000  -0.00000000  -0.00000000  1
  B  B10  1  0.50000000  0.50000000  0.00000000  1
  B  B11  1  0.00000000  -0.00000000  0.50000000  1
  B  B12  1  0.40656131  0.90656131  0.25000000  1
  B  B13  1  0.59343869  0.09343869  0.25000000  1
  B  B14  1  0.09343869  0.40656131  0.75000000  1
  B  B15  1  0.90656131  0.59343869  0.75000000  1
  B  B16  1  0.90656131  0.59343869  0.25000000  1
  B  B17  1  0.09343869  0.40656131  0.25000000  1
  B  B18  1  0.40656131  0.90656131  0.75000000  1
  B  B19  1  0.59343869  0.09343869  0.75000000  1
  B  B20  1  0.66975621  0.54002031  0.24433710  1
  B  B21  1  0.33024379  0.45997969  0.24433710  1
  B  B22  1  0.83024379  0.04002031  0.74433710  1
  B  B23  1  0.16975621  0.95997969  0.74433710  1
  B  B24  1  0.54002031  0.33024379  0.24433710  1
  B  B25  1  0.45997969  0.66975621  0.24433710  1
  B  B26  1  0.04002031  0.16975621  0.74433710  1
  B  B27  1  0.95997969  0.83024379  0.74433710  1
  B  B28  1  0.33024379  0.45997969  0.75566290  1
  B  B29  1  0.66975621  0.54002031  0.75566290  1
  B  B30  1  0.16975621  0.95997969  0.25566290  1
  B  B31  1  0.83024379  0.04002031  0.25566290  1
  B  B32  1  0.45997969  0.66975621  0.75566290  1
  B  B33  1  0.54002031  0.33024379  0.75566290  1
  B  B34  1  0.95997969  0.83024379  0.25566290  1
  B  B35  1  0.04002031  0.16975621  0.25566290  1
