# generated using pymatgen
data_Mg16Al12Pt
_symmetry_space_group_name_H-M   'P 1'
_cell_length_a   9.25813744
_cell_length_b   9.00683416
_cell_length_c   9.00683456
_cell_angle_alpha   108.89912955
_cell_angle_beta   110.03742315
_cell_angle_gamma   110.03742161
_symmetry_Int_Tables_number   1
_chemical_formula_structural   Mg16Al12Pt
_chemical_formula_sum   'Mg16 Al12 Pt1'
_cell_volume   574.06829327
_cell_formula_units_Z   1
loop_
 _symmetry_equiv_pos_site_id
 _symmetry_equiv_pos_as_xyz
  1  'x, y, z'
loop_
 _atom_site_type_symbol
 _atom_site_label
 _atom_site_symmetry_multiplicity
 _atom_site_fract_x
 _atom_site_fract_y
 _atom_site_fract_z
 _atom_site_occupancy
  Mg  Mg0  1  0.56993528  0.25958634  0.99999900  1
  Mg  Mg1  1  0.31769443  0.59104272  0.99999900  1
  Mg  Mg2  1  0.00203162  0.35290625  1.00000000  1
  Mg  Mg3  1  0.98702977  0.00000100  0.00000100  1
  Mg  Mg4  1  0.56993428  0.99999900  0.25958734  1
  Mg  Mg5  1  0.68143090  0.67331689  0.27334235  1
  Mg  Mg6  1  0.00811400  0.60002646  0.32668211  1
  Mg  Mg7  1  0.00203162  1.00000000  0.35290625  1
  Mg  Mg8  1  0.40808854  0.72665665  0.39997454  1
  Mg  Mg9  1  0.72665271  0.40895728  0.40895728  1
  Mg  Mg10  1  0.31769443  0.99999900  0.59104272  1
  Mg  Mg11  1  0.00811500  0.32668211  0.60002546  1
  Mg  Mg12  1  0.64912537  0.64709275  0.64709275  1
  Mg  Mg13  1  0.68143090  0.27334335  0.67331689  1
  Mg  Mg14  1  0.40808954  0.39997454  0.72665665  1
  Mg  Mg15  1  0.31034794  0.74041166  0.74041166  1
  Al  Al16  1  0.65235004  0.80968884  0.99999900  1
  Al  Al17  1  0.81314740  0.61145352  0.99999900  1
  Al  Al18  1  0.18318926  0.81660760  0.17982358  1
  Al  Al19  1  0.36658166  0.36321598  0.18339140  1
  Al  Al20  1  0.84266020  0.19031016  0.19031116  1
  Al  Al21  1  0.36658166  0.18339140  0.36321598  1
  Al  Al22  1  0.20169288  0.38854648  0.38854548  1
  Al  Al23  1  0.81314640  0.00000000  0.61145452  1
  Al  Al24  1  0.00336568  0.82017642  0.63678502  1
  Al  Al25  1  0.65234904  0.99999900  0.80968884  1
  Al  Al26  1  0.18318926  0.17982258  0.81660760  1
  Al  Al27  1  0.00336568  0.63678502  0.82017542  1
  Pt  Pt28  1  0.27062349  0.99999900  0.00000000  1
