# generated using pymatgen
data_YbSi3
_symmetry_space_group_name_H-M   'P 1'
_cell_length_a   7.14991401
_cell_length_b   7.14991401
_cell_length_c   7.58442819
_cell_angle_alpha   118.12227865
_cell_angle_beta   118.12227865
_cell_angle_gamma   90.00000000
_symmetry_Int_Tables_number   1
_chemical_formula_structural   YbSi3
_chemical_formula_sum   'Yb4 Si12'
_cell_volume   289.01796158
_cell_formula_units_Z   4
loop_
 _symmetry_equiv_pos_site_id
 _symmetry_equiv_pos_as_xyz
  1  'x, y, z'
loop_
 _atom_site_type_symbol
 _atom_site_label
 _atom_site_symmetry_multiplicity
 _atom_site_fract_x
 _atom_site_fract_y
 _atom_site_fract_z
 _atom_site_occupancy
  Yb  Yb0  1  0.17244811  0.17244811  0.34489621  1
  Yb  Yb1  1  0.82755189  0.82755189  0.65510379  1
  Yb  Yb2  1  0.75000000  0.25000000  0.50000000  1
  Yb  Yb3  1  0.25000000  0.75000000  0.50000000  1
  Si  Si4  1  0.79161819  0.42484553  0.21646372  1
  Si  Si5  1  0.42484553  0.79161819  0.21646372  1
  Si  Si6  1  0.42484553  0.42484553  0.21646372  1
  Si  Si7  1  0.79161819  0.79161819  0.21646372  1
  Si  Si8  1  0.20838181  0.57515447  0.78353628  1
  Si  Si9  1  0.57515447  0.20838181  0.78353628  1
  Si  Si10  1  0.57515447  0.57515447  0.78353628  1
  Si  Si11  1  0.20838181  0.20838181  0.78353628  1
  Si  Si12  1  0.00000000  0.33423984  -0.00000000  1
  Si  Si13  1  0.00000000  0.66576016  0.00000000  1
  Si  Si14  1  0.33423984  0.00000000  -0.00000000  1
  Si  Si15  1  0.66576016  0.00000000  0.00000000  1
