# generated using pymatgen
data_Pm3Eu
_symmetry_space_group_name_H-M   'P 1'
_cell_length_a   7.41839068
_cell_length_b   7.41839014
_cell_length_c   5.98893589
_cell_angle_alpha   90.00000000
_cell_angle_beta   90.00000000
_cell_angle_gamma   119.99999255
_symmetry_Int_Tables_number   1
_chemical_formula_structural   Pm3Eu
_chemical_formula_sum   'Pm6 Eu2'
_cell_volume   285.43005367
_cell_formula_units_Z   2
loop_
 _symmetry_equiv_pos_site_id
 _symmetry_equiv_pos_as_xyz
  1  'x, y, z'
loop_
 _atom_site_type_symbol
 _atom_site_label
 _atom_site_symmetry_multiplicity
 _atom_site_fract_x
 _atom_site_fract_y
 _atom_site_fract_z
 _atom_site_occupancy
  Pm  Pm0  1  0.16337868  0.32675737  0.24999900  1
  Pm  Pm1  1  0.67324063  0.83662032  0.24999900  1
  Pm  Pm2  1  0.16338068  0.83662032  0.24999900  1
  Pm  Pm3  1  0.83662032  0.67324263  0.75000000  1
  Pm  Pm4  1  0.32675837  0.16337768  0.75000000  1
  Pm  Pm5  1  0.83662032  0.16337768  0.75000000  1
  Eu  Eu6  1  0.33333400  0.66666800  0.75000000  1
  Eu  Eu7  1  0.66666700  0.33333200  0.24999900  1
