# generated using pymatgen
data_NaAu3
_symmetry_space_group_name_H-M   'P 1'
_cell_length_a   5.80434681
_cell_length_b   5.80434762
_cell_length_c   5.11901609
_cell_angle_alpha   90.00000000
_cell_angle_beta   90.00000000
_cell_angle_gamma   120.00000084
_symmetry_Int_Tables_number   1
_chemical_formula_structural   NaAu3
_chemical_formula_sum   'Na2 Au6'
_cell_volume   149.35641828
_cell_formula_units_Z   2
loop_
 _symmetry_equiv_pos_site_id
 _symmetry_equiv_pos_as_xyz
  1  'x, y, z'
loop_
 _atom_site_type_symbol
 _atom_site_label
 _atom_site_symmetry_multiplicity
 _atom_site_fract_x
 _atom_site_fract_y
 _atom_site_fract_z
 _atom_site_occupancy
  Na  Na0  1  0.66666500  0.33333200  0.25000100  1
  Na  Na1  1  0.33333300  0.66666600  0.75000100  1
  Au  Au2  1  0.83374811  0.16625189  0.75000100  1
  Au  Au3  1  0.33250377  0.16625189  0.75000100  1
  Au  Au4  1  0.83374911  0.66749723  0.75000100  1
  Au  Au5  1  0.16625089  0.83374911  0.25000100  1
  Au  Au6  1  0.66749623  0.83374911  0.25000100  1
  Au  Au7  1  0.16625189  0.33250377  0.25000100  1
