# generated using pymatgen
data_Mg5Au
_symmetry_space_group_name_H-M   'P 1'
_cell_length_a   5.36759691
_cell_length_b   5.36765358
_cell_length_c   5.83369756
_cell_angle_alpha   117.34509213
_cell_angle_beta   62.65395507
_cell_angle_gamma   120.33122239
_symmetry_Int_Tables_number   1
_chemical_formula_structural   Mg5Au
_chemical_formula_sum   'Mg5 Au1'
_cell_volume   123.06153906
_cell_formula_units_Z   1
loop_
 _symmetry_equiv_pos_site_id
 _symmetry_equiv_pos_as_xyz
  1  'x, y, z'
loop_
 _atom_site_type_symbol
 _atom_site_label
 _atom_site_symmetry_multiplicity
 _atom_site_fract_x
 _atom_site_fract_y
 _atom_site_fract_z
 _atom_site_occupancy
  Mg  Mg0  1  0.67797250  0.34464311  0.00000888  1
  Mg  Mg1  1  0.33359039  0.65567056  0.99975576  1
  Mg  Mg2  1  0.98900185  0.00024159  0.00023223  1
  Mg  Mg3  1  0.16810467  0.16492232  0.49461188  1
  Mg  Mg4  1  0.49822284  0.83472295  0.50537490  1
  Au  Au5  1  0.83310775  0.49980047  0.50001635  1
