# generated using pymatgen
data_Ta3Co5B2
_symmetry_space_group_name_H-M   'P 1'
_cell_length_a   3.24807473
_cell_length_b   8.39775361
_cell_length_c   8.39775361
_cell_angle_alpha   90.00000000
_cell_angle_beta   90.00000000
_cell_angle_gamma   90.00000000
_symmetry_Int_Tables_number   1
_chemical_formula_structural   Ta3Co5B2
_chemical_formula_sum   'Ta6 Co10 B4'
_cell_volume   229.06158910
_cell_formula_units_Z   2
loop_
 _symmetry_equiv_pos_site_id
 _symmetry_equiv_pos_as_xyz
  1  'x, y, z'
loop_
 _atom_site_type_symbol
 _atom_site_label
 _atom_site_symmetry_multiplicity
 _atom_site_fract_x
 _atom_site_fract_y
 _atom_site_fract_z
 _atom_site_occupancy
  Ta  Ta0  1  -0.00000000  0.50000000  0.50000000  1
  Ta  Ta1  1  -0.00000000  -0.00000000  0.00000000  1
  Ta  Ta2  1  -0.00000000  0.32488122  0.82488122  1
  Ta  Ta3  1  0.00000000  0.67511878  0.17511878  1
  Ta  Ta4  1  0.00000000  0.17511878  0.32488122  1
  Ta  Ta5  1  -0.00000000  0.82488122  0.67511878  1
  Co  Co6  1  0.50000000  0.00000000  0.50000000  1
  Co  Co7  1  0.50000000  0.50000000  0.00000000  1
  Co  Co8  1  0.50000000  0.56958962  0.72038870  1
  Co  Co9  1  0.50000000  0.43041038  0.27961130  1
  Co  Co10  1  0.50000000  0.93041038  0.22038870  1
  Co  Co11  1  0.50000000  0.06958962  0.77961130  1
  Co  Co12  1  0.50000000  0.72038870  0.43041038  1
  Co  Co13  1  0.50000000  0.27961130  0.56958962  1
  Co  Co14  1  0.50000000  0.22038870  0.06958962  1
  Co  Co15  1  0.50000000  0.77961130  0.93041038  1
  B  B16  1  0.00000000  0.11811809  0.61811809  1
  B  B17  1  -0.00000000  0.88188191  0.38188191  1
  B  B18  1  -0.00000000  0.38188191  0.11811809  1
  B  B19  1  0.00000000  0.61811809  0.88188191  1
