# generated using pymatgen
data_MnNO5
_symmetry_space_group_name_H-M   'P 1'
_cell_length_a   2.98701339
_cell_length_b   14.56112865
_cell_length_c   17.25002372
_cell_angle_alpha   113.52919501
_cell_angle_beta   90.00000000
_cell_angle_gamma   90.00000000
_symmetry_Int_Tables_number   1
_chemical_formula_structural   MnNO5
_chemical_formula_sum   'Mn8 N8 O40'
_cell_volume   687.89697973
_cell_formula_units_Z   8
loop_
 _symmetry_equiv_pos_site_id
 _symmetry_equiv_pos_as_xyz
  1  'x, y, z'
loop_
 _atom_site_type_symbol
 _atom_site_label
 _atom_site_symmetry_multiplicity
 _atom_site_fract_x
 _atom_site_fract_y
 _atom_site_fract_z
 _atom_site_occupancy
  Mn  Mn0  1  0.79162590  0.26410634  0.07867282  1
  Mn  Mn1  1  0.29162590  0.23589366  0.92132718  1
  Mn  Mn2  1  0.20837410  0.73589366  0.92132718  1
  Mn  Mn3  1  0.70837410  0.76410634  0.07867282  1
  Mn  Mn4  1  0.93094395  0.68626617  0.42215111  1
  Mn  Mn5  1  0.43094395  0.81373383  0.57784889  1
  Mn  Mn6  1  0.06905605  0.31373383  0.57784889  1
  Mn  Mn7  1  0.56905605  0.18626617  0.42215111  1
  N  N8  1  0.66048853  0.60059146  0.14475585  1
  N  N9  1  0.16048853  0.89940854  0.85524415  1
  N  N10  1  0.33951147  0.39940854  0.85524415  1
  N  N11  1  0.83951147  0.10059146  0.14475585  1
  N  N12  1  0.94146697  0.46032401  0.36025366  1
  N  N13  1  0.44146697  0.03967599  0.63974634  1
  N  N14  1  0.05853303  0.53967599  0.63974634  1
  N  N15  1  0.55853303  0.96032401  0.36025366  1
  O  O16  1  0.29459607  0.34050616  0.13598637  1
  O  O17  1  0.79459607  0.15949384  0.86401363  1
  O  O18  1  0.70540393  0.65949384  0.86401363  1
  O  O19  1  0.20540393  0.84050616  0.13598637  1
  O  O20  1  0.66068415  0.69661299  0.16313194  1
  O  O21  1  0.16068415  0.80338701  0.83686806  1
  O  O22  1  0.33931585  0.30338701  0.83686806  1
  O  O23  1  0.83931585  0.19661299  0.16313194  1
  O  O24  1  0.78511661  0.53898672  0.07524650  1
  O  O25  1  0.28511661  0.96101328  0.92475350  1
  O  O26  1  0.21488339  0.46101328  0.92475350  1
  O  O27  1  0.71488339  0.03898672  0.07524650  1
  O  O28  1  0.52975192  0.57388610  0.20142388  1
  O  O29  1  0.02975192  0.92611390  0.79857612  1
  O  O30  1  0.47024808  0.42611390  0.79857612  1
  O  O31  1  0.97024808  0.07388610  0.20142388  1
  O  O32  1  0.29226925  0.18380530  0.00876727  1
  O  O33  1  0.79226925  0.31619470  0.99123273  1
  O  O34  1  0.70773075  0.81619470  0.99123273  1
  O  O35  1  0.20773075  0.68380530  0.00876727  1
  O  O36  1  0.43554652  0.70530501  0.36299199  1
  O  O37  1  0.93554652  0.79469499  0.63700801  1
  O  O38  1  0.56445348  0.29469499  0.63700801  1
  O  O39  1  0.06445348  0.20530501  0.36299199  1
  O  O40  1  0.99803860  0.53805865  0.34143712  1
  O  O41  1  0.49803860  0.96194135  0.65856288  1
  O  O42  1  0.00196140  0.46194135  0.65856288  1
  O  O43  1  0.50196140  0.03805865  0.34143712  1
  O  O44  1  0.76553261  0.46859822  0.42761742  1
  O  O45  1  0.26553261  0.03140178  0.57238258  1
  O  O46  1  0.23446739  0.53140178  0.57238258  1
  O  O47  1  0.73446739  0.96859822  0.42761742  1
  O  O48  1  0.07264152  0.37802328  0.30693992  1
  O  O49  1  0.57264152  0.12197672  0.69306008  1
  O  O50  1  0.92735848  0.62197672  0.69306008  1
  O  O51  1  0.42735848  0.87802328  0.30693992  1
  O  O52  1  0.43207518  0.67657050  0.49392129  1
  O  O53  1  0.93207518  0.82342950  0.50607871  1
  O  O54  1  0.56792482  0.32342950  0.50607871  1
  O  O55  1  0.06792482  0.17657050  0.49392129  1
