# generated using pymatgen
data_U(WC)4
_symmetry_space_group_name_H-M   'P 1'
_cell_length_a   3.12804281
_cell_length_b   8.38461862
_cell_length_c   8.38461862
_cell_angle_alpha   90.00000000
_cell_angle_beta   90.00000000
_cell_angle_gamma   90.00000000
_symmetry_Int_Tables_number   1
_chemical_formula_structural   U(WC)4
_chemical_formula_sum   'U2 W8 C8'
_cell_volume   219.90713199
_cell_formula_units_Z   2
loop_
 _symmetry_equiv_pos_site_id
 _symmetry_equiv_pos_as_xyz
  1  'x, y, z'
loop_
 _atom_site_type_symbol
 _atom_site_label
 _atom_site_symmetry_multiplicity
 _atom_site_fract_x
 _atom_site_fract_y
 _atom_site_fract_z
 _atom_site_occupancy
  U  U0  1  -0.00000000  0.00000000  0.00000000  1
  U  U1  1  0.50000000  0.50000000  0.50000000  1
  W  W2  1  0.00000000  0.82542234  0.36125132  1
  W  W3  1  0.00000000  0.17457766  0.63874868  1
  W  W4  1  -0.00000000  0.36125132  0.17457766  1
  W  W5  1  -0.00000000  0.63874868  0.82542234  1
  W  W6  1  0.50000000  0.65901957  0.12180328  1
  W  W7  1  0.50000000  0.34098043  0.87819672  1
  W  W8  1  0.50000000  0.12180328  0.34098043  1
  W  W9  1  0.50000000  0.87819672  0.65901957  1
  C  C10  1  0.50000000  0.90029784  0.20910429  1
  C  C11  1  0.50000000  0.09970216  0.79089571  1
  C  C12  1  0.50000000  0.20910429  0.09970216  1
  C  C13  1  0.50000000  0.79089571  0.90029784  1
  C  C14  1  0.00000000  0.58934872  0.27992464  1
  C  C15  1  -0.00000000  0.41065128  0.72007536  1
  C  C16  1  -0.00000000  0.27992464  0.41065128  1
  C  C17  1  0.00000000  0.72007536  0.58934872  1
