# generated using pymatgen
data_AlP3O10
_symmetry_space_group_name_H-M   'P 1'
_cell_length_a   7.41658113
_cell_length_b   8.60965026
_cell_length_c   12.16385854
_cell_angle_alpha   90.00000000
_cell_angle_beta   102.36903526
_cell_angle_gamma   90.00000000
_symmetry_Int_Tables_number   1
_chemical_formula_structural   AlP3O10
_chemical_formula_sum   'Al4 P12 O40'
_cell_volume   758.68416703
_cell_formula_units_Z   4
loop_
 _symmetry_equiv_pos_site_id
 _symmetry_equiv_pos_as_xyz
  1  'x, y, z'
loop_
 _atom_site_type_symbol
 _atom_site_label
 _atom_site_symmetry_multiplicity
 _atom_site_fract_x
 _atom_site_fract_y
 _atom_site_fract_z
 _atom_site_occupancy
  Al  Al0  1  0.47595731  0.92702474  0.20745715  1
  Al  Al1  1  0.02404269  0.42702474  0.29254285  1
  Al  Al2  1  0.52404269  0.07297526  0.79254285  1
  Al  Al3  1  0.97595731  0.57297526  0.70745715  1
  P  P4  1  0.21440141  0.09575624  0.35671555  1
  P  P5  1  0.28559859  0.59575624  0.14328445  1
  P  P6  1  0.78559859  0.90424376  0.64328445  1
  P  P7  1  0.71440141  0.40424376  0.85671555  1
  P  P8  1  0.84823981  0.10855772  0.20541498  1
  P  P9  1  0.65176019  0.60855772  0.29458502  1
  P  P10  1  0.15176019  0.89144228  0.79458502  1
  P  P11  1  0.34823981  0.39144228  0.70541498  1
  P  P12  1  0.73308815  0.88643876  0.02062838  1
  P  P13  1  0.76691185  0.38643876  0.47937162  1
  P  P14  1  0.26691185  0.11356124  0.97937162  1
  P  P15  1  0.23308815  0.61356124  0.52062838  1
  O  O16  1  0.22220239  0.07842303  0.48336150  1
  O  O17  1  0.27779761  0.57842303  0.01663850  1
  O  O18  1  0.77779761  0.92157697  0.51663850  1
  O  O19  1  0.72220239  0.42157697  0.98336150  1
  O  O20  1  0.36124456  0.00420099  0.31729159  1
  O  O21  1  0.13875544  0.50420099  0.18270841  1
  O  O22  1  0.63875544  0.99579901  0.68270841  1
  O  O23  1  0.86124456  0.49579901  0.81729159  1
  O  O24  1  0.21468619  0.27144286  0.33725534  1
  O  O25  1  0.28531381  0.77144286  0.16274466  1
  O  O26  1  0.78531381  0.72855714  0.66274466  1
  O  O27  1  0.71468619  0.22855714  0.83725534  1
  O  O28  1  0.01747907  0.02564550  0.28843353  1
  O  O29  1  0.48252093  0.52564550  0.21156647  1
  O  O30  1  0.98252093  0.97435450  0.71156647  1
  O  O31  1  0.51747907  0.47435450  0.78843353  1
  O  O32  1  0.67108680  0.06818121  0.23998172  1
  O  O33  1  0.82891320  0.56818121  0.26001828  1
  O  O34  1  0.32891320  0.93181879  0.76001828  1
  O  O35  1  0.17108680  0.43181879  0.73998172  1
  O  O36  1  0.88857763  0.27832704  0.19767286  1
  O  O37  1  0.61142237  0.77832704  0.30232714  1
  O  O38  1  0.11142237  0.72167296  0.80232714  1
  O  O39  1  0.38857763  0.22167296  0.69767286  1
  O  O40  1  0.84999583  0.03265099  0.08506033  1
  O  O41  1  0.65000417  0.53265099  0.41493967  1
  O  O42  1  0.15000417  0.96734901  0.91493967  1
  O  O43  1  0.34999583  0.46734901  0.58506033  1
  O  O44  1  0.57870545  0.84925932  0.08185212  1
  O  O45  1  0.92129455  0.34925932  0.41814788  1
  O  O46  1  0.42129455  0.15074068  0.91814788  1
  O  O47  1  0.07870545  0.65074068  0.58185212  1
  O  O48  1  0.66616857  0.93456277  0.89935657  1
  O  O49  1  0.83383143  0.43456277  0.60064343  1
  O  O50  1  0.33383143  0.06543723  0.10064343  1
  O  O51  1  0.16616857  0.56543723  0.39935657  1
  O  O52  1  0.85827505  0.74331408  0.03021526  1
  O  O53  1  0.64172495  0.24331408  0.46978474  1
  O  O54  1  0.14172495  0.25668592  0.96978474  1
  O  O55  1  0.35827505  0.75668592  0.53021526  1
