# generated using pymatgen
data_La3BeInS7
_symmetry_space_group_name_H-M   'P 1'
_cell_length_a   6.15305264
_cell_length_b   10.24531189
_cell_length_c   10.24537496
_cell_angle_alpha   120.00102389
_cell_angle_beta   90.00000000
_cell_angle_gamma   90.00000000
_symmetry_Int_Tables_number   1
_chemical_formula_structural   La3BeInS7
_chemical_formula_sum   'La6 Be2 In2 S14'
_cell_volume   559.33220123
_cell_formula_units_Z   2
loop_
 _symmetry_equiv_pos_site_id
 _symmetry_equiv_pos_as_xyz
  1  'x, y, z'
loop_
 _atom_site_type_symbol
 _atom_site_label
 _atom_site_symmetry_multiplicity
 _atom_site_fract_x
 _atom_site_fract_y
 _atom_site_fract_z
 _atom_site_occupancy
  La  La0  1  0.25112592  0.25686554  0.39340735  1
  La  La1  1  0.25111067  0.60662758  0.86348128  1
  La  La2  1  0.25112356  0.13655129  0.74314375  1
  La  La3  1  0.75112592  0.74313446  0.60659265  1
  La  La4  1  0.75111067  0.39337242  0.13651872  1
  La  La5  1  0.75112356  0.86344871  0.25685625  1
  Be  Be6  1  0.83864814  0.33335657  0.66668105  1
  Be  Be7  1  0.33864814  0.66664343  0.33331895  1
  In  In8  1  0.48518959  0.00000602  0.00000513  1
  In  In9  1  0.98518959  0.99999398  0.99999487  1
  S  S10  1  0.72987070  0.15656284  0.23823175  1
  S  S11  1  0.72986161  0.76176723  0.91833439  1
  S  S12  1  0.72985628  0.08166504  0.84342847  1
  S  S13  1  0.22987070  0.84343716  0.76176825  1
  S  S14  1  0.22986161  0.23823277  0.08166561  1
  S  S15  1  0.22985628  0.91833496  0.15657153  1
  S  S16  1  0.97042858  0.11484366  0.52008199  1
  S  S17  1  0.97044800  0.47995136  0.59477766  1
  S  S18  1  0.97044075  0.40525655  0.88517749  1
  S  S19  1  0.47042858  0.88515634  0.47991801  1
  S  S20  1  0.47044800  0.52004864  0.40522234  1
  S  S21  1  0.47044075  0.59474345  0.11482251  1
  S  S22  1  0.48989620  0.33335428  0.66667220  1
  S  S23  1  0.98989620  0.66664572  0.33332780  1
