# generated using pymatgen
data_La2Mn3Cu9As7
_symmetry_space_group_name_H-M   'P 1'
_cell_length_a   4.03329820
_cell_length_b   9.90968440
_cell_length_c   9.91140660
_cell_angle_alpha   119.99768630
_cell_angle_beta   90.00000000
_cell_angle_gamma   90.00000000
_symmetry_Int_Tables_number   1
_chemical_formula_structural   La2Mn3Cu9As7
_chemical_formula_sum   'La2 Mn3 Cu9 As7'
_cell_volume   343.08063521
_cell_formula_units_Z   1
loop_
 _symmetry_equiv_pos_site_id
 _symmetry_equiv_pos_as_xyz
  1  'x, y, z'
loop_
 _atom_site_type_symbol
 _atom_site_label
 _atom_site_symmetry_multiplicity
 _atom_site_fract_x
 _atom_site_fract_y
 _atom_site_fract_z
 _atom_site_occupancy
  La  La0  1  0.00000000  0.66655301  0.33328434  1
  La  La1  1  0.50000000  0.33342733  0.66669241  1
  Mn  Mn2  1  0.50000000  0.12101759  0.90090958  1
  Mn  Mn3  1  0.50000000  0.09896310  0.22007226  1
  Mn  Mn4  1  0.50000000  0.77997536  0.87896445  1
  Cu  Cu5  1  -0.00000000  0.37106541  0.94946512  1
  Cu  Cu6  1  -0.00000000  0.05052287  0.42159990  1
  Cu  Cu7  1  -0.00000000  0.57839221  0.62894809  1
  Cu  Cu8  1  -0.00000000  0.87708006  0.71751796  1
  Cu  Cu9  1  -0.00000000  0.28245999  0.15954703  1
  Cu  Cu10  1  0.00000000  0.84042226  0.12292283  1
  Cu  Cu11  1  0.50000000  0.95350764  0.57752268  1
  Cu  Cu12  1  0.50000000  0.42244015  0.37593026  1
  Cu  Cu13  1  0.50000000  0.62404209  0.04650871  1
  As  As14  1  0.00000000  0.11781236  0.70177016  1
  As  As15  1  0.00000000  0.29830785  0.41610847  1
  As  As16  1  0.00000000  0.58393502  0.88219177  1
  As  As17  1  0.50000000  0.70288450  0.58770842  1
  As  As18  1  0.50000000  0.41231790  0.11519512  1
  As  As19  1  0.50000000  0.88487396  0.29711493  1
  As  As20  1  0.00000000  0.99999934  0.00002551  1
