# generated using pymatgen
data_NaSO4
_symmetry_space_group_name_H-M   'P 1'
_cell_length_a   6.86421041
_cell_length_b   7.04250503
_cell_length_c   7.05730645
_cell_angle_alpha   77.83225718
_cell_angle_beta   82.77572190
_cell_angle_gamma   88.28546606
_symmetry_Int_Tables_number   1
_chemical_formula_structural   NaSO4
_chemical_formula_sum   'Na4 S4 O16'
_cell_volume   330.84519010
_cell_formula_units_Z   4
loop_
 _symmetry_equiv_pos_site_id
 _symmetry_equiv_pos_as_xyz
  1  'x, y, z'
loop_
 _atom_site_type_symbol
 _atom_site_label
 _atom_site_symmetry_multiplicity
 _atom_site_fract_x
 _atom_site_fract_y
 _atom_site_fract_z
 _atom_site_occupancy
  Na  Na0  1  0.45140080  0.31478749  0.72717691  1
  Na  Na1  1  0.54859920  0.68521251  0.27282309  1
  Na  Na2  1  0.85265336  0.18328300  0.32455055  1
  Na  Na3  1  0.14734664  0.81671700  0.67544945  1
  S  S4  1  0.38309464  0.20633109  0.27383351  1
  S  S5  1  0.61690536  0.79366891  0.72616649  1
  S  S6  1  0.95798354  0.29697411  0.78639963  1
  S  S7  1  0.04201646  0.70302589  0.21360037  1
  O  O8  1  0.35339907  0.30284741  0.07005531  1
  O  O9  1  0.64660093  0.69715259  0.92994469  1
  O  O10  1  0.48518847  0.33753902  0.36837554  1
  O  O11  1  0.51481153  0.66246098  0.63162446  1
  O  O12  1  0.19292987  0.14288998  0.38872987  1
  O  O13  1  0.80707013  0.85711002  0.61127013  1
  O  O14  1  0.51438935  0.03621626  0.25500936  1
  O  O15  1  0.48561065  0.96378374  0.74499064  1
  O  O16  1  0.84924874  0.31923305  0.97552092  1
  O  O17  1  0.15075126  0.68076695  0.02447908  1
  O  O18  1  0.10577905  0.45418460  0.71560567  1
  O  O19  1  0.89422095  0.54581540  0.28439433  1
  O  O20  1  0.06299358  0.10781221  0.81722253  1
  O  O21  1  0.93700642  0.89218779  0.18277747  1
  O  O22  1  0.81683730  0.30559855  0.64170875  1
  O  O23  1  0.18316270  0.69440145  0.35829125  1
