# generated using pymatgen
data_UGaPd2
_symmetry_space_group_name_H-M   'P 1'
_cell_length_a   5.70527665
_cell_length_b   6.95919997
_cell_length_c   7.59182122
_cell_angle_alpha   90.00000000
_cell_angle_beta   90.00000000
_cell_angle_gamma   90.00000000
_symmetry_Int_Tables_number   1
_chemical_formula_structural   UGaPd2
_chemical_formula_sum   'U4 Ga4 Pd8'
_cell_volume   301.42689270
_cell_formula_units_Z   4
loop_
 _symmetry_equiv_pos_site_id
 _symmetry_equiv_pos_as_xyz
  1  'x, y, z'
loop_
 _atom_site_type_symbol
 _atom_site_label
 _atom_site_symmetry_multiplicity
 _atom_site_fract_x
 _atom_site_fract_y
 _atom_site_fract_z
 _atom_site_occupancy
  U  U0  1  0.15216013  0.75000000  0.45952999  1
  U  U1  1  0.34783987  0.75000000  0.95952999  1
  U  U2  1  0.84783987  0.25000000  0.54047001  1
  U  U3  1  0.65216013  0.25000000  0.04047001  1
  Ga  Ga4  1  0.84114880  0.75000000  0.11236170  1
  Ga  Ga5  1  0.65885120  0.75000000  0.61236170  1
  Ga  Ga6  1  0.15885120  0.25000000  0.88763830  1
  Ga  Ga7  1  0.34114880  0.25000000  0.38763830  1
  Pd  Pd8  1  0.58583908  0.95161073  0.31908871  1
  Pd  Pd9  1  0.91416092  0.54838927  0.81908871  1
  Pd  Pd10  1  0.41416092  0.45161073  0.68091129  1
  Pd  Pd11  1  0.08583908  0.04838927  0.18091129  1
  Pd  Pd12  1  0.41416092  0.04838927  0.68091129  1
  Pd  Pd13  1  0.08583908  0.45161073  0.18091129  1
  Pd  Pd14  1  0.58583908  0.54838927  0.31908871  1
  Pd  Pd15  1  0.91416092  0.95161073  0.81908871  1
