# generated using pymatgen
data_LiC2N3
_symmetry_space_group_name_H-M   'P 1'
_cell_length_a   5.31646447
_cell_length_b   5.36964238
_cell_length_c   11.94359344
_cell_angle_alpha   101.34485883
_cell_angle_beta   90.00000000
_cell_angle_gamma   90.00000000
_symmetry_Int_Tables_number   1
_chemical_formula_structural   LiC2N3
_chemical_formula_sum   'Li4 C8 N12'
_cell_volume   334.29785409
_cell_formula_units_Z   4
loop_
 _symmetry_equiv_pos_site_id
 _symmetry_equiv_pos_as_xyz
  1  'x, y, z'
loop_
 _atom_site_type_symbol
 _atom_site_label
 _atom_site_symmetry_multiplicity
 _atom_site_fract_x
 _atom_site_fract_y
 _atom_site_fract_z
 _atom_site_occupancy
  Li  Li0  1  0.50000000  0.00000000  0.50000000  1
  Li  Li1  1  0.50000000  0.00000000  -0.00000000  1
  Li  Li2  1  0.41334504  0.00000000  0.25000000  1
  Li  Li3  1  0.58665496  0.00000000  0.75000000  1
  C  C4  1  0.29795847  0.45565889  0.89031623  1
  C  C5  1  0.29795847  0.54434111  0.60968377  1
  C  C6  1  0.70204153  0.54434111  0.10968377  1
  C  C7  1  0.70204153  0.45565889  0.39031623  1
  C  C8  1  0.00299978  0.75897287  0.38324872  1
  C  C9  1  0.00299978  0.24102713  0.11675128  1
  C  C10  1  0.99700022  0.24102713  0.61675128  1
  C  C11  1  0.99700022  0.75897287  0.88324872  1
  N  N12  1  0.61127399  0.74894835  0.12419016  1
  N  N13  1  0.61127399  0.25105165  0.37580984  1
  N  N14  1  0.38872601  0.25105165  0.87580984  1
  N  N15  1  0.38872601  0.74894835  0.62419016  1
  N  N16  1  0.21921897  0.68919224  0.91057686  1
  N  N17  1  0.21921897  0.31080776  0.58942314  1
  N  N18  1  0.78078103  0.31080776  0.08942314  1
  N  N19  1  0.78078103  0.68919224  0.41057686  1
  N  N20  1  0.19897906  0.84298457  0.36256004  1
  N  N21  1  0.19897906  0.15701543  0.13743996  1
  N  N22  1  0.80102094  0.15701543  0.63743996  1
  N  N23  1  0.80102094  0.84298457  0.86256004  1
