# generated using pymatgen
data_SmBiTe3
_symmetry_space_group_name_H-M   'P 1'
_cell_length_a   4.45051531
_cell_length_b   4.45051531
_cell_length_c   10.84071998
_cell_angle_alpha   78.15478598
_cell_angle_beta   78.15478598
_cell_angle_gamma   60.00000967
_symmetry_Int_Tables_number   1
_chemical_formula_structural   SmBiTe3
_chemical_formula_sum   'Sm1 Bi1 Te3'
_cell_volume   180.65664670
_cell_formula_units_Z   1
loop_
 _symmetry_equiv_pos_site_id
 _symmetry_equiv_pos_as_xyz
  1  'x, y, z'
loop_
 _atom_site_type_symbol
 _atom_site_label
 _atom_site_symmetry_multiplicity
 _atom_site_fract_x
 _atom_site_fract_y
 _atom_site_fract_z
 _atom_site_occupancy
  Sm  Sm0  1  0.60097472  0.60097472  0.19707585  1
  Bi  Bi1  1  0.40025749  0.40025749  0.79922754  1
  Te  Te2  1  0.99733414  0.99733414  0.00799758  1
  Te  Te3  1  0.78696882  0.78696882  0.63909354  1
  Te  Te4  1  0.21446484  0.21446484  0.35660548  1
