# generated using pymatgen
data_Sr5Ti9O23
_symmetry_space_group_name_H-M   'P 1'
_cell_length_a   5.57976239
_cell_length_b   8.04210982
_cell_length_c   31.93135554
_cell_angle_alpha   90.00000000
_cell_angle_beta   90.80452401
_cell_angle_gamma   90.00000000
_symmetry_Int_Tables_number   1
_chemical_formula_structural   Sr5Ti9O23
_chemical_formula_sum   'Sr10 Ti18 O46'
_cell_volume   1432.71643969
_cell_formula_units_Z   2
loop_
 _symmetry_equiv_pos_site_id
 _symmetry_equiv_pos_as_xyz
  1  'x, y, z'
loop_
 _atom_site_type_symbol
 _atom_site_label
 _atom_site_symmetry_multiplicity
 _atom_site_fract_x
 _atom_site_fract_y
 _atom_site_fract_z
 _atom_site_occupancy
  Sr  Sr0  1  0.99502592  0.00000000  0.82580390  1
  Sr  Sr1  1  0.00497408  0.00000000  0.17419610  1
  Sr  Sr2  1  0.98984863  0.50000000  0.82863183  1
  Sr  Sr3  1  0.01015137  0.50000000  0.17136817  1
  Sr  Sr4  1  0.49790466  -0.00000000  0.91394610  1
  Sr  Sr5  1  0.50209534  0.00000000  0.08605390  1
  Sr  Sr6  1  0.49705551  0.50000000  0.91276862  1
  Sr  Sr7  1  0.50294449  0.50000000  0.08723138  1
  Sr  Sr8  1  0.00000000  -0.00000000  -0.00000000  1
  Sr  Sr9  1  0.00000000  0.50000000  -0.00000000  1
  Ti  Ti10  1  0.53746091  0.20095405  0.73104456  1
  Ti  Ti11  1  0.53746091  0.79904595  0.73104456  1
  Ti  Ti12  1  0.46253909  0.79904595  0.26895544  1
  Ti  Ti13  1  0.46253909  0.20095405  0.26895544  1
  Ti  Ti14  1  0.04429950  0.29261654  0.73531607  1
  Ti  Ti15  1  0.04429950  0.70738346  0.73531607  1
  Ti  Ti16  1  0.95570050  0.70738346  0.26468393  1
  Ti  Ti17  1  0.95570050  0.29261654  0.26468393  1
  Ti  Ti18  1  0.49331198  0.24832335  0.82710933  1
  Ti  Ti19  1  0.49331198  0.75167665  0.82710933  1
  Ti  Ti20  1  0.50668802  0.75167665  0.17289067  1
  Ti  Ti21  1  0.50668802  0.24832335  0.17289067  1
  Ti  Ti22  1  0.99772885  0.25063064  0.91323838  1
  Ti  Ti23  1  0.99772885  0.74936936  0.91323838  1
  Ti  Ti24  1  0.00227115  0.74936936  0.08676162  1
  Ti  Ti25  1  0.00227115  0.25063064  0.08676162  1
  Ti  Ti26  1  0.50000000  0.24900714  -0.00000000  1
  Ti  Ti27  1  0.50000000  0.75099286  -0.00000000  1
  O  O28  1  0.81340828  0.19834997  0.70124353  1
  O  O29  1  0.81340828  0.80165003  0.70124353  1
  O  O30  1  0.18659172  0.80165003  0.29875647  1
  O  O31  1  0.18659172  0.19834997  0.29875647  1
  O  O32  1  0.30935780  0.32985473  0.70485490  1
  O  O33  1  0.30935780  0.67014527  0.70485490  1
  O  O34  1  0.69064220  0.67014527  0.29514510  1
  O  O35  1  0.69064220  0.32985473  0.29514510  1
  O  O36  1  0.40115996  0.00000000  0.72364033  1
  O  O37  1  0.59884004  -0.00000000  0.27635967  1
  O  O38  1  0.93694518  0.50000000  0.74840106  1
  O  O39  1  0.06305482  0.50000000  0.25159894  1
  O  O40  1  0.72962819  0.22295374  0.78168984  1
  O  O41  1  0.72962819  0.77704626  0.78168984  1
  O  O42  1  0.27037181  0.77704626  0.21831016  1
  O  O43  1  0.27037181  0.22295374  0.21831016  1
  O  O44  1  0.23791553  0.22869257  0.78222141  1
  O  O45  1  0.23791553  0.77130743  0.78222141  1
  O  O46  1  0.76208447  0.77130743  0.21777859  1
  O  O47  1  0.76208447  0.22869257  0.21777859  1
  O  O48  1  0.48233948  0.00000000  0.83453465  1
  O  O49  1  0.51766052  -0.00000000  0.16546535  1
  O  O50  1  0.49642045  0.50000000  0.82617102  1
  O  O51  1  0.50357955  0.50000000  0.17382898  1
  O  O52  1  0.74777407  0.25565193  0.86869101  1
  O  O53  1  0.74777407  0.74434807  0.86869101  1
  O  O54  1  0.25222593  0.74434807  0.13130899  1
  O  O55  1  0.25222593  0.25565193  0.13130899  1
  O  O56  1  0.23960442  0.26275556  0.86983317  1
  O  O57  1  0.23960442  0.73724444  0.86983317  1
  O  O58  1  0.76039558  0.73724444  0.13016583  1
  O  O59  1  0.76039558  0.26275556  0.13016583  1
  O  O60  1  0.99963428  0.00000000  0.91150923  1
  O  O61  1  0.00036572  -0.00000000  0.08849077  1
  O  O62  1  0.98858881  0.50000000  0.91560999  1
  O  O63  1  0.01141119  0.50000000  0.08439001  1
  O  O64  1  0.74363470  0.24534030  0.95599451  1
  O  O65  1  0.74363470  0.75465970  0.95599451  1
  O  O66  1  0.25636530  0.75465970  0.04400549  1
  O  O67  1  0.25636530  0.24534030  0.04400549  1
  O  O68  1  0.24459266  0.24835604  0.95697627  1
  O  O69  1  0.24459266  0.75164396  0.95697627  1
  O  O70  1  0.75540734  0.75164396  0.04302373  1
  O  O71  1  0.75540734  0.24835604  0.04302373  1
  O  O72  1  0.50000000  -0.00000000  -0.00000000  1
  O  O73  1  0.50000000  0.50000000  -0.00000000  1
