# generated using pymatgen
data_Mn5Al8
_symmetry_space_group_name_H-M   'P 1'
_cell_length_a   7.71380544
_cell_length_b   7.71380544
_cell_length_c   7.71380556
_cell_angle_alpha   109.53494087
_cell_angle_beta   109.53494087
_cell_angle_gamma   109.53493918
_symmetry_Int_Tables_number   1
_chemical_formula_structural   Mn5Al8
_chemical_formula_sum   'Mn10 Al16'
_cell_volume   352.49693355
_cell_formula_units_Z   2
loop_
 _symmetry_equiv_pos_site_id
 _symmetry_equiv_pos_as_xyz
  1  'x, y, z'
loop_
 _atom_site_type_symbol
 _atom_site_label
 _atom_site_symmetry_multiplicity
 _atom_site_fract_x
 _atom_site_fract_y
 _atom_site_fract_z
 _atom_site_occupancy
  Mn  Mn0  1  0.15087948  0.15087948  0.15087948  1
  Mn  Mn1  1  0.78894517  0.00088168  0.00088168  1
  Mn  Mn2  1  0.00088168  0.00088168  0.78894517  1
  Mn  Mn3  1  0.00088168  0.78894517  0.00088168  1
  Mn  Mn4  1  0.32893888  0.98763522  0.98763522  1
  Mn  Mn5  1  0.98763522  0.98763522  0.32893888  1
  Mn  Mn6  1  0.98763522  0.32893888  0.98763522  1
  Mn  Mn7  1  0.02112471  0.36779421  0.36779421  1
  Mn  Mn8  1  0.36779421  0.36779421  0.02112471  1
  Mn  Mn9  1  0.36779421  0.02112471  0.36779421  1
  Al  Al10  1  0.68931597  0.68931597  0.68931597  1
  Al  Al11  1  -0.00049737  0.64142897  0.64142897  1
  Al  Al12  1  0.64142897  0.64142897  -0.00049737  1
  Al  Al13  1  0.64142897  -0.00049737  0.64142897  1
  Al  Al14  1  0.55610294  0.33634741  0.33634741  1
  Al  Al15  1  0.33634741  0.33634741  0.55610294  1
  Al  Al16  1  0.33634741  0.55610294  0.33634741  1
  Al  Al17  1  0.38248579  0.73746471  0.73746471  1
  Al  Al18  1  0.73746471  0.73746471  0.38248579  1
  Al  Al19  1  0.73746471  0.38248579  0.73746471  1
  Al  Al20  1  0.04655431  0.67310931  0.27913639  1
  Al  Al21  1  0.67310931  0.27913639  0.04655431  1
  Al  Al22  1  0.27913639  0.04655431  0.67310931  1
  Al  Al23  1  0.04655431  0.27913639  0.67310931  1
  Al  Al24  1  0.27913639  0.67310931  0.04655431  1
  Al  Al25  1  0.67310931  0.04655431  0.27913639  1
