# generated using pymatgen
data_Be3Al2Si6O19
_symmetry_space_group_name_H-M   'P 1'
_cell_length_a   9.28981720
_cell_length_b   9.30211628
_cell_length_c   9.30357081
_cell_angle_alpha   119.99482573
_cell_angle_beta   90.00000000
_cell_angle_gamma   90.00000000
_symmetry_Int_Tables_number   1
_chemical_formula_structural   Be3Al2Si6O19
_chemical_formula_sum   'Be6 Al4 Si12 O38'
_cell_volume   696.29274965
_cell_formula_units_Z   2
loop_
 _symmetry_equiv_pos_site_id
 _symmetry_equiv_pos_as_xyz
  1  'x, y, z'
loop_
 _atom_site_type_symbol
 _atom_site_label
 _atom_site_symmetry_multiplicity
 _atom_site_fract_x
 _atom_site_fract_y
 _atom_site_fract_z
 _atom_site_occupancy
  Be  Be0  1  0.25000000  0.50000344  1.00000000  1
  Be  Be1  1  0.24993443  0.49999586  0.50000748  1
  Be  Be2  1  0.25006557  0.99998838  0.49999252  1
  Be  Be3  1  0.75000000  0.50000344  1.00000000  1
  Be  Be4  1  0.75006557  0.49999586  0.50000748  1
  Be  Be5  1  0.74993443  0.99998838  0.49999252  1
  Al  Al6  1  0.25000014  0.33344237  0.66691334  1
  Al  Al7  1  0.74999986  0.33344237  0.66691334  1
  Al  Al8  1  0.75000014  0.66652903  0.33308666  1
  Al  Al9  1  0.24999986  0.66652903  0.33308666  1
  Si  Si10  1  0.50000000  0.61215021  0.88432591  1
  Si  Si11  1  0.50000000  0.27227389  0.38803729  1
  Si  Si12  1  0.50000000  0.11602737  0.72803345  1
  Si  Si13  1  0.00000000  0.72782429  0.11567409  1
  Si  Si14  1  -0.00000000  0.88423659  0.61196271  1
  Si  Si15  1  -0.00000000  0.38799392  0.27196655  1
  Si  Si16  1  0.50000000  0.38784606  0.11567402  1
  Si  Si17  1  0.50000000  0.72772303  0.61196336  1
  Si  Si18  1  0.50000000  0.88396932  0.27196769  1
  Si  Si19  1  0.00000000  0.27217204  0.88432598  1
  Si  Si20  1  0.00000000  0.11575967  0.38803664  1
  Si  Si21  1  0.00000000  0.61200163  0.72803231  1
  O  O22  1  0.50000000  0.69006725  0.76350541  1
  O  O23  1  0.50000000  0.07359037  0.30983024  1
  O  O24  1  0.50000000  0.23649833  0.92630930  1
  O  O25  1  -0.00000000  0.92656184  0.23649459  1
  O  O26  1  0.00000000  0.76376012  0.69016976  1
  O  O27  1  -0.00000000  0.31018903  0.07369070  1
  O  O28  1  0.50000000  0.30993268  0.23649575  1
  O  O29  1  0.50000000  0.92640602  0.69016926  1
  O  O30  1  0.50000000  0.76350108  0.07369005  1
  O  O31  1  -0.00000000  0.07343692  0.76350425  1
  O  O32  1  -0.00000000  0.23623676  0.30983074  1
  O  O33  1  -0.00000000  0.68981103  0.92630995  1
  O  O34  1  0.35442190  0.50101149  0.85487902  1
  O  O35  1  0.35431263  0.35384235  0.49889648  1
  O  O36  1  0.35437696  0.14497133  0.64603899  1
  O  O37  1  0.64557810  0.50101149  0.85487902  1
  O  O38  1  0.64568737  0.35384235  0.49889648  1
  O  O39  1  0.64562304  0.14497133  0.64603899  1
  O  O40  1  0.85442190  0.64613247  0.14512098  1
  O  O41  1  0.85431263  0.85494588  0.50110352  1
  O  O42  1  0.85437696  0.49893234  0.35396101  1
  O  O43  1  0.14557810  0.64613247  0.14512098  1
  O  O44  1  0.14568737  0.85494588  0.50110352  1
  O  O45  1  0.14562304  0.49893234  0.35396101  1
  O  O46  1  0.64557872  0.49898256  0.14511939  1
  O  O47  1  0.64568580  0.64615269  0.50110611  1
  O  O48  1  0.64562391  0.85501790  0.35396024  1
  O  O49  1  0.35442128  0.49898256  0.14511939  1
  O  O50  1  0.35431420  0.64615269  0.50110611  1
  O  O51  1  0.35437609  0.85501790  0.35396024  1
  O  O52  1  0.14557872  0.35386317  0.85488061  1
  O  O53  1  0.14568580  0.14504659  0.49889389  1
  O  O54  1  0.14562391  0.50105766  0.64603976  1
  O  O55  1  0.85442128  0.35386317  0.85488061  1
  O  O56  1  0.85431420  0.14504659  0.49889389  1
  O  O57  1  0.85437609  0.50105766  0.64603976  1
  O  O58  1  0.25000000  -0.00000024  -0.00000000  1
  O  O59  1  0.75000000  -0.00000024  -0.00000000  1
