# generated using pymatgen
data_NiH6C2(NO2)2
_symmetry_space_group_name_H-M   'P 1'
_cell_length_a   6.83575305
_cell_length_b   7.78296545
_cell_length_c   7.94729604
_cell_angle_alpha   70.35675000
_cell_angle_beta   64.52813106
_cell_angle_gamma   63.95044128
_symmetry_Int_Tables_number   1
_chemical_formula_structural   NiH6C2(NO2)2
_chemical_formula_sum   'Ni2 H12 C4 N4 O8'
_cell_volume   337.23681864
_cell_formula_units_Z   2
loop_
 _symmetry_equiv_pos_site_id
 _symmetry_equiv_pos_as_xyz
  1  'x, y, z'
loop_
 _atom_site_type_symbol
 _atom_site_label
 _atom_site_symmetry_multiplicity
 _atom_site_fract_x
 _atom_site_fract_y
 _atom_site_fract_z
 _atom_site_occupancy
  Ni  Ni0  1  0.22510203  0.25000000  0.75000000  1
  Ni  Ni1  1  0.77489797  0.75000000  0.25000000  1
  H  H2  1  0.56457832  0.91691696  0.68937947  1
  H  H3  1  0.17087475  0.58308304  0.81062053  1
  H  H4  1  0.43542168  0.08308304  0.31062053  1
  H  H5  1  0.82912525  0.41691696  0.18937947  1
  H  H6  1  0.67019935  0.08904443  0.56495264  1
  H  H7  1  0.32419643  0.41095557  0.93504736  1
  H  H8  1  0.32980065  0.91095557  0.43504736  1
  H  H9  1  0.67580357  0.58904443  0.06495264  1
  H  H10  1  0.64205862  0.01684957  0.79056875  1
  H  H11  1  0.44947694  0.48315043  0.70943125  1
  H  H12  1  0.35794138  0.98315043  0.20943125  1
  H  H13  1  0.55052306  0.51684957  0.29056875  1
  C  C14  1  0.99891809  0.97113600  0.91566295  1
  C  C15  1  0.88571705  0.52886400  0.58433705  1
  C  C16  1  0.00108191  0.02886400  0.08433705  1
  C  C17  1  0.11428295  0.47113600  0.41566295  1
  N  N18  1  0.56233870  0.04735580  0.69518375  1
  N  N19  1  0.30487824  0.45264420  0.80481625  1
  N  N20  1  0.43766130  0.95264420  0.30481625  1
  N  N21  1  0.69512176  0.54735580  0.19518375  1
  O  O22  1  0.10305865  0.04155275  0.74992651  1
  O  O23  1  0.89453791  0.45844725  0.75007349  1
  O  O24  1  0.89694135  0.95844725  0.25007349  1
  O  O25  1  0.10546209  0.54155275  0.24992651  1
  O  O26  1  0.89060618  0.85623842  0.95817724  1
  O  O27  1  0.70502184  0.64376158  0.54182276  1
  O  O28  1  0.10939382  0.14376158  0.04182276  1
  O  O29  1  0.29497816  0.35623842  0.45817724  1
