# generated using pymatgen
data_Li5W2O7
_symmetry_space_group_name_H-M   'P 1'
_cell_length_a   5.45457189
_cell_length_b   6.29950727
_cell_length_c   9.43507390
_cell_angle_alpha   72.16929644
_cell_angle_beta   79.23304134
_cell_angle_gamma   67.76245849
_symmetry_Int_Tables_number   1
_chemical_formula_structural   Li5W2O7
_chemical_formula_sum   'Li10 W4 O14'
_cell_volume   284.74499278
_cell_formula_units_Z   2
loop_
 _symmetry_equiv_pos_site_id
 _symmetry_equiv_pos_as_xyz
  1  'x, y, z'
loop_
 _atom_site_type_symbol
 _atom_site_label
 _atom_site_symmetry_multiplicity
 _atom_site_fract_x
 _atom_site_fract_y
 _atom_site_fract_z
 _atom_site_occupancy
  Li  Li0  1  0.49556727  0.20486839  0.99465055  1
  Li  Li1  1  0.50443273  0.79513161  0.00534945  1
  Li  Li2  1  0.23062652  0.54511585  0.56745207  1
  Li  Li3  1  0.76937348  0.45488415  0.43254793  1
  Li  Li4  1  0.36231851  0.87074526  0.29990736  1
  Li  Li5  1  0.63768149  0.12925474  0.70009264  1
  Li  Li6  1  0.22962125  0.05680507  0.56311223  1
  Li  Li7  1  0.77037875  0.94319493  0.43688777  1
  Li  Li8  1  0.92929584  0.85079255  0.13993242  1
  Li  Li9  1  0.07070416  0.14920745  0.86006758  1
  W  W10  1  0.93469216  0.30980290  0.14345678  1
  W  W11  1  0.06530784  0.69019710  0.85654322  1
  W  W12  1  0.34643818  0.40111321  0.29728517  1
  W  W13  1  0.65356182  0.59888679  0.70271483  1
  O  O14  1  0.20447111  0.04383012  0.07121502  1
  O  O15  1  0.79552889  0.95616988  0.92878498  1
  O  O16  1  0.49247806  0.25451770  0.49255011  1
  O  O17  1  0.50752194  0.74548230  0.50744989  1
  O  O18  1  0.61858182  0.58090550  0.21799226  1
  O  O19  1  0.38141818  0.41909450  0.78200774  1
  O  O20  1  0.17996755  0.51598659  0.08481441  1
  O  O21  1  0.82003245  0.48401341  0.91518559  1
  O  O22  1  0.08886904  0.67135179  0.34840024  1
  O  O23  1  0.91113096  0.32864821  0.65159976  1
  O  O24  1  0.89127910  0.80124432  0.65190011  1
  O  O25  1  0.10872090  0.19875568  0.34809989  1
  O  O26  1  0.35506568  0.85366477  0.79066330  1
  O  O27  1  0.64493432  0.14633523  0.20933670  1
