# generated using pymatgen
data_AsPHBr3OF6
_symmetry_space_group_name_H-M   'P 1'
_cell_length_a   8.85837880
_cell_length_b   9.09665321
_cell_length_c   13.38991574
_cell_angle_alpha   90.00000000
_cell_angle_beta   90.00000000
_cell_angle_gamma   90.00000000
_symmetry_Int_Tables_number   1
_chemical_formula_structural   AsPHBr3OF6
_chemical_formula_sum   'As4 P4 H4 Br12 O4 F24'
_cell_volume   1078.98083348
_cell_formula_units_Z   4
loop_
 _symmetry_equiv_pos_site_id
 _symmetry_equiv_pos_as_xyz
  1  'x, y, z'
loop_
 _atom_site_type_symbol
 _atom_site_label
 _atom_site_symmetry_multiplicity
 _atom_site_fract_x
 _atom_site_fract_y
 _atom_site_fract_z
 _atom_site_occupancy
  As  As0  1  0.81369968  0.75000000  0.93847765  1
  As  As1  1  0.68630032  0.75000000  0.43847765  1
  As  As2  1  0.18630032  0.25000000  0.06152235  1
  As  As3  1  0.31369968  0.25000000  0.56152235  1
  P  P4  1  0.22310271  0.75000000  0.22112755  1
  P  P5  1  0.27689729  0.75000000  0.72112755  1
  P  P6  1  0.77689729  0.25000000  0.77887245  1
  P  P7  1  0.72310271  0.25000000  0.27887245  1
  H  H8  1  0.04572972  0.75000000  0.09886389  1
  H  H9  1  0.45427028  0.75000000  0.59886389  1
  H  H10  1  0.95427028  0.25000000  0.90113611  1
  H  H11  1  0.54572972  0.25000000  0.40113611  1
  Br  Br12  1  0.39673293  0.75000000  0.10908804  1
  Br  Br13  1  0.10326707  0.75000000  0.60908804  1
  Br  Br14  1  0.60326707  0.25000000  0.89091196  1
  Br  Br15  1  0.89673293  0.25000000  0.39091196  1
  Br  Br16  1  0.24649339  0.55817463  0.31346491  1
  Br  Br17  1  0.25350661  0.94182537  0.81346491  1
  Br  Br18  1  0.75350661  0.05817463  0.68653509  1
  Br  Br19  1  0.74649339  0.44182537  0.18653509  1
  Br  Br20  1  0.75350661  0.44182537  0.68653509  1
  Br  Br21  1  0.74649339  0.05817463  0.18653509  1
  Br  Br22  1  0.24649339  0.94182537  0.31346491  1
  Br  Br23  1  0.25350661  0.55817463  0.81346491  1
  O  O24  1  0.06344025  0.75000000  0.17405730  1
  O  O25  1  0.43655975  0.75000000  0.67405730  1
  O  O26  1  0.93655975  0.25000000  0.82594270  1
  O  O27  1  0.56344025  0.25000000  0.32594270  1
  F  F28  1  0.00836025  0.75000000  0.98585264  1
  F  F29  1  0.49163975  0.75000000  0.48585264  1
  F  F30  1  0.99163975  0.25000000  0.01414736  1
  F  F31  1  0.50836025  0.25000000  0.51414736  1
  F  F32  1  0.88410668  0.75000000  0.81566542  1
  F  F33  1  0.61589332  0.75000000  0.31566542  1
  F  F34  1  0.11589332  0.25000000  0.18433458  1
  F  F35  1  0.38410668  0.25000000  0.68433458  1
  F  F36  1  0.75276043  0.75000000  0.06547994  1
  F  F37  1  0.74723957  0.75000000  0.56547994  1
  F  F38  1  0.24723957  0.25000000  0.93452006  1
  F  F39  1  0.25276043  0.25000000  0.43452006  1
  F  F40  1  0.62451066  0.75000000  0.89749814  1
  F  F41  1  0.87548934  0.75000000  0.39749814  1
  F  F42  1  0.37548934  0.25000000  0.10250186  1
  F  F43  1  0.12451066  0.25000000  0.60250186  1
  F  F44  1  0.81805484  0.94422867  0.94075627  1
  F  F45  1  0.68194516  0.55577133  0.44075627  1
  F  F46  1  0.18194516  0.44422867  0.05924373  1
  F  F47  1  0.31805484  0.05577133  0.55924373  1
  F  F48  1  0.18194516  0.05577133  0.05924373  1
  F  F49  1  0.31805484  0.44422867  0.55924373  1
  F  F50  1  0.81805484  0.55577133  0.94075627  1
  F  F51  1  0.68194516  0.94422867  0.44075627  1
