# generated using pymatgen
data_Zr4Re2N
_symmetry_space_group_name_H-M   'P 1'
_cell_length_a   8.85368377
_cell_length_b   8.85368377
_cell_length_c   8.85368377
_cell_angle_alpha   60.00000000
_cell_angle_beta   60.00000000
_cell_angle_gamma   60.00000000
_symmetry_Int_Tables_number   1
_chemical_formula_structural   Zr4Re2N
_chemical_formula_sum   'Zr16 Re8 N4'
_cell_volume   490.74628421
_cell_formula_units_Z   4
loop_
 _symmetry_equiv_pos_site_id
 _symmetry_equiv_pos_as_xyz
  1  'x, y, z'
loop_
 _atom_site_type_symbol
 _atom_site_label
 _atom_site_symmetry_multiplicity
 _atom_site_fract_x
 _atom_site_fract_y
 _atom_site_fract_z
 _atom_site_occupancy
  Zr  Zr0  1  0.00000000  -0.00000000  0.50000000  1
  Zr  Zr1  1  0.00000000  0.50000000  0.00000000  1
  Zr  Zr2  1  0.50000000  -0.00000000  0.00000000  1
  Zr  Zr3  1  0.00000000  -0.00000000  0.00000000  1
  Zr  Zr4  1  0.43914007  0.81085993  0.81085993  1
  Zr  Zr5  1  0.81085993  0.43914007  0.43914007  1
  Zr  Zr6  1  0.81085993  0.43914007  0.81085993  1
  Zr  Zr7  1  0.43914007  0.81085993  0.43914007  1
  Zr  Zr8  1  0.81085993  0.81085993  0.43914007  1
  Zr  Zr9  1  0.43914007  0.43914007  0.81085993  1
  Zr  Zr10  1  0.56085993  0.18914007  0.18914007  1
  Zr  Zr11  1  0.18914007  0.56085993  0.56085993  1
  Zr  Zr12  1  0.18914007  0.56085993  0.18914007  1
  Zr  Zr13  1  0.56085993  0.18914007  0.56085993  1
  Zr  Zr14  1  0.18914007  0.18914007  0.56085993  1
  Zr  Zr15  1  0.56085993  0.56085993  0.18914007  1
  Re  Re16  1  0.20803866  0.20803866  0.87588401  1
  Re  Re17  1  0.20803866  0.87588401  0.20803866  1
  Re  Re18  1  0.87588401  0.20803866  0.20803866  1
  Re  Re19  1  0.20803866  0.20803866  0.20803866  1
  Re  Re20  1  0.79196134  0.79196134  0.12411599  1
  Re  Re21  1  0.79196134  0.12411599  0.79196134  1
  Re  Re22  1  0.12411599  0.79196134  0.79196134  1
  Re  Re23  1  0.79196134  0.79196134  0.79196134  1
  N  N24  1  0.50000000  0.50000000  0.00000000  1
  N  N25  1  0.50000000  -0.00000000  0.50000000  1
  N  N26  1  0.00000000  0.50000000  0.50000000  1
  N  N27  1  0.50000000  0.50000000  0.50000000  1
