# generated using pymatgen
data_Zr6Ga16Os7
_symmetry_space_group_name_H-M   'P 1'
_cell_length_a   8.81066944
_cell_length_b   8.81066944
_cell_length_c   8.81066944
_cell_angle_alpha   60.00000000
_cell_angle_beta   60.00000000
_cell_angle_gamma   60.00000000
_symmetry_Int_Tables_number   1
_chemical_formula_structural   Zr6Ga16Os7
_chemical_formula_sum   'Zr6 Ga16 Os7'
_cell_volume   483.62832158
_cell_formula_units_Z   1
loop_
 _symmetry_equiv_pos_site_id
 _symmetry_equiv_pos_as_xyz
  1  'x, y, z'
loop_
 _atom_site_type_symbol
 _atom_site_label
 _atom_site_symmetry_multiplicity
 _atom_site_fract_x
 _atom_site_fract_y
 _atom_site_fract_z
 _atom_site_occupancy
  Zr  Zr0  1  0.71891824  0.28108176  0.28108176  1
  Zr  Zr1  1  0.71891824  0.28108176  0.71891824  1
  Zr  Zr2  1  0.71891824  0.71891824  0.28108176  1
  Zr  Zr3  1  0.28108176  0.71891824  0.71891824  1
  Zr  Zr4  1  0.28108176  0.71891824  0.28108176  1
  Zr  Zr5  1  0.28108176  0.28108176  0.71891824  1
  Ga  Ga6  1  0.62868968  0.12377011  0.12377011  1
  Ga  Ga7  1  0.12377011  0.62868968  0.12377011  1
  Ga  Ga8  1  0.12377011  0.12377011  0.62868968  1
  Ga  Ga9  1  0.12377011  0.12377011  0.12377011  1
  Ga  Ga10  1  0.37131032  0.87622989  0.87622989  1
  Ga  Ga11  1  0.87622989  0.37131032  0.87622989  1
  Ga  Ga12  1  0.87622989  0.87622989  0.37131032  1
  Ga  Ga13  1  0.87622989  0.87622989  0.87622989  1
  Ga  Ga14  1  0.96323325  0.34558892  0.34558892  1
  Ga  Ga15  1  0.34558892  0.96323325  0.34558892  1
  Ga  Ga16  1  0.34558892  0.34558892  0.96323325  1
  Ga  Ga17  1  0.34558892  0.34558892  0.34558892  1
  Ga  Ga18  1  0.03676675  0.65441108  0.65441108  1
  Ga  Ga19  1  0.65441108  0.03676675  0.65441108  1
  Ga  Ga20  1  0.65441108  0.65441108  0.03676675  1
  Ga  Ga21  1  0.65441108  0.65441108  0.65441108  1
  Os  Os22  1  -0.00000000  0.00000000  0.00000000  1
  Os  Os23  1  0.50000000  0.00000000  0.00000000  1
  Os  Os24  1  0.50000000  0.00000000  0.50000000  1
  Os  Os25  1  0.50000000  0.50000000  0.00000000  1
  Os  Os26  1  -0.00000000  0.50000000  0.50000000  1
  Os  Os27  1  -0.00000000  0.50000000  0.00000000  1
  Os  Os28  1  -0.00000000  0.00000000  0.50000000  1
