# generated using pymatgen
data_Hg12Se6O25
_symmetry_space_group_name_H-M   'P 1'
_cell_length_a   9.69263289
_cell_length_b   9.69263289
_cell_length_c   9.69263256
_cell_angle_alpha   107.96001428
_cell_angle_beta   107.96001428
_cell_angle_gamma   107.96001777
_symmetry_Int_Tables_number   1
_chemical_formula_structural   Hg12Se6O25
_chemical_formula_sum   'Hg12 Se6 O25'
_cell_volume   737.59175222
_cell_formula_units_Z   1
loop_
 _symmetry_equiv_pos_site_id
 _symmetry_equiv_pos_as_xyz
  1  'x, y, z'
loop_
 _atom_site_type_symbol
 _atom_site_label
 _atom_site_symmetry_multiplicity
 _atom_site_fract_x
 _atom_site_fract_y
 _atom_site_fract_z
 _atom_site_occupancy
  Hg  Hg0  1  0.84005579  0.25480458  0.88877165  1
  Hg  Hg1  1  0.25480458  0.88877165  0.84005579  1
  Hg  Hg2  1  0.88877165  0.84005579  0.25480458  1
  Hg  Hg3  1  0.15994421  0.74519542  0.11122835  1
  Hg  Hg4  1  0.74519542  0.11122835  0.15994421  1
  Hg  Hg5  1  0.11122835  0.15994421  0.74519542  1
  Hg  Hg6  1  0.32700340  0.01375792  0.54383522  1
  Hg  Hg7  1  0.01375792  0.54383522  0.32700340  1
  Hg  Hg8  1  0.54383522  0.32700340  0.01375792  1
  Hg  Hg9  1  0.67299660  0.98624208  0.45616478  1
  Hg  Hg10  1  0.98624208  0.45616478  0.67299660  1
  Hg  Hg11  1  0.45616478  0.67299660  0.98624208  1
  Se  Se12  1  0.79092920  0.66095803  0.50293160  1
  Se  Se13  1  0.66095803  0.50293160  0.79092920  1
  Se  Se14  1  0.50293160  0.79092920  0.66095803  1
  Se  Se15  1  0.20907080  0.33904197  0.49706840  1
  Se  Se16  1  0.33904197  0.49706840  0.20907080  1
  Se  Se17  1  0.49706840  0.20907080  0.33904197  1
  O  O18  1  0.58620817  0.97597669  0.65163413  1
  O  O19  1  0.97597669  0.65163413  0.58620817  1
  O  O20  1  0.65163413  0.58620817  0.97597669  1
  O  O21  1  0.41379183  0.02402331  0.34836587  1
  O  O22  1  0.02402331  0.34836587  0.41379183  1
  O  O23  1  0.34836587  0.41379183  0.02402331  1
  O  O24  1  0.57220387  0.30130580  0.74505825  1
  O  O25  1  0.30130580  0.74505825  0.57220387  1
  O  O26  1  0.74505825  0.57220387  0.30130580  1
  O  O27  1  0.42779613  0.69869420  0.25494175  1
  O  O28  1  0.69869420  0.25494175  0.42779613  1
  O  O29  1  0.25494175  0.42779613  0.69869420  1
  O  O30  1  0.85827843  0.86182973  0.54744534  1
  O  O31  1  0.86182973  0.54744534  0.85827843  1
  O  O32  1  0.54744534  0.85827843  0.86182973  1
  O  O33  1  0.14172157  0.13817027  0.45255466  1
  O  O34  1  0.13817027  0.45255466  0.14172157  1
  O  O35  1  0.45255466  0.14172157  0.13817027  1
  O  O36  1  0.91777100  0.22346618  0.70469760  1
  O  O37  1  0.22346618  0.70469760  0.91777100  1
  O  O38  1  0.70469760  0.91777100  0.22346618  1
  O  O39  1  0.08222900  0.77653382  0.29530240  1
  O  O40  1  0.77653382  0.29530240  0.08222900  1
  O  O41  1  0.29530240  0.08222900  0.77653382  1
  O  O42  1  -0.00000000  0.00000000  0.00000000  1
