# generated using pymatgen
data_Ta17Al12
_symmetry_space_group_name_H-M   'P 1'
_cell_length_a   8.64464161
_cell_length_b   8.64464161
_cell_length_c   8.64464161
_cell_angle_alpha   109.47122063
_cell_angle_beta   109.47122063
_cell_angle_gamma   109.47122063
_symmetry_Int_Tables_number   1
_chemical_formula_structural   Ta17Al12
_chemical_formula_sum   'Ta17 Al12'
_cell_volume   497.30072003
_cell_formula_units_Z   1
loop_
 _symmetry_equiv_pos_site_id
 _symmetry_equiv_pos_as_xyz
  1  'x, y, z'
loop_
 _atom_site_type_symbol
 _atom_site_label
 _atom_site_symmetry_multiplicity
 _atom_site_fract_x
 _atom_site_fract_y
 _atom_site_fract_z
 _atom_site_occupancy
  Ta  Ta0  1  0.00000000  -0.00000000  0.00000000  1
  Ta  Ta1  1  0.64487771  0.00000000  -0.00000000  1
  Ta  Ta2  1  -0.00000000  0.64487771  -0.00000000  1
  Ta  Ta3  1  0.00000000  0.00000000  0.64487771  1
  Ta  Ta4  1  0.35512229  0.35512229  0.35512229  1
  Ta  Ta5  1  0.40689708  0.67781931  -0.00000000  1
  Ta  Ta6  1  0.72907777  0.32218069  0.32218069  1
  Ta  Ta7  1  0.40689708  0.00000000  0.67781931  1
  Ta  Ta8  1  0.67781931  0.40689708  -0.00000000  1
  Ta  Ta9  1  -0.00000000  0.40689708  0.67781931  1
  Ta  Ta10  1  0.32218069  0.72907777  0.32218069  1
  Ta  Ta11  1  0.32218069  0.32218069  0.72907777  1
  Ta  Ta12  1  -0.00000000  0.67781931  0.40689708  1
  Ta  Ta13  1  0.67781931  0.00000000  0.40689708  1
  Ta  Ta14  1  0.59310292  0.59310292  0.27092223  1
  Ta  Ta15  1  0.27092223  0.59310292  0.59310292  1
  Ta  Ta16  1  0.59310292  0.27092223  0.59310292  1
  Al  Al17  1  0.36764559  0.18645917  -0.00000000  1
  Al  Al18  1  0.18118642  0.81354083  0.81354083  1
  Al  Al19  1  0.36764559  0.00000000  0.18645917  1
  Al  Al20  1  0.18645917  0.36764559  0.00000000  1
  Al  Al21  1  -0.00000000  0.36764559  0.18645917  1
  Al  Al22  1  0.81354083  0.18118642  0.81354083  1
  Al  Al23  1  0.81354083  0.81354083  0.18118642  1
  Al  Al24  1  -0.00000000  0.18645917  0.36764559  1
  Al  Al25  1  0.18645917  0.00000000  0.36764559  1
  Al  Al26  1  0.63235441  0.63235441  0.81881358  1
  Al  Al27  1  0.81881358  0.63235441  0.63235441  1
  Al  Al28  1  0.63235441  0.81881358  0.63235441  1
