# generated using pymatgen
data_K4Ga8P8O32F
_symmetry_space_group_name_H-M   'P 1'
_cell_length_a   8.83107225
_cell_length_b   13.49118977
_cell_length_c   13.49118977
_cell_angle_alpha   90.00000000
_cell_angle_beta   90.00000000
_cell_angle_gamma   90.00000000
_symmetry_Int_Tables_number   1
_chemical_formula_structural   K4Ga8P8O32F
_chemical_formula_sum   'K8 Ga16 P16 O64 F2'
_cell_volume   1607.36290103
_cell_formula_units_Z   2
loop_
 _symmetry_equiv_pos_site_id
 _symmetry_equiv_pos_as_xyz
  1  'x, y, z'
loop_
 _atom_site_type_symbol
 _atom_site_label
 _atom_site_symmetry_multiplicity
 _atom_site_fract_x
 _atom_site_fract_y
 _atom_site_fract_z
 _atom_site_occupancy
  K  K0  1  0.24362312  0.99545401  0.58276197  1
  K  K1  1  0.24362312  0.50454599  0.91723803  1
  K  K2  1  0.74362312  0.08276197  0.00454599  1
  K  K3  1  0.74362312  0.41723803  0.49545401  1
  K  K4  1  0.75637688  0.00454599  0.41723803  1
  K  K5  1  0.75637688  0.49545401  0.08276197  1
  K  K6  1  0.25637688  0.91723803  0.99545401  1
  K  K7  1  0.25637688  0.58276197  0.50454599  1
  Ga  Ga8  1  0.40964450  0.81763995  0.36870525  1
  Ga  Ga9  1  0.40964450  0.68236005  0.13129475  1
  Ga  Ga10  1  0.90964450  0.86870525  0.18236005  1
  Ga  Ga11  1  0.90964450  0.63129475  0.31763995  1
  Ga  Ga12  1  0.59035550  0.18236005  0.63129475  1
  Ga  Ga13  1  0.59035550  0.31763995  0.86870525  1
  Ga  Ga14  1  0.09035550  0.13129475  0.81763995  1
  Ga  Ga15  1  0.09035550  0.36870525  0.68236005  1
  Ga  Ga16  1  0.40456747  0.38518892  0.30699066  1
  Ga  Ga17  1  0.40456747  0.11481108  0.19300934  1
  Ga  Ga18  1  0.90456747  0.80699066  0.61481108  1
  Ga  Ga19  1  0.90456747  0.69300934  0.88518892  1
  Ga  Ga20  1  0.59543253  0.61481108  0.69300934  1
  Ga  Ga21  1  0.59543253  0.88518892  0.80699066  1
  Ga  Ga22  1  0.09543253  0.19300934  0.38518892  1
  Ga  Ga23  1  0.09543253  0.30699066  0.11481108  1
  P  P24  1  0.55330883  0.60596841  0.32337988  1
  P  P25  1  0.55330883  0.89403159  0.17662012  1
  P  P26  1  0.05330883  0.82337988  0.39403159  1
  P  P27  1  0.05330883  0.67662012  0.10596841  1
  P  P28  1  0.44669117  0.39403159  0.67662012  1
  P  P29  1  0.44669117  0.10596841  0.82337988  1
  P  P30  1  0.94669117  0.17662012  0.60596841  1
  P  P31  1  0.94669117  0.32337988  0.89403159  1
  P  P32  1  0.45329666  0.31895504  0.08517336  1
  P  P33  1  0.45329666  0.18104496  0.41482664  1
  P  P34  1  0.95329666  0.58517336  0.68104496  1
  P  P35  1  0.95329666  0.91482664  0.81895504  1
  P  P36  1  0.54670334  0.68104496  0.91482664  1
  P  P37  1  0.54670334  0.81895504  0.58517336  1
  P  P38  1  0.04670334  0.41482664  0.31895504  1
  P  P39  1  0.04670334  0.08517336  0.18104496  1
  O  O40  1  0.42595786  0.67635267  0.36317030  1
  O  O41  1  0.42595786  0.82364733  0.13682970  1
  O  O42  1  0.92595786  0.86317030  0.32364733  1
  O  O43  1  0.92595786  0.63682970  0.17635267  1
  O  O44  1  0.57404214  0.32364733  0.63682970  1
  O  O45  1  0.57404214  0.17635267  0.86317030  1
  O  O46  1  0.07404214  0.13682970  0.67635267  1
  O  O47  1  0.07404214  0.36317030  0.82364733  1
  O  O48  1  0.70794046  0.64369175  0.36359486  1
  O  O49  1  0.70794046  0.85630825  0.13640514  1
  O  O50  1  0.20794046  0.86359486  0.35630825  1
  O  O51  1  0.20794046  0.63640514  0.14369175  1
  O  O52  1  0.29205954  0.35630825  0.63640514  1
  O  O53  1  0.29205954  0.14369175  0.86359486  1
  O  O54  1  0.79205954  0.13640514  0.64369175  1
  O  O55  1  0.79205954  0.36359486  0.85630825  1
  O  O56  1  0.55286333  0.60930705  0.20722104  1
  O  O57  1  0.55286333  0.89069295  0.29277896  1
  O  O58  1  0.05286333  0.70722104  0.39069295  1
  O  O59  1  0.05286333  0.79277896  0.10930705  1
  O  O60  1  0.44713667  0.39069295  0.79277896  1
  O  O61  1  0.44713667  0.10930705  0.70722104  1
  O  O62  1  0.94713667  0.29277896  0.60930705  1
  O  O63  1  0.94713667  0.20722104  0.89069295  1
  O  O64  1  0.52258171  0.49913310  0.36038050  1
  O  O65  1  0.52258171  0.00086690  0.13961950  1
  O  O66  1  0.02258171  0.86038050  0.50086690  1
  O  O67  1  0.02258171  0.63961950  0.99913310  1
  O  O68  1  0.47741829  0.50086690  0.63961950  1
  O  O69  1  0.47741829  0.99913310  0.86038050  1
  O  O70  1  0.97741829  0.13961950  0.49913310  1
  O  O71  1  0.97741829  0.36038050  0.00086690  1
  O  O72  1  0.49921591  0.37901990  0.17893456  1
  O  O73  1  0.49921591  0.12098010  0.32106544  1
  O  O74  1  0.99921591  0.67893456  0.62098010  1
  O  O75  1  0.99921591  0.82106544  0.87901990  1
  O  O76  1  0.50078409  0.62098010  0.82106544  1
  O  O77  1  0.50078409  0.87901990  0.67893456  1
  O  O78  1  0.00078409  0.32106544  0.37901990  1
  O  O79  1  0.00078409  0.17893456  0.12098010  1
  O  O80  1  0.28629252  0.34005465  0.05449016  1
  O  O81  1  0.28629252  0.15994535  0.44550984  1
  O  O82  1  0.78629252  0.55449016  0.65994535  1
  O  O83  1  0.78629252  0.94550984  0.84005465  1
  O  O84  1  0.71370748  0.65994535  0.94550984  1
  O  O85  1  0.71370748  0.84005465  0.55449016  1
  O  O86  1  0.21370748  0.44550984  0.34005465  1
  O  O87  1  0.21370748  0.05449016  0.15994535  1
  O  O88  1  0.55593978  0.36009696  0.00043468  1
  O  O89  1  0.55593978  0.13990304  0.49956532  1
  O  O90  1  0.05593978  0.50043468  0.63990304  1
  O  O91  1  0.05593978  0.99956532  0.86009696  1
  O  O92  1  0.44406022  0.63990304  0.99956532  1
  O  O93  1  0.44406022  0.86009696  0.50043468  1
  O  O94  1  0.94406022  0.49956532  0.36009696  1
  O  O95  1  0.94406022  0.00043468  0.13990304  1
  O  O96  1  0.48636755  0.20637443  0.09797896  1
  O  O97  1  0.48636755  0.29362557  0.40202104  1
  O  O98  1  0.98636755  0.59797896  0.79362557  1
  O  O99  1  0.98636755  0.90202104  0.70637443  1
  O  O100  1  0.51363245  0.79362557  0.90202104  1
  O  O101  1  0.51363245  0.70637443  0.59797896  1
  O  O102  1  0.01363245  0.40202104  0.20637443  1
  O  O103  1  0.01363245  0.09797896  0.29362557  1
  F  F104  1  0.25000000  0.25000000  0.25000000  1
  F  F105  1  0.75000000  0.75000000  0.75000000  1
