# generated using pymatgen
data_Ca5(GeO5)2
_symmetry_space_group_name_H-M   'P 1'
_cell_length_a   5.26491629
_cell_length_b   9.03763457
_cell_length_c   11.69503323
_cell_angle_alpha   108.93296429
_cell_angle_beta   90.00000000
_cell_angle_gamma   90.00000000
_symmetry_Int_Tables_number   1
_chemical_formula_structural   Ca5(GeO5)2
_chemical_formula_sum   'Ca10 Ge4 O20'
_cell_volume   526.37154153
_cell_formula_units_Z   2
loop_
 _symmetry_equiv_pos_site_id
 _symmetry_equiv_pos_as_xyz
  1  'x, y, z'
loop_
 _atom_site_type_symbol
 _atom_site_label
 _atom_site_symmetry_multiplicity
 _atom_site_fract_x
 _atom_site_fract_y
 _atom_site_fract_z
 _atom_site_occupancy
  Ca  Ca0  1  0.50000000  -0.00000000  0.50000000  1
  Ca  Ca1  1  0.00000000  -0.00000000  0.00000000  1
  Ca  Ca2  1  0.49966525  0.19085048  0.82932655  1
  Ca  Ca3  1  0.99966525  0.80914952  0.67067345  1
  Ca  Ca4  1  0.50033475  0.80914952  0.17067345  1
  Ca  Ca5  1  0.00033475  0.19085048  0.32932655  1
  Ca  Ca6  1  0.50573172  0.42045874  0.61793699  1
  Ca  Ca7  1  0.00573172  0.57954126  0.88206301  1
  Ca  Ca8  1  0.49426828  0.57954126  0.38206301  1
  Ca  Ca9  1  0.99426828  0.42045874  0.11793699  1
  Ge  Ge10  1  0.06820392  0.20059843  0.64461552  1
  Ge  Ge11  1  0.56820392  0.79940157  0.85538448  1
  Ge  Ge12  1  0.93179608  0.79940157  0.35538448  1
  Ge  Ge13  1  0.43179608  0.20059843  0.14461552  1
  O  O14  1  0.21574689  0.20672646  0.50734333  1
  O  O15  1  0.71574689  0.79327354  0.99265667  1
  O  O16  1  0.78425311  0.79327354  0.49265667  1
  O  O17  1  0.28425311  0.20672646  0.00734333  1
  O  O18  1  0.21627614  0.03381220  0.66849313  1
  O  O19  1  0.71627614  0.96618780  0.83150687  1
  O  O20  1  0.78372386  0.96618780  0.33150687  1
  O  O21  1  0.28372386  0.03381220  0.16849313  1
  O  O22  1  0.21344815  0.36283413  0.75775336  1
  O  O23  1  0.71344815  0.63716587  0.74224664  1
  O  O24  1  0.78655185  0.63716587  0.24224664  1
  O  O25  1  0.28655185  0.36283413  0.25775336  1
  O  O26  1  0.73402761  0.20137462  0.64671189  1
  O  O27  1  0.23402761  0.79862538  0.85328811  1
  O  O28  1  0.26597239  0.79862538  0.35328811  1
  O  O29  1  0.76597239  0.20137462  0.14671189  1
  O  O30  1  0.76416019  0.39627203  0.93993963  1
  O  O31  1  0.26416019  0.60372797  0.56006037  1
  O  O32  1  0.23583981  0.60372797  0.06006037  1
  O  O33  1  0.73583981  0.39627203  0.43993963  1
