# generated using pymatgen
data_KSO4
_symmetry_space_group_name_H-M   'P 1'
_cell_length_a   8.63987453
_cell_length_b   10.05342504
_cell_length_c   19.41462860
_cell_angle_alpha   90.00000000
_cell_angle_beta   90.00000000
_cell_angle_gamma   90.00000000
_symmetry_Int_Tables_number   1
_chemical_formula_structural   KSO4
_chemical_formula_sum   'K16 S16 O64'
_cell_volume   1686.36106532
_cell_formula_units_Z   16
loop_
 _symmetry_equiv_pos_site_id
 _symmetry_equiv_pos_as_xyz
  1  'x, y, z'
loop_
 _atom_site_type_symbol
 _atom_site_label
 _atom_site_symmetry_multiplicity
 _atom_site_fract_x
 _atom_site_fract_y
 _atom_site_fract_z
 _atom_site_occupancy
  K  K0  1  0.88190998  0.18001863  0.37460712  1
  K  K1  1  0.38190998  0.31998137  0.62539288  1
  K  K2  1  0.11809002  0.68001863  0.12539288  1
  K  K3  1  0.61809002  0.81998137  0.87460712  1
  K  K4  1  0.11809002  0.81998137  0.62539288  1
  K  K5  1  0.61809002  0.68001863  0.37460712  1
  K  K6  1  0.88190998  0.31998137  0.87460712  1
  K  K7  1  0.38190998  0.18001863  0.12539288  1
  K  K8  1  0.37313550  0.31915866  0.38117013  1
  K  K9  1  0.87313550  0.18084134  0.61882987  1
  K  K10  1  0.62686450  0.81915866  0.11882987  1
  K  K11  1  0.12686450  0.68084134  0.88117013  1
  K  K12  1  0.62686450  0.68084134  0.61882987  1
  K  K13  1  0.12686450  0.81915866  0.38117013  1
  K  K14  1  0.37313550  0.18084134  0.88117013  1
  K  K15  1  0.87313550  0.31915866  0.11882987  1
  S  S16  1  0.75165583  0.42923594  0.49678247  1
  S  S17  1  0.25165583  0.07076406  0.50321753  1
  S  S18  1  0.24834417  0.92923594  0.00321753  1
  S  S19  1  0.74834417  0.57076406  0.99678247  1
  S  S20  1  0.24834417  0.57076406  0.50321753  1
  S  S21  1  0.74834417  0.92923594  0.49678247  1
  S  S22  1  0.75165583  0.07076406  0.99678247  1
  S  S23  1  0.25165583  0.42923594  0.00321753  1
  S  S24  1  0.47569071  0.02134664  0.29238658  1
  S  S25  1  0.97569071  0.47865336  0.70761342  1
  S  S26  1  0.52430929  0.52134664  0.20761342  1
  S  S27  1  0.02430929  0.97865336  0.79238658  1
  S  S28  1  0.52430929  0.97865336  0.70761342  1
  S  S29  1  0.02430929  0.52134664  0.29238658  1
  S  S30  1  0.47569071  0.47865336  0.79238658  1
  S  S31  1  0.97569071  0.02134664  0.20761342  1
  O  O32  1  0.78527592  0.57434873  0.49792125  1
  O  O33  1  0.28527592  0.92565127  0.50207875  1
  O  O34  1  0.21472408  0.07434873  0.00207875  1
  O  O35  1  0.71472408  0.42565127  0.99792125  1
  O  O36  1  0.21472408  0.42565127  0.50207875  1
  O  O37  1  0.71472408  0.07434873  0.49792125  1
  O  O38  1  0.78527592  0.92565127  0.99792125  1
  O  O39  1  0.28527592  0.57434873  0.00207875  1
  O  O40  1  0.89830911  0.35176782  0.49649365  1
  O  O41  1  0.39830911  0.14823218  0.50350635  1
  O  O42  1  0.10169089  0.85176782  0.00350635  1
  O  O43  1  0.60169089  0.64823218  0.99649365  1
  O  O44  1  0.10169089  0.64823218  0.50350635  1
  O  O45  1  0.60169089  0.85176782  0.49649365  1
  O  O46  1  0.89830911  0.14823218  0.99649365  1
  O  O47  1  0.39830911  0.35176782  0.00350635  1
  O  O48  1  0.66323844  0.39584782  0.56031016  1
  O  O49  1  0.16323844  0.10415218  0.43968984  1
  O  O50  1  0.33676156  0.89584782  0.93968984  1
  O  O51  1  0.83676156  0.60415218  0.06031016  1
  O  O52  1  0.33676156  0.60415218  0.43968984  1
  O  O53  1  0.83676156  0.89584782  0.56031016  1
  O  O54  1  0.66323844  0.10415218  0.06031016  1
  O  O55  1  0.16323844  0.39584782  0.93968984  1
  O  O56  1  0.66318495  0.39767475  0.43306377  1
  O  O57  1  0.16318495  0.10232525  0.56693623  1
  O  O58  1  0.33681505  0.89767475  0.06693623  1
  O  O59  1  0.83681505  0.60232525  0.93306377  1
  O  O60  1  0.33681505  0.60232525  0.56693623  1
  O  O61  1  0.83681505  0.89767475  0.43306377  1
  O  O62  1  0.66318495  0.10232525  0.93306377  1
  O  O63  1  0.16318495  0.39767475  0.06693623  1
  O  O64  1  0.56058898  0.99254960  0.22676024  1
  O  O65  1  0.06058898  0.50745040  0.77323976  1
  O  O66  1  0.43941102  0.49254960  0.27323976  1
  O  O67  1  0.93941102  0.00745040  0.72676024  1
  O  O68  1  0.43941102  0.00745040  0.77323976  1
  O  O69  1  0.93941102  0.49254960  0.22676024  1
  O  O70  1  0.56058898  0.50745040  0.72676024  1
  O  O71  1  0.06058898  0.99254960  0.27323976  1
  O  O72  1  0.34068960  0.10967350  0.27779884  1
  O  O73  1  0.84068960  0.39032650  0.72220116  1
  O  O74  1  0.65931040  0.60967350  0.22220116  1
  O  O75  1  0.15931040  0.89032650  0.77779884  1
  O  O76  1  0.65931040  0.89032650  0.72220116  1
  O  O77  1  0.15931040  0.60967350  0.27779884  1
  O  O78  1  0.34068960  0.39032650  0.77779884  1
  O  O79  1  0.84068960  0.10967350  0.22220116  1
  O  O80  1  0.42266624  0.89374181  0.32225174  1
  O  O81  1  0.92266624  0.60625819  0.67774826  1
  O  O82  1  0.57733376  0.39374181  0.17774826  1
  O  O83  1  0.07733376  0.10625819  0.82225174  1
  O  O84  1  0.57733376  0.10625819  0.67774826  1
  O  O85  1  0.07733376  0.39374181  0.32225174  1
  O  O86  1  0.42266624  0.60625819  0.82225174  1
  O  O87  1  0.92266624  0.89374181  0.17774826  1
  O  O88  1  0.58050280  0.09194388  0.34044901  1
  O  O89  1  0.08050280  0.40805612  0.65955099  1
  O  O90  1  0.41949720  0.59194388  0.15955099  1
  O  O91  1  0.91949720  0.90805612  0.84044901  1
  O  O92  1  0.41949720  0.90805612  0.65955099  1
  O  O93  1  0.91949720  0.59194388  0.34044901  1
  O  O94  1  0.58050280  0.40805612  0.84044901  1
  O  O95  1  0.08050280  0.09194388  0.15955099  1
