# generated using pymatgen
data_BaTbMn2O6
_symmetry_space_group_name_H-M   'P 1'
_cell_length_a   5.58259115
_cell_length_b   7.79015831
_cell_length_c   11.14421910
_cell_angle_alpha   89.99825224
_cell_angle_beta   89.89582168
_cell_angle_gamma   89.99908035
_symmetry_Int_Tables_number   1
_chemical_formula_structural   BaTbMn2O6
_chemical_formula_sum   'Ba4 Tb4 Mn8 O24'
_cell_volume   484.65313858
_cell_formula_units_Z   4
loop_
 _symmetry_equiv_pos_site_id
 _symmetry_equiv_pos_as_xyz
  1  'x, y, z'
loop_
 _atom_site_type_symbol
 _atom_site_label
 _atom_site_symmetry_multiplicity
 _atom_site_fract_x
 _atom_site_fract_y
 _atom_site_fract_z
 _atom_site_occupancy
  Ba  Ba0  1  0.74765787  0.99817399  0.12513623  1
  Ba  Ba1  1  0.25234213  0.00182601  0.87486377  1
  Ba  Ba2  1  0.74710798  0.99789783  0.62558186  1
  Ba  Ba3  1  0.25289202  0.00210217  0.37441814  1
  Tb  Tb4  1  0.72988133  0.49669831  0.12940731  1
  Tb  Tb5  1  0.27011867  0.50330169  0.87059269  1
  Tb  Tb6  1  0.77832744  0.49559062  0.62100318  1
  Tb  Tb7  1  0.22167256  0.50440938  0.37899682  1
  Mn  Mn8  1  0.25054968  0.26009637  0.12496129  1
  Mn  Mn9  1  0.74945032  0.73990363  0.87503871  1
  Mn  Mn10  1  0.24885343  0.25530017  0.62378006  1
  Mn  Mn11  1  0.75114657  0.74469983  0.37621994  1
  Mn  Mn12  1  0.24898018  0.74152075  0.12463898  1
  Mn  Mn13  1  0.75101982  0.25847925  0.87536102  1
  Mn  Mn14  1  0.25071464  0.74574687  0.62397928  1
  Mn  Mn15  1  0.74928536  0.25425313  0.37602072  1
  O  O16  1  0.51776030  0.27507046  0.25099416  1
  O  O17  1  0.48223970  0.72492954  0.74900584  1
  O  O18  1  0.48430244  0.27634537  0.74653952  1
  O  O19  1  0.51569756  0.72365463  0.25346048  1
  O  O20  1  0.50808190  0.27016176  0.00240337  1
  O  O21  1  0.49191810  0.72983824  0.99759663  1
  O  O22  1  0.49255973  0.28121784  0.49867955  1
  O  O23  1  0.50744027  0.71878216  0.50132045  1
  O  O24  1  0.23736308  0.00044319  0.12416526  1
  O  O25  1  0.76263692  0.99955681  0.87583474  1
  O  O26  1  0.24513494  0.00016616  0.62706084  1
  O  O27  1  0.75486506  0.99983384  0.37293916  1
  O  O28  1  0.30433006  0.50055405  0.13397097  1
  O  O29  1  0.69566994  0.49944595  0.86602903  1
  O  O30  1  0.20971097  0.50042379  0.60971277  1
  O  O31  1  0.79028903  0.49957621  0.39028723  1
  O  O32  1  0.00672866  0.30176203  0.00046061  1
  O  O33  1  0.99327134  0.69823797  0.99953939  1
  O  O34  1  0.99070925  0.26274518  0.50319650  1
  O  O35  1  0.00929075  0.73725482  0.49680350  1
  O  O36  1  0.00861028  0.28964649  0.24977691  1
  O  O37  1  0.99138972  0.71035351  0.75022309  1
  O  O38  1  0.99291549  0.28897892  0.75062603  1
  O  O39  1  0.00708451  0.71102108  0.24937397  1
