# generated using pymatgen
data_Sm2TeMo6(H5O9)4
_symmetry_space_group_name_H-M   'P 1'
_cell_length_a   8.97848804
_cell_length_b   9.40416319
_cell_length_c   10.86435536
_cell_angle_alpha   71.35494491
_cell_angle_beta   75.98096312
_cell_angle_gamma   73.42350563
_symmetry_Int_Tables_number   1
_chemical_formula_structural   Sm2TeMo6(H5O9)4
_chemical_formula_sum   'Sm2 Te1 Mo6 H20 O36'
_cell_volume   821.46380160
_cell_formula_units_Z   1
loop_
 _symmetry_equiv_pos_site_id
 _symmetry_equiv_pos_as_xyz
  1  'x, y, z'
loop_
 _atom_site_type_symbol
 _atom_site_label
 _atom_site_symmetry_multiplicity
 _atom_site_fract_x
 _atom_site_fract_y
 _atom_site_fract_z
 _atom_site_occupancy
  Sm  Sm0  1  0.28253938  0.82507482  0.27412599  1
  Sm  Sm1  1  0.71746062  0.17492518  0.72587401  1
  Te  Te2  1  0.00000000  0.50000000  0.00000000  1
  Mo  Mo3  1  0.72027209  0.80248289  0.05616387  1
  Mo  Mo4  1  0.27972791  0.19751711  0.94383613  1
  Mo  Mo5  1  0.94792269  0.59557100  0.27759876  1
  Mo  Mo6  1  0.05207731  0.40442900  0.72240124  1
  Mo  Mo7  1  0.23321186  0.29175067  0.22015141  1
  Mo  Mo8  1  0.76678814  0.70824933  0.77984859  1
  H  H9  1  0.43829376  0.69702956  0.03289659  1
  H  H10  1  0.56170624  0.30297044  0.96710341  1
  H  H11  1  0.27532793  0.63957748  0.08191246  1
  H  H12  1  0.72467207  0.36042252  0.91808754  1
  H  H13  1  0.34589412  0.51742692  0.47151681  1
  H  H14  1  0.65410588  0.48257308  0.52848319  1
  H  H15  1  0.38829693  0.48316072  0.33537005  1
  H  H16  1  0.61170307  0.51683928  0.66462995  1
  H  H17  1  0.01231148  0.09050951  0.17416840  1
  H  H18  1  0.98768852  0.90949049  0.82583160  1
  H  H19  1  0.95762764  0.93882801  0.18282990  1
  H  H20  1  0.04237236  0.06117199  0.81717010  1
  H  H21  1  0.53815689  0.75336264  0.44943476  1
  H  H22  1  0.46184311  0.24663736  0.55056524  1
  H  H23  1  0.37571416  0.78702812  0.54227828  1
  H  H24  1  0.62428584  0.21297188  0.45772172  1
  H  H25  1  0.00574286  0.90163008  0.45968443  1
  H  H26  1  0.99425714  0.09836992  0.54031557  1
  H  H27  1  0.07142386  0.74646604  0.55655024  1
  H  H28  1  0.92857614  0.25353396  0.44344976  1
  O  O29  1  0.39763160  0.55615818  0.38075051  1
  O  O30  1  0.60236840  0.44384182  0.61924949  1
  O  O31  1  0.88210509  0.79743861  0.14765135  1
  O  O32  1  0.11789491  0.20256139  0.85234865  1
  O  O33  1  0.86430373  0.46483610  0.90139474  1
  O  O34  1  0.13569627  0.53516390  0.09860526  1
  O  O35  1  0.03557708  0.37399672  0.32823708  1
  O  O36  1  0.96442292  0.62600328  0.67176292  1
  O  O37  1  0.82850689  0.54548491  0.14443576  1
  O  O38  1  0.17149311  0.45451509  0.85556424  1
  O  O39  1  0.93298467  0.71777494  0.90902811  1
  O  O40  1  0.06701533  0.28222506  0.09097189  1
  O  O41  1  0.36448480  0.28037537  0.05019555  1
  O  O42  1  0.63551520  0.71962463  0.94980445  1
  O  O43  1  0.55709126  0.80710288  0.18428276  1
  O  O44  1  0.44290874  0.19289712  0.81571724  1
  O  O45  1  0.08965522  0.66384820  0.31568064  1
  O  O46  1  0.91034478  0.33615180  0.68431936  1
  O  O47  1  0.24136238  0.09419194  0.29414697  1
  O  O48  1  0.75863762  0.90580806  0.70585303  1
  O  O49  1  0.78568027  0.60374596  0.40356962  1
  O  O50  1  0.21431973  0.39625404  0.59643038  1
  O  O51  1  0.34588753  0.68952826  0.10315698  1
  O  O52  1  0.65411247  0.31047174  0.89684302  1
  O  O53  1  0.36666031  0.34009663  0.28425349  1
  O  O54  1  0.63333969  0.65990337  0.71574651  1
  O  O55  1  0.01247632  0.98303856  0.22563780  1
  O  O56  1  0.98752368  0.01696144  0.77436220  1
  O  O57  1  0.42863103  0.81184972  0.45040385  1
  O  O58  1  0.57136897  0.18815028  0.54959615  1
  O  O59  1  0.10469331  0.83633308  0.48768801  1
  O  O60  1  0.89530669  0.16366692  0.51231199  1
  O  O61  1  0.70943814  0.29904884  0.25849565  1
  O  O62  1  0.29056186  0.70095116  0.74150435  1
  O  O63  1  0.70019084  0.98937366  0.95096250  1
  O  O64  1  0.29980916  0.01062634  0.04903750  1
