# generated using pymatgen
data_Si4SnH35(C6N)2
_symmetry_space_group_name_H-M   'P 1'
_cell_length_a   12.74603021
_cell_length_b   12.82342123
_cell_length_c   18.48698859
_cell_angle_alpha   85.22618269
_cell_angle_beta   76.58065216
_cell_angle_gamma   63.39430178
_symmetry_Int_Tables_number   1
_chemical_formula_structural   Si4SnH35(C6N)2
_chemical_formula_sum   'Si16 Sn4 H140 C48 N8'
_cell_volume   2627.18383288
_cell_formula_units_Z   4
loop_
 _symmetry_equiv_pos_site_id
 _symmetry_equiv_pos_as_xyz
  1  'x, y, z'
loop_
 _atom_site_type_symbol
 _atom_site_label
 _atom_site_symmetry_multiplicity
 _atom_site_fract_x
 _atom_site_fract_y
 _atom_site_fract_z
 _atom_site_occupancy
  Si  Si0  1  0.74690825  0.59485010  0.61144517  1
  Si  Si1  1  0.25309175  0.40514990  0.38855483  1
  Si  Si2  1  0.56731741  0.50674642  0.70000124  1
  Si  Si3  1  0.43268259  0.49325358  0.29999876  1
  Si  Si4  1  0.20335807  0.95339422  0.60026621  1
  Si  Si5  1  0.79664193  0.04660578  0.39973379  1
  Si  Si6  1  0.03469010  0.91420967  0.73572762  1
  Si  Si7  1  0.96530990  0.08579033  0.26427238  1
  Si  Si8  1  0.64702645  0.68164204  0.89378731  1
  Si  Si9  1  0.35297355  0.31835796  0.10621269  1
  Si  Si10  1  0.37045861  0.81274360  0.92299195  1
  Si  Si11  1  0.62954139  0.18725640  0.07700805  1
  Si  Si12  1  0.18767563  0.20946759  0.78929619  1
  Si  Si13  1  0.81232437  0.79053241  0.21070381  1
  Si  Si14  1  0.46070576  0.05810982  0.73660846  1
  Si  Si15  1  0.53929424  0.94189018  0.26339154  1
  Sn  Sn16  1  0.52367126  0.76860268  0.74520468  1
  Sn  Sn17  1  0.47632874  0.23139732  0.25479532  1
  Sn  Sn18  1  0.28089845  0.92418078  0.76186809  1
  Sn  Sn19  1  0.71910155  0.07581922  0.23813191  1
  H  H20  1  0.65173879  0.77947446  0.54135884  1
  H  H21  1  0.34826121  0.22052554  0.45864116  1
  H  H22  1  0.77461201  0.66693736  0.48325506  1
  H  H23  1  0.22538799  0.33306264  0.51674494  1
  H  H24  1  0.63303880  0.66338462  0.50922965  1
  H  H25  1  0.36696120  0.33661538  0.49077035  1
  H  H26  1  0.90470906  0.57448726  0.67841562  1
  H  H27  1  0.09529094  0.42551274  0.32158438  1
  H  H28  1  0.92472022  0.63346266  0.58873743  1
  H  H29  1  0.07527978  0.36653734  0.41126257  1
  H  H30  1  0.81484136  0.72457733  0.66336717  1
  H  H31  1  0.18515864  0.27542267  0.33663283  1
  H  H32  1  0.78815469  0.40523112  0.55099027  1
  H  H33  1  0.21184531  0.59476888  0.44900973  1
  H  H34  1  0.91114571  0.43983075  0.52898677  1
  H  H35  1  0.08885429  0.56016925  0.47101323  1
  H  H36  1  0.88009040  0.37899184  0.61613213  1
  H  H37  1  0.11990960  0.62100816  0.38386787  1
  H  H38  1  0.35650847  0.62860076  0.77234122  1
  H  H39  1  0.64349153  0.37139924  0.22765878  1
  H  H40  1  0.41020856  0.47864307  0.79317449  1
  H  H41  1  0.58979144  0.52135693  0.20682551  1
  H  H42  1  0.45859204  0.56656594  0.83290449  1
  H  H43  1  0.54140796  0.43343406  0.16709551  1
  H  H44  1  0.58046386  0.47384644  0.56476785  1
  H  H45  1  0.41953614  0.52615356  0.43523215  1
  H  H46  1  0.48408864  0.42316834  0.62504761  1
  H  H47  1  0.51591136  0.57683166  0.37495239  1
  H  H48  1  0.43304063  0.57486897  0.60887734  1
  H  H49  1  0.56695937  0.42513103  0.39112266  1
  H  H50  1  0.72337820  0.35585478  0.76363056  1
  H  H51  1  0.27662180  0.64414522  0.23636944  1
  H  H52  1  0.62905521  0.30333890  0.73817861  1
  H  H53  1  0.37094479  0.69666110  0.26182139  1
  H  H54  1  0.74834373  0.31138959  0.67005548  1
  H  H55  1  0.25165627  0.68861041  0.32994452  1
  H  H56  1  0.42634543  0.88505847  0.58571407  1
  H  H57  1  0.57365457  0.11494153  0.41428593  1
  H  H58  1  0.36743903  0.98272505  0.51581359  1
  H  H59  1  0.63256097  0.01727495  0.48418641  1
  H  H60  1  0.34456887  0.03815243  0.60596768  1
  H  H61  1  0.65543113  0.96184757  0.39403232  1
  H  H62  1  0.07950040  0.16666256  0.58245302  1
  H  H63  1  0.92049960  0.83333744  0.41754698  1
  H  H64  1  0.12982274  0.08240025  0.49903247  1
  H  H65  1  0.87017726  0.91759975  0.50096753  1
  H  H66  1  0.00439503  0.08560637  0.56652304  1
  H  H67  1  0.99560497  0.91439363  0.43347696  1
  H  H68  1  0.15030279  0.80117935  0.56205059  1
  H  H69  1  0.84969721  0.19882065  0.43794941  1
  H  H70  1  0.24628792  0.83506666  0.48863206  1
  H  H71  1  0.75371208  0.16493334  0.51136794  1
  H  H72  1  0.30641576  0.74215729  0.56033471  1
  H  H73  1  0.69358424  0.25784271  0.43966529  1
  H  H74  1  0.91181060  0.08986520  0.82057579  1
  H  H75  1  0.08818940  0.91013480  0.17942421  1
  H  H76  1  0.86219200  0.97949624  0.84206846  1
  H  H77  1  0.13780800  0.02050376  0.15793154  1
  H  H78  1  0.98999079  0.96624304  0.87219969  1
  H  H79  1  0.01000921  0.03375696  0.12780031  1
  H  H80  1  0.96158962  0.91599899  0.61821893  1
  H  H81  1  0.03841038  0.08400101  0.38178107  1
  H  H82  1  0.85198187  0.93694460  0.70135834  1
  H  H83  1  0.14801813  0.06305540  0.29864166  1
  H  H84  1  0.88288029  0.05481403  0.66480083  1
  H  H85  1  0.11711971  0.94518597  0.33519917  1
  H  H86  1  0.14828958  0.71639869  0.78689338  1
  H  H87  1  0.85171042  0.28360131  0.21310662  1
  H  H88  1  0.00433743  0.73846322  0.77771285  1
  H  H89  1  0.99566257  0.26153678  0.22228715  1
  H  H90  1  0.12417473  0.70359387  0.69791565  1
  H  H91  1  0.87582527  0.29640613  0.30208435  1
  H  H92  1  0.68238946  0.85940431  0.89224707  1
  H  H93  1  0.31761054  0.14059569  0.10775293  1
  H  H94  1  0.81481836  0.72891553  0.89588274  1
  H  H95  1  0.18518164  0.27108447  0.10411726  1
  H  H96  1  0.76906296  0.77239487  0.81019912  1
  H  H97  1  0.23093704  0.22760513  0.18980088  1
  H  H98  1  0.57332125  0.61507949  0.02025858  1
  H  H99  1  0.42667875  0.38492051  0.97974142  1
  H  H100  1  0.71662611  0.61051454  0.00848154  1
  H  H101  1  0.28337389  0.38948546  0.99151846  1
  H  H102  1  0.58651398  0.74525623  0.03000605  1
  H  H103  1  0.41348602  0.25474377  0.96999395  1
  H  H104  1  0.78174755  0.52955043  0.79296015  1
  H  H105  1  0.21825245  0.47044957  0.20703985  1
  H  H106  1  0.82501935  0.48971289  0.88008277  1
  H  H107  1  0.17498065  0.51028711  0.11991723  1
  H  H108  1  0.70026664  0.47505791  0.86412726  1
  H  H109  1  0.29973336  0.52494209  0.13587274  1
  H  H110  1  0.39110661  0.68846276  0.03678236  1
  H  H111  1  0.60889339  0.31153724  0.96321764  1
  H  H112  1  0.24441871  0.74735998  0.02010834  1
  H  H113  1  0.75558129  0.25264002  0.97989166  1
  H  H114  1  0.36186679  0.62450630  0.96668946  1
  H  H115  1  0.63813321  0.37549370  0.03331054  1
  H  H116  1  0.36600438  0.00646590  0.94158173  1
  H  H117  1  0.63399562  0.99353410  0.05841827  1
  H  H118  1  0.26832440  0.97559605  0.01641213  1
  H  H119  1  0.73167560  0.02440395  0.98358787  1
  H  H120  1  0.42546580  0.90781318  0.01141886  1
  H  H121  1  0.57453420  0.09218682  0.98858114  1
  H  H122  1  0.21073788  0.80365754  0.87128779  1
  H  H123  1  0.78926212  0.19634246  0.12871221  1
  H  H124  1  0.16256893  0.94485836  0.91045285  1
  H  H125  1  0.83743107  0.05514164  0.08954715  1
  H  H126  1  0.04481086  0.20222407  0.71819447  1
  H  H127  1  0.95518914  0.79777593  0.28180553  1
  H  H128  1  0.01170437  0.34793425  0.73999555  1
  H  H129  1  0.98829563  0.65206575  0.26000445  1
  H  H130  1  0.13401968  0.26858030  0.66591185  1
  H  H131  1  0.86598032  0.73141970  0.33408815  1
  H  H132  1  0.15077066  0.15259938  0.92318557  1
  H  H133  1  0.84922934  0.84740062  0.07681443  1
  H  H134  1  0.04029217  0.29296498  0.90702815  1
  H  H135  1  0.95970783  0.70703502  0.09297185  1
  H  H136  1  0.03160003  0.16705310  0.88224827  1
  H  H137  1  0.96839997  0.83294690  0.11775173  1
  H  H138  1  0.18739824  0.40248435  0.75845872  1
  H  H139  1  0.81260176  0.59751565  0.24154128  1
  H  H140  1  0.18903455  0.37209482  0.85336522  1
  H  H141  1  0.81096545  0.62790518  0.14663478  1
  H  H142  1  0.32377933  0.31174115  0.78513444  1
  H  H143  1  0.67622067  0.68825885  0.21486556  1
  H  H144  1  0.43226019  0.24842254  0.67412055  1
  H  H145  1  0.56773981  0.75157746  0.32587945  1
  H  H146  1  0.57734527  0.13469643  0.63975807  1
  H  H147  1  0.42265473  0.86530357  0.36024193  1
  H  H148  1  0.45125949  0.14425766  0.60895499  1
  H  H149  1  0.54874051  0.85574234  0.39104501  1
  H  H150  1  0.50507556  0.04027497  0.86394773  1
  H  H151  1  0.49492444  0.95972503  0.13605227  1
  H  H152  1  0.60047418  0.08579535  0.79733039  1
  H  H153  1  0.39952582  0.91420465  0.20266961  1
  H  H154  1  0.45095455  0.18749679  0.83604784  1
  H  H155  1  0.54904545  0.81250321  0.16395216  1
  H  H156  1  0.59869922  0.89666393  0.64408042  1
  H  H157  1  0.40130078  0.10333607  0.35591958  1
  H  H158  1  0.66239559  0.89041905  0.72166813  1
  H  H159  1  0.33760441  0.10958095  0.27833187  1
  C  C160  1  0.23798335  0.87273917  0.87540980  1
  C  C161  1  0.76201665  0.12726083  0.12459020  1
  C  C162  1  0.57957265  0.90423946  0.70502339  1
  C  C163  1  0.42042735  0.09576054  0.29497661  1
  C  C164  1  0.69579365  0.68510264  0.52927024  1
  C  C165  1  0.30420635  0.31489736  0.47072976  1
  C  C166  1  0.85697493  0.63621416  0.63892343  1
  C  C167  1  0.14302507  0.36378584  0.36107657  1
  C  C168  1  0.83803279  0.43981673  0.57454621  1
  C  C169  1  0.16196721  0.56018327  0.42545379  1
  C  C170  1  0.43599465  0.55073218  0.78232971  1
  C  C171  1  0.56400535  0.44926782  0.21767029  1
  C  C172  1  0.51153067  0.49412122  0.61671008  1
  C  C173  1  0.48846933  0.50587878  0.38328992  1
  C  C174  1  0.67883919  0.35566263  0.71943102  1
  C  C175  1  0.32116081  0.64433737  0.28056898  1
  C  C176  1  0.34928790  0.96552594  0.57571197  1
  C  C177  1  0.65071210  0.03447406  0.42428803  1
  C  C178  1  0.09270093  0.08453434  0.55930322  1
  C  C179  1  0.90729907  0.91546566  0.44069678  1
  C  C180  1  0.22833472  0.82024562  0.54886031  1
  C  C181  1  0.77166528  0.17975438  0.45113969  1
  C  C182  1  0.94264752  0.99529747  0.82632012  1
  C  C183  1  0.05735248  0.00470253  0.17367988  1
  C  C184  1  0.92441676  0.96036021  0.67295474  1
  C  C185  1  0.07558324  0.03963979  0.32704526  1
  C  C186  1  0.08296052  0.75337002  0.75097515  1
  C  C187  1  0.91703948  0.24662998  0.24902485  1
  C  C188  1  0.73586091  0.76933596  0.87040935  1
  C  C189  1  0.26413909  0.23066404  0.12959065  1
  C  C190  1  0.62581585  0.66315069  0.99791818  1
  C  C191  1  0.37418415  0.33684931  0.00208182  1
  C  C192  1  0.74755783  0.53014714  0.85327111  1
  C  C193  1  0.25244217  0.46985286  0.14672889  1
  C  C194  1  0.34058135  0.70755916  0.99284918  1
  C  C195  1  0.65941865  0.29244084  0.00715082  1
  C  C196  1  0.35686892  0.93735193  0.97785795  1
  C  C197  1  0.64313108  0.06264807  0.02214205  1
  C  C198  1  0.08505413  0.26096622  0.72191000  1
  C  C199  1  0.91494587  0.73903378  0.27809000  1
  C  C200  1  0.09448769  0.20326610  0.88401933  1
  C  C201  1  0.90551231  0.79673390  0.11598067  1
  C  C202  1  0.22791300  0.33362377  0.79683503  1
  C  C203  1  0.77208700  0.66637623  0.20316497  1
  C  C204  1  0.48128480  0.15564120  0.65759592  1
  C  C205  1  0.51871520  0.84435880  0.34240408  1
  C  C206  1  0.50744553  0.09681753  0.81625552  1
  C  C207  1  0.49255447  0.90318247  0.18374448  1
  N  N208  1  0.62675396  0.60930283  0.68655468  1
  N  N209  1  0.37324604  0.39069717  0.31344532  1
  N  N210  1  0.15783057  0.94510311  0.69746834  1
  N  N211  1  0.84216943  0.05489689  0.30253166  1
  N  N212  1  0.51238536  0.74698625  0.86142373  1
  N  N213  1  0.48761464  0.25301375  0.13857627  1
  N  N214  1  0.31215279  0.07371311  0.76114364  1
  N  N215  1  0.68784721  0.92628689  0.23885636  1
