# generated using pymatgen
data_H14Pb6C8O13
_symmetry_space_group_name_H-M   'P 1'
_cell_length_a   7.35792647
_cell_length_b   11.88543498
_cell_length_c   13.89899870
_cell_angle_alpha   112.30952083
_cell_angle_beta   100.62744923
_cell_angle_gamma   90.45637779
_symmetry_Int_Tables_number   1
_chemical_formula_structural   H14Pb6C8O13
_chemical_formula_sum   'H28 Pb12 C16 O26'
_cell_volume   1101.15348578
_cell_formula_units_Z   2
loop_
 _symmetry_equiv_pos_site_id
 _symmetry_equiv_pos_as_xyz
  1  'x, y, z'
loop_
 _atom_site_type_symbol
 _atom_site_label
 _atom_site_symmetry_multiplicity
 _atom_site_fract_x
 _atom_site_fract_y
 _atom_site_fract_z
 _atom_site_occupancy
  H  H0  1  0.28415381  0.55127857  0.34189547  1
  H  H1  1  0.71584619  0.44872143  0.65810453  1
  H  H2  1  0.06563446  0.54097840  0.33658824  1
  H  H3  1  0.93436554  0.45902160  0.66341176  1
  H  H4  1  0.75832017  0.48827233  0.47450288  1
  H  H5  1  0.24167983  0.51172767  0.52549712  1
  H  H6  1  0.86791476  0.61930846  0.47019322  1
  H  H7  1  0.13208524  0.38069154  0.52980678  1
  H  H8  1  0.63032605  0.61745881  0.48614904  1
  H  H9  1  0.36967395  0.38254119  0.51385096  1
  H  H10  1  0.51219803  0.13427031  0.32044304  1
  H  H11  1  0.48780197  0.86572969  0.67955696  1
  H  H12  1  0.57000410  0.29320983  0.36590914  1
  H  H13  1  0.42999590  0.70679017  0.63409086  1
  H  H14  1  0.33298294  0.23623894  0.34244321  1
  H  H15  1  0.66701706  0.76376106  0.65755679  1
  H  H16  1  0.92590541  0.86047898  0.50314243  1
  H  H17  1  0.07409459  0.13952102  0.49685757  1
  H  H18  1  0.14899014  0.93011798  0.51220960  1
  H  H19  1  0.85100986  0.06988202  0.48779040  1
  H  H20  1  0.13595936  0.80098967  0.54414650  1
  H  H21  1  0.86404064  0.19901033  0.45585350  1
  H  H22  1  0.61503942  0.23000182  0.63168441  1
  H  H23  1  0.38496058  0.76999818  0.36831559  1
  H  H24  1  0.57656962  0.10196227  0.66375117  1
  H  H25  1  0.42343038  0.89803773  0.33624883  1
  H  H26  1  0.38417222  0.18162247  0.63347209  1
  H  H27  1  0.61582778  0.81837753  0.36652791  1
  Pb  Pb28  1  0.65997756  0.41154496  0.08308569  1
  Pb  Pb29  1  0.34002244  0.58845504  0.91691431  1
  Pb  Pb30  1  0.93133709  0.22008109  0.20890835  1
  Pb  Pb31  1  0.06866291  0.77991891  0.79109165  1
  Pb  Pb32  1  0.14458921  0.40846193  0.07029099  1
  Pb  Pb33  1  0.85541079  0.59153807  0.92970901  1
  Pb  Pb34  1  0.86017985  0.08959395  0.91925518  1
  Pb  Pb35  1  0.13982015  0.91040605  0.08074482  1
  Pb  Pb36  1  0.04956412  0.27779206  0.78020351  1
  Pb  Pb37  1  0.95043588  0.72220794  0.21979649  1
  Pb  Pb38  1  0.33468130  0.09061330  0.91355632  1
  Pb  Pb39  1  0.66531870  0.90938670  0.08644368  1
  C  C40  1  0.66886453  0.51156005  0.32786752  1
  C  C41  1  0.33113547  0.48843995  0.67213248  1
  C  C42  1  0.73535447  0.56382858  0.44723658  1
  C  C43  1  0.26464553  0.43617142  0.55276342  1
  C  C44  1  0.43900215  0.20496588  0.19971424  1
  C  C45  1  0.56099785  0.79503412  0.80028576  1
  C  C46  1  0.46351353  0.21916302  0.31431527  1
  C  C47  1  0.53648647  0.78083698  0.68568473  1
  C  C48  1  0.07338858  0.96701717  0.66397919  1
  C  C49  1  0.92661142  0.03298283  0.33602081  1
  C  C50  1  0.06870165  0.88469610  0.54862050  1
  C  C51  1  0.93129835  0.11530390  0.45137950  1
  C  C52  1  0.56312092  0.27412863  0.78913724  1
  C  C53  1  0.43687908  0.72587137  0.21086276  1
  C  C54  1  0.53081717  0.19254199  0.67191165  1
  C  C55  1  0.46918283  0.80745801  0.32808835  1
  O  O56  1  0.89113774  0.28371162  0.07547990  1
  O  O57  1  0.10886226  0.71628838  0.92452010  1
  O  O58  1  0.88899406  0.03371971  0.07718682  1
  O  O59  1  0.11100594  0.96628029  0.92281318  1
  O  O60  1  0.10536049  0.46313126  0.91737803  1
  O  O61  1  0.89463951  0.53686874  0.08262197  1
  O  O62  1  0.10781777  0.21713931  0.91946051  1
  O  O63  1  0.89218223  0.78286069  0.08053949  1
  O  O64  1  0.17897174  0.59691961  0.36672963  1
  O  O65  1  0.82102826  0.40308039  0.63327037  1
  O  O66  1  0.79824299  0.48577163  0.27221878  1
  O  O67  1  0.20175701  0.51422837  0.72778122  1
  O  O68  1  0.49879462  0.49292924  0.28700540  1
  O  O69  1  0.50120538  0.50707076  0.71299460  1
  O  O70  1  0.27559842  0.19374313  0.14461038  1
  O  O71  1  0.72440158  0.80625687  0.85538962  1
  O  O72  1  0.58291986  0.19872449  0.15839610  1
  O  O73  1  0.41708014  0.80127551  0.84160390  1
  O  O74  1  0.42597055  0.30964665  0.83386271  1
  O  O75  1  0.57402945  0.69035335  0.16613729  1
  O  O76  1  0.73141705  0.30244891  0.84141459  1
  O  O77  1  0.26858295  0.69755109  0.15858541  1
  O  O78  1  0.23791504  0.00075313  0.72265731  1
  O  O79  1  0.76208496  0.99924687  0.27734269  1
  O  O80  1  0.92394220  0.99644471  0.69562215  1
  O  O81  1  0.07605780  0.00355529  0.30437785  1
