# generated using pymatgen
data_Yb2Mn17
_symmetry_space_group_name_H-M   'P 1'
_cell_length_a   8.21511001
_cell_length_b   8.47835712
_cell_length_c   8.47835712
_cell_angle_alpha   121.82754237
_cell_angle_beta   90.00000000
_cell_angle_gamma   90.00000000
_symmetry_Int_Tables_number   1
_chemical_formula_structural   Yb2Mn17
_chemical_formula_sum   'Yb4 Mn34'
_cell_volume   501.73151372
_cell_formula_units_Z   2
loop_
 _symmetry_equiv_pos_site_id
 _symmetry_equiv_pos_as_xyz
  1  'x, y, z'
loop_
 _atom_site_type_symbol
 _atom_site_label
 _atom_site_symmetry_multiplicity
 _atom_site_fract_x
 _atom_site_fract_y
 _atom_site_fract_z
 _atom_site_occupancy
  Yb  Yb0  1  0.75000000  0.99562691  0.00437309  1
  Yb  Yb1  1  0.25000000  0.00437309  0.99562691  1
  Yb  Yb2  1  0.25000000  0.66461253  0.33538747  1
  Yb  Yb3  1  0.75000000  0.33538747  0.66461253  1
  Mn  Mn4  1  0.61163201  0.66581956  0.33418044  1
  Mn  Mn5  1  0.38836799  0.33418044  0.66581956  1
  Mn  Mn6  1  0.11163201  0.33418044  0.66581956  1
  Mn  Mn7  1  0.88836799  0.66581956  0.33418044  1
  Mn  Mn8  1  0.50000000  0.50000000  0.00000000  1
  Mn  Mn9  1  0.50000000  0.50000000  0.50000000  1
  Mn  Mn10  1  0.50000000  0.00000000  0.50000000  1
  Mn  Mn11  1  -0.00000000  0.50000000  0.00000000  1
  Mn  Mn12  1  -0.00000000  0.50000000  0.50000000  1
  Mn  Mn13  1  -0.00000000  0.00000000  0.50000000  1
  Mn  Mn14  1  0.75000000  0.66412360  0.04741300  1
  Mn  Mn15  1  0.75000000  0.37551425  0.32119462  1
  Mn  Mn16  1  0.75000000  0.97044327  0.64357846  1
  Mn  Mn17  1  0.75000000  0.35642154  0.02955673  1
  Mn  Mn18  1  0.75000000  0.95258700  0.33587640  1
  Mn  Mn19  1  0.75000000  0.67880538  0.62448575  1
  Mn  Mn20  1  0.25000000  0.33587640  0.95258700  1
  Mn  Mn21  1  0.25000000  0.62448575  0.67880538  1
  Mn  Mn22  1  0.25000000  0.02955673  0.35642154  1
  Mn  Mn23  1  0.25000000  0.64357846  0.97044327  1
  Mn  Mn24  1  0.25000000  0.04741300  0.66412360  1
  Mn  Mn25  1  0.25000000  0.32119462  0.37551425  1
  Mn  Mn26  1  0.47320837  0.83471424  0.66100508  1
  Mn  Mn27  1  0.48283688  0.82890044  0.17109956  1
  Mn  Mn28  1  0.47320837  0.33899492  0.16528576  1
  Mn  Mn29  1  0.52679163  0.16528576  0.33899492  1
  Mn  Mn30  1  0.51716312  0.17109956  0.82890044  1
  Mn  Mn31  1  0.52679163  0.66100508  0.83471424  1
  Mn  Mn32  1  0.97320837  0.16528576  0.33899492  1
  Mn  Mn33  1  0.98283688  0.17109956  0.82890044  1
  Mn  Mn34  1  0.97320837  0.66100508  0.83471424  1
  Mn  Mn35  1  0.02679163  0.83471424  0.66100508  1
  Mn  Mn36  1  0.01716312  0.82890044  0.17109956  1
  Mn  Mn37  1  0.02679163  0.33899492  0.16528576  1
