# generated using pymatgen
data_NdCuPbC3O11
_symmetry_space_group_name_H-M   'P 1'
_cell_length_a   6.43448834
_cell_length_b   7.56127023
_cell_length_c   19.09513570
_cell_angle_alpha   90.00000000
_cell_angle_beta   90.00000000
_cell_angle_gamma   90.00000000
_symmetry_Int_Tables_number   1
_chemical_formula_structural   NdCuPbC3O11
_chemical_formula_sum   'Nd4 Cu4 Pb4 C12 O44'
_cell_volume   929.03382567
_cell_formula_units_Z   4
loop_
 _symmetry_equiv_pos_site_id
 _symmetry_equiv_pos_as_xyz
  1  'x, y, z'
loop_
 _atom_site_type_symbol
 _atom_site_label
 _atom_site_symmetry_multiplicity
 _atom_site_fract_x
 _atom_site_fract_y
 _atom_site_fract_z
 _atom_site_occupancy
  Nd  Nd0  1  0.60278294  0.00056648  0.80985338  1
  Nd  Nd1  1  0.39721706  0.50056648  0.19014662  1
  Nd  Nd2  1  0.89721706  0.50056648  0.30985338  1
  Nd  Nd3  1  0.10278294  0.00056648  0.69014662  1
  Cu  Cu4  1  0.80516245  0.30301816  0.94026274  1
  Cu  Cu5  1  0.19483755  0.80301816  0.05973726  1
  Cu  Cu6  1  0.69483755  0.80301816  0.44026274  1
  Cu  Cu7  1  0.30516245  0.30301816  0.55973726  1
  Pb  Pb8  1  0.88780593  0.50885466  0.64301285  1
  Pb  Pb9  1  0.11219407  0.00885466  0.35698715  1
  Pb  Pb10  1  0.61219407  0.00885466  0.14301285  1
  Pb  Pb11  1  0.38780593  0.50885466  0.85698715  1
  C  C12  1  0.60222125  0.16258771  0.65767725  1
  C  C13  1  0.39777875  0.66258771  0.34232275  1
  C  C14  1  0.89777875  0.66258771  0.15767725  1
  C  C15  1  0.10222125  0.16258771  0.84232275  1
  C  C16  1  0.32366661  0.66722687  0.71512702  1
  C  C17  1  0.67633339  0.16722687  0.28487298  1
  C  C18  1  0.17633339  0.16722687  0.21512702  1
  C  C19  1  0.82366661  0.66722687  0.78487298  1
  C  C20  1  0.49284510  0.93276457  0.95928891  1
  C  C21  1  0.50715490  0.43276457  0.04071109  1
  C  C22  1  0.00715490  0.43276457  0.45928891  1
  C  C23  1  0.99284510  0.93276457  0.54071109  1
  O  O24  1  0.57212531  0.25661603  0.60130557  1
  O  O25  1  0.42787469  0.75661603  0.39869443  1
  O  O26  1  0.92787469  0.75661603  0.10130557  1
  O  O27  1  0.07212531  0.25661603  0.89869443  1
  O  O28  1  0.47570789  0.04791093  0.68206786  1
  O  O29  1  0.52429211  0.54791093  0.31793214  1
  O  O30  1  0.02429211  0.54791093  0.18206786  1
  O  O31  1  0.97570789  0.04791093  0.81793214  1
  O  O32  1  0.77521661  0.19017026  0.69134557  1
  O  O33  1  0.22478339  0.69017026  0.30865443  1
  O  O34  1  0.72478339  0.69017026  0.19134557  1
  O  O35  1  0.27521661  0.19017026  0.80865443  1
  O  O36  1  0.21907591  0.69698799  0.65815480  1
  O  O37  1  0.78092409  0.19698799  0.34184520  1
  O  O38  1  0.28092409  0.19698799  0.15815480  1
  O  O39  1  0.71907591  0.69698799  0.84184520  1
  O  O40  1  0.42429960  0.52453973  0.72706124  1
  O  O41  1  0.57570040  0.02453973  0.27293876  1
  O  O42  1  0.07570040  0.02453973  0.22706124  1
  O  O43  1  0.92429960  0.52453973  0.77293876  1
  O  O44  1  0.31724082  0.79334663  0.76330269  1
  O  O45  1  0.68275918  0.29334663  0.23669731  1
  O  O46  1  0.18275918  0.29334663  0.26330269  1
  O  O47  1  0.81724082  0.79334663  0.73669731  1
  O  O48  1  0.67042243  0.99963267  0.94709757  1
  O  O49  1  0.32957757  0.49963267  0.05290243  1
  O  O50  1  0.82957757  0.49963267  0.44709757  1
  O  O51  1  0.17042243  0.99963267  0.55290243  1
  O  O52  1  0.36732790  0.89333831  0.90938989  1
  O  O53  1  0.63267210  0.39333831  0.09061011  1
  O  O54  1  0.13267210  0.39333831  0.40938989  1
  O  O55  1  0.86732790  0.89333831  0.59061011  1
  O  O56  1  0.44392910  0.90336257  0.02540913  1
  O  O57  1  0.55607090  0.40336257  0.97459087  1
  O  O58  1  0.05607090  0.40336257  0.52540913  1
  O  O59  1  0.94392910  0.90336257  0.47459087  1
  O  O60  1  0.67077347  0.29556334  0.85725419  1
  O  O61  1  0.32922653  0.79556334  0.14274581  1
  O  O62  1  0.82922653  0.79556334  0.35725419  1
  O  O63  1  0.17077347  0.29556334  0.64274581  1
  O  O64  1  0.41615317  0.29301308  0.47556229  1
  O  O65  1  0.58384683  0.79301308  0.52443771  1
  O  O66  1  0.08384683  0.79301308  0.97556229  1
  O  O67  1  0.91615317  0.29301308  0.02443771  1
