# generated using pymatgen
data_Mn3AsO8
_symmetry_space_group_name_H-M   'P 1'
_cell_length_a   5.15637245
_cell_length_b   9.15540418
_cell_length_c   12.45583373
_cell_angle_alpha   90.00000000
_cell_angle_beta   90.00000000
_cell_angle_gamma   90.00000000
_symmetry_Int_Tables_number   1
_chemical_formula_structural   Mn3AsO8
_chemical_formula_sum   'Mn12 As4 O32'
_cell_volume   588.02339249
_cell_formula_units_Z   4
loop_
 _symmetry_equiv_pos_site_id
 _symmetry_equiv_pos_as_xyz
  1  'x, y, z'
loop_
 _atom_site_type_symbol
 _atom_site_label
 _atom_site_symmetry_multiplicity
 _atom_site_fract_x
 _atom_site_fract_y
 _atom_site_fract_z
 _atom_site_occupancy
  Mn  Mn0  1  0.02978532  0.52574619  0.11793375  1
  Mn  Mn1  1  0.47021468  0.02574619  0.38206625  1
  Mn  Mn2  1  0.97021468  0.47425381  0.61793375  1
  Mn  Mn3  1  0.52978532  0.97425381  0.88206625  1
  Mn  Mn4  1  0.97021468  0.47425381  0.88206625  1
  Mn  Mn5  1  0.52978532  0.97425381  0.61793375  1
  Mn  Mn6  1  0.02978532  0.52574619  0.38206625  1
  Mn  Mn7  1  0.47021468  0.02574619  0.11793375  1
  Mn  Mn8  1  0.50000000  0.50000000  0.00000000  1
  Mn  Mn9  1  -0.00000000  -0.00000000  0.50000000  1
  Mn  Mn10  1  0.50000000  0.50000000  0.50000000  1
  Mn  Mn11  1  0.00000000  -0.00000000  -0.00000000  1
  As  As12  1  0.47772975  0.65076385  0.75000000  1
  As  As13  1  0.02227025  0.15076385  0.75000000  1
  As  As14  1  0.52227025  0.34923615  0.25000000  1
  As  As15  1  0.97772975  0.84923615  0.25000000  1
  O  O16  1  0.31947146  0.63023938  0.09134964  1
  O  O17  1  0.18052854  0.13023938  0.40865036  1
  O  O18  1  0.68052854  0.36976062  0.59134964  1
  O  O19  1  0.81947146  0.86976062  0.90865036  1
  O  O20  1  0.68052854  0.36976062  0.90865036  1
  O  O21  1  0.81947146  0.86976062  0.59134964  1
  O  O22  1  0.31947146  0.63023938  0.40865036  1
  O  O23  1  0.18052854  0.13023938  0.09134964  1
  O  O24  1  0.68102750  0.41267272  0.13765161  1
  O  O25  1  0.81897250  0.91267272  0.36234839  1
  O  O26  1  0.31897250  0.58732728  0.63765161  1
  O  O27  1  0.18102750  0.08732728  0.86234839  1
  O  O28  1  0.31897250  0.58732728  0.86234839  1
  O  O29  1  0.18102750  0.08732728  0.63765161  1
  O  O30  1  0.68102750  0.41267272  0.36234839  1
  O  O31  1  0.81897250  0.91267272  0.13765161  1
  O  O32  1  0.16809358  0.39524418  0.00522052  1
  O  O33  1  0.33190642  0.89524418  0.49477948  1
  O  O34  1  0.83190642  0.60475582  0.50522052  1
  O  O35  1  0.66809358  0.10475582  0.99477948  1
  O  O36  1  0.83190642  0.60475582  0.99477948  1
  O  O37  1  0.66809358  0.10475582  0.50522052  1
  O  O38  1  0.16809358  0.39524418  0.49477948  1
  O  O39  1  0.33190642  0.89524418  0.00522052  1
  O  O40  1  0.79772478  0.59030710  0.75000000  1
  O  O41  1  0.70227522  0.09030710  0.75000000  1
  O  O42  1  0.20227522  0.40969290  0.25000000  1
  O  O43  1  0.29772478  0.90969290  0.25000000  1
  O  O44  1  0.94066803  0.65970439  0.25000000  1
  O  O45  1  0.55933197  0.15970439  0.25000000  1
  O  O46  1  0.05933197  0.34029561  0.75000000  1
  O  O47  1  0.44066803  0.84029561  0.75000000  1
