# generated using pymatgen
data_Ca(BO2)3
_symmetry_space_group_name_H-M   'P 1'
_cell_length_a   4.46301018
_cell_length_b   7.02876725
_cell_length_c   13.71741260
_cell_angle_alpha   90.00000000
_cell_angle_beta   90.00000000
_cell_angle_gamma   90.00000000
_symmetry_Int_Tables_number   1
_chemical_formula_structural   Ca(BO2)3
_chemical_formula_sum   'Ca4 B12 O24'
_cell_volume   430.30782297
_cell_formula_units_Z   4
loop_
 _symmetry_equiv_pos_site_id
 _symmetry_equiv_pos_as_xyz
  1  'x, y, z'
loop_
 _atom_site_type_symbol
 _atom_site_label
 _atom_site_symmetry_multiplicity
 _atom_site_fract_x
 _atom_site_fract_y
 _atom_site_fract_z
 _atom_site_occupancy
  Ca  Ca0  1  0.99403817  0.27368017  0.59083771  1
  Ca  Ca1  1  0.49403817  0.72631983  0.40916229  1
  Ca  Ca2  1  0.49403817  0.77368017  0.90916229  1
  Ca  Ca3  1  0.99403817  0.22631983  0.09083771  1
  B  B4  1  0.34372580  0.40291098  0.76891547  1
  B  B5  1  0.84372580  0.59708902  0.23108453  1
  B  B6  1  0.84372580  0.90291098  0.73108453  1
  B  B7  1  0.34372580  0.09708902  0.26891547  1
  B  B8  1  0.54255078  0.28584239  0.92578930  1
  B  B9  1  0.04255078  0.71415761  0.07421070  1
  B  B10  1  0.04255078  0.78584239  0.57421070  1
  B  B11  1  0.54255078  0.21415761  0.42578930  1
  B  B12  1  0.05028821  0.15528205  0.85411476  1
  B  B13  1  0.55028821  0.84471795  0.14588524  1
  B  B14  1  0.55028821  0.65528205  0.64588524  1
  B  B15  1  0.05028821  0.34471795  0.35411476  1
  O  O16  1  0.48518971  0.44572462  0.85524601  1
  O  O17  1  0.98518971  0.55427538  0.14475399  1
  O  O18  1  0.98518971  0.94572462  0.64475399  1
  O  O19  1  0.48518971  0.05427538  0.35524601  1
  O  O20  1  0.10920030  0.27490661  0.76675742  1
  O  O21  1  0.60920030  0.72509339  0.23324258  1
  O  O22  1  0.60920030  0.77490661  0.73324258  1
  O  O23  1  0.10920030  0.22509339  0.26675742  1
  O  O24  1  0.34709391  0.11679918  0.90353922  1
  O  O25  1  0.84709391  0.88320082  0.09646078  1
  O  O26  1  0.84709391  0.61679918  0.59646078  1
  O  O27  1  0.34709391  0.38320082  0.40353922  1
  O  O28  1  0.42238833  0.47266770  0.67874102  1
  O  O29  1  0.92238833  0.52733230  0.32125898  1
  O  O30  1  0.92238833  0.97266770  0.82125898  1
  O  O31  1  0.42238833  0.02733230  0.17874102  1
  O  O32  1  0.85849319  0.23880721  0.92661268  1
  O  O33  1  0.35849319  0.76119279  0.07338732  1
  O  O34  1  0.35849319  0.73880721  0.57338732  1
  O  O35  1  0.85849319  0.26119279  0.42661268  1
  O  O36  1  0.45203160  0.32197380  0.02542165  1
  O  O37  1  0.95203160  0.67802620  0.97457835  1
  O  O38  1  0.95203160  0.82197380  0.47457835  1
  O  O39  1  0.45203160  0.17802620  0.52542165  1
