# generated using pymatgen
data_CsH2SNO3
_symmetry_space_group_name_H-M   'P 1'
_cell_length_a   6.78862061
_cell_length_b   8.68614264
_cell_length_c   8.70222995
_cell_angle_alpha   90.00000000
_cell_angle_beta   90.00000000
_cell_angle_gamma   90.00000000
_symmetry_Int_Tables_number   1
_chemical_formula_structural   CsH2SNO3
_chemical_formula_sum   'Cs4 H8 S4 N4 O12'
_cell_volume   513.14375774
_cell_formula_units_Z   4
loop_
 _symmetry_equiv_pos_site_id
 _symmetry_equiv_pos_as_xyz
  1  'x, y, z'
loop_
 _atom_site_type_symbol
 _atom_site_label
 _atom_site_symmetry_multiplicity
 _atom_site_fract_x
 _atom_site_fract_y
 _atom_site_fract_z
 _atom_site_occupancy
  Cs  Cs0  1  0.75000000  0.90021341  0.39119756  1
  Cs  Cs1  1  0.75000000  0.59978659  0.89119756  1
  Cs  Cs2  1  0.25000000  0.09978659  0.60880244  1
  Cs  Cs3  1  0.25000000  0.40021341  0.10880244  1
  H  H4  1  0.13042213  0.03183390  0.00231195  1
  H  H5  1  0.36957787  0.46816610  0.50231195  1
  H  H6  1  0.63042213  0.96816610  0.99768805  1
  H  H7  1  0.86957787  0.53183390  0.49768805  1
  H  H8  1  0.86957787  0.96816610  0.99768805  1
  H  H9  1  0.63042213  0.53183390  0.49768805  1
  H  H10  1  0.36957787  0.03183390  0.00231195  1
  H  H11  1  0.13042213  0.46816610  0.50231195  1
  S  S12  1  0.25000000  0.84399057  0.15533716  1
  S  S13  1  0.25000000  0.65600943  0.65533716  1
  S  S14  1  0.75000000  0.15600943  0.84466284  1
  S  S15  1  0.75000000  0.34399057  0.34466284  1
  N  N16  1  0.25000000  0.95999537  0.99719525  1
  N  N17  1  0.25000000  0.54000463  0.49719525  1
  N  N18  1  0.75000000  0.04000463  0.00280475  1
  N  N19  1  0.75000000  0.45999537  0.50280475  1
  O  O20  1  0.25000000  0.94192860  0.29321174  1
  O  O21  1  0.25000000  0.55807140  0.79321174  1
  O  O22  1  0.75000000  0.05807140  0.70678826  1
  O  O23  1  0.75000000  0.44192860  0.20678826  1
  O  O24  1  0.43231419  0.75460199  0.13798531  1
  O  O25  1  0.06768581  0.74539801  0.63798531  1
  O  O26  1  0.93231419  0.24539801  0.86201469  1
  O  O27  1  0.56768581  0.25460199  0.36201469  1
  O  O28  1  0.56768581  0.24539801  0.86201469  1
  O  O29  1  0.93231419  0.25460199  0.36201469  1
  O  O30  1  0.06768581  0.75460199  0.13798531  1
  O  O31  1  0.43231419  0.74539801  0.63798531  1
