# generated using pymatgen
data_Nb2CuO6
_symmetry_space_group_name_H-M   'P 1'
_cell_length_a   5.05729885
_cell_length_b   5.87442887
_cell_length_c   14.35591148
_cell_angle_alpha   90.00000000
_cell_angle_beta   90.00000000
_cell_angle_gamma   92.24193514
_symmetry_Int_Tables_number   1
_chemical_formula_structural   Nb2CuO6
_chemical_formula_sum   'Nb8 Cu4 O24'
_cell_volume   426.16961508
_cell_formula_units_Z   4
loop_
 _symmetry_equiv_pos_site_id
 _symmetry_equiv_pos_as_xyz
  1  'x, y, z'
loop_
 _atom_site_type_symbol
 _atom_site_label
 _atom_site_symmetry_multiplicity
 _atom_site_fract_x
 _atom_site_fract_y
 _atom_site_fract_z
 _atom_site_occupancy
  Nb  Nb0  1  0.26125805  0.29607335  0.65820323  1
  Nb  Nb1  1  0.73874195  0.20392665  0.15820323  1
  Nb  Nb2  1  0.73874195  0.70392665  0.34179677  1
  Nb  Nb3  1  0.26125805  0.79607335  0.84179677  1
  Nb  Nb4  1  0.76841720  0.65607943  0.66196006  1
  Nb  Nb5  1  0.23158280  0.84392057  0.16196006  1
  Nb  Nb6  1  0.23158280  0.34392057  0.33803994  1
  Nb  Nb7  1  0.76841720  0.15607943  0.83803994  1
  Cu  Cu8  1  0.74912890  0.15471917  0.50161846  1
  Cu  Cu9  1  0.25087110  0.34528083  0.00161846  1
  Cu  Cu10  1  0.25087110  0.84528083  0.49838154  1
  Cu  Cu11  1  0.74912890  0.65471917  0.99838154  1
  O  O12  1  0.93403569  0.36061351  0.59606512  1
  O  O13  1  0.06596431  0.13938649  0.09606512  1
  O  O14  1  0.06596431  0.63938649  0.40393488  1
  O  O15  1  0.93403569  0.86061351  0.90393488  1
  O  O16  1  0.42800185  0.09880035  0.57625024  1
  O  O17  1  0.57199815  0.40119965  0.07625024  1
  O  O18  1  0.57199815  0.90119965  0.42374976  1
  O  O19  1  0.42800185  0.59880035  0.92374976  1
  O  O20  1  0.59785048  0.35049045  0.74609818  1
  O  O21  1  0.40214952  0.14950955  0.24609818  1
  O  O22  1  0.40214952  0.64950955  0.25390182  1
  O  O23  1  0.59785048  0.85049045  0.75390182  1
  O  O24  1  0.09856701  0.59216765  0.74483002  1
  O  O25  1  0.90143299  0.90783235  0.24483002  1
  O  O26  1  0.90143299  0.40783235  0.25516998  1
  O  O27  1  0.09856701  0.09216765  0.75516998  1
  O  O28  1  0.44489400  0.57433599  0.59830408  1
  O  O29  1  0.55510600  0.92566401  0.09830408  1
  O  O30  1  0.55510600  0.42566401  0.40169592  1
  O  O31  1  0.44489400  0.07433599  0.90169592  1
  O  O32  1  0.94397957  0.84440053  0.57810838  1
  O  O33  1  0.05602043  0.65559947  0.07810838  1
  O  O34  1  0.05602043  0.15559947  0.42189162  1
  O  O35  1  0.94397957  0.34440053  0.92189162  1
