# generated using pymatgen
data_BH10C3NF4
_symmetry_space_group_name_H-M   'P 1'
_cell_length_a   5.74241193
_cell_length_b   7.68438301
_cell_length_c   8.89582307
_cell_angle_alpha   90.00000000
_cell_angle_beta   90.00000000
_cell_angle_gamma   104.45780118
_symmetry_Int_Tables_number   1
_chemical_formula_structural   BH10C3NF4
_chemical_formula_sum   'B2 H20 C6 N2 F8'
_cell_volume   380.11382904
_cell_formula_units_Z   2
loop_
 _symmetry_equiv_pos_site_id
 _symmetry_equiv_pos_as_xyz
  1  'x, y, z'
loop_
 _atom_site_type_symbol
 _atom_site_label
 _atom_site_symmetry_multiplicity
 _atom_site_fract_x
 _atom_site_fract_y
 _atom_site_fract_z
 _atom_site_occupancy
  B  B0  1  0.48274058  0.70396841  0.75000000  1
  B  B1  1  0.51725942  0.29603159  0.25000000  1
  H  H2  1  0.22490913  0.37533502  0.75000000  1
  H  H3  1  0.77509087  0.62466498  0.25000000  1
  H  H4  1  0.79346486  0.13794349  0.61045763  1
  H  H5  1  0.20653514  0.86205651  0.11045763  1
  H  H6  1  0.20653514  0.86205651  0.38954237  1
  H  H7  1  0.79346486  0.13794349  0.88954237  1
  H  H8  1  0.85946593  0.37867111  0.61690092  1
  H  H9  1  0.14053407  0.62132889  0.11690092  1
  H  H10  1  0.14053407  0.62132889  0.38309908  1
  H  H11  1  0.85946593  0.37867111  0.88309908  1
  H  H12  1  0.05201087  0.26836794  0.51298712  1
  H  H13  1  0.94798913  0.73163206  0.01298712  1
  H  H14  1  0.94798913  0.73163206  0.48701288  1
  H  H15  1  0.05201087  0.26836794  0.98701288  1
  H  H16  1  0.29638815  0.10381119  0.85157581  1
  H  H17  1  0.70361185  0.89618881  0.35157581  1
  H  H18  1  0.70361185  0.89618881  0.14842419  1
  H  H19  1  0.29638815  0.10381119  0.64842419  1
  H  H20  1  0.03808401  0.98030015  0.75000000  1
  H  H21  1  0.96191599  0.01969985  0.25000000  1
  C  C22  1  0.93660806  0.26265520  0.61180396  1
  C  C23  1  0.06339194  0.73734480  0.11180396  1
  C  C24  1  0.06339194  0.73734480  0.38819604  1
  C  C25  1  0.93660806  0.26265520  0.88819604  1
  C  C26  1  0.18779666  0.10056347  0.75000000  1
  C  C27  1  0.81220334  0.89943653  0.25000000  1
  N  N28  1  0.08393168  0.26028716  0.75000000  1
  N  N29  1  0.91606832  0.73971284  0.25000000  1
  F  F30  1  0.22798602  0.67106829  0.75000000  1
  F  F31  1  0.77201398  0.32893171  0.25000000  1
  F  F32  1  0.54008098  0.53241029  0.75000000  1
  F  F33  1  0.45991902  0.46758971  0.25000000  1
  F  F34  1  0.57910699  0.80118333  0.61975303  1
  F  F35  1  0.42089301  0.19881667  0.11975303  1
  F  F36  1  0.42089301  0.19881667  0.38024697  1
  F  F37  1  0.57910699  0.80118333  0.88024697  1
