# generated using pymatgen
data_Na2Mg5Mn11Si12(AsO25)2
_symmetry_space_group_name_H-M   'P 1'
_cell_length_a   9.65639727
_cell_length_b   10.31960663
_cell_length_c   11.13414176
_cell_angle_alpha   68.28628635
_cell_angle_beta   72.26774640
_cell_angle_gamma   81.99136455
_symmetry_Int_Tables_number   1
_chemical_formula_structural   Na2Mg5Mn11Si12(AsO25)2
_chemical_formula_sum   'Na2 Mg5 Mn11 Si12 As2 O50'
_cell_volume   981.37483708
_cell_formula_units_Z   1
loop_
 _symmetry_equiv_pos_site_id
 _symmetry_equiv_pos_as_xyz
  1  'x, y, z'
loop_
 _atom_site_type_symbol
 _atom_site_label
 _atom_site_symmetry_multiplicity
 _atom_site_fract_x
 _atom_site_fract_y
 _atom_site_fract_z
 _atom_site_occupancy
  Na  Na0  1  0.27514567  0.50660162  0.39646726  1
  Na  Na1  1  0.72485433  0.49339838  0.60353274  1
  Mg  Mg2  1  0.07730263  0.02614117  0.23594461  1
  Mg  Mg3  1  0.92269737  0.97385883  0.76405539  1
  Mg  Mg4  1  0.17026314  0.99967513  0.50494158  1
  Mg  Mg5  1  0.82973686  0.00032487  0.49505842  1
  Mg  Mg6  1  0.50000000  -0.00000000  0.50000000  1
  Mn  Mn7  1  0.44027044  0.37773419  0.95680633  1
  Mn  Mn8  1  0.55972956  0.62226581  0.04319367  1
  Mn  Mn9  1  0.20467679  0.61142653  0.03453941  1
  Mn  Mn10  1  0.79532321  0.38857347  0.96546059  1
  Mn  Mn11  1  0.10230729  0.35694720  0.97331325  1
  Mn  Mn12  1  0.89769271  0.64305280  0.02668675  1
  Mn  Mn13  1  0.42624257  0.00900670  0.23081565  1
  Mn  Mn14  1  0.57375743  0.99099330  0.76918435  1
  Mn  Mn15  1  0.00000000  -0.00000000  -0.00000000  1
  Mn  Mn16  1  0.25058282  0.99154118  0.74238400  1
  Mn  Mn17  1  0.74941718  0.00845882  0.25761600  1
  Si  Si18  1  0.04810472  0.28733285  0.72898924  1
  Si  Si19  1  0.95189528  0.71266715  0.27101076  1
  Si  Si20  1  0.35279602  0.27995270  0.72953483  1
  Si  Si21  1  0.64720398  0.72004730  0.27046517  1
  Si  Si22  1  0.37501948  0.71966950  0.49893400  1
  Si  Si23  1  0.62498052  0.28033050  0.50106600  1
  Si  Si24  1  0.05495042  0.72539829  0.50044341  1
  Si  Si25  1  0.94504958  0.27460171  0.49955659  1
  Si  Si26  1  0.78834722  0.70788782  0.73835334  1
  Si  Si27  1  0.21165278  0.29211218  0.26164666  1
  Si  Si28  1  0.47576041  0.70163104  0.73981490  1
  Si  Si29  1  0.52423959  0.29836896  0.26018510  1
  As  As30  1  0.32611223  0.83850206  0.06160335  1
  As  As31  1  0.67388777  0.16149794  0.93839665  1
  O  O32  1  0.21133744  0.86815105  0.95987215  1
  O  O33  1  0.78866256  0.13184895  0.04012785  1
  O  O34  1  0.27431652  0.90968840  0.18449351  1
  O  O35  1  0.72568348  0.09031160  0.81550649  1
  O  O36  1  0.31850425  0.65352745  0.14061939  1
  O  O37  1  0.68149575  0.34647255  0.85938061  1
  O  O38  1  0.49293182  0.14819597  0.02408557  1
  O  O39  1  0.50706818  0.85180403  0.97591443  1
  O  O40  1  0.96716745  0.33947685  0.60761124  1
  O  O41  1  0.03283255  0.66052315  0.39238876  1
  O  O42  1  0.96367093  0.88362538  0.19675311  1
  O  O43  1  0.03632907  0.11637462  0.80324689  1
  O  O44  1  0.97963375  0.37018029  0.83408236  1
  O  O45  1  0.02036625  0.62981971  0.16591764  1
  O  O46  1  0.21955654  0.33169554  0.65471590  1
  O  O47  1  0.78044346  0.66830446  0.34528410  1
  O  O48  1  0.31205527  0.34936884  0.84737965  1
  O  O49  1  0.68794473  0.65063116  0.15262035  1
  O  O50  1  0.36911654  0.11020629  0.78446275  1
  O  O51  1  0.63088346  0.88979371  0.21553725  1
  O  O52  1  0.50754413  0.34252114  0.61286844  1
  O  O53  1  0.49245587  0.65747886  0.38713156  1
  O  O54  1  0.41555661  0.65007859  0.64261429  1
  O  O55  1  0.58444339  0.34992141  0.35738571  1
  O  O56  1  0.36803880  0.88772202  0.44647167  1
  O  O57  1  0.63196120  0.11227798  0.55352833  1
  O  O58  1  0.21685774  0.66025329  0.51759613  1
  O  O59  1  0.78314226  0.33974671  0.48240387  1
  O  O60  1  0.04251642  0.89340937  0.44765091  1
  O  O61  1  0.95748358  0.10659063  0.55234909  1
  O  O62  1  0.93381833  0.65562453  0.64353962  1
  O  O63  1  0.06618167  0.34437547  0.35646038  1
  O  O64  1  0.78704127  0.87446777  0.70731324  1
  O  O65  1  0.21295873  0.12553223  0.29268676  1
  O  O66  1  0.76939674  0.61779628  0.89811627  1
  O  O67  1  0.23060326  0.38220372  0.10188373  1
  O  O68  1  0.65203848  0.65994879  0.70379552  1
  O  O69  1  0.34796152  0.34005121  0.29620448  1
  O  O70  1  0.40994654  0.60610605  0.90066643  1
  O  O71  1  0.59005346  0.39389395  0.09933357  1
  O  O72  1  0.45582545  0.86774515  0.70784788  1
  O  O73  1  0.54417455  0.13225485  0.29215212  1
  O  O74  1  0.08467514  0.13952399  0.03717012  1
  O  O75  1  0.91532486  0.86047601  0.96282988  1
  O  O76  1  0.30316459  0.09301453  0.55724841  1
  O  O77  1  0.69683541  0.90698547  0.44275159  1
  O  O78  1  0.12590738  0.89342860  0.70829699  1
  O  O79  1  0.87409262  0.10657140  0.29170301  1
  O  O80  1  0.09616832  0.58697241  0.93197674  1
  O  O81  1  0.90383168  0.41302759  0.06802326  1
