# generated using pymatgen
data_CoBP(HO3)2
_symmetry_space_group_name_H-M   'P 1'
_cell_length_a   7.96601844
_cell_length_b   7.96601844
_cell_length_c   12.68726351
_cell_angle_alpha   90.00000000
_cell_angle_beta   90.00000000
_cell_angle_gamma   119.99999841
_symmetry_Int_Tables_number   1
_chemical_formula_structural   CoBP(HO3)2
_chemical_formula_sum   'Co6 B6 P6 H12 O36'
_cell_volume   697.23826483
_cell_formula_units_Z   6
loop_
 _symmetry_equiv_pos_site_id
 _symmetry_equiv_pos_as_xyz
  1  'x, y, z'
loop_
 _atom_site_type_symbol
 _atom_site_label
 _atom_site_symmetry_multiplicity
 _atom_site_fract_x
 _atom_site_fract_y
 _atom_site_fract_z
 _atom_site_occupancy
  Co  Co0  1  0.97829906  0.14680208  0.34120687  1
  Co  Co1  1  0.85319792  0.83149698  0.67454087  1
  Co  Co2  1  0.16850302  0.02170094  0.00787387  1
  Co  Co3  1  0.84785634  0.76284690  0.17427408  1
  Co  Co4  1  0.23715310  0.08500944  0.50760808  1
  Co  Co5  1  0.91499056  0.15214366  0.84094108  1
  B  B6  1  0.52676628  0.74461892  0.53483759  1
  B  B7  1  0.25538108  0.78214736  0.86817159  1
  B  B8  1  0.21785264  0.47323372  0.20150459  1
  B  B9  1  0.58336069  0.27426821  0.13231193  1
  B  B10  1  0.72573179  0.30909248  0.46564593  1
  B  B11  1  0.69090752  0.41663931  0.79897893  1
  P  P12  1  0.78389121  0.68688057  0.43054994  1
  P  P13  1  0.31311943  0.09701064  0.76388394  1
  P  P14  1  0.90298936  0.21610879  0.09721694  1
  P  P15  1  0.27945447  0.98727970  0.25849985  1
  P  P16  1  0.01272030  0.29217477  0.59183385  1
  P  P17  1  0.70782523  0.72054553  0.92516685  1
  H  H18  1  0.70904813  0.44387868  0.26375698  1
  H  H19  1  0.55612132  0.26516945  0.59709098  1
  H  H20  1  0.73483055  0.29095187  0.93042398  1
  H  H21  1  0.30907419  0.78764400  0.37111692  1
  H  H22  1  0.21235600  0.52143019  0.70445092  1
  H  H23  1  0.47856981  0.69092581  0.03778392  1
  H  H24  1  0.49210436  0.63048689  0.21789047  1
  H  H25  1  0.36951311  0.86161747  0.55122447  1
  H  H26  1  0.13838253  0.50789564  0.88455747  1
  H  H27  1  0.64652488  0.14157286  0.33235687  1
  H  H28  1  0.85842714  0.50495202  0.66569087  1
  H  H29  1  0.49504798  0.35347512  -0.00097613  1
  O  O30  1  0.69349897  0.46380147  0.18800595  1
  O  O31  1  0.53619853  0.22969750  0.52133995  1
  O  O32  1  0.77030250  0.30650103  0.85467295  1
  O  O33  1  0.39235014  0.79358020  0.49376851  1
  O  O34  1  0.20641980  0.59876994  0.82710251  1
  O  O35  1  0.40123006  0.60764986  0.16043551  1
  O  O36  1  0.19232197  0.39351773  0.29538158  1
  O  O37  1  0.60648227  0.79880424  0.62871558  1
  O  O38  1  0.20119576  0.80767803  0.96204858  1
  O  O39  1  0.73592734  0.17293733  0.39226470  1
  O  O40  1  0.82706267  0.56299000  0.72559870  1
  O  O41  1  0.43701000  0.26407266  0.05893170  1
  O  O42  1  0.83527538  0.80930127  0.32869252  1
  O  O43  1  0.19069873  0.02597411  0.66202652  1
  O  O44  1  0.97402589  0.16472462  0.99535952  1
  O  O45  1  0.23573657  0.08116103  0.35135209  1
  O  O46  1  0.91883897  0.15457555  0.68468609  1
  O  O47  1  0.84542445  0.76426342  0.01801909  1
  O  O48  1  0.57285610  0.63754148  0.46153342  1
  O  O49  1  0.36245852  0.93531462  0.79486742  1
  O  O50  1  0.06468538  0.42714390  0.12820042  1
  O  O51  1  0.49194590  0.12151521  0.21629245  1
  O  O52  1  0.87848479  0.37043069  0.54962645  1
  O  O53  1  0.62956931  0.50805410  0.88295945  1
  O  O54  1  0.76609831  0.48658977  0.40118329  1
  O  O55  1  0.51341023  0.27950854  0.73451729  1
  O  O56  1  0.72049146  0.23390169  0.06785029  1
  O  O57  1  0.26730445  0.79418601  0.29685752  1
  O  O58  1  0.20581399  0.47311844  0.63019152  1
  O  O59  1  0.52688156  0.73269555  0.96352452  1
  O  O60  1  0.93262145  0.79246467  0.51783667  1
  O  O61  1  0.20753533  0.14015677  0.85117067  1
  O  O62  1  0.85984323  0.06737855  0.18450367  1
  O  O63  1  0.13835575  0.93940918  0.16665578  1
  O  O64  1  0.06059082  0.19894657  0.49998978  1
  O  O65  1  0.80105342  0.86164425  0.83332278  1
