# generated using pymatgen
data_MnH9C4(NO2)3
_symmetry_space_group_name_H-M   'P 1'
_cell_length_a   8.76695298
_cell_length_b   9.14940663
_cell_length_c   12.21354835
_cell_angle_alpha   90.00000000
_cell_angle_beta   90.00000000
_cell_angle_gamma   90.00000000
_symmetry_Int_Tables_number   1
_chemical_formula_structural   MnH9C4(NO2)3
_chemical_formula_sum   'Mn4 H36 C16 N12 O24'
_cell_volume   979.67824209
_cell_formula_units_Z   4
loop_
 _symmetry_equiv_pos_site_id
 _symmetry_equiv_pos_as_xyz
  1  'x, y, z'
loop_
 _atom_site_type_symbol
 _atom_site_label
 _atom_site_symmetry_multiplicity
 _atom_site_fract_x
 _atom_site_fract_y
 _atom_site_fract_z
 _atom_site_occupancy
  Mn  Mn0  1  0.25098035  0.25000000  0.75000000  1
  Mn  Mn1  1  0.24901965  0.25000000  0.25000000  1
  Mn  Mn2  1  0.74901965  0.75000000  0.25000000  1
  Mn  Mn3  1  0.75098035  0.75000000  0.75000000  1
  H  H4  1  0.25000000  0.31307550  -0.00000000  1
  H  H5  1  0.25000000  0.18692450  0.50000000  1
  H  H6  1  0.75000000  0.68692450  -0.00000000  1
  H  H7  1  0.75000000  0.81307550  0.50000000  1
  H  H8  1  0.90961428  0.07334602  0.77492587  1
  H  H9  1  0.59038572  0.07334602  0.22507413  1
  H  H10  1  0.90961428  0.42665398  0.72507413  1
  H  H11  1  0.59038572  0.42665398  0.27492587  1
  H  H12  1  0.09038572  0.92665398  0.22507413  1
  H  H13  1  0.40961428  0.92665398  0.77492587  1
  H  H14  1  0.09038572  0.57334602  0.27492587  1
  H  H15  1  0.40961428  0.57334602  0.72507413  1
  H  H16  1  0.17234389  0.92413011  0.92403612  1
  H  H17  1  0.32765611  0.92413011  0.07596388  1
  H  H18  1  0.17234389  0.57586989  0.57596388  1
  H  H19  1  0.32765611  0.57586989  0.42403612  1
  H  H20  1  0.82765611  0.07586989  0.07596388  1
  H  H21  1  0.67234389  0.07586989  0.92403612  1
  H  H22  1  0.82765611  0.42413011  0.42403612  1
  H  H23  1  0.67234389  0.42413011  0.57596388  1
  H  H24  1  0.09364595  0.75489566  0.87681841  1
  H  H25  1  0.40635405  0.75489566  0.12318159  1
  H  H26  1  0.09364595  0.74510434  0.62318159  1
  H  H27  1  0.40635405  0.74510434  0.37681841  1
  H  H28  1  0.90635405  0.24510434  0.12318159  1
  H  H29  1  0.59364595  0.24510434  0.87681841  1
  H  H30  1  0.90635405  0.25489566  0.37681841  1
  H  H31  1  0.59364595  0.25489566  0.62318159  1
  H  H32  1  0.31115952  0.53768975  0.05813638  1
  H  H33  1  0.18884048  0.53768975  0.94186362  1
  H  H34  1  0.31115952  0.96231025  0.44186362  1
  H  H35  1  0.18884048  0.96231025  0.55813638  1
  H  H36  1  0.68884048  0.46231025  0.94186362  1
  H  H37  1  0.81115952  0.46231025  0.05813638  1
  H  H38  1  0.68884048  0.03768975  0.55813638  1
  H  H39  1  0.81115952  0.03768975  0.44186362  1
  C  C40  1  0.25000000  0.19214323  -0.00000000  1
  C  C41  1  0.25000000  0.30785677  0.50000000  1
  C  C42  1  0.75000000  0.80785677  -0.00000000  1
  C  C43  1  0.75000000  0.69214323  0.50000000  1
  C  C44  1  0.98463251  0.01241368  0.71748789  1
  C  C45  1  0.51536749  0.01241368  0.28251211  1
  C  C46  1  0.98463251  0.48758632  0.78251211  1
  C  C47  1  0.51536749  0.48758632  0.21748789  1
  C  C48  1  0.01536749  0.98758632  0.28251211  1
  C  C49  1  0.48463251  0.98758632  0.71748789  1
  C  C50  1  0.01536749  0.51241368  0.21748789  1
  C  C51  1  0.48463251  0.51241368  0.78251211  1
  C  C52  1  0.25000000  0.73955089  -0.00000000  1
  C  C53  1  0.25000000  0.76044911  0.50000000  1
  C  C54  1  0.75000000  0.26044911  -0.00000000  1
  C  C55  1  0.75000000  0.23955089  0.50000000  1
  N  N56  1  0.16483488  0.81243875  0.92741762  1
  N  N57  1  0.33516512  0.81243875  0.07258238  1
  N  N58  1  0.16483488  0.68756125  0.57258238  1
  N  N59  1  0.33516512  0.68756125  0.42741762  1
  N  N60  1  0.83516512  0.18756125  0.07258238  1
  N  N61  1  0.66483488  0.18756125  0.92741762  1
  N  N62  1  0.83516512  0.31243875  0.42741762  1
  N  N63  1  0.66483488  0.31243875  0.57258238  1
  N  N64  1  0.25000000  0.59328324  -0.00000000  1
  N  N65  1  0.25000000  0.90671676  0.50000000  1
  N  N66  1  0.75000000  0.40671676  -0.00000000  1
  N  N67  1  0.75000000  0.09328324  0.50000000  1
  O  O68  1  0.24236170  0.12748462  0.90809047  1
  O  O69  1  0.25763830  0.12748462  0.09190953  1
  O  O70  1  0.24236170  0.37251538  0.59190953  1
  O  O71  1  0.25763830  0.37251538  0.40809047  1
  O  O72  1  0.75763830  0.87251538  0.09190953  1
  O  O73  1  0.74236170  0.87251538  0.90809047  1
  O  O74  1  0.75763830  0.62748462  0.40809047  1
  O  O75  1  0.74236170  0.62748462  0.59190953  1
  O  O76  1  0.10452679  0.07560069  0.68275709  1
  O  O77  1  0.39547321  0.07560069  0.31724291  1
  O  O78  1  0.10452679  0.42439931  0.81724291  1
  O  O79  1  0.39547321  0.42439931  0.18275709  1
  O  O80  1  0.89547321  0.92439931  0.31724291  1
  O  O81  1  0.60452679  0.92439931  0.68275709  1
  O  O82  1  0.89547321  0.57560069  0.18275709  1
  O  O83  1  0.60452679  0.57560069  0.81724291  1
  O  O84  1  0.94600202  0.88375969  0.69064239  1
  O  O85  1  0.55399798  0.88375969  0.30935761  1
  O  O86  1  0.94600202  0.61624031  0.80935761  1
  O  O87  1  0.55399798  0.61624031  0.19064239  1
  O  O88  1  0.05399798  0.11624031  0.30935761  1
  O  O89  1  0.44600202  0.11624031  0.69064239  1
  O  O90  1  0.05399798  0.38375969  0.19064239  1
  O  O91  1  0.44600202  0.38375969  0.80935761  1
