# generated using pymatgen
data_InSi4H39C14O
_symmetry_space_group_name_H-M   'P 1'
_cell_length_a   9.92723897
_cell_length_b   12.43092923
_cell_length_c   12.87599940
_cell_angle_alpha   76.05338826
_cell_angle_beta   69.63850523
_cell_angle_gamma   66.79786244
_symmetry_Int_Tables_number   1
_chemical_formula_structural   InSi4H39C14O
_chemical_formula_sum   'In2 Si8 H78 C28 O2'
_cell_volume   1359.19490458
_cell_formula_units_Z   2
loop_
 _symmetry_equiv_pos_site_id
 _symmetry_equiv_pos_as_xyz
  1  'x, y, z'
loop_
 _atom_site_type_symbol
 _atom_site_label
 _atom_site_symmetry_multiplicity
 _atom_site_fract_x
 _atom_site_fract_y
 _atom_site_fract_z
 _atom_site_occupancy
  In  In0  1  0.48489516  0.00764129  0.63890142  1
  In  In1  1  0.51510484  0.99235871  0.36109858  1
  Si  Si2  1  0.31682377  0.82604749  0.84257084  1
  Si  Si3  1  0.68317623  0.17395251  0.15742916  1
  Si  Si4  1  0.67758596  0.77294696  0.79462021  1
  Si  Si5  1  0.32241404  0.22705304  0.20537979  1
  Si  Si6  1  0.25480620  0.28783202  0.70724738  1
  Si  Si7  1  0.74519380  0.71216798  0.29275262  1
  Si  Si8  1  0.62083348  0.22763070  0.63003872  1
  Si  Si9  1  0.37916652  0.77236930  0.36996128  1
  H  H10  1  0.26264944  0.00468632  0.55431699  1
  H  H11  1  0.73735056  0.99531368  0.44568301  1
  H  H12  1  0.53106826  0.77745867  0.67586867  1
  H  H13  1  0.46893174  0.22254133  0.32413133  1
  H  H14  1  0.13416765  0.98986435  0.74404989  1
  H  H15  1  0.86583235  0.01013565  0.25595011  1
  H  H16  1  0.17102224  0.84854299  0.70901860  1
  H  H17  1  0.82897776  0.15145701  0.29098140  1
  H  H18  1  0.04689092  0.89225450  0.84041979  1
  H  H19  1  0.95310908  0.10774550  0.15958021  1
  H  H20  1  0.34172071  0.85001464  0.02180217  1
  H  H21  1  0.65827929  0.14998536  0.97819783  1
  H  H22  1  0.26553378  0.99069007  0.95006535  1
  H  H23  1  0.73446622  0.00930993  0.04993465  1
  H  H24  1  0.14786740  0.90333194  0.02195012  1
  H  H25  1  0.85213260  0.09666806  0.97804988  1
  H  H26  1  0.20434723  0.66797227  0.93207131  1
  H  H27  1  0.79565277  0.33202773  0.06792869  1
  H  H28  1  0.37143345  0.61584005  0.82166228  1
  H  H29  1  0.62856655  0.38415995  0.17833772  1
  H  H30  1  0.38698618  0.62420805  0.95239233  1
  H  H31  1  0.61301382  0.37579195  0.04760767  1
  H  H32  1  0.86013239  0.83924160  0.62059211  1
  H  H33  1  0.13986761  0.16075840  0.37940789  1
  H  H34  1  0.95687407  0.72831492  0.71153563  1
  H  H35  1  0.04312593  0.27168508  0.28846437  1
  H  H36  1  0.88009370  0.68989286  0.62551391  1
  H  H37  1  0.11990630  0.31010714  0.37448609  1
  H  H38  1  0.71012606  0.55803765  0.82078995  1
  H  H39  1  0.28987394  0.44196235  0.17921005  1
  H  H40  1  0.80808840  0.58643627  0.89777218  1
  H  H41  1  0.19191160  0.41356373  0.10222782  1
  H  H42  1  0.60791996  0.61805658  0.94915140  1
  H  H43  1  0.39208004  0.38194342  0.05084860  1
  H  H44  1  0.57549891  0.87045517  0.96971947  1
  H  H45  1  0.42450109  0.12954483  0.03028053  1
  H  H46  1  0.77749820  0.82832282  0.91746701  1
  H  H47  1  0.22250180  0.17167718  0.08253299  1
  H  H48  1  0.66021554  0.95863933  0.85601639  1
  H  H49  1  0.33978446  0.04136067  0.14398361  1
  H  H50  1  0.45526601  0.13985891  0.78238817  1
  H  H51  1  0.54473399  0.86014109  0.21761183  1
  H  H52  1  0.09565255  0.40915913  0.58119178  1
  H  H53  1  0.90434745  0.59084087  0.41880822  1
  H  H54  1  0.28803486  0.40192566  0.51570808  1
  H  H55  1  0.71196514  0.59807434  0.48429192  1
  H  H56  1  0.23311905  0.27969446  0.52167678  1
  H  H57  1  0.76688095  0.72030554  0.47832322  1
  H  H58  1  0.09495314  0.15647499  0.75838789  1
  H  H59  1  0.90504686  0.84352501  0.24161211  1
  H  H60  1  0.11665896  0.18439362  0.87971074  1
  H  H61  1  0.88334104  0.81560638  0.12028926  1
  H  H62  1  0.98929689  0.29499264  0.80881957  1
  H  H63  1  0.01070311  0.70500736  0.19118043  1
  H  H64  1  0.24509129  0.38639980  0.86073144  1
  H  H65  1  0.75490871  0.61360020  0.13926856  1
  H  H66  1  0.29314999  0.46972189  0.72901849  1
  H  H67  1  0.70685001  0.53027811  0.27098151  1
  H  H68  1  0.10218141  0.47318080  0.79219732  1
  H  H69  1  0.89781859  0.52681920  0.20780268  1
  H  H70  1  0.61484137  0.25351736  0.43159980  1
  H  H71  1  0.38515863  0.74648264  0.56840020  1
  H  H72  1  0.52991636  0.39092213  0.48587312  1
  H  H73  1  0.47008364  0.60907787  0.51412688  1
  H  H74  1  0.73201152  0.32431085  0.44472082  1
  H  H75  1  0.26798848  0.67568915  0.55527918  1
  H  H76  1  0.90227857  0.14078164  0.58571580  1
  H  H77  1  0.09772143  0.85921836  0.41428420  1
  H  H78  1  0.81897629  0.05696457  0.70485744  1
  H  H79  1  0.18102371  0.94303543  0.29514256  1
  H  H80  1  0.83267855  0.03652952  0.56926693  1
  H  H81  1  0.16732145  0.96347048  0.43073307  1
  H  H82  1  0.52821453  0.41750849  0.71367654  1
  H  H83  1  0.47178547  0.58249151  0.28632346  1
  H  H84  1  0.61224120  0.29491217  0.80246077  1
  H  H85  1  0.38775880  0.70508783  0.19753923  1
  H  H86  1  0.72993357  0.34996791  0.67984027  1
  H  H87  1  0.27006643  0.65003209  0.32015973  1
  C  C88  1  0.50411577  0.83349603  0.74056923  1
  C  C89  1  0.49588423  0.16650397  0.25943077  1
  C  C90  1  0.15345549  0.89648009  0.77683347  1
  C  C91  1  0.84654451  0.10351991  0.22316653  1
  C  C92  1  0.26364718  0.90010080  0.97018165  1
  C  C93  1  0.73635282  0.09989920  0.02981835  1
  C  C94  1  0.32148590  0.66891415  0.89160109  1
  C  C95  1  0.67851410  0.33108585  0.10839891  1
  C  C96  1  0.85982947  0.75714498  0.67647167  1
  C  C97  1  0.14017053  0.24285502  0.32352833  1
  C  C98  1  0.70195801  0.61997614  0.87288086  1
  C  C99  1  0.29804199  0.38002386  0.12711914  1
  C  C100  1  0.67058779  0.86730217  0.89310958  1
  C  C101  1  0.32941221  0.13269783  0.10689042  1
  C  C102  1  0.45271801  0.17379412  0.69484255  1
  C  C103  1  0.54728199  0.82620588  0.30515745  1
  C  C104  1  0.21540058  0.35010143  0.56790995  1
  C  C105  1  0.78459942  0.64989857  0.43209005  1
  C  C106  1  0.10114972  0.22378588  0.79662201  1
  C  C107  1  0.89885028  0.77621412  0.20337799  1
  C  C108  1  0.22251861  0.41565192  0.77881794  1
  C  C109  1  0.77748139  0.58434808  0.22118206  1
  C  C110  1  0.62428022  0.30613681  0.48455750  1
  C  C111  1  0.37571978  0.69386319  0.51544250  1
  C  C112  1  0.80996289  0.10305852  0.62184327  1
  C  C113  1  0.19003711  0.89694148  0.37815673  1
  C  C114  1  0.62131769  0.33247377  0.71477224  1
  C  C115  1  0.37868231  0.66752623  0.28522776  1
  O  O116  1  0.34772905  0.03429992  0.52535240  1
  O  O117  1  0.65227095  0.96570008  0.47464760  1
