# generated using pymatgen
data_FeH12C5NCl2O5
_symmetry_space_group_name_H-M   'P 1'
_cell_length_a   8.46890464
_cell_length_b   8.83819383
_cell_length_c   18.25864433
_cell_angle_alpha   90.00000000
_cell_angle_beta   91.95374447
_cell_angle_gamma   90.00000000
_symmetry_Int_Tables_number   1
_chemical_formula_structural   FeH12C5NCl2O5
_chemical_formula_sum   'Fe4 H48 C20 N4 Cl8 O20'
_cell_volume   1365.86178502
_cell_formula_units_Z   4
loop_
 _symmetry_equiv_pos_site_id
 _symmetry_equiv_pos_as_xyz
  1  'x, y, z'
loop_
 _atom_site_type_symbol
 _atom_site_label
 _atom_site_symmetry_multiplicity
 _atom_site_fract_x
 _atom_site_fract_y
 _atom_site_fract_z
 _atom_site_occupancy
  Fe  Fe0  1  0.07283099  0.75073232  0.58601607  1
  Fe  Fe1  1  0.92716901  0.25073232  0.91398393  1
  Fe  Fe2  1  0.92716901  0.24926768  0.41398393  1
  Fe  Fe3  1  0.07283099  0.74926768  0.08601607  1
  H  H4  1  0.41125562  0.70220382  0.33833417  1
  H  H5  1  0.58874438  0.20220382  0.16166583  1
  H  H6  1  0.58874438  0.29779618  0.66166583  1
  H  H7  1  0.41125562  0.79779618  0.83833417  1
  H  H8  1  0.40220912  0.96028518  0.29976920  1
  H  H9  1  0.59779088  0.46028518  0.20023080  1
  H  H10  1  0.59779088  0.03971482  0.70023080  1
  H  H11  1  0.40220912  0.53971482  0.79976920  1
  H  H12  1  0.31529247  0.93338853  0.38682351  1
  H  H13  1  0.68470753  0.43338853  0.11317649  1
  H  H14  1  0.68470753  0.06661147  0.61317649  1
  H  H15  1  0.31529247  0.56661147  0.88682351  1
  H  H16  1  0.50988509  0.01424229  0.38226994  1
  H  H17  1  0.49011491  0.51424229  0.11773006  1
  H  H18  1  0.49011491  0.98575771  0.61773006  1
  H  H19  1  0.50988509  0.48575771  0.88226994  1
  H  H20  1  0.57362341  0.61518359  0.43929287  1
  H  H21  1  0.42637659  0.11518359  0.06070713  1
  H  H22  1  0.42637659  0.38481641  0.56070713  1
  H  H23  1  0.57362341  0.88481641  0.93929287  1
  H  H24  1  0.61125875  0.80773039  0.46580791  1
  H  H25  1  0.38874125  0.30773039  0.03419209  1
  H  H26  1  0.38874125  0.19226961  0.53419209  1
  H  H27  1  0.61125875  0.69226961  0.96580791  1
  H  H28  1  0.41360512  0.73224310  0.46791631  1
  H  H29  1  0.58639488  0.23224310  0.03208369  1
  H  H30  1  0.58639488  0.26775690  0.53208369  1
  H  H31  1  0.41360512  0.76775690  0.96791631  1
  H  H32  1  0.68931267  0.65364842  0.32382664  1
  H  H33  1  0.31068733  0.15364842  0.17617336  1
  H  H34  1  0.31068733  0.34635158  0.67617336  1
  H  H35  1  0.68931267  0.84635158  0.82382664  1
  H  H36  1  0.61430312  0.79823739  0.26234827  1
  H  H37  1  0.38569688  0.29823739  0.23765173  1
  H  H38  1  0.38569688  0.20176261  0.73765173  1
  H  H39  1  0.61430312  0.70176261  0.76234827  1
  H  H40  1  0.72875571  0.85035598  0.34259134  1
  H  H41  1  0.27124429  0.35035598  0.15740866  1
  H  H42  1  0.27124429  0.14964402  0.65740866  1
  H  H43  1  0.72875571  0.64964402  0.84259134  1
  H  H44  1  0.20067475  0.62031021  0.26627622  1
  H  H45  1  0.79932525  0.12031021  0.23372378  1
  H  H46  1  0.79932525  0.37968979  0.73372378  1
  H  H47  1  0.20067475  0.87968979  0.76627622  1
  H  H48  1  0.21340581  0.52627814  0.33830984  1
  H  H49  1  0.78659419  0.02627814  0.16169016  1
  H  H50  1  0.78659419  0.47372186  0.66169016  1
  H  H51  1  0.21340581  0.97372186  0.83830984  1
  C  C52  1  0.42587951  0.93296212  0.35758039  1
  C  C53  1  0.57412049  0.43296212  0.14241961  1
  C  C54  1  0.57412049  0.06703788  0.64241961  1
  C  C55  1  0.42587951  0.56703788  0.85758039  1
  C  C56  1  0.52547246  0.73030766  0.43963477  1
  C  C57  1  0.47452754  0.23030766  0.06036523  1
  C  C58  1  0.47452754  0.26969234  0.56036523  1
  C  C59  1  0.52547246  0.76969234  0.93963477  1
  C  C60  1  0.64281623  0.76908628  0.31953590  1
  C  C61  1  0.35718377  0.26908628  0.18046410  1
  C  C62  1  0.35718377  0.23091372  0.68046410  1
  C  C63  1  0.64281623  0.73091372  0.81953590  1
  C  C64  1  0.91546730  0.97037470  0.49272990  1
  C  C65  1  0.08453270  0.47037470  0.00727010  1
  C  C66  1  0.08453270  0.02962530  0.50727010  1
  C  C67  1  0.91546730  0.52962530  0.99272990  1
  C  C68  1  0.05429562  0.52901232  0.46999123  1
  C  C69  1  0.94570438  0.02901232  0.03000877  1
  C  C70  1  0.94570438  0.47098768  0.53000877  1
  C  C71  1  0.05429562  0.97098768  0.96999123  1
  N  N72  1  0.49592647  0.77841343  0.36209220  1
  N  N73  1  0.50407353  0.27841343  0.13790780  1
  N  N74  1  0.50407353  0.22158657  0.63790780  1
  N  N75  1  0.49592647  0.72158657  0.86209220  1
  Cl  Cl76  1  0.30752463  0.66051446  0.63430800  1
  Cl  Cl77  1  0.69247537  0.16051446  0.86569200  1
  Cl  Cl78  1  0.69247537  0.33948554  0.36569200  1
  Cl  Cl79  1  0.30752463  0.83948554  0.13430800  1
  Cl  Cl80  1  0.97329230  0.84662209  0.69104991  1
  Cl  Cl81  1  0.02670770  0.34662209  0.80895009  1
  Cl  Cl82  1  0.02670770  0.15337791  0.30895009  1
  Cl  Cl83  1  0.97329230  0.65337791  0.19104991  1
  O  O84  1  0.88047494  0.84614436  0.52224615  1
  O  O85  1  0.11952506  0.34614436  0.97775385  1
  O  O86  1  0.11952506  0.15385564  0.47775385  1
  O  O87  1  0.88047494  0.65385564  0.02224615  1
  O  O88  1  0.17528109  0.94855538  0.54768711  1
  O  O89  1  0.82471891  0.44855538  0.95231289  1
  O  O90  1  0.82471891  0.05144462  0.45231289  1
  O  O91  1  0.17528109  0.55144462  0.04768711  1
  O  O92  1  0.12575178  0.65215444  0.48218898  1
  O  O93  1  0.87424822  0.15215444  0.01781102  1
  O  O94  1  0.87424822  0.34784556  0.51781102  1
  O  O95  1  0.12575178  0.84784556  0.98218898  1
  O  O96  1  0.93665688  0.55245296  0.58718729  1
  O  O97  1  0.06334312  0.05245296  0.91281271  1
  O  O98  1  0.06334312  0.44754704  0.41281271  1
  O  O99  1  0.93665688  0.94754704  0.08718729  1
  O  O100  1  0.27778549  0.58073582  0.30303735  1
  O  O101  1  0.72221451  0.08073582  0.19696265  1
  O  O102  1  0.72221451  0.41926418  0.69696265  1
  O  O103  1  0.27778549  0.91926418  0.80303735  1
