# generated using pymatgen
data_Pb8Cl4O7
_symmetry_space_group_name_H-M   'P 1'
_cell_length_a   5.82553874
_cell_length_b   13.67008350
_cell_length_c   22.09755228
_cell_angle_alpha   101.62915238
_cell_angle_beta   90.00000000
_cell_angle_gamma   102.30268629
_symmetry_Int_Tables_number   1
_chemical_formula_structural   Pb8Cl4O7
_chemical_formula_sum   'Pb32 Cl16 O28'
_cell_volume   1682.34995158
_cell_formula_units_Z   4
loop_
 _symmetry_equiv_pos_site_id
 _symmetry_equiv_pos_as_xyz
  1  'x, y, z'
loop_
 _atom_site_type_symbol
 _atom_site_label
 _atom_site_symmetry_multiplicity
 _atom_site_fract_x
 _atom_site_fract_y
 _atom_site_fract_z
 _atom_site_occupancy
  Pb  Pb0  1  0.79033938  0.64721637  0.32615155  1
  Pb  Pb1  1  0.14312301  0.35278363  0.17384845  1
  Pb  Pb2  1  0.20966062  0.35278363  0.67384845  1
  Pb  Pb3  1  0.85687699  0.64721637  0.82615155  1
  Pb  Pb4  1  0.45701255  0.85118056  0.35297231  1
  Pb  Pb5  1  0.60583199  0.14881944  0.14702769  1
  Pb  Pb6  1  0.54298745  0.14881944  0.64702769  1
  Pb  Pb7  1  0.39416801  0.85118056  0.85297231  1
  Pb  Pb8  1  0.34782339  0.64574460  0.46080503  1
  Pb  Pb9  1  0.70207878  0.35425540  0.03919497  1
  Pb  Pb10  1  0.65217661  0.35425540  0.53919497  1
  Pb  Pb11  1  0.29792122  0.64574460  0.96080503  1
  Pb  Pb12  1  0.89087170  0.85163414  0.48597842  1
  Pb  Pb13  1  0.03923755  0.14836586  0.01402158  1
  Pb  Pb14  1  0.10912830  0.14836586  0.51402158  1
  Pb  Pb15  1  0.96076245  0.85163414  0.98597842  1
  Pb  Pb16  1  0.67778568  0.34801712  0.29577115  1
  Pb  Pb17  1  0.32976856  0.65198288  0.20422885  1
  Pb  Pb18  1  0.32221432  0.65198288  0.70422885  1
  Pb  Pb19  1  0.67023144  0.34801712  0.79577115  1
  Pb  Pb20  1  0.05737170  0.14806936  0.27374512  1
  Pb  Pb21  1  0.90930234  0.85193064  0.22625488  1
  Pb  Pb22  1  0.94262830  0.85193064  0.72625488  1
  Pb  Pb23  1  0.09069766  0.14806936  0.77374512  1
  Pb  Pb24  1  0.17095552  0.34570375  0.41909376  1
  Pb  Pb25  1  0.82525176  0.65429625  0.08090624  1
  Pb  Pb26  1  0.82904448  0.65429625  0.58090624  1
  Pb  Pb27  1  0.17474824  0.34570375  0.91909376  1
  Pb  Pb28  1  0.55463725  0.14690578  0.38790365  1
  Pb  Pb29  1  0.40773147  0.85309422  0.11209635  1
  Pb  Pb30  1  0.44536275  0.85309422  0.61209635  1
  Pb  Pb31  1  0.59226853  0.14690578  0.88790365  1
  Cl  Cl32  1  0.50000000  -0.00000000  0.50000000  1
  Cl  Cl33  1  0.50000000  -0.00000000  -0.00000000  1
  Cl  Cl34  1  0.49960820  -0.00000000  0.25000000  1
  Cl  Cl35  1  0.50039180  -0.00000000  0.75000000  1
  Cl  Cl36  1  0.23987402  0.48361203  0.31081010  1
  Cl  Cl37  1  0.75626199  0.51638797  0.18918990  1
  Cl  Cl38  1  0.76012598  0.51638797  0.68918990  1
  Cl  Cl39  1  0.24373801  0.48361203  0.81081010  1
  Cl  Cl40  1  0.26485910  0.51668250  0.56533187  1
  Cl  Cl41  1  0.74817660  0.48331750  0.93466813  1
  Cl  Cl42  1  0.73514090  0.48331750  0.43466813  1
  Cl  Cl43  1  0.25182340  0.51668250  0.06533187  1
  Cl  Cl44  1  0.00408560  0.00992817  0.37868271  1
  Cl  Cl45  1  0.99415744  0.99007183  0.12131729  1
  Cl  Cl46  1  0.99591440  0.99007183  0.62131729  1
  Cl  Cl47  1  0.00584256  0.00992817  0.87868271  1
  O  O48  1  0.62044058  0.75028058  0.40639381  1
  O  O49  1  0.87016000  0.24971942  0.09360619  1
  O  O50  1  0.37955942  0.24971942  0.59360619  1
  O  O51  1  0.12984000  0.75028058  0.90639381  1
  O  O52  1  0.62884599  0.75196086  0.27642814  1
  O  O53  1  0.87688513  0.24803914  0.22357186  1
  O  O54  1  0.37115401  0.24803914  0.72357186  1
  O  O55  1  0.12311487  0.75196086  0.77642814  1
  O  O56  1  0.61500434  0.75197645  0.53669575  1
  O  O57  1  0.86302789  0.24802355  0.96330425  1
  O  O58  1  0.38499566  0.24802355  0.46330425  1
  O  O59  1  0.13697211  0.75197645  0.03669575  1
  O  O60  1  0.37105484  0.24700735  0.33419878  1
  O  O61  1  0.12404750  0.75299265  0.16580122  1
  O  O62  1  0.62894516  0.75299265  0.66580122  1
  O  O63  1  0.87595250  0.24700735  0.83419878  1
  O  O64  1  0.87037842  0.24720944  0.35237984  1
  O  O65  1  0.62316897  0.75279056  0.14762016  1
  O  O66  1  0.12962158  0.75279056  0.64762016  1
  O  O67  1  0.37683103  0.24720944  0.85237984  1
  O  O68  1  0.09030884  0.73675306  0.50074031  1
  O  O69  1  0.35355578  0.26324694  -0.00074031  1
  O  O70  1  0.90969116  0.26324694  0.49925969  1
  O  O71  1  0.64644422  0.73675306  0.00074031  1
  O  O72  1  0.13262897  0.74342403  0.31371903  1
  O  O73  1  0.38920494  0.25657597  0.18628097  1
  O  O74  1  0.86737103  0.25657597  0.68628097  1
  O  O75  1  0.61079506  0.74342403  0.81371903  1
