# generated using pymatgen
data_Fe(SiO3)2
_symmetry_space_group_name_H-M   'P 1'
_cell_length_a   5.32766615
_cell_length_b   5.32766615
_cell_length_c   19.61949755
_cell_angle_alpha   94.80648348
_cell_angle_beta   94.80648348
_cell_angle_gamma   120.86448741
_symmetry_Int_Tables_number   1
_chemical_formula_structural   Fe(SiO3)2
_chemical_formula_sum   'Fe4 Si8 O24'
_cell_volume   471.07474500
_cell_formula_units_Z   4
loop_
 _symmetry_equiv_pos_site_id
 _symmetry_equiv_pos_as_xyz
  1  'x, y, z'
loop_
 _atom_site_type_symbol
 _atom_site_label
 _atom_site_symmetry_multiplicity
 _atom_site_fract_x
 _atom_site_fract_y
 _atom_site_fract_z
 _atom_site_occupancy
  Fe  Fe0  1  0.33688868  0.67038076  0.50009108  1
  Fe  Fe1  1  0.32961924  0.66311132  0.99990892  1
  Fe  Fe2  1  0.66311132  0.32961924  0.49990892  1
  Fe  Fe3  1  0.67038076  0.33688868  0.00009108  1
  Si  Si4  1  0.24824011  0.25536935  0.35528789  1
  Si  Si5  1  0.74463065  0.75175989  0.14471211  1
  Si  Si6  1  0.75175989  0.74463065  0.64471211  1
  Si  Si7  1  0.25536935  0.24824011  0.85528789  1
  Si  Si8  1  0.90799672  0.56664153  0.35520673  1
  Si  Si9  1  0.43335847  0.09200328  0.14479327  1
  Si  Si10  1  0.09200328  0.43335847  0.64479327  1
  Si  Si11  1  0.56664153  0.90799672  0.85520673  1
  O  O12  1  0.33172662  0.35240164  0.44044299  1
  O  O13  1  0.64759836  0.66827338  0.05955701  1
  O  O14  1  0.66827338  0.64759836  0.55955701  1
  O  O15  1  0.35240164  0.33172662  0.94044299  1
  O  O16  1  0.94710999  0.57488093  0.44029534  1
  O  O17  1  0.42511907  0.05289001  0.05970466  1
  O  O18  1  0.05289001  0.42511907  0.55970466  1
  O  O19  1  0.57488093  0.94710999  0.94029534  1
  O  O20  1  0.57307562  0.97048639  0.44922545  1
  O  O21  1  0.02951361  0.42692438  0.05077455  1
  O  O22  1  0.42692438  0.02951361  0.55077455  1
  O  O23  1  0.97048639  0.57307562  0.94922545  1
  O  O24  1  0.06235823  0.89880789  0.33474492  1
  O  O25  1  0.10119211  0.93764177  0.16525508  1
  O  O26  1  0.93764177  0.10119211  0.66525508  1
  O  O27  1  0.89880789  0.06235823  0.83474492  1
  O  O28  1  0.55892167  0.38804047  0.32384697  1
  O  O29  1  0.61195953  0.44107833  0.17615303  1
  O  O30  1  0.44107833  0.61195953  0.67615303  1
  O  O31  1  0.38804047  0.55892167  0.82384697  1
  O  O32  1  0.06375685  0.39618813  0.32327382  1
  O  O33  1  0.60381187  0.93624315  0.17672618  1
  O  O34  1  0.93624315  0.60381187  0.67672618  1
  O  O35  1  0.39618813  0.06375685  0.82327382  1
