# generated using pymatgen
data_ZrZn2Ge
_symmetry_space_group_name_H-M   'P 1'
_cell_length_a   4.00289149
_cell_length_b   4.00289149
_cell_length_c   9.02814479
_cell_angle_alpha   102.80829030
_cell_angle_beta   102.80829030
_cell_angle_gamma   90.00000000
_symmetry_Int_Tables_number   1
_chemical_formula_structural   ZrZn2Ge
_chemical_formula_sum   'Zr2 Zn4 Ge2'
_cell_volume   137.36591359
_cell_formula_units_Z   2
loop_
 _symmetry_equiv_pos_site_id
 _symmetry_equiv_pos_as_xyz
  1  'x, y, z'
loop_
 _atom_site_type_symbol
 _atom_site_label
 _atom_site_symmetry_multiplicity
 _atom_site_fract_x
 _atom_site_fract_y
 _atom_site_fract_z
 _atom_site_occupancy
  Zr  Zr0  1  0.12610376  0.12610376  0.25220752  1
  Zr  Zr1  1  0.87389624  0.87389624  0.74779248  1
  Zn  Zn2  1  0.39473459  0.39473459  0.78946918  1
  Zn  Zn3  1  0.60526541  0.60526541  0.21053082  1
  Zn  Zn4  1  0.00000000  0.50000000  0.00000000  1
  Zn  Zn5  1  0.50000000  0.00000000  0.00000000  1
  Ge  Ge6  1  0.25000000  0.75000000  0.50000000  1
  Ge  Ge7  1  0.75000000  0.25000000  0.50000000  1
