# generated using pymatgen
data_MnH30C6(Se2N3)2
_symmetry_space_group_name_H-M   'P 1'
_cell_length_a   8.78150950
_cell_length_b   8.78150950
_cell_length_c   14.33574252
_cell_angle_alpha   78.66227277
_cell_angle_beta   78.66227277
_cell_angle_gamma   88.79202774
_symmetry_Int_Tables_number   1
_chemical_formula_structural   MnH30C6(Se2N3)2
_chemical_formula_sum   'Mn2 H60 C12 Se8 N12'
_cell_volume   1062.59631962
_cell_formula_units_Z   2
loop_
 _symmetry_equiv_pos_site_id
 _symmetry_equiv_pos_as_xyz
  1  'x, y, z'
loop_
 _atom_site_type_symbol
 _atom_site_label
 _atom_site_symmetry_multiplicity
 _atom_site_fract_x
 _atom_site_fract_y
 _atom_site_fract_z
 _atom_site_occupancy
  Mn  Mn0  1  0.66528831  0.33471169  0.25000000  1
  Mn  Mn1  1  0.33471169  0.66528831  0.75000000  1
  H  H2  1  0.51730609  0.61206748  0.17458621  1
  H  H3  1  0.38793252  0.48269391  0.32541379  1
  H  H4  1  0.48269391  0.38793252  0.82541379  1
  H  H5  1  0.61206748  0.51730609  0.67458621  1
  H  H6  1  0.57405746  0.51743146  0.08863696  1
  H  H7  1  0.48256854  0.42594254  0.41136304  1
  H  H8  1  0.42594254  0.48256854  0.91136304  1
  H  H9  1  0.51743146  0.57405746  0.58863696  1
  H  H10  1  0.84960590  0.62878614  0.08411080  1
  H  H11  1  0.37121386  0.15039410  0.41588920  1
  H  H12  1  0.15039410  0.37121386  0.91588920  1
  H  H13  1  0.62878614  0.84960590  0.58411080  1
  H  H14  1  0.71363865  0.74615554  0.02656502  1
  H  H15  1  0.25384446  0.28636135  0.47343498  1
  H  H16  1  0.28636135  0.25384446  0.97343498  1
  H  H17  1  0.74615554  0.71363865  0.52656502  1
  H  H18  1  0.73481852  0.76206553  0.14535947  1
  H  H19  1  0.23793447  0.26518148  0.35464053  1
  H  H20  1  0.26518148  0.23793447  0.85464053  1
  H  H21  1  0.76206553  0.73481852  0.64535947  1
  H  H22  1  0.90992097  0.53223562  0.25681218  1
  H  H23  1  0.46776438  0.09007903  0.24318782  1
  H  H24  1  0.09007903  0.46776438  0.74318782  1
  H  H25  1  0.53223562  0.90992097  0.75681218  1
  H  H26  1  0.74187992  0.60400752  0.30114919  1
  H  H27  1  0.39599248  0.25812008  0.19885081  1
  H  H28  1  0.25812008  0.39599248  0.69885081  1
  H  H29  1  0.60400752  0.74187992  0.80114919  1
  H  H30  1  0.90821884  0.56612635  0.41940977  1
  H  H31  1  0.43387365  0.09178116  0.08059023  1
  H  H32  1  0.09178116  0.43387365  0.58059023  1
  H  H33  1  0.56612635  0.90821884  0.91940977  1
  H  H34  1  0.73756523  0.44496248  0.45984397  1
  H  H35  1  0.55503752  0.26243477  0.04015603  1
  H  H36  1  0.26243477  0.55503752  0.54015603  1
  H  H37  1  0.44496248  0.73756523  0.95984397  1
  H  H38  1  0.91717978  0.36686888  0.41175656  1
  H  H39  1  0.63313112  0.08282022  0.08824344  1
  H  H40  1  0.08282022  0.63313112  0.58824344  1
  H  H41  1  0.36686888  0.91717978  0.91175656  1
  H  H42  1  0.95300049  0.38044077  0.12170926  1
  H  H43  1  0.61955923  0.04699951  0.37829074  1
  H  H44  1  0.04699951  0.61955923  0.87829074  1
  H  H45  1  0.38044077  0.95300049  0.62170926  1
  H  H46  1  0.82411976  0.33900690  0.06151461  1
  H  H47  1  0.66099310  0.17588024  0.43848539  1
  H  H48  1  0.17588024  0.66099310  0.93848539  1
  H  H49  1  0.33900690  0.82411976  0.56151461  1
  H  H50  1  0.84548965  0.05485259  0.15315879  1
  H  H51  1  0.94514741  0.15451035  0.34684121  1
  H  H52  1  0.15451035  0.94514741  0.84684121  1
  H  H53  1  0.05485259  0.84548965  0.65315879  1
  H  H54  1  0.02193806  0.13018035  0.16934971  1
  H  H55  1  0.86981965  0.97806194  0.33065029  1
  H  H56  1  0.97806194  0.86981965  0.83065029  1
  H  H57  1  0.13018035  0.02193806  0.66934971  1
  H  H58  1  0.99012914  0.13408097  0.05008842  1
  H  H59  1  0.86591903  0.00987086  0.44991158  1
  H  H60  1  0.00987086  0.86591903  0.94991158  1
  H  H61  1  0.13408097  0.99012914  0.55008842  1
  C  C62  1  0.84455111  0.47005085  0.40444008  1
  C  C63  1  0.52994915  0.15544889  0.09555992  1
  C  C64  1  0.15544889  0.52994915  0.59555992  1
  C  C65  1  0.47005085  0.84455111  0.90444008  1
  C  C66  1  0.93415686  0.14739130  0.12359858  1
  C  C67  1  0.85260870  0.06584314  0.37640142  1
  C  C68  1  0.06584314  0.85260870  0.87640142  1
  C  C69  1  0.14739130  0.93415686  0.62359858  1
  C  C70  1  0.73432412  0.68028712  0.09650815  1
  C  C71  1  0.31971288  0.26567588  0.40349185  1
  C  C72  1  0.26567588  0.31971288  0.90349185  1
  C  C73  1  0.68028712  0.73432412  0.59650815  1
  Se  Se74  1  0.19828001  0.51462686  0.13938870  1
  Se  Se75  1  0.48537314  0.80171999  0.36061130  1
  Se  Se76  1  0.80171999  0.48537314  0.86061130  1
  Se  Se77  1  0.51462686  0.19828001  0.63938870  1
  Se  Se78  1  0.21018532  0.77144418  0.16939244  1
  Se  Se79  1  0.22855582  0.78981468  0.33060756  1
  Se  Se80  1  0.78981468  0.22855582  0.83060756  1
  Se  Se81  1  0.77144418  0.21018532  0.66939244  1
  N  N82  1  0.80760075  0.50519889  0.30641607  1
  N  N83  1  0.49480111  0.19239925  0.19358393  1
  N  N84  1  0.19239925  0.49480111  0.69358393  1
  N  N85  1  0.50519889  0.80760075  0.80641607  1
  N  N86  1  0.86475555  0.30215288  0.12473324  1
  N  N87  1  0.69784712  0.13524445  0.37526676  1
  N  N88  1  0.13524445  0.69784712  0.87526676  1
  N  N89  1  0.30215288  0.86475555  0.62473324  1
  N  N90  1  0.61266527  0.55962358  0.14180381  1
  N  N91  1  0.44037642  0.38733473  0.35819619  1
  N  N92  1  0.38733473  0.44037642  0.85819619  1
  N  N93  1  0.55962358  0.61266527  0.64180381  1
