# generated using pymatgen
data_CaMn2(H2O3)4
_symmetry_space_group_name_H-M   'P 1'
_cell_length_a   5.58953528
_cell_length_b   13.27888397
_cell_length_c   14.66958158
_cell_angle_alpha   90.00000000
_cell_angle_beta   90.00000000
_cell_angle_gamma   90.00000000
_symmetry_Int_Tables_number   1
_chemical_formula_structural   CaMn2(H2O3)4
_chemical_formula_sum   'Ca4 Mn8 H32 O48'
_cell_volume   1088.81727930
_cell_formula_units_Z   4
loop_
 _symmetry_equiv_pos_site_id
 _symmetry_equiv_pos_as_xyz
  1  'x, y, z'
loop_
 _atom_site_type_symbol
 _atom_site_label
 _atom_site_symmetry_multiplicity
 _atom_site_fract_x
 _atom_site_fract_y
 _atom_site_fract_z
 _atom_site_occupancy
  Ca  Ca0  1  0.25000000  0.84955843  0.25000000  1
  Ca  Ca1  1  0.75000000  0.65044157  0.75000000  1
  Ca  Ca2  1  0.75000000  0.15044157  0.75000000  1
  Ca  Ca3  1  0.25000000  0.34955843  0.25000000  1
  Mn  Mn4  1  0.98789221  0.59763954  0.13251837  1
  Mn  Mn5  1  0.51210779  0.59763954  0.36748163  1
  Mn  Mn6  1  0.01210779  0.90236046  0.63251837  1
  Mn  Mn7  1  0.48789221  0.90236046  0.86748163  1
  Mn  Mn8  1  0.01210779  0.40236046  0.86748163  1
  Mn  Mn9  1  0.48789221  0.40236046  0.63251837  1
  Mn  Mn10  1  0.98789221  0.09763954  0.36748163  1
  Mn  Mn11  1  0.51210779  0.09763954  0.13251837  1
  H  H12  1  0.54640095  0.97940678  0.38490539  1
  H  H13  1  0.95359905  0.97940678  0.11509461  1
  H  H14  1  0.45359905  0.52059322  0.88490539  1
  H  H15  1  0.04640095  0.52059322  0.61509461  1
  H  H16  1  0.45359905  0.02059322  0.61509461  1
  H  H17  1  0.04640095  0.02059322  0.88490539  1
  H  H18  1  0.54640095  0.47940678  0.11509461  1
  H  H19  1  0.95359905  0.47940678  0.38490539  1
  H  H20  1  0.41494201  0.89560068  0.43965569  1
  H  H21  1  0.08505799  0.89560068  0.06034431  1
  H  H22  1  0.58505799  0.60439932  0.93965569  1
  H  H23  1  0.91494201  0.60439932  0.56034431  1
  H  H24  1  0.58505799  0.10439932  0.56034431  1
  H  H25  1  0.91494201  0.10439932  0.93965569  1
  H  H26  1  0.41494201  0.39560068  0.06034431  1
  H  H27  1  0.08505799  0.39560068  0.43965569  1
  H  H28  1  0.93397312  0.72470768  0.37884017  1
  H  H29  1  0.56602688  0.72470768  0.12115983  1
  H  H30  1  0.06602688  0.77529232  0.87884017  1
  H  H31  1  0.43397312  0.77529232  0.62115983  1
  H  H32  1  0.06602688  0.27529232  0.62115983  1
  H  H33  1  0.43397312  0.27529232  0.87884017  1
  H  H34  1  0.93397312  0.22470768  0.12115983  1
  H  H35  1  0.56602688  0.22470768  0.37884017  1
  H  H36  1  0.85721678  0.83707566  0.38996636  1
  H  H37  1  0.64278322  0.83707566  0.11003364  1
  H  H38  1  0.14278322  0.66292434  0.88996636  1
  H  H39  1  0.35721678  0.66292434  0.61003364  1
  H  H40  1  0.14278322  0.16292434  0.61003364  1
  H  H41  1  0.35721678  0.16292434  0.88996636  1
  H  H42  1  0.85721678  0.33707566  0.11003364  1
  H  H43  1  0.64278322  0.33707566  0.38996636  1
  O  O44  1  0.71303323  0.60252533  0.09391469  1
  O  O45  1  0.78696677  0.60252533  0.40608531  1
  O  O46  1  0.28696677  0.89747467  0.59391469  1
  O  O47  1  0.21303323  0.89747467  0.90608531  1
  O  O48  1  0.28696677  0.39747467  0.90608531  1
  O  O49  1  0.21303323  0.39747467  0.59391469  1
  O  O50  1  0.71303323  0.10252533  0.40608531  1
  O  O51  1  0.78696677  0.10252533  0.09391469  1
  O  O52  1  0.17242839  0.59068981  0.04941117  1
  O  O53  1  0.32757161  0.59068981  0.45058883  1
  O  O54  1  0.82757161  0.90931019  0.54941117  1
  O  O55  1  0.67242839  0.90931019  0.95058883  1
  O  O56  1  0.82757161  0.40931019  0.95058883  1
  O  O57  1  0.67242839  0.40931019  0.54941117  1
  O  O58  1  0.17242839  0.09068981  0.45058883  1
  O  O59  1  0.32757161  0.09068981  0.04941117  1
  O  O60  1  0.01861641  0.49912007  0.19673910  1
  O  O61  1  0.48138359  0.49912007  0.30326090  1
  O  O62  1  0.98138359  0.00087993  0.69673910  1
  O  O63  1  0.51861641  0.00087993  0.80326090  1
  O  O64  1  0.98138359  0.50087993  0.80326090  1
  O  O65  1  0.51861641  0.50087993  0.69673910  1
  O  O66  1  0.01861641  -0.00087993  0.30326090  1
  O  O67  1  0.48138359  -0.00087993  0.19673910  1
  O  O68  1  0.04115230  0.69833958  0.19104974  1
  O  O69  1  0.45884770  0.69833958  0.30895026  1
  O  O70  1  0.95884770  0.80166042  0.69104974  1
  O  O71  1  0.54115230  0.80166042  0.80895026  1
  O  O72  1  0.95884770  0.30166042  0.80895026  1
  O  O73  1  0.54115230  0.30166042  0.69104974  1
  O  O74  1  0.04115230  0.19833958  0.30895026  1
  O  O75  1  0.45884770  0.19833958  0.19104974  1
  O  O76  1  0.49419205  0.90834661  0.38125341  1
  O  O77  1  0.00580795  0.90834661  0.11874659  1
  O  O78  1  0.50580795  0.59165339  0.88125341  1
  O  O79  1  0.99419205  0.59165339  0.61874659  1
  O  O80  1  0.50580795  0.09165339  0.61874659  1
  O  O81  1  0.99419205  0.09165339  0.88125341  1
  O  O82  1  0.49419205  0.40834661  0.11874659  1
  O  O83  1  0.00580795  0.40834661  0.38125341  1
  O  O84  1  -0.00647206  0.79454842  0.37334083  1
  O  O85  1  0.50647206  0.79454842  0.12665917  1
  O  O86  1  0.00647206  0.70545158  0.87334083  1
  O  O87  1  0.49352794  0.70545158  0.62665917  1
  O  O88  1  0.00647206  0.20545158  0.62665917  1
  O  O89  1  0.49352794  0.20545158  0.87334083  1
  O  O90  1  -0.00647206  0.29454842  0.12665917  1
  O  O91  1  0.50647206  0.29454842  0.37334083  1
