# generated using pymatgen
data_Dy2Ge6Pd
_symmetry_space_group_name_H-M   'P 1'
_cell_length_a   4.07987725
_cell_length_b   4.10163834
_cell_length_c   11.13438756
_cell_angle_alpha   90.00000000
_cell_angle_beta   100.55682667
_cell_angle_gamma   90.00000000
_symmetry_Int_Tables_number   1
_chemical_formula_structural   Dy2Ge6Pd
_chemical_formula_sum   'Dy2 Ge6 Pd1'
_cell_volume   183.17106218
_cell_formula_units_Z   1
loop_
 _symmetry_equiv_pos_site_id
 _symmetry_equiv_pos_as_xyz
  1  'x, y, z'
loop_
 _atom_site_type_symbol
 _atom_site_label
 _atom_site_symmetry_multiplicity
 _atom_site_fract_x
 _atom_site_fract_y
 _atom_site_fract_z
 _atom_site_occupancy
  Dy  Dy0  1  0.77894006  0.50000000  0.55788012  1
  Dy  Dy1  1  0.11594540  0.50000000  0.23189080  1
  Ge  Ge2  1  0.49353290  0.50000000  0.98706580  1
  Ge  Ge3  1  0.37955199  0.50000000  0.75910399  1
  Ge  Ge4  1  0.99266567  -0.00000000  0.98533134  1
  Ge  Ge5  1  0.87853589  -0.00000000  0.75707178  1
  Ge  Ge6  1  0.66946589  -0.00000000  0.33893177  1
  Ge  Ge7  1  0.23935620  -0.00000000  0.47871240  1
  Pd  Pd8  1  0.55900601  0.00000000  0.11801202  1
