# generated using pymatgen
data_RbYbZnTe3
_symmetry_space_group_name_H-M   'P 1'
_cell_length_a   4.27302851
_cell_length_b   8.80915097
_cell_length_c   11.75148190
_cell_angle_alpha   90.00000000
_cell_angle_beta   90.00000000
_cell_angle_gamma   104.03611471
_symmetry_Int_Tables_number   1
_chemical_formula_structural   RbYbZnTe3
_chemical_formula_sum   'Rb2 Yb2 Zn2 Te6'
_cell_volume   429.13926586
_cell_formula_units_Z   2
loop_
 _symmetry_equiv_pos_site_id
 _symmetry_equiv_pos_as_xyz
  1  'x, y, z'
loop_
 _atom_site_type_symbol
 _atom_site_label
 _atom_site_symmetry_multiplicity
 _atom_site_fract_x
 _atom_site_fract_y
 _atom_site_fract_z
 _atom_site_occupancy
  Rb  Rb0  1  0.74547036  0.49094073  0.25000000  1
  Rb  Rb1  1  0.25452964  0.50905927  0.75000000  1
  Yb  Yb2  1  -0.00000000  -0.00000000  -0.00000000  1
  Yb  Yb3  1  -0.00000000  -0.00000000  0.50000000  1
  Zn  Zn4  1  0.46229685  0.92459371  0.25000000  1
  Zn  Zn5  1  0.53770315  0.07540629  0.75000000  1
  Te  Te6  1  0.37309499  0.74618998  0.06377907  1
  Te  Te7  1  0.62690501  0.25381002  0.93622093  1
  Te  Te8  1  0.62690501  0.25381002  0.56377907  1
  Te  Te9  1  0.37309499  0.74618998  0.43622093  1
  Te  Te10  1  0.06214064  0.12428128  0.25000000  1
  Te  Te11  1  0.93785936  0.87571872  0.75000000  1
