# generated using pymatgen
data_Ho(BO2)6
_symmetry_space_group_name_H-M   'P 1'
_cell_length_a   8.48753614
_cell_length_b   8.48753614
_cell_length_c   8.49919620
_cell_angle_alpha   60.04536752
_cell_angle_beta   60.04536752
_cell_angle_gamma   59.99999451
_symmetry_Int_Tables_number   1
_chemical_formula_structural   Ho(BO2)6
_chemical_formula_sum   'Ho2 B12 O24'
_cell_volume   433.23504593
_cell_formula_units_Z   2
loop_
 _symmetry_equiv_pos_site_id
 _symmetry_equiv_pos_as_xyz
  1  'x, y, z'
loop_
 _atom_site_type_symbol
 _atom_site_label
 _atom_site_symmetry_multiplicity
 _atom_site_fract_x
 _atom_site_fract_y
 _atom_site_fract_z
 _atom_site_occupancy
  Ho  Ho0  1  0.50006292  0.50006292  0.49981125  1
  Ho  Ho1  1  0.00006292  0.00006292  0.99981125  1
  B  B2  1  0.91139316  0.21387632  0.24667887  1
  B  B3  1  0.21387632  0.62805165  0.24667887  1
  B  B4  1  0.62805165  0.91139316  0.24667887  1
  B  B5  1  0.41139316  0.12805165  0.74667887  1
  B  B6  1  0.12805165  0.71387632  0.74667887  1
  B  B7  1  0.71387632  0.41139316  0.74667887  1
  B  B8  1  0.60613994  0.11615840  0.89347725  1
  B  B9  1  0.11615840  0.38422440  0.89347725  1
  B  B10  1  0.38422440  0.60613994  0.89347725  1
  B  B11  1  0.10613994  0.88422440  0.39347725  1
  B  B12  1  0.88422440  0.61615840  0.39347725  1
  B  B13  1  0.61615840  0.10613994  0.39347725  1
  O  O14  1  0.50818482  0.81034694  0.28902136  1
  O  O15  1  0.81034694  0.39244688  0.28902136  1
  O  O16  1  0.39244688  0.50818482  0.28902136  1
  O  O17  1  0.00818482  0.89244688  0.78902136  1
  O  O18  1  0.89244688  0.31034694  0.78902136  1
  O  O19  1  0.31034694  0.00818482  0.78902136  1
  O  O20  1  0.04643155  0.23857106  0.04418167  1
  O  O21  1  0.23857106  0.67081573  0.04418167  1
  O  O22  1  0.67081573  0.04643155  0.04418167  1
  O  O23  1  0.54643155  0.17081573  0.54418167  1
  O  O24  1  0.17081573  0.73857106  0.54418167  1
  O  O25  1  0.73857106  0.54643155  0.54418167  1
  O  O26  1  0.28124290  0.33153005  0.74478308  1
  O  O27  1  0.33153005  0.64244397  0.74478308  1
  O  O28  1  0.64244397  0.28124290  0.74478308  1
  O  O29  1  0.78124290  0.14244397  0.24478308  1
  O  O30  1  0.14244397  0.83153005  0.24478308  1
  O  O31  1  0.83153005  0.78124290  0.24478308  1
  O  O32  1  0.00811012  0.07121991  0.38632069  1
  O  O33  1  0.07121991  0.53434928  0.38632069  1
  O  O34  1  0.53434928  0.00811012  0.38632069  1
  O  O35  1  0.50811012  0.03434928  0.88632069  1
  O  O36  1  0.03434928  0.57121991  0.88632069  1
  O  O37  1  0.57121991  0.50811012  0.88632069  1
