# generated using pymatgen
data_Zr6Fe(SnH5)2
_symmetry_space_group_name_H-M   'P 1'
_cell_length_a   7.33984975
_cell_length_b   8.19053557
_cell_length_c   8.19053557
_cell_angle_alpha   120.00000123
_cell_angle_beta   90.00000000
_cell_angle_gamma   90.00000000
_symmetry_Int_Tables_number   1
_chemical_formula_structural   Zr6Fe(SnH5)2
_chemical_formula_sum   'Zr12 Fe2 Sn4 H20'
_cell_volume   426.42474438
_cell_formula_units_Z   2
loop_
 _symmetry_equiv_pos_site_id
 _symmetry_equiv_pos_as_xyz
  1  'x, y, z'
loop_
 _atom_site_type_symbol
 _atom_site_label
 _atom_site_symmetry_multiplicity
 _atom_site_fract_x
 _atom_site_fract_y
 _atom_site_fract_z
 _atom_site_occupancy
  Zr  Zr0  1  -0.00000000  0.25423620  0.25423620  1
  Zr  Zr1  1  -0.00000000  1.00000000  0.74576380  1
  Zr  Zr2  1  0.50000000  0.25423620  0.25423620  1
  Zr  Zr3  1  -0.00000000  0.74576380  1.00000000  1
  Zr  Zr4  1  0.50000000  1.00000000  0.74576380  1
  Zr  Zr5  1  0.50000000  0.74576380  1.00000000  1
  Zr  Zr6  1  0.75000000  0.57898658  0.62562249  1
  Zr  Zr7  1  0.75000000  0.04663592  0.42101342  1
  Zr  Zr8  1  0.25000000  0.95336408  0.37437751  1
  Zr  Zr9  1  0.75000000  0.37437751  0.95336408  1
  Zr  Zr10  1  0.25000000  0.62562249  0.57898658  1
  Zr  Zr11  1  0.25000000  0.42101342  0.04663592  1
  Fe  Fe12  1  0.75000000  0.00000000  0.00000000  1
  Fe  Fe13  1  0.25000000  0.00000000  0.00000000  1
  Sn  Sn14  1  0.95707213  0.66666700  0.33333300  1
  Sn  Sn15  1  0.54292787  0.66666700  0.33333300  1
  Sn  Sn16  1  0.04292787  0.33333300  0.66666700  1
  Sn  Sn17  1  0.45707213  0.33333300  0.66666700  1
  H  H18  1  -0.00000000  0.72084665  0.72084665  1
  H  H19  1  -0.00000000  0.00000000  0.27915335  1
  H  H20  1  0.50000000  0.72084665  0.72084665  1
  H  H21  1  -0.00000000  0.27915335  0.00000000  1
  H  H22  1  0.50000000  0.00000000  0.27915335  1
  H  H23  1  0.50000000  0.27915335  0.00000000  1
  H  H24  1  0.75000000  0.59652298  0.88810722  1
  H  H25  1  0.75000000  0.29158424  0.40347702  1
  H  H26  1  0.25000000  0.70841576  0.11189278  1
  H  H27  1  0.75000000  0.11189278  0.70841576  1
  H  H28  1  0.25000000  0.88810722  0.59652298  1
  H  H29  1  0.25000000  0.40347702  0.29158424  1
  H  H30  1  0.75000000  0.88162823  0.11865888  1
  H  H31  1  0.75000000  0.23703064  0.11837177  1
  H  H32  1  0.25000000  0.76296936  0.88134112  1
  H  H33  1  0.75000000  0.88134112  0.76296936  1
  H  H34  1  0.25000000  0.11865888  0.88162823  1
  H  H35  1  0.25000000  0.11837177  0.23703064  1
  H  H36  1  -0.00000000  0.00000000  0.00000000  1
  H  H37  1  0.50000000  0.00000000  0.00000000  1
