# generated using pymatgen
data_ReH2NCl4O
_symmetry_space_group_name_H-M   'P 1'
_cell_length_a   5.90537881
_cell_length_b   11.69396299
_cell_length_c   11.90909636
_cell_angle_alpha   90.00000000
_cell_angle_beta   90.00000000
_cell_angle_gamma   90.00000000
_symmetry_Int_Tables_number   1
_chemical_formula_structural   ReH2NCl4O
_chemical_formula_sum   'Re4 H8 N4 Cl16 O4'
_cell_volume   822.40981672
_cell_formula_units_Z   4
loop_
 _symmetry_equiv_pos_site_id
 _symmetry_equiv_pos_as_xyz
  1  'x, y, z'
loop_
 _atom_site_type_symbol
 _atom_site_label
 _atom_site_symmetry_multiplicity
 _atom_site_fract_x
 _atom_site_fract_y
 _atom_site_fract_z
 _atom_site_occupancy
  Re  Re0  1  0.39326199  0.35122716  0.75000000  1
  Re  Re1  1  0.10673801  0.85122716  0.75000000  1
  Re  Re2  1  0.60673801  0.64877284  0.25000000  1
  Re  Re3  1  0.89326199  0.14877284  0.25000000  1
  H  H4  1  0.78439662  0.49388355  0.68482229  1
  H  H5  1  0.71560338  0.99388355  0.81517771  1
  H  H6  1  0.21560338  0.50611645  0.18482229  1
  H  H7  1  0.28439662  0.00611645  0.31517771  1
  H  H8  1  0.21560338  0.50611645  0.31517771  1
  H  H9  1  0.28439662  0.00611645  0.18482229  1
  H  H10  1  0.78439662  0.49388355  0.81517771  1
  H  H11  1  0.71560338  0.99388355  0.68482229  1
  N  N12  1  0.19426268  0.24901020  0.75000000  1
  N  N13  1  0.30573732  0.74901020  0.75000000  1
  N  N14  1  0.80573732  0.75098980  0.25000000  1
  N  N15  1  0.69426268  0.25098980  0.25000000  1
  Cl  Cl16  1  0.63012338  0.27681086  0.61358786  1
  Cl  Cl17  1  0.86987662  0.77681086  0.88641214  1
  Cl  Cl18  1  0.36987662  0.72318914  0.11358786  1
  Cl  Cl19  1  0.13012338  0.22318914  0.38641214  1
  Cl  Cl20  1  0.36987662  0.72318914  0.38641214  1
  Cl  Cl21  1  0.13012338  0.22318914  0.11358786  1
  Cl  Cl22  1  0.63012338  0.27681086  0.88641214  1
  Cl  Cl23  1  0.86987662  0.77681086  0.61358786  1
  Cl  Cl24  1  0.23779303  0.47176151  0.61429160  1
  Cl  Cl25  1  0.26220697  0.97176151  0.88570840  1
  Cl  Cl26  1  0.76220697  0.52823849  0.11429160  1
  Cl  Cl27  1  0.73779303  0.02823849  0.38570840  1
  Cl  Cl28  1  0.76220697  0.52823849  0.38570840  1
  Cl  Cl29  1  0.73779303  0.02823849  0.11429160  1
  Cl  Cl30  1  0.23779303  0.47176151  0.88570840  1
  Cl  Cl31  1  0.26220697  0.97176151  0.61429160  1
  O  O32  1  0.68557732  0.50309199  0.75000000  1
  O  O33  1  0.81442268  0.00309199  0.75000000  1
  O  O34  1  0.31442268  0.49690801  0.25000000  1
  O  O35  1  0.18557732  0.99690801  0.25000000  1
