# generated using pymatgen
data_Na3Be3B3P6O25
_symmetry_space_group_name_H-M   'P 1'
_cell_length_a   12.56049701
_cell_length_b   12.56049701
_cell_length_c   12.56049701
_cell_angle_alpha   90.00000000
_cell_angle_beta   90.00000000
_cell_angle_gamma   90.00000000
_symmetry_Int_Tables_number   1
_chemical_formula_structural   Na3Be3B3P6O25
_chemical_formula_sum   'Na12 Be12 B12 P24 O100'
_cell_volume   1981.62044066
_cell_formula_units_Z   4
loop_
 _symmetry_equiv_pos_site_id
 _symmetry_equiv_pos_as_xyz
  1  'x, y, z'
loop_
 _atom_site_type_symbol
 _atom_site_label
 _atom_site_symmetry_multiplicity
 _atom_site_fract_x
 _atom_site_fract_y
 _atom_site_fract_z
 _atom_site_occupancy
  Na  Na0  1  0.37525948  0.37525948  0.37525948  1
  Na  Na1  1  0.12474052  0.62474052  0.87525948  1
  Na  Na2  1  0.62474052  0.87525948  0.12474052  1
  Na  Na3  1  0.87525948  0.12474052  0.62474052  1
  Na  Na4  1  0.65846342  0.65846342  0.65846342  1
  Na  Na5  1  0.84153658  0.34153658  0.15846342  1
  Na  Na6  1  0.34153658  0.15846342  0.84153658  1
  Na  Na7  1  0.15846342  0.84153658  0.34153658  1
  Na  Na8  1  0.09223752  0.09223752  0.09223752  1
  Na  Na9  1  0.40776248  0.90776248  0.59223752  1
  Na  Na10  1  0.90776248  0.59223752  0.40776248  1
  Na  Na11  1  0.59223752  0.40776248  0.90776248  1
  Be  Be12  1  0.18435415  0.56578107  0.37447966  1
  Be  Be13  1  0.31564585  0.43421893  0.87447966  1
  Be  Be14  1  0.81564585  0.06578107  0.12552034  1
  Be  Be15  1  0.37447966  0.18435415  0.56578107  1
  Be  Be16  1  0.68435415  0.93421893  0.62552034  1
  Be  Be17  1  0.87447966  0.31564585  0.43421893  1
  Be  Be18  1  0.12552034  0.81564585  0.06578107  1
  Be  Be19  1  0.62552034  0.68435415  0.93421893  1
  Be  Be20  1  0.56578107  0.37447966  0.18435415  1
  Be  Be21  1  0.06578107  0.12552034  0.81564585  1
  Be  Be22  1  0.93421893  0.62552034  0.68435415  1
  Be  Be23  1  0.43421893  0.87447966  0.31564585  1
  B  B24  1  0.12493667  0.13686281  0.38656649  1
  B  B25  1  0.37506333  0.86313719  0.88656649  1
  B  B26  1  0.87506333  0.63686281  0.11343351  1
  B  B27  1  0.38656649  0.12493667  0.13686281  1
  B  B28  1  0.62493667  0.36313719  0.61343351  1
  B  B29  1  0.88656649  0.37506333  0.86313719  1
  B  B30  1  0.11343351  0.87506333  0.63686281  1
  B  B31  1  0.61343351  0.62493667  0.36313719  1
  B  B32  1  0.13686281  0.38656649  0.12493667  1
  B  B33  1  0.63686281  0.11343351  0.87506333  1
  B  B34  1  0.36313719  0.61343351  0.62493667  1
  B  B35  1  0.86313719  0.88656649  0.37506333  1
  P  P36  1  0.08899381  0.35574550  0.33792463  1
  P  P37  1  0.41100619  0.64425450  0.83792463  1
  P  P38  1  0.91100619  0.85574550  0.16207537  1
  P  P39  1  0.33792463  0.08899381  0.35574550  1
  P  P40  1  0.58899381  0.14425450  0.66207537  1
  P  P41  1  0.83792463  0.41100619  0.64425450  1
  P  P42  1  0.16207537  0.91100619  0.85574550  1
  P  P43  1  0.66207537  0.58899381  0.14425450  1
  P  P44  1  0.35574550  0.33792463  0.08899381  1
  P  P45  1  0.85574550  0.16207537  0.91100619  1
  P  P46  1  0.14425450  0.66207537  0.58899381  1
  P  P47  1  0.64425450  0.83792463  0.41100619  1
  P  P48  1  0.08812176  0.60597410  0.16031381  1
  P  P49  1  0.41187824  0.39402590  0.66031381  1
  P  P50  1  0.91187824  0.10597410  0.33968619  1
  P  P51  1  0.16031381  0.08812176  0.60597410  1
  P  P52  1  0.58812176  0.89402590  0.83968619  1
  P  P53  1  0.66031381  0.41187824  0.39402590  1
  P  P54  1  0.33968619  0.91187824  0.10597410  1
  P  P55  1  0.83968619  0.58812176  0.89402590  1
  P  P56  1  0.60597410  0.16031381  0.08812176  1
  P  P57  1  0.10597410  0.33968619  0.91187824  1
  P  P58  1  0.89402590  0.83968619  0.58812176  1
  P  P59  1  0.39402590  0.66031381  0.41187824  1
  O  O60  1  0.07798872  0.11529637  0.68945926  1
  O  O61  1  0.42201128  0.88470363  0.18945926  1
  O  O62  1  0.92201128  0.61529637  0.81054074  1
  O  O63  1  0.68945926  0.07798872  0.11529637  1
  O  O64  1  0.57798872  0.38470363  0.31054074  1
  O  O65  1  0.18945926  0.42201128  0.88470363  1
  O  O66  1  0.81054074  0.92201128  0.61529637  1
  O  O67  1  0.31054074  0.57798872  0.38470363  1
  O  O68  1  0.11529637  0.68945926  0.07798872  1
  O  O69  1  0.61529637  0.81054074  0.92201128  1
  O  O70  1  0.38470363  0.31054074  0.57798872  1
  O  O71  1  0.88470363  0.18945926  0.42201128  1
  O  O72  1  0.13726629  0.62789500  0.26960180  1
  O  O73  1  0.36273371  0.37210500  0.76960180  1
  O  O74  1  0.86273371  0.12789500  0.23039820  1
  O  O75  1  0.26960180  0.13726629  0.62789500  1
  O  O76  1  0.63726629  0.87210500  0.73039820  1
  O  O77  1  0.76960180  0.36273371  0.37210500  1
  O  O78  1  0.23039820  0.86273371  0.12789500  1
  O  O79  1  0.73039820  0.63726629  0.87210500  1
  O  O80  1  0.62789500  0.26960180  0.13726629  1
  O  O81  1  0.12789500  0.23039820  0.86273371  1
  O  O82  1  0.87210500  0.73039820  0.63726629  1
  O  O83  1  0.37210500  0.76960180  0.36273371  1
  O  O84  1  0.17072828  0.44000744  0.36487311  1
  O  O85  1  0.32927172  0.55999256  0.86487311  1
  O  O86  1  0.82927172  0.94000744  0.13512689  1
  O  O87  1  0.36487311  0.17072828  0.44000744  1
  O  O88  1  0.67072828  0.05999256  0.63512689  1
  O  O89  1  0.86487311  0.32927172  0.55999256  1
  O  O90  1  0.13512689  0.82927172  0.94000744  1
  O  O91  1  0.63512689  0.67072828  0.05999256  1
  O  O92  1  0.44000744  0.36487311  0.17072828  1
  O  O93  1  0.94000744  0.13512689  0.82927172  1
  O  O94  1  0.05999256  0.63512689  0.67072828  1
  O  O95  1  0.55999256  0.86487311  0.32927172  1
  O  O96  1  0.03584886  0.10084752  0.31839781  1
  O  O97  1  0.46415114  0.89915248  0.81839781  1
  O  O98  1  0.96415114  0.60084752  0.18160219  1
  O  O99  1  0.31839781  0.03584886  0.10084752  1
  O  O100  1  0.53584886  0.39915248  0.68160219  1
  O  O101  1  0.81839781  0.46415114  0.89915248  1
  O  O102  1  0.18160219  0.96415114  0.60084752  1
  O  O103  1  0.68160219  0.53584886  0.39915248  1
  O  O104  1  0.10084752  0.31839781  0.03584886  1
  O  O105  1  0.60084752  0.18160219  0.96415114  1
  O  O106  1  0.39915248  0.68160219  0.53584886  1
  O  O107  1  0.89915248  0.81839781  0.46415114  1
  O  O108  1  0.14495703  0.25040451  0.37094173  1
  O  O109  1  0.35504297  0.74959549  0.87094173  1
  O  O110  1  0.85504297  0.75040451  0.12905827  1
  O  O111  1  0.37094173  0.14495703  0.25040451  1
  O  O112  1  0.64495703  0.24959549  0.62905827  1
  O  O113  1  0.87094173  0.35504297  0.74959549  1
  O  O114  1  0.12905827  0.85504297  0.75040451  1
  O  O115  1  0.62905827  0.64495703  0.24959549  1
  O  O116  1  0.25040451  0.37094173  0.14495703  1
  O  O117  1  0.75040451  0.12905827  0.85504297  1
  O  O118  1  0.24959549  0.62905827  0.64495703  1
  O  O119  1  0.74959549  0.87094173  0.35504297  1
  O  O120  1  0.87389923  0.87389923  0.87389923  1
  O  O121  1  0.62610077  0.12610077  0.37389923  1
  O  O122  1  0.12610077  0.37389923  0.62610077  1
  O  O123  1  0.37389923  0.62610077  0.12610077  1
  O  O124  1  0.12254635  0.61416473  0.47921825  1
  O  O125  1  0.37745365  0.38583527  0.97921825  1
  O  O126  1  0.87745365  0.11416473  0.02078175  1
  O  O127  1  0.47921825  0.12254635  0.61416473  1
  O  O128  1  0.62254635  0.88583527  0.52078175  1
  O  O129  1  0.97921825  0.37745365  0.38583527  1
  O  O130  1  0.02078175  0.87745365  0.11416473  1
  O  O131  1  0.52078175  0.62254635  0.88583527  1
  O  O132  1  0.61416473  0.47921825  0.12254635  1
  O  O133  1  0.11416473  0.02078175  0.87745365  1
  O  O134  1  0.88583527  0.52078175  0.62254635  1
  O  O135  1  0.38583527  0.97921825  0.37745365  1
  O  O136  1  0.06901241  0.34936523  0.21383010  1
  O  O137  1  0.43098759  0.65063477  0.71383010  1
  O  O138  1  0.93098759  0.84936523  0.28616990  1
  O  O139  1  0.21383010  0.06901241  0.34936523  1
  O  O140  1  0.56901241  0.15063477  0.78616990  1
  O  O141  1  0.71383010  0.43098759  0.65063477  1
  O  O142  1  0.28616990  0.93098759  0.84936523  1
  O  O143  1  0.78616990  0.56901241  0.15063477  1
  O  O144  1  0.34936523  0.21383010  0.06901241  1
  O  O145  1  0.84936523  0.28616990  0.93098759  1
  O  O146  1  0.15063477  0.78616990  0.56901241  1
  O  O147  1  0.65063477  0.71383010  0.43098759  1
  O  O148  1  0.10477688  0.11949131  0.49993218  1
  O  O149  1  0.39522312  0.88050869  -0.00006782  1
  O  O150  1  0.89522312  0.61949131  0.00006782  1
  O  O151  1  0.49993218  0.10477688  0.11949131  1
  O  O152  1  0.60477688  0.38050869  0.50006782  1
  O  O153  1  -0.00006782  0.39522312  0.88050869  1
  O  O154  1  0.00006782  0.89522312  0.61949131  1
  O  O155  1  0.50006782  0.60477688  0.38050869  1
  O  O156  1  0.11949131  0.49993218  0.10477688  1
  O  O157  1  0.61949131  0.00006782  0.89522312  1
  O  O158  1  0.38050869  0.50006782  0.60477688  1
  O  O159  1  0.88050869  -0.00006782  0.39522312  1
