# generated using pymatgen
data_RbHgC3(NO)3
_symmetry_space_group_name_H-M   'P 1'
_cell_length_a   4.19828284
_cell_length_b   10.74154862
_cell_length_c   18.40606948
_cell_angle_alpha   90.00000000
_cell_angle_beta   90.00000000
_cell_angle_gamma   90.00000000
_symmetry_Int_Tables_number   1
_chemical_formula_structural   RbHgC3(NO)3
_chemical_formula_sum   'Rb4 Hg4 C12 N12 O12'
_cell_volume   830.04119976
_cell_formula_units_Z   4
loop_
 _symmetry_equiv_pos_site_id
 _symmetry_equiv_pos_as_xyz
  1  'x, y, z'
loop_
 _atom_site_type_symbol
 _atom_site_label
 _atom_site_symmetry_multiplicity
 _atom_site_fract_x
 _atom_site_fract_y
 _atom_site_fract_z
 _atom_site_occupancy
  Rb  Rb0  1  0.75000000  0.92971136  0.15773005  1
  Rb  Rb1  1  0.25000000  0.07028864  0.84226995  1
  Rb  Rb2  1  0.25000000  0.57028864  0.65773005  1
  Rb  Rb3  1  0.75000000  0.42971136  0.34226995  1
  Hg  Hg4  1  0.75000000  0.85131223  0.53972534  1
  Hg  Hg5  1  0.25000000  0.14868777  0.46027466  1
  Hg  Hg6  1  0.25000000  0.64868777  0.03972534  1
  Hg  Hg7  1  0.75000000  0.35131223  0.96027466  1
  C  C8  1  0.75000000  0.85724239  0.70547308  1
  C  C9  1  0.25000000  0.14275761  0.29452692  1
  C  C10  1  0.25000000  0.64275761  0.20547308  1
  C  C11  1  0.75000000  0.35724239  0.79452692  1
  C  C12  1  0.75000000  0.86305575  0.97124297  1
  C  C13  1  0.25000000  0.13694425  0.02875703  1
  C  C14  1  0.25000000  0.63694425  0.47124297  1
  C  C15  1  0.75000000  0.36305575  0.52875703  1
  C  C16  1  0.75000000  0.89987617  0.37858969  1
  C  C17  1  0.25000000  0.10012383  0.62141031  1
  C  C18  1  0.25000000  0.60012383  0.87858969  1
  C  C19  1  0.75000000  0.39987617  0.12141031  1
  N  N20  1  0.75000000  0.94831304  0.43809682  1
  N  N21  1  0.25000000  0.05168696  0.56190318  1
  N  N22  1  0.25000000  0.55168696  0.93809682  1
  N  N23  1  0.75000000  0.44831304  0.06190318  1
  N  N24  1  0.75000000  0.27292887  0.48971644  1
  N  N25  1  0.25000000  0.72707113  0.51028356  1
  N  N26  1  0.25000000  0.22707113  0.98971644  1
  N  N27  1  0.75000000  0.77292887  0.01028356  1
  N  N28  1  0.75000000  0.79302124  0.65146127  1
  N  N29  1  0.25000000  0.20697876  0.34853873  1
  N  N30  1  0.25000000  0.70697876  0.15146127  1
  N  N31  1  0.75000000  0.29302124  0.84853873  1
  O  O32  1  0.75000000  0.95495851  0.93290694  1
  O  O33  1  0.25000000  0.04504149  0.06709306  1
  O  O34  1  0.25000000  0.54504149  0.43290694  1
  O  O35  1  0.75000000  0.45495851  0.56709306  1
  O  O36  1  0.75000000  0.86026223  0.31762168  1
  O  O37  1  0.25000000  0.13973777  0.68237832  1
  O  O38  1  0.25000000  0.63973777  0.81762168  1
  O  O39  1  0.75000000  0.36026223  0.18237832  1
  O  O40  1  0.75000000  0.91367097  0.76188702  1
  O  O41  1  0.25000000  0.08632903  0.23811298  1
  O  O42  1  0.25000000  0.58632903  0.26188702  1
  O  O43  1  0.75000000  0.41367097  0.73811298  1
