# generated using pymatgen
data_Na3Ca4TiSi4(O8F)2
_symmetry_space_group_name_H-M   'P 1'
_cell_length_a   5.68992915
_cell_length_b   7.45843373
_cell_length_c   18.81919690
_cell_angle_alpha   90.02207643
_cell_angle_beta   90.00000000
_cell_angle_gamma   90.00000000
_symmetry_Int_Tables_number   1
_chemical_formula_structural   Na3Ca4TiSi4(O8F)2
_chemical_formula_sum   'Na6 Ca8 Ti2 Si8 O32 F4'
_cell_volume   798.64825626
_cell_formula_units_Z   2
loop_
 _symmetry_equiv_pos_site_id
 _symmetry_equiv_pos_as_xyz
  1  'x, y, z'
loop_
 _atom_site_type_symbol
 _atom_site_label
 _atom_site_symmetry_multiplicity
 _atom_site_fract_x
 _atom_site_fract_y
 _atom_site_fract_z
 _atom_site_occupancy
  Na  Na0  1  0.84884507  0.62310243  0.75070202  1
  Na  Na1  1  0.34884507  0.37689757  0.24929798  1
  Na  Na2  1  0.34759980  0.85876018  0.75404386  1
  Na  Na3  1  0.84759980  0.14123982  0.24595614  1
  Na  Na4  1  0.84070744  0.61230032  0.24708792  1
  Na  Na5  1  0.34070744  0.38769968  0.75291208  1
  Ca  Ca6  1  0.68290703  0.87702641  0.44782027  1
  Ca  Ca7  1  0.18290703  0.12297359  0.55217973  1
  Ca  Ca8  1  0.50044928  0.62791399  0.93827211  1
  Ca  Ca9  1  0.00044928  0.37208601  0.06172789  1
  Ca  Ca10  1  0.69919475  0.37391280  0.43445062  1
  Ca  Ca11  1  0.19919475  0.62608720  0.56554938  1
  Ca  Ca12  1  0.00048235  0.87607666  0.06000050  1
  Ca  Ca13  1  0.50048235  0.12392334  0.93999950  1
  Ti  Ti14  1  0.81086224  0.12310257  0.76351410  1
  Ti  Ti15  1  0.31086224  0.87689743  0.23648590  1
  Si  Si16  1  0.99515993  0.40870666  0.89142197  1
  Si  Si17  1  0.49515993  0.59129334  0.10857803  1
  Si  Si18  1  0.69984255  0.84046297  0.61222357  1
  Si  Si19  1  0.19984255  0.15953703  0.38777643  1
  Si  Si20  1  0.70220179  0.40770243  0.60866601  1
  Si  Si21  1  0.20220179  0.59229757  0.39133399  1
  Si  Si22  1  0.99582336  0.84076561  0.88963854  1
  Si  Si23  1  0.49582336  0.15923439  0.11036146  1
  O  O24  1  0.98819952  0.93578447  0.81118355  1
  O  O25  1  0.48819952  0.06421553  0.18881645  1
  O  O26  1  0.23907613  0.88180563  0.93204253  1
  O  O27  1  0.73907613  0.11819437  0.06795747  1
  O  O28  1  0.23754746  0.36910573  0.93461148  1
  O  O29  1  0.73754746  0.63089427  0.06538852  1
  O  O30  1  0.98545243  0.31018239  0.81372371  1
  O  O31  1  0.48545243  0.68981761  0.18627629  1
  O  O32  1  0.57746712  0.86052566  0.32046891  1
  O  O33  1  0.07746712  0.13947434  0.67953109  1
  O  O34  1  0.72221296  0.93703912  0.69046155  1
  O  O35  1  0.22221296  0.06296088  0.30953845  1
  O  O36  1  0.99259798  0.62416444  0.86971968  1
  O  O37  1  0.49259798  0.37583556  0.13028032  1
  O  O38  1  0.74275991  0.30877222  0.68671030  1
  O  O39  1  0.24275991  0.69122778  0.31328970  1
  O  O40  1  0.94623369  0.64105821  0.42420700  1
  O  O41  1  0.44623369  0.35894179  0.57579300  1
  O  O42  1  0.54523459  0.12793431  0.80924022  1
  O  O43  1  0.04523459  0.87206569  0.19075978  1
  O  O44  1  0.76988133  0.37016365  0.94272454  1
  O  O45  1  0.26988133  0.62983635  0.05727546  1
  O  O46  1  0.45341552  0.88594753  0.57202131  1
  O  O47  1  0.95341552  0.11405247  0.42797869  1
  O  O48  1  0.91375314  0.37753622  0.55181835  1
  O  O49  1  0.41375314  0.62246378  0.44818165  1
  O  O50  1  0.91985501  0.87524782  0.55890002  1
  O  O51  1  0.41985501  0.12475218  0.44109998  1
  O  O52  1  0.69712180  0.62274241  0.63228041  1
  O  O53  1  0.19712180  0.37725759  0.36771959  1
  O  O54  1  0.77062190  0.88173217  0.94022634  1
  O  O55  1  0.27062190  0.11826783  0.05977366  1
  F  F56  1  0.18902216  0.62606922  0.68618437  1
  F  F57  1  0.68902216  0.37393078  0.31381563  1
  F  F58  1  0.50647177  0.62148380  0.81645923  1
  F  F59  1  0.00647177  0.37851620  0.18354077  1
