# generated using pymatgen
data_KVPO6
_symmetry_space_group_name_H-M   'P 1'
_cell_length_a   6.78008471
_cell_length_b   9.43938095
_cell_length_c   17.73080373
_cell_angle_alpha   90.00000000
_cell_angle_beta   90.00000000
_cell_angle_gamma   90.00000000
_symmetry_Int_Tables_number   1
_chemical_formula_structural   KVPO6
_chemical_formula_sum   'K8 V8 P8 O48'
_cell_volume   1134.76793602
_cell_formula_units_Z   8
loop_
 _symmetry_equiv_pos_site_id
 _symmetry_equiv_pos_as_xyz
  1  'x, y, z'
loop_
 _atom_site_type_symbol
 _atom_site_label
 _atom_site_symmetry_multiplicity
 _atom_site_fract_x
 _atom_site_fract_y
 _atom_site_fract_z
 _atom_site_occupancy
  K  K0  1  0.22326344  0.31075742  0.40001408  1
  K  K1  1  0.77673656  0.68924258  0.59998592  1
  K  K2  1  0.27673656  0.68924258  0.90001408  1
  K  K3  1  0.77673656  0.81075742  0.09998592  1
  K  K4  1  0.72326344  0.31075742  0.09998592  1
  K  K5  1  0.22326344  0.18924258  0.90001408  1
  K  K6  1  0.72326344  0.18924258  0.59998592  1
  K  K7  1  0.27673656  0.81075742  0.40001408  1
  V  V8  1  0.47636553  0.05127772  0.24082765  1
  V  V9  1  0.52363447  0.94872228  0.75917235  1
  V  V10  1  0.02363447  0.94872228  0.74082765  1
  V  V11  1  0.52363447  0.55127772  0.25917235  1
  V  V12  1  0.97636553  0.05127772  0.25917235  1
  V  V13  1  0.47636553  0.44872228  0.74082765  1
  V  V14  1  0.97636553  0.44872228  0.75917235  1
  V  V15  1  0.02363447  0.55127772  0.24082765  1
  P  P16  1  0.19522428  0.10761370  0.09764984  1
  P  P17  1  0.80477572  0.89238630  0.90235016  1
  P  P18  1  0.30477572  0.89238630  0.59764984  1
  P  P19  1  0.80477572  0.60761370  0.40235016  1
  P  P20  1  0.69522428  0.10761370  0.40235016  1
  P  P21  1  0.19522428  0.39238630  0.59764984  1
  P  P22  1  0.69522428  0.39238630  0.90235016  1
  P  P23  1  0.30477572  0.60761370  0.09764984  1
  O  O24  1  0.38666301  0.13176111  0.14480092  1
  O  O25  1  0.61333699  0.86823889  0.85519908  1
  O  O26  1  0.11333699  0.86823889  0.64480092  1
  O  O27  1  0.61333699  0.63176111  0.35519908  1
  O  O28  1  0.88666301  0.13176111  0.35519908  1
  O  O29  1  0.38666301  0.36823889  0.64480092  1
  O  O30  1  0.88666301  0.36823889  0.85519908  1
  O  O31  1  0.11333699  0.63176111  0.14480092  1
  O  O32  1  0.03026082  0.04926985  0.15022256  1
  O  O33  1  0.96973918  0.95073015  0.84977744  1
  O  O34  1  0.46973918  0.95073015  0.65022256  1
  O  O35  1  0.96973918  0.54926985  0.34977744  1
  O  O36  1  0.53026082  0.04926985  0.34977744  1
  O  O37  1  0.03026082  0.45073015  0.65022256  1
  O  O38  1  0.53026082  0.45073015  0.84977744  1
  O  O39  1  0.46973918  0.54926985  0.15022256  1
  O  O40  1  0.22063126  0.10865731  0.27691461  1
  O  O41  1  0.77936874  0.89134269  0.72308539  1
  O  O42  1  0.27936874  0.89134269  0.77691461  1
  O  O43  1  0.77936874  0.60865731  0.22308539  1
  O  O44  1  0.72063126  0.10865731  0.22308539  1
  O  O45  1  0.22063126  0.39134269  0.77691461  1
  O  O46  1  0.72063126  0.39134269  0.72308539  1
  O  O47  1  0.27936874  0.60865731  0.27691461  1
  O  O48  1  0.12661410  0.24234704  0.05674606  1
  O  O49  1  0.87338590  0.75765296  0.94325394  1
  O  O50  1  0.37338590  0.75765296  0.55674606  1
  O  O51  1  0.87338590  0.74234704  0.44325394  1
  O  O52  1  0.62661410  0.24234704  0.44325394  1
  O  O53  1  0.12661410  0.25765296  0.55674606  1
  O  O54  1  0.62661410  0.25765296  0.94325394  1
  O  O55  1  0.37338590  0.74234704  0.05674606  1
  O  O56  1  0.27127208  0.50993299  0.02932472  1
  O  O57  1  0.72872792  0.49006701  0.97067528  1
  O  O58  1  0.22872792  0.49006701  0.52932472  1
  O  O59  1  0.72872792  0.00993299  0.47067528  1
  O  O60  1  0.77127208  0.50993299  0.47067528  1
  O  O61  1  0.27127208  0.99006701  0.52932472  1
  O  O62  1  0.77127208  0.99006701  0.97067528  1
  O  O63  1  0.22872792  0.00993299  0.02932472  1
  O  O64  1  0.02626859  0.38184048  0.22410852  1
  O  O65  1  0.97373141  0.61815952  0.77589148  1
  O  O66  1  0.47373141  0.61815952  0.72410852  1
  O  O67  1  0.97373141  0.88184048  0.27589148  1
  O  O68  1  0.52626859  0.38184048  0.27589148  1
  O  O69  1  0.02626859  0.11815952  0.72410852  1
  O  O70  1  0.52626859  0.11815952  0.77589148  1
  O  O71  1  0.47373141  0.88184048  0.22410852  1
