# generated using pymatgen
data_YbAgPb
_symmetry_space_group_name_H-M   'P 1'
_cell_length_a   4.83202055
_cell_length_b   4.83202055
_cell_length_c   8.18244376
_cell_angle_alpha   89.91340961
_cell_angle_beta   90.08659039
_cell_angle_gamma   119.91197597
_symmetry_Int_Tables_number   1
_chemical_formula_structural   YbAgPb
_chemical_formula_sum   'Yb2 Ag2 Pb2'
_cell_volume   165.59799510
_cell_formula_units_Z   2
loop_
 _symmetry_equiv_pos_site_id
 _symmetry_equiv_pos_as_xyz
  1  'x, y, z'
loop_
 _atom_site_type_symbol
 _atom_site_label
 _atom_site_symmetry_multiplicity
 _atom_site_fract_x
 _atom_site_fract_y
 _atom_site_fract_z
 _atom_site_occupancy
  Yb  Yb0  1  0.00020236  0.99979764  0.71247914  1
  Yb  Yb1  1  0.99979764  0.00020236  0.28752086  1
  Ag  Ag2  1  0.66699482  0.33300518  0.51339786  1
  Ag  Ag3  1  0.33300518  0.66699482  0.48660214  1
  Pb  Pb4  1  0.33336979  0.66663021  0.08550546  1
  Pb  Pb5  1  0.66663021  0.33336979  0.91449454  1
