# generated using pymatgen
data_BaAlPO5F
_symmetry_space_group_name_H-M   'P 1'
_cell_length_a   5.20492308
_cell_length_b   7.04865250
_cell_length_c   12.90503007
_cell_angle_alpha   90.00000000
_cell_angle_beta   90.00000000
_cell_angle_gamma   101.53491402
_symmetry_Int_Tables_number   1
_chemical_formula_structural   BaAlPO5F
_chemical_formula_sum   'Ba4 Al4 P4 O20 F4'
_cell_volume   463.89342552
_cell_formula_units_Z   4
loop_
 _symmetry_equiv_pos_site_id
 _symmetry_equiv_pos_as_xyz
  1  'x, y, z'
loop_
 _atom_site_type_symbol
 _atom_site_label
 _atom_site_symmetry_multiplicity
 _atom_site_fract_x
 _atom_site_fract_y
 _atom_site_fract_z
 _atom_site_occupancy
  Ba  Ba0  1  0.45054094  0.81350446  0.29849267  1
  Ba  Ba1  1  0.54945906  0.18649554  0.70150733  1
  Ba  Ba2  1  0.04945906  0.68649554  0.79849267  1
  Ba  Ba3  1  0.95054094  0.31350446  0.20150733  1
  Al  Al4  1  0.50000000  0.00000000  0.00000000  1
  Al  Al5  1  0.00000000  0.50000000  0.50000000  1
  Al  Al6  1  0.50000000  0.50000000  0.00000000  1
  Al  Al7  1  0.00000000  0.00000000  0.50000000  1
  P  P8  1  0.93191831  0.80407754  0.11038850  1
  P  P9  1  0.06808169  0.19592246  0.88961150  1
  P  P10  1  0.56808169  0.69592246  0.61038850  1
  P  P11  1  0.43191831  0.30407754  0.38961150  1
  O  O12  1  0.20971238  0.92772403  0.08768529  1
  O  O13  1  0.79028762  0.07227597  0.91231471  1
  O  O14  1  0.29028762  0.57227597  0.58768529  1
  O  O15  1  0.70971238  0.42772403  0.41231471  1
  O  O16  1  0.07609736  0.75992728  0.45654957  1
  O  O17  1  0.92390264  0.24007272  0.54345043  1
  O  O18  1  0.42390264  0.74007272  0.95654957  1
  O  O19  1  0.57609736  0.25992728  0.04345043  1
  O  O20  1  0.76630671  0.55501402  0.61278256  1
  O  O21  1  0.23369329  0.44498598  0.38721744  1
  O  O22  1  0.73369329  0.94498598  0.11278256  1
  O  O23  1  0.26630671  0.05501402  0.88721744  1
  O  O24  1  0.84952364  0.64745904  0.02522585  1
  O  O25  1  0.15047636  0.35254096  0.97477415  1
  O  O26  1  0.65047636  0.85254096  0.52522585  1
  O  O27  1  0.34952364  0.14745904  0.47477415  1
  O  O28  1  0.93739169  0.71041821  0.21731367  1
  O  O29  1  0.06260831  0.28958179  0.78268633  1
  O  O30  1  0.56260831  0.78958179  0.71731367  1
  O  O31  1  0.43739169  0.21041821  0.28268633  1
  F  F32  1  0.10308948  0.96080894  0.63280338  1
  F  F33  1  0.89691052  0.03919106  0.36719662  1
  F  F34  1  0.39691052  0.53919106  0.13280338  1
  F  F35  1  0.60308948  0.46080894  0.86719662  1
