# generated using pymatgen
data_Yb2NiSb2
_symmetry_space_group_name_H-M   'P 1'
_cell_length_a   4.56213484
_cell_length_b   4.56213484
_cell_length_c   7.83897742
_cell_angle_alpha   73.08273902
_cell_angle_beta   90.00000000
_cell_angle_gamma   120.00000000
_symmetry_Int_Tables_number   1
_chemical_formula_structural   Yb2NiSb2
_chemical_formula_sum   'Yb2 Ni1 Sb2'
_cell_volume   133.07988854
_cell_formula_units_Z   1
loop_
 _symmetry_equiv_pos_site_id
 _symmetry_equiv_pos_as_xyz
  1  'x, y, z'
loop_
 _atom_site_type_symbol
 _atom_site_label
 _atom_site_symmetry_multiplicity
 _atom_site_fract_x
 _atom_site_fract_y
 _atom_site_fract_z
 _atom_site_occupancy
  Yb  Yb0  1  0.00381307  0.00762614  0.98856079  1
  Yb  Yb1  1  0.49489168  0.98978336  0.51532496  1
  Ni  Ni2  1  0.62747826  0.25495653  0.11756521  1
  Sb  Sb3  1  0.25391369  0.50782739  0.23825892  1
  Sb  Sb4  1  0.74490329  0.48980659  0.76529012  1
