# generated using pymatgen
data_Al3(O2F)2
_symmetry_space_group_name_H-M   'P 1'
_cell_length_a   4.85349501
_cell_length_b   8.63459311
_cell_length_c   9.10126342
_cell_angle_alpha   90.00000000
_cell_angle_beta   90.00000000
_cell_angle_gamma   90.00000000
_symmetry_Int_Tables_number   1
_chemical_formula_structural   Al3(O2F)2
_chemical_formula_sum   'Al12 O16 F8'
_cell_volume   381.41533396
_cell_formula_units_Z   4
loop_
 _symmetry_equiv_pos_site_id
 _symmetry_equiv_pos_as_xyz
  1  'x, y, z'
loop_
 _atom_site_type_symbol
 _atom_site_label
 _atom_site_symmetry_multiplicity
 _atom_site_fract_x
 _atom_site_fract_y
 _atom_site_fract_z
 _atom_site_occupancy
  Al  Al0  1  0.58644775  0.91891662  0.86960546  1
  Al  Al1  1  0.41355225  0.08108338  0.13039454  1
  Al  Al2  1  0.08644775  0.08108338  0.63039454  1
  Al  Al3  1  0.41355225  0.41891662  0.13039454  1
  Al  Al4  1  0.91355225  0.91891662  0.36960546  1
  Al  Al5  1  0.58644775  0.58108338  0.86960546  1
  Al  Al6  1  0.91355225  0.58108338  0.36960546  1
  Al  Al7  1  0.08644775  0.41891662  0.63039454  1
  Al  Al8  1  0.39841915  0.75000000  0.56219342  1
  Al  Al9  1  0.60158085  0.25000000  0.43780658  1
  Al  Al10  1  0.89841915  0.25000000  0.93780658  1
  Al  Al11  1  0.10158085  0.75000000  0.06219342  1
  O  O12  1  0.46884666  0.75000000  0.75345180  1
  O  O13  1  0.53115334  0.25000000  0.24654820  1
  O  O14  1  0.96884666  0.25000000  0.74654820  1
  O  O15  1  0.03115334  0.75000000  0.25345180  1
  O  O16  1  0.77938704  0.75000000  0.96614341  1
  O  O17  1  0.22061296  0.25000000  0.03385659  1
  O  O18  1  0.27938704  0.25000000  0.53385659  1
  O  O19  1  0.72061296  0.75000000  0.46614341  1
  O  O20  1  0.69966217  0.41371793  0.98953163  1
  O  O21  1  0.30033783  0.58628207  0.01046837  1
  O  O22  1  0.19966217  0.58628207  0.51046837  1
  O  O23  1  0.30033783  0.91371793  0.01046837  1
  O  O24  1  0.80033783  0.41371793  0.48953163  1
  O  O25  1  0.69966217  0.08628207  0.98953163  1
  O  O26  1  0.80033783  0.08628207  0.48953163  1
  O  O27  1  0.19966217  0.91371793  0.51046837  1
  F  F28  1  0.89286615  0.94711748  0.75157803  1
  F  F29  1  0.10713385  0.05288252  0.24842197  1
  F  F30  1  0.39286615  0.05288252  0.74842197  1
  F  F31  1  0.10713385  0.44711748  0.24842197  1
  F  F32  1  0.60713385  0.94711748  0.25157803  1
  F  F33  1  0.89286615  0.55288252  0.75157803  1
  F  F34  1  0.60713385  0.55288252  0.25157803  1
  F  F35  1  0.39286615  0.44711748  0.74842197  1
