# generated using pymatgen
data_Zr8As5
_symmetry_space_group_name_H-M   'P 1'
_cell_length_a   3.74925555
_cell_length_b   10.23768356
_cell_length_c   28.82554602
_cell_angle_alpha   89.16096104
_cell_angle_beta   90.00000000
_cell_angle_gamma   90.00000000
_symmetry_Int_Tables_number   1
_chemical_formula_structural   Zr8As5
_chemical_formula_sum   'Zr32 As20'
_cell_volume   1106.31224427
_cell_formula_units_Z   4
loop_
 _symmetry_equiv_pos_site_id
 _symmetry_equiv_pos_as_xyz
  1  'x, y, z'
loop_
 _atom_site_type_symbol
 _atom_site_label
 _atom_site_symmetry_multiplicity
 _atom_site_fract_x
 _atom_site_fract_y
 _atom_site_fract_z
 _atom_site_occupancy
  Zr  Zr0  1  0.50000000  0.75156422  0.01124411  1
  Zr  Zr1  1  0.50000000  0.24843578  0.98875589  1
  Zr  Zr2  1  0.50000000  0.78923672  0.50505733  1
  Zr  Zr3  1  0.50000000  0.21076328  0.49494267  1
  Zr  Zr4  1  0.50000000  0.50269765  0.23533013  1
  Zr  Zr5  1  0.50000000  0.49730235  0.76466987  1
  Zr  Zr6  1  0.50000000  0.99786477  0.73517354  1
  Zr  Zr7  1  0.50000000  0.00213523  0.26482646  1
  Zr  Zr8  1  -0.00000000  0.74959735  0.28344397  1
  Zr  Zr9  1  0.00000000  0.25040265  0.71655603  1
  Zr  Zr10  1  -0.00000000  0.74818636  0.78389890  1
  Zr  Zr11  1  0.00000000  0.25181364  0.21610110  1
  Zr  Zr12  1  0.50000000  0.50342940  0.41892289  1
  Zr  Zr13  1  0.50000000  0.49657060  0.58107711  1
  Zr  Zr14  1  0.50000000  0.98327136  0.91715744  1
  Zr  Zr15  1  0.50000000  0.01672864  0.08284256  1
  Zr  Zr16  1  0.00000000  0.91511498  0.17157565  1
  Zr  Zr17  1  0.00000000  0.08488502  0.82842435  1
  Zr  Zr18  1  -0.00000000  0.59277047  0.67040981  1
  Zr  Zr19  1  0.00000000  0.40722953  0.32959019  1
  Zr  Zr20  1  0.50000000  0.66353646  0.12650163  1
  Zr  Zr21  1  0.50000000  0.33646354  0.87349837  1
  Zr  Zr22  1  0.50000000  0.83791293  0.62690781  1
  Zr  Zr23  1  0.50000000  0.16208707  0.37309219  1
  Zr  Zr24  1  0.50000000  0.81985225  0.37864340  1
  Zr  Zr25  1  0.50000000  0.18014775  0.62135660  1
  Zr  Zr26  1  0.50000000  0.67192219  0.88186355  1
  Zr  Zr27  1  0.50000000  0.32807781  0.11813645  1
  Zr  Zr28  1  -0.00000000  0.50000000  0.50000000  1
  Zr  Zr29  1  -0.00000000  -0.00000000  0.00000000  1
  Zr  Zr30  1  0.00000000  0.99800552  0.44275758  1
  Zr  Zr31  1  0.00000000  0.00199448  0.55724242  1
  As  As32  1  -0.00000000  0.97964733  0.33784507  1
  As  As33  1  -0.00000000  0.02035267  0.66215493  1
  As  As34  1  -0.00000000  0.51835258  0.83726255  1
  As  As35  1  -0.00000000  0.48164742  0.16273745  1
  As  As36  1  0.50000000  0.59948169  0.32850872  1
  As  As37  1  0.50000000  0.40051831  0.67149128  1
  As  As38  1  0.50000000  0.89197519  0.82900922  1
  As  As39  1  0.50000000  0.10802481  0.17099078  1
  As  As40  1  -0.00000000  0.71257378  0.43893290  1
  As  As41  1  -0.00000000  0.28742622  0.56106710  1
  As  As42  1  -0.00000000  0.77944026  0.94118112  1
  As  As43  1  -0.00000000  0.22055974  0.05881888  1
  As  As44  1  0.50000000  0.76185601  0.21393130  1
  As  As45  1  0.50000000  0.23814399  0.78606870  1
  As  As46  1  0.50000000  0.73836215  0.71497185  1
  As  As47  1  0.50000000  0.26163785  0.28502815  1
  As  As48  1  -0.00000000  0.81743468  0.07960331  1
  As  As49  1  -0.00000000  0.18256532  0.92039669  1
  As  As50  1  -0.00000000  0.70196726  0.57458352  1
  As  As51  1  0.00000000  0.29803274  0.42541648  1
