# generated using pymatgen
data_Na3CuPHClO5
_symmetry_space_group_name_H-M   'P 1'
_cell_length_a   6.88704490
_cell_length_b   8.55276242
_cell_length_c   11.20373490
_cell_angle_alpha   90.00000000
_cell_angle_beta   90.00000000
_cell_angle_gamma   90.00000000
_symmetry_Int_Tables_number   1
_chemical_formula_structural   Na3CuPHClO5
_chemical_formula_sum   'Na12 Cu4 P4 H4 Cl4 O20'
_cell_volume   659.93649640
_cell_formula_units_Z   4
loop_
 _symmetry_equiv_pos_site_id
 _symmetry_equiv_pos_as_xyz
  1  'x, y, z'
loop_
 _atom_site_type_symbol
 _atom_site_label
 _atom_site_symmetry_multiplicity
 _atom_site_fract_x
 _atom_site_fract_y
 _atom_site_fract_z
 _atom_site_occupancy
  Na  Na0  1  0.95929715  0.09110184  0.24622092  1
  Na  Na1  1  0.54070285  0.40889816  0.74622092  1
  Na  Na2  1  0.45929715  0.90889816  0.75377908  1
  Na  Na3  1  0.04070285  0.59110184  0.25377908  1
  Na  Na4  1  0.04070285  0.90889816  0.75377908  1
  Na  Na5  1  0.45929715  0.59110184  0.25377908  1
  Na  Na6  1  0.54070285  0.09110184  0.24622092  1
  Na  Na7  1  0.95929715  0.40889816  0.74622092  1
  Na  Na8  1  0.25000000  0.78267484  0.48174591  1
  Na  Na9  1  0.25000000  0.71732516  0.98174591  1
  Na  Na10  1  0.75000000  0.21732516  0.51825409  1
  Na  Na11  1  0.75000000  0.28267484  0.01825409  1
  Cu  Cu12  1  0.00000000  0.50000000  0.50000000  1
  Cu  Cu13  1  0.50000000  -0.00000000  0.00000000  1
  Cu  Cu14  1  0.50000000  0.50000000  0.50000000  1
  Cu  Cu15  1  0.00000000  -0.00000000  0.00000000  1
  P  P16  1  0.25000000  0.18159642  0.54034711  1
  P  P17  1  0.25000000  0.31840358  0.04034711  1
  P  P18  1  0.75000000  0.81840358  0.45965289  1
  P  P19  1  0.75000000  0.68159642  0.95965289  1
  H  H20  1  0.25000000  0.04064583  0.37386053  1
  H  H21  1  0.25000000  0.45935417  0.87386053  1
  H  H22  1  0.75000000  0.95935417  0.62613947  1
  H  H23  1  0.75000000  0.54064583  0.12613947  1
  Cl  Cl24  1  0.25000000  0.63174535  0.72472293  1
  Cl  Cl25  1  0.25000000  0.86825465  0.22472293  1
  Cl  Cl26  1  0.75000000  0.36825465  0.27527707  1
  Cl  Cl27  1  0.75000000  0.13174535  0.77527707  1
  O  O28  1  0.75000000  0.47605123  0.57631800  1
  O  O29  1  0.75000000  0.02394877  0.07631800  1
  O  O30  1  0.25000000  0.52394877  0.42368200  1
  O  O31  1  0.25000000  0.97605123  0.92368200  1
  O  O32  1  0.06482016  0.27521439  0.56840731  1
  O  O33  1  0.43517984  0.22478561  0.06840731  1
  O  O34  1  0.56482016  0.72478561  0.43159269  1
  O  O35  1  0.93517984  0.77521439  0.93159269  1
  O  O36  1  0.93517984  0.72478561  0.43159269  1
  O  O37  1  0.56482016  0.77521439  0.93159269  1
  O  O38  1  0.43517984  0.27521439  0.56840731  1
  O  O39  1  0.06482016  0.22478561  0.06840731  1
  O  O40  1  0.25000000  0.15256156  0.39405962  1
  O  O41  1  0.25000000  0.34743844  0.89405962  1
  O  O42  1  0.75000000  0.84743844  0.60594038  1
  O  O43  1  0.75000000  0.65256156  0.10594038  1
  O  O44  1  0.25000000  0.01765818  0.59680404  1
  O  O45  1  0.25000000  0.48234182  0.09680404  1
  O  O46  1  0.75000000  0.98234182  0.40319596  1
  O  O47  1  0.75000000  0.51765818  0.90319596  1
