# generated using pymatgen
data_Er(SO4)3
_symmetry_space_group_name_H-M   'P 1'
_cell_length_a   9.59554211
_cell_length_b   12.13219014
_cell_length_c   16.79054665
_cell_angle_alpha   90.00000000
_cell_angle_beta   90.00000000
_cell_angle_gamma   90.00000000
_symmetry_Int_Tables_number   1
_chemical_formula_structural   Er(SO4)3
_chemical_formula_sum   'Er8 S24 O96'
_cell_volume   1954.67050391
_cell_formula_units_Z   8
loop_
 _symmetry_equiv_pos_site_id
 _symmetry_equiv_pos_as_xyz
  1  'x, y, z'
loop_
 _atom_site_type_symbol
 _atom_site_label
 _atom_site_symmetry_multiplicity
 _atom_site_fract_x
 _atom_site_fract_y
 _atom_site_fract_z
 _atom_site_occupancy
  Er  Er0  1  0.83738331  0.60684967  0.76887488  1
  Er  Er1  1  0.16261669  0.39315033  0.23112512  1
  Er  Er2  1  0.66261669  0.10684967  0.23112512  1
  Er  Er3  1  0.16261669  0.89315033  0.26887488  1
  Er  Er4  1  0.33738331  0.89315033  0.76887488  1
  Er  Er5  1  0.83738331  0.10684967  0.73112512  1
  Er  Er6  1  0.33738331  0.39315033  0.73112512  1
  Er  Er7  1  0.66261669  0.60684967  0.26887488  1
  S  S8  1  0.60464911  0.51202144  0.60105435  1
  S  S9  1  0.39535089  0.48797856  0.39894565  1
  S  S10  1  0.89535089  0.01202144  0.39894565  1
  S  S11  1  0.39535089  0.98797856  0.10105435  1
  S  S12  1  0.10464911  0.98797856  0.60105435  1
  S  S13  1  0.60464911  0.01202144  0.89894565  1
  S  S14  1  0.10464911  0.48797856  0.89894565  1
  S  S15  1  0.89535089  0.51202144  0.10105435  1
  S  S16  1  0.98540677  0.86771029  0.84498585  1
  S  S17  1  0.01459323  0.13228971  0.15501415  1
  S  S18  1  0.51459323  0.36771029  0.15501415  1
  S  S19  1  0.01459323  0.63228971  0.34498585  1
  S  S20  1  0.48540677  0.63228971  0.84498585  1
  S  S21  1  0.98540677  0.36771029  0.65501415  1
  S  S22  1  0.48540677  0.13228971  0.65501415  1
  S  S23  1  0.51459323  0.86771029  0.34498585  1
  S  S24  1  0.66889132  0.84167052  0.65992597  1
  S  S25  1  0.33110868  0.15832948  0.34007403  1
  S  S26  1  0.83110868  0.34167052  0.34007403  1
  S  S27  1  0.33110868  0.65832948  0.15992597  1
  S  S28  1  0.16889132  0.65832948  0.65992597  1
  S  S29  1  0.66889132  0.34167052  0.84007403  1
  S  S30  1  0.16889132  0.15832948  0.84007403  1
  S  S31  1  0.83110868  0.84167052  0.15992597  1
  O  O32  1  0.97964691  0.92064235  0.92407761  1
  O  O33  1  0.02035309  0.07935765  0.07592239  1
  O  O34  1  0.52035309  0.42064235  0.07592239  1
  O  O35  1  0.02035309  0.57935765  0.42407761  1
  O  O36  1  0.47964691  0.57935765  0.92407761  1
  O  O37  1  0.97964691  0.42064235  0.57592239  1
  O  O38  1  0.47964691  0.07935765  0.57592239  1
  O  O39  1  0.52035309  0.92064235  0.42407761  1
  O  O40  1  0.63256078  0.66645114  0.83059397  1
  O  O41  1  0.36743922  0.33354886  0.16940603  1
  O  O42  1  0.86743922  0.16645114  0.16940603  1
  O  O43  1  0.36743922  0.83354886  0.33059397  1
  O  O44  1  0.13256078  0.83354886  0.83059397  1
  O  O45  1  0.63256078  0.16645114  0.66940603  1
  O  O46  1  0.13256078  0.33354886  0.66940603  1
  O  O47  1  0.86743922  0.66645114  0.33059397  1
  O  O48  1  0.76818963  0.75814226  0.69144807  1
  O  O49  1  0.23181037  0.24185774  0.30855193  1
  O  O50  1  0.73181037  0.25814226  0.30855193  1
  O  O51  1  0.23181037  0.74185774  0.19144807  1
  O  O52  1  0.26818963  0.74185774  0.69144807  1
  O  O53  1  0.76818963  0.25814226  0.80855193  1
  O  O54  1  0.26818963  0.24185774  0.80855193  1
  O  O55  1  0.73181037  0.75814226  0.19144807  1
  O  O56  1  0.69752609  0.54380850  0.66732879  1
  O  O57  1  0.30247391  0.45619150  0.33267121  1
  O  O58  1  0.80247391  0.04380850  0.33267121  1
  O  O59  1  0.30247391  0.95619150  0.16732879  1
  O  O60  1  0.19752609  0.95619150  0.66732879  1
  O  O61  1  0.69752609  0.04380850  0.83267121  1
  O  O62  1  0.19752609  0.45619150  0.83267121  1
  O  O63  1  0.80247391  0.54380850  0.16732879  1
  O  O64  1  0.54408284  0.61054128  0.56132214  1
  O  O65  1  0.45591716  0.38945872  0.43867786  1
  O  O66  1  0.95591716  0.11054128  0.43867786  1
  O  O67  1  0.45591716  0.88945872  0.06132214  1
  O  O68  1  0.04408284  0.88945872  0.56132214  1
  O  O69  1  0.54408284  0.11054128  0.93867786  1
  O  O70  1  0.04408284  0.38945872  0.93867786  1
  O  O71  1  0.95591716  0.61054128  0.06132214  1
  O  O72  1  0.73267084  0.95236819  0.66598465  1
  O  O73  1  0.26732916  0.04763181  0.33401535  1
  O  O74  1  0.76732916  0.45236819  0.33401535  1
  O  O75  1  0.26732916  0.54763181  0.16598465  1
  O  O76  1  0.23267084  0.54763181  0.66598465  1
  O  O77  1  0.73267084  0.45236819  0.83401535  1
  O  O78  1  0.23267084  0.04763181  0.83401535  1
  O  O79  1  0.76732916  0.95236819  0.16598465  1
  O  O80  1  0.53741507  0.83644562  0.70594725  1
  O  O81  1  0.46258493  0.16355438  0.29405275  1
  O  O82  1  0.96258493  0.33644562  0.29405275  1
  O  O83  1  0.46258493  0.66355438  0.20594725  1
  O  O84  1  0.03741507  0.66355438  0.70594725  1
  O  O85  1  0.53741507  0.33644562  0.79405275  1
  O  O86  1  0.03741507  0.16355438  0.79405275  1
  O  O87  1  0.96258493  0.83644562  0.20594725  1
  O  O88  1  0.89355198  0.76975683  0.84138854  1
  O  O89  1  0.10644802  0.23024317  0.15861146  1
  O  O90  1  0.60644802  0.26975683  0.15861146  1
  O  O91  1  0.10644802  0.73024317  0.34138854  1
  O  O92  1  0.39355198  0.73024317  0.84138854  1
  O  O93  1  0.89355198  0.26975683  0.65861146  1
  O  O94  1  0.39355198  0.23024317  0.65861146  1
  O  O95  1  0.60644802  0.76975683  0.34138854  1
  O  O96  1  0.99140089  0.55926976  0.86879261  1
  O  O97  1  0.00859911  0.44073024  0.13120739  1
  O  O98  1  0.50859911  0.05926976  0.13120739  1
  O  O99  1  0.00859911  0.94073024  0.36879261  1
  O  O100  1  0.49140089  0.94073024  0.86879261  1
  O  O101  1  0.99140089  0.05926976  0.63120739  1
  O  O102  1  0.49140089  0.44073024  0.63120739  1
  O  O103  1  0.50859911  0.55926976  0.36879261  1
  O  O104  1  0.94117627  0.94735607  0.78258111  1
  O  O105  1  0.05882373  0.05264393  0.21741889  1
  O  O106  1  0.55882373  0.44735607  0.21741889  1
  O  O107  1  0.05882373  0.55264393  0.28258111  1
  O  O108  1  0.44117627  0.55264393  0.78258111  1
  O  O109  1  0.94117627  0.44735607  0.71741889  1
  O  O110  1  0.44117627  0.05264393  0.71741889  1
  O  O111  1  0.55882373  0.94735607  0.28258111  1
  O  O112  1  0.64408098  0.81631719  0.57496540  1
  O  O113  1  0.35591902  0.18368281  0.42503460  1
  O  O114  1  0.85591902  0.31631719  0.42503460  1
  O  O115  1  0.35591902  0.68368281  0.07496540  1
  O  O116  1  0.14408098  0.68368281  0.57496540  1
  O  O117  1  0.64408098  0.31631719  0.92503460  1
  O  O118  1  0.14408098  0.18368281  0.92503460  1
  O  O119  1  0.85591902  0.81631719  0.07496540  1
  O  O120  1  0.68416907  0.95613606  0.96300554  1
  O  O121  1  0.31583093  0.04386394  0.03699446  1
  O  O122  1  0.81583093  0.45613606  0.03699446  1
  O  O123  1  0.31583093  0.54386394  0.46300554  1
  O  O124  1  0.18416907  0.54386394  0.96300554  1
  O  O125  1  0.68416907  0.45613606  0.53699446  1
  O  O126  1  0.18416907  0.04386394  0.53699446  1
  O  O127  1  0.81583093  0.95613606  0.46300554  1
