# generated using pymatgen
data_Ba2GdCu2(HgO4)2
_symmetry_space_group_name_H-M   'P 1'
_cell_length_a   3.90989626
_cell_length_b   3.90989626
_cell_length_c   14.98975904
_cell_angle_alpha   97.49379855
_cell_angle_beta   97.49379855
_cell_angle_gamma   90.00000000
_symmetry_Int_Tables_number   1
_chemical_formula_structural   Ba2GdCu2(HgO4)2
_chemical_formula_sum   'Ba2 Gd1 Cu2 Hg2 O8'
_cell_volume   225.22137194
_cell_formula_units_Z   1
loop_
 _symmetry_equiv_pos_site_id
 _symmetry_equiv_pos_as_xyz
  1  'x, y, z'
loop_
 _atom_site_type_symbol
 _atom_site_label
 _atom_site_symmetry_multiplicity
 _atom_site_fract_x
 _atom_site_fract_y
 _atom_site_fract_z
 _atom_site_occupancy
  Ba  Ba0  1  0.12703231  0.12703231  0.25406463  1
  Ba  Ba1  1  0.87296769  0.87296769  0.74593537  1
  Gd  Gd2  1  -0.00000000  -0.00000000  -0.00000000  1
  Cu  Cu3  1  0.44351478  0.44351478  0.88702955  1
  Cu  Cu4  1  0.55648522  0.55648522  0.11297045  1
  Hg  Hg5  1  0.28837356  0.28837356  0.57674711  1
  Hg  Hg6  1  0.71162644  0.71162644  0.42325289  1
  O  O7  1  0.04995102  0.54995102  0.09990205  1
  O  O8  1  0.95004898  0.45004898  0.90009795  1
  O  O9  1  0.54995102  0.04995102  0.09990205  1
  O  O10  1  0.45004898  0.95004898  0.90009795  1
  O  O11  1  0.21788805  0.21788805  0.43577610  1
  O  O12  1  0.78211195  0.78211195  0.56422390  1
  O  O13  1  0.35998402  0.35998402  0.71996804  1
  O  O14  1  0.64001598  0.64001598  0.28003196  1
