# generated using pymatgen
data_TaTiCN
_symmetry_space_group_name_H-M   'P 1'
_cell_length_a   3.09317096
_cell_length_b   3.09317096
_cell_length_c   5.38925654
_cell_angle_alpha   73.32302016
_cell_angle_beta   90.00000000
_cell_angle_gamma   120.00000000
_symmetry_Int_Tables_number   1
_chemical_formula_structural   TaTiCN
_chemical_formula_sum   'Ta1 Ti1 C1 N1'
_cell_volume   42.13174968
_cell_formula_units_Z   1
loop_
 _symmetry_equiv_pos_site_id
 _symmetry_equiv_pos_as_xyz
  1  'x, y, z'
loop_
 _atom_site_type_symbol
 _atom_site_label
 _atom_site_symmetry_multiplicity
 _atom_site_fract_x
 _atom_site_fract_y
 _atom_site_fract_z
 _atom_site_occupancy
  Ta  Ta0  1  0.25305888  0.50611777  0.24082335  1
  Ti  Ti1  1  0.74560760  0.49121519  0.76317721  1
  C  C2  1  0.00204377  0.00408755  0.99386868  1
  N  N3  1  0.49928975  0.99857949  0.50213076  1
