# generated using pymatgen
data_SnH20C7IN
_symmetry_space_group_name_H-M   'P 1'
_cell_length_a   7.25105688
_cell_length_b   14.36523835
_cell_length_c   14.90337796
_cell_angle_alpha   94.35668405
_cell_angle_beta   90.00000000
_cell_angle_gamma   90.00000000
_symmetry_Int_Tables_number   1
_chemical_formula_structural   SnH20C7IN
_chemical_formula_sum   'Sn4 H80 C28 I4 N4'
_cell_volume   1547.89728797
_cell_formula_units_Z   4
loop_
 _symmetry_equiv_pos_site_id
 _symmetry_equiv_pos_as_xyz
  1  'x, y, z'
loop_
 _atom_site_type_symbol
 _atom_site_label
 _atom_site_symmetry_multiplicity
 _atom_site_fract_x
 _atom_site_fract_y
 _atom_site_fract_z
 _atom_site_occupancy
  Sn  Sn0  1  0.64356314  0.40290104  0.85538177  1
  Sn  Sn1  1  0.14356314  0.09709896  0.14461823  1
  Sn  Sn2  1  0.35643686  0.59709896  0.14461823  1
  Sn  Sn3  1  0.85643686  0.90290104  0.85538177  1
  H  H4  1  0.67382677  0.57398841  0.78813472  1
  H  H5  1  0.17382677  0.92601159  0.21186528  1
  H  H6  1  0.32617323  0.42601159  0.21186528  1
  H  H7  1  0.82617323  0.07398841  0.78813472  1
  H  H8  1  0.70176939  0.58596255  0.90715701  1
  H  H9  1  0.20176939  0.91403745  0.09284299  1
  H  H10  1  0.29823061  0.41403745  0.09284299  1
  H  H11  1  0.79823061  0.08596255  0.90715701  1
  H  H12  1  0.89116469  0.54535823  0.83759423  1
  H  H13  1  0.39116469  0.95464177  0.16240577  1
  H  H14  1  0.10883531  0.45464177  0.16240577  1
  H  H15  1  0.60883531  0.04535823  0.83759423  1
  H  H16  1  0.91586000  0.34610446  0.96652997  1
  H  H17  1  0.41586000  0.15389554  0.03347003  1
  H  H18  1  0.08414000  0.65389554  0.03347003  1
  H  H19  1  0.58414000  0.84610446  0.96652997  1
  H  H20  1  0.71825631  0.38256793  0.03193749  1
  H  H21  1  0.21825631  0.11743207  0.96806251  1
  H  H22  1  0.28174369  0.61743207  0.96806251  1
  H  H23  1  0.78174369  0.88256793  0.03193749  1
  H  H24  1  0.72156755  0.26958296  0.97281263  1
  H  H25  1  0.22156755  0.23041704  0.02718737  1
  H  H26  1  0.27843245  0.73041704  0.02718737  1
  H  H27  1  0.77843245  0.76958296  0.97281263  1
  H  H28  1  0.28798140  0.43156990  0.80474772  1
  H  H29  1  0.78798140  0.06843010  0.19525228  1
  H  H30  1  0.71201860  0.56843010  0.19525228  1
  H  H31  1  0.21201860  0.93156990  0.80474772  1
  H  H32  1  0.29925705  0.32578420  0.86199094  1
  H  H33  1  0.79925705  0.17421580  0.13800906  1
  H  H34  1  0.70074295  0.67421580  0.13800906  1
  H  H35  1  0.20074295  0.82578420  0.86199094  1
  H  H36  1  0.29909231  0.43762381  0.92457985  1
  H  H37  1  0.79909231  0.06237619  0.07542015  1
  H  H38  1  0.70090769  0.56237619  0.07542015  1
  H  H39  1  0.20090769  0.93762381  0.92457985  1
  H  H40  1  0.63012014  0.24641827  0.74075755  1
  H  H41  1  0.13012014  0.25358173  0.25924245  1
  H  H42  1  0.36987986  0.75358173  0.25924245  1
  H  H43  1  0.86987986  0.74641827  0.74075755  1
  H  H44  1  0.86823632  0.27689324  0.75559173  1
  H  H45  1  0.36823632  0.22310676  0.24440827  1
  H  H46  1  0.13176368  0.72310676  0.24440827  1
  H  H47  1  0.63176368  0.77689324  0.75559173  1
  H  H48  1  0.63293743  0.20228446  0.59188182  1
  H  H49  1  0.13293743  0.29771554  0.40811818  1
  H  H50  1  0.36706257  0.79771554  0.40811818  1
  H  H51  1  0.86706257  0.70228446  0.59188182  1
  H  H52  1  0.76055383  0.26851790  0.51378444  1
  H  H53  1  0.26055383  0.23148210  0.48621556  1
  H  H54  1  0.23944617  0.73148210  0.48621556  1
  H  H55  1  0.73944617  0.76851790  0.51378444  1
  H  H56  1  0.88106293  0.20905955  0.59959870  1
  H  H57  1  0.38106293  0.29094045  0.40040130  1
  H  H58  1  0.11893707  0.79094045  0.40040130  1
  H  H59  1  0.61893707  0.70905955  0.59959870  1
  H  H60  1  0.44894809  0.33653582  0.63266013  1
  H  H61  1  0.94894809  0.16346418  0.36733987  1
  H  H62  1  0.55105191  0.66346418  0.36733987  1
  H  H63  1  0.05105191  0.83653582  0.63266013  1
  H  H64  1  0.55373490  0.44780841  0.66546823  1
  H  H65  1  0.05373490  0.05219159  0.33453177  1
  H  H66  1  0.44626510  0.55219159  0.33453177  1
  H  H67  1  0.94626510  0.94780841  0.66546823  1
  H  H68  1  0.57530586  0.39876963  0.55170949  1
  H  H69  1  0.07530586  0.10123037  0.44829051  1
  H  H70  1  0.42469414  0.60123037  0.44829051  1
  H  H71  1  0.92469414  0.89876963  0.55170949  1
  H  H72  1  0.02538619  0.35278304  0.64825742  1
  H  H73  1  0.52538619  0.14721696  0.35174258  1
  H  H74  1  0.97461381  0.64721696  0.35174258  1
  H  H75  1  0.47461381  0.85278304  0.64825742  1
  H  H76  1  0.90511106  0.40903584  0.56168930  1
  H  H77  1  0.40511106  0.09096416  0.43831070  1
  H  H78  1  0.09488894  0.59096416  0.43831070  1
  H  H79  1  0.59488894  0.90903584  0.56168930  1
  H  H80  1  0.89297301  0.45686037  0.67648918  1
  H  H81  1  0.39297301  0.04313963  0.32351082  1
  H  H82  1  0.10702699  0.54313963  0.32351082  1
  H  H83  1  0.60702699  0.95686037  0.67648918  1
  C  C84  1  0.74084822  0.54400713  0.84534255  1
  C  C85  1  0.24084822  0.95599287  0.15465745  1
  C  C86  1  0.25915178  0.45599287  0.15465745  1
  C  C87  1  0.75915178  0.04400713  0.84534255  1
  C  C88  1  0.76498946  0.34256609  0.97038158  1
  C  C89  1  0.26498946  0.15743391  0.02961842  1
  C  C90  1  0.23501054  0.65743391  0.02961842  1
  C  C91  1  0.73501054  0.84256609  0.97038158  1
  C  C92  1  0.34571351  0.39854745  0.86251285  1
  C  C93  1  0.84571351  0.10145255  0.13748715  1
  C  C94  1  0.65428649  0.60145255  0.13748715  1
  C  C95  1  0.15428649  0.89854745  0.86251285  1
  C  C96  1  0.73067923  0.30384738  0.74148530  1
  C  C97  1  0.23067923  0.19615262  0.25851470  1
  C  C98  1  0.26932077  0.69615262  0.25851470  1
  C  C99  1  0.76932077  0.80384738  0.74148530  1
  C  C100  1  0.75462750  0.24576742  0.58265094  1
  C  C101  1  0.25462750  0.25423258  0.41734906  1
  C  C102  1  0.24537250  0.75423258  0.41734906  1
  C  C103  1  0.74537250  0.74576742  0.58265094  1
  C  C104  1  0.56589838  0.38280445  0.62225729  1
  C  C105  1  0.06589838  0.11719555  0.37774271  1
  C  C106  1  0.43410162  0.61719555  0.37774271  1
  C  C107  1  0.93410162  0.88280445  0.62225729  1
  C  C108  1  0.90258008  0.39264858  0.63229506  1
  C  C109  1  0.40258008  0.10735142  0.36770494  1
  C  C110  1  0.09741992  0.60735142  0.36770494  1
  C  C111  1  0.59741992  0.89264858  0.63229506  1
  I  I112  1  0.25005599  0.62708967  0.66656467  1
  I  I113  1  0.75005599  0.87291033  0.33343533  1
  I  I114  1  0.74994401  0.37291033  0.33343533  1
  I  I115  1  0.24994401  0.12708967  0.66656467  1
  N  N116  1  0.73771582  0.33235813  0.64599827  1
  N  N117  1  0.23771582  0.16764187  0.35400173  1
  N  N118  1  0.26228418  0.66764187  0.35400173  1
  N  N119  1  0.76228418  0.83235813  0.64599827  1
