# generated using pymatgen
data_TmGePd
_symmetry_space_group_name_H-M   'P 1'
_cell_length_a   4.36037355
_cell_length_b   5.62284955
_cell_length_c   5.63409109
_cell_angle_alpha   93.20946846
_cell_angle_beta   112.76568174
_cell_angle_gamma   67.18623849
_symmetry_Int_Tables_number   1
_chemical_formula_structural   TmGePd
_chemical_formula_sum   'Tm2 Ge2 Pd2'
_cell_volume   116.68821084
_cell_formula_units_Z   2
loop_
 _symmetry_equiv_pos_site_id
 _symmetry_equiv_pos_as_xyz
  1  'x, y, z'
loop_
 _atom_site_type_symbol
 _atom_site_label
 _atom_site_symmetry_multiplicity
 _atom_site_fract_x
 _atom_site_fract_y
 _atom_site_fract_z
 _atom_site_occupancy
  Tm  Tm0  1  0.76042346  0.69652781  0.21737473  1
  Tm  Tm1  1  0.23957654  0.30347219  0.78262527  1
  Ge  Ge2  1  0.05178561  0.10784703  0.21141825  1
  Ge  Ge3  1  0.94821439  0.89215297  0.78858175  1
  Pd  Pd4  1  0.54869565  0.27379316  0.37118446  1
  Pd  Pd5  1  0.45130435  0.72620684  0.62881554  1
