# generated using pymatgen
data_TaCo3
_symmetry_space_group_name_H-M   'P 1'
_cell_length_a   4.69976014
_cell_length_b   4.69843883
_cell_length_c   7.66576826
_cell_angle_alpha   90.00722938
_cell_angle_beta   89.99905184
_cell_angle_gamma   119.99222756
_symmetry_Int_Tables_number   1
_chemical_formula_structural   TaCo3
_chemical_formula_sum   'Ta3 Co9'
_cell_volume   146.60527389
_cell_formula_units_Z   3
loop_
 _symmetry_equiv_pos_site_id
 _symmetry_equiv_pos_as_xyz
  1  'x, y, z'
loop_
 _atom_site_type_symbol
 _atom_site_label
 _atom_site_symmetry_multiplicity
 _atom_site_fract_x
 _atom_site_fract_y
 _atom_site_fract_z
 _atom_site_occupancy
  Ta  Ta0  1  0.33324399  0.66654326  0.45312918  1
  Ta  Ta1  1  0.33332856  0.66669511  0.06999762  1
  Ta  Ta2  1  0.66673074  0.33340941  0.90605973  1
  Co  Co3  1  0.99994982  0.99989385  0.50091042  1
  Co  Co4  1  0.99985936  -0.00002406  0.00498398  1
  Co  Co5  1  0.16844251  0.33675880  0.75022382  1
  Co  Co6  1  0.16842986  0.83163435  0.75015034  1
  Co  Co7  1  0.66315888  0.83155264  0.75009548  1
  Co  Co8  1  0.82894644  0.65796062  0.25171959  1
  Co  Co9  1  0.82895932  0.17101585  0.25179490  1
  Co  Co10  1  0.34219764  0.17109799  0.25175252  1
  Co  Co11  1  0.66675288  0.33346217  0.55918240  1
