# generated using pymatgen
data_SrLiLaTi3O9
_symmetry_space_group_name_H-M   'P 1'
_cell_length_a   5.52988763
_cell_length_b   5.52988763
_cell_length_c   6.78823116
_cell_angle_alpha   90.00000000
_cell_angle_beta   90.00000000
_cell_angle_gamma   120.00000000
_symmetry_Int_Tables_number   1
_chemical_formula_structural   SrLiLaTi3O9
_chemical_formula_sum   'Sr1 Li1 La1 Ti3 O9'
_cell_volume   179.77109636
_cell_formula_units_Z   1
loop_
 _symmetry_equiv_pos_site_id
 _symmetry_equiv_pos_as_xyz
  1  'x, y, z'
loop_
 _atom_site_type_symbol
 _atom_site_label
 _atom_site_symmetry_multiplicity
 _atom_site_fract_x
 _atom_site_fract_y
 _atom_site_fract_z
 _atom_site_occupancy
  Sr  Sr0  1  0.66666700  0.33333300  0.32952489  1
  Li  Li1  1  -0.00000000  0.00000000  0.99867942  1
  La  La2  1  0.33333300  0.66666700  0.67124887  1
  Ti  Ti3  1  -0.00000000  -0.00000000  0.49665591  1
  Ti  Ti4  1  0.66666700  0.33333300  0.83970583  1
  Ti  Ti5  1  0.33333300  0.66666700  0.16307643  1
  O  O6  1  0.83181789  0.16818211  0.66411680  1
  O  O7  1  0.49728475  0.50271525  0.99460173  1
  O  O8  1  0.17073870  0.82926130  0.34165102  1
  O  O9  1  0.65852361  0.82926130  0.34165102  1
  O  O10  1  0.33636322  0.16818211  0.66411680  1
  O  O11  1  0.00543049  0.50271525  0.99460173  1
  O  O12  1  0.83181789  0.66363678  0.66411680  1
  O  O13  1  0.49728475  0.99456951  0.99460173  1
  O  O14  1  0.17073870  0.34147639  0.34165102  1
