# generated using pymatgen
data_TaGaBi2O7
_symmetry_space_group_name_H-M   'P 1'
_cell_length_a   7.44950198
_cell_length_b   7.38644227
_cell_length_c   7.48601718
_cell_angle_alpha   90.00000000
_cell_angle_beta   59.83772020
_cell_angle_gamma   119.72037437
_symmetry_Int_Tables_number   1
_chemical_formula_structural   TaGaBi2O7
_chemical_formula_sum   'Ta2 Ga2 Bi4 O14'
_cell_volume   291.78327417
_cell_formula_units_Z   2
loop_
 _symmetry_equiv_pos_site_id
 _symmetry_equiv_pos_as_xyz
  1  'x, y, z'
loop_
 _atom_site_type_symbol
 _atom_site_label
 _atom_site_symmetry_multiplicity
 _atom_site_fract_x
 _atom_site_fract_y
 _atom_site_fract_z
 _atom_site_occupancy
  Ta  Ta0  1  0.00000000  0.00000000  0.50000000  1
  Ta  Ta1  1  -0.00000000  0.00000000  -0.00000000  1
  Ga  Ga2  1  0.50000000  0.50000000  -0.00000000  1
  Ga  Ga3  1  0.50000000  0.00000000  -0.00000000  1
  Bi  Bi4  1  0.50000000  0.00000000  0.50000000  1
  Bi  Bi5  1  0.50000000  0.50000000  0.50000000  1
  Bi  Bi6  1  -0.00000000  0.50000000  -0.00000000  1
  Bi  Bi7  1  0.00000000  0.50000000  0.50000000  1
  O  O8  1  0.85383972  0.92691986  0.32308014  1
  O  O9  1  0.65664796  0.32832398  0.92167602  1
  O  O10  1  0.24924967  0.92655330  0.92163961  1
  O  O11  1  0.24924967  0.32269637  0.32911072  1
  O  O12  1  0.24924967  0.32269637  0.92163961  1
  O  O13  1  0.24924967  0.92655330  0.32911072  1
  O  O14  1  0.14616028  0.07308014  0.67691986  1
  O  O15  1  0.34335204  0.67167602  0.07832398  1
  O  O16  1  0.75075033  0.07344670  0.07836039  1
  O  O17  1  0.75075033  0.67730363  0.67088928  1
  O  O18  1  0.75075033  0.67730363  0.07836039  1
  O  O19  1  0.75075033  0.07344670  0.67088928  1
  O  O20  1  0.74696758  0.37348379  0.37651621  1
  O  O21  1  0.25303242  0.62651621  0.62348379  1
