# generated using pymatgen
data_Sr2ZnP2
_symmetry_space_group_name_H-M   'P 1'
_cell_length_a   4.24814440
_cell_length_b   4.24814440
_cell_length_c   8.40373832
_cell_angle_alpha   90.00000000
_cell_angle_beta   90.00000000
_cell_angle_gamma   120.00475996
_symmetry_Int_Tables_number   1
_chemical_formula_structural   Sr2ZnP2
_chemical_formula_sum   'Sr2 Zn1 P2'
_cell_volume   131.33511585
_cell_formula_units_Z   1
loop_
 _symmetry_equiv_pos_site_id
 _symmetry_equiv_pos_as_xyz
  1  'x, y, z'
loop_
 _atom_site_type_symbol
 _atom_site_label
 _atom_site_symmetry_multiplicity
 _atom_site_fract_x
 _atom_site_fract_y
 _atom_site_fract_z
 _atom_site_occupancy
  Sr  Sr0  1  0.99996605  0.00003395  0.54631532  1
  Sr  Sr1  1  0.99996605  0.00003395  0.95368468  1
  Zn  Zn2  1  0.66668860  0.33331140  0.25000000  1
  P  P3  1  0.66670970  0.33329030  0.75000000  1
  P  P4  1  0.33336961  0.66663039  0.25000000  1
