# generated using pymatgen
data_SrEuC4
_symmetry_space_group_name_H-M   'P 1'
_cell_length_a   4.40780959
_cell_length_b   4.40780959
_cell_length_c   5.75005573
_cell_angle_alpha   90.00000000
_cell_angle_beta   90.00000000
_cell_angle_gamma   81.14365538
_symmetry_Int_Tables_number   1
_chemical_formula_structural   SrEuC4
_chemical_formula_sum   'Sr1 Eu1 C4'
_cell_volume   110.38465285
_cell_formula_units_Z   1
loop_
 _symmetry_equiv_pos_site_id
 _symmetry_equiv_pos_as_xyz
  1  'x, y, z'
loop_
 _atom_site_type_symbol
 _atom_site_label
 _atom_site_symmetry_multiplicity
 _atom_site_fract_x
 _atom_site_fract_y
 _atom_site_fract_z
 _atom_site_occupancy
  Sr  Sr0  1  0.50000000  0.50000000  0.50000000  1
  Eu  Eu1  1  -0.00000000  -0.00000000  -0.00000000  1
  C  C2  1  0.40511837  0.40511837  -0.00000000  1
  C  C3  1  0.90576379  0.90576379  0.50000000  1
  C  C4  1  0.09423621  0.09423621  0.50000000  1
  C  C5  1  0.59488163  0.59488163  0.00000000  1
