# generated using pymatgen
data_Sr2La4Mg2RuO12
_symmetry_space_group_name_H-M   'P 1'
_cell_length_a   3.91331061
_cell_length_b   3.91331061
_cell_length_c   19.22965950
_cell_angle_alpha   84.15993707
_cell_angle_beta   84.15993707
_cell_angle_gamma   90.00000000
_symmetry_Int_Tables_number   1
_chemical_formula_structural   Sr2La4Mg2RuO12
_chemical_formula_sum   'Sr2 La4 Mg2 Ru1 O12'
_cell_volume   291.41813916
_cell_formula_units_Z   1
loop_
 _symmetry_equiv_pos_site_id
 _symmetry_equiv_pos_as_xyz
  1  'x, y, z'
loop_
 _atom_site_type_symbol
 _atom_site_label
 _atom_site_symmetry_multiplicity
 _atom_site_fract_x
 _atom_site_fract_y
 _atom_site_fract_z
 _atom_site_occupancy
  Sr  Sr0  1  0.11819578  0.11819578  0.76360845  1
  Sr  Sr1  1  0.21513722  0.21513722  0.56972455  1
  La  La2  1  0.45412006  0.45412006  0.09175888  1
  La  La3  1  0.78782923  0.78782923  0.42434253  1
  La  La4  1  0.87921294  0.87921294  0.24157412  1
  La  La5  1  0.54550477  0.54550477  0.90899147  1
  Mg  Mg6  1  0.00028714  0.00028714  0.99942571  1
  Mg  Mg7  1  0.33304586  0.33304586  0.33390729  1
  Ru  Ru8  1  0.66666700  0.66666700  0.66666700  1
  O  O9  1  0.39292693  0.39292693  0.21414514  1
  O  O10  1  0.72237611  0.72237611  0.55524877  1
  O  O11  1  0.05684648  0.05684648  0.88630705  1
  O  O12  1  0.94040607  0.94040607  0.11918786  1
  O  O13  1  0.27648652  0.27648652  0.44702595  1
  O  O14  1  0.61095789  0.61095789  0.77808523  1
  O  O15  1  0.49985919  0.99985919  0.00028162  1
  O  O16  1  0.83347381  0.33347381  0.33305138  1
  O  O17  1  0.16666700  0.66666700  0.66666700  1
  O  O18  1  0.33347381  0.83347381  0.33305138  1
  O  O19  1  0.66666700  0.16666700  0.66666700  1
  O  O20  1  0.99985919  0.49985919  0.00028162  1
