# generated using pymatgen
data_Ta3(CuS3)2
_symmetry_space_group_name_H-M   'P 1'
_cell_length_a   3.35807778
_cell_length_b   3.35808625
_cell_length_c   41.74184538
_cell_angle_alpha   89.99985367
_cell_angle_beta   89.99700325
_cell_angle_gamma   59.99979893
_symmetry_Int_Tables_number   1
_chemical_formula_structural   Ta3(CuS3)2
_chemical_formula_sum   'Ta6 Cu4 S12'
_cell_volume   407.64675923
_cell_formula_units_Z   2
loop_
 _symmetry_equiv_pos_site_id
 _symmetry_equiv_pos_as_xyz
  1  'x, y, z'
loop_
 _atom_site_type_symbol
 _atom_site_label
 _atom_site_symmetry_multiplicity
 _atom_site_fract_x
 _atom_site_fract_y
 _atom_site_fract_z
 _atom_site_occupancy
  Ta  Ta0  1  0.33333839  0.33333049  0.25724333  1
  Ta  Ta1  1  0.33328212  0.33336046  0.58103677  1
  Ta  Ta2  1  0.33333856  0.33332984  0.91437612  1
  Ta  Ta3  1  0.66671508  0.66664278  0.07605237  1
  Ta  Ta4  1  0.66667985  0.66666186  0.41967451  1
  Ta  Ta5  1  0.66668308  0.66665844  0.75286793  1
  Cu  Cu6  1  0.33337078  0.33331055  0.18673610  1
  Cu  Cu7  1  0.33334763  0.33332414  0.51006117  1
  Cu  Cu8  1  0.33332197  0.33333771  0.84336358  1
  Cu  Cu9  1  0.66664615  0.66667807  0.14659068  1
  S  S10  1  0.33333886  0.33332968  0.11366892  1
  S  S11  1  0.33331528  0.33334269  0.45711142  1
  S  S12  1  0.33332270  0.33333753  0.79034497  1
  S  S13  1  0.66671111  0.66664420  0.21965990  1
  S  S14  1  0.66665916  0.66667204  0.54263068  1
  S  S15  1  0.66669931  0.66665021  0.87596110  1
  S  S16  1  0.66664346  0.66667818  0.29403340  1
  S  S17  1  0.66658677  0.66670747  0.61758842  1
  S  S18  1  0.66664397  0.66667558  0.95091226  1
  S  S19  1  0.33340702  0.33329829  0.03928064  1
  S  S20  1  0.33337547  0.33331522  0.38348035  1
  S  S21  1  0.33337327  0.33331455  0.71665836  1
