# generated using pymatgen
data_Sr2La2MgMnO8
_symmetry_space_group_name_H-M   'P 1'
_cell_length_a   3.89631251
_cell_length_b   3.89631251
_cell_length_c   12.57938958
_cell_angle_alpha   90.00000000
_cell_angle_beta   90.00000000
_cell_angle_gamma   90.00000000
_symmetry_Int_Tables_number   1
_chemical_formula_structural   Sr2La2MgMnO8
_chemical_formula_sum   'Sr2 La2 Mg1 Mn1 O8'
_cell_volume   190.97087285
_cell_formula_units_Z   1
loop_
 _symmetry_equiv_pos_site_id
 _symmetry_equiv_pos_as_xyz
  1  'x, y, z'
loop_
 _atom_site_type_symbol
 _atom_site_label
 _atom_site_symmetry_multiplicity
 _atom_site_fract_x
 _atom_site_fract_y
 _atom_site_fract_z
 _atom_site_occupancy
  Sr  Sr0  1  0.00000000  0.00000000  0.63897024  1
  Sr  Sr1  1  -0.00000000  -0.00000000  0.36102976  1
  La  La2  1  0.50000000  0.50000000  0.14045043  1
  La  La3  1  0.50000000  0.50000000  0.85954957  1
  Mg  Mg4  1  0.00000000  -0.00000000  0.00000000  1
  Mn  Mn5  1  0.50000000  0.50000000  0.50000000  1
  O  O6  1  0.50000000  0.50000000  0.33648100  1
  O  O7  1  0.00000000  0.00000000  0.82952125  1
  O  O8  1  -0.00000000  -0.00000000  0.17047875  1
  O  O9  1  0.50000000  0.50000000  0.66351900  1
  O  O10  1  -0.00000000  0.50000000  0.00000000  1
  O  O11  1  0.50000000  0.00000000  0.50000000  1
  O  O12  1  0.50000000  0.00000000  -0.00000000  1
  O  O13  1  0.00000000  0.50000000  0.50000000  1
