# generated using pymatgen
data_CoP(H4O3)3
_symmetry_space_group_name_H-M   'P 1'
_cell_length_a   6.75019170
_cell_length_b   9.93214813
_cell_length_c   13.19607167
_cell_angle_alpha   90.00000000
_cell_angle_beta   90.00000000
_cell_angle_gamma   90.00000000
_symmetry_Int_Tables_number   1
_chemical_formula_structural   CoP(H4O3)3
_chemical_formula_sum   'Co4 P4 H48 O36'
_cell_volume   884.71616051
_cell_formula_units_Z   4
loop_
 _symmetry_equiv_pos_site_id
 _symmetry_equiv_pos_as_xyz
  1  'x, y, z'
loop_
 _atom_site_type_symbol
 _atom_site_label
 _atom_site_symmetry_multiplicity
 _atom_site_fract_x
 _atom_site_fract_y
 _atom_site_fract_z
 _atom_site_occupancy
  Co  Co0  1  0.50000000  0.66376362  0.50000000  1
  Co  Co1  1  0.00000000  0.33623638  0.00000000  1
  Co  Co2  1  0.50000000  0.33623638  0.50000000  1
  Co  Co3  1  0.00000000  0.66376362  0.00000000  1
  P  P4  1  0.82941502  0.50000000  0.35800821  1
  P  P5  1  0.17058498  0.50000000  0.64199179  1
  P  P6  1  0.32941502  0.50000000  0.14199179  1
  P  P7  1  0.67058498  0.50000000  0.85800821  1
  H  H8  1  0.18594207  0.74988089  0.59359497  1
  H  H9  1  0.81405793  0.74988089  0.40640503  1
  H  H10  1  0.68594207  0.25011911  0.90640503  1
  H  H11  1  0.31405793  0.25011911  0.09359497  1
  H  H12  1  0.81405793  0.25011911  0.40640503  1
  H  H13  1  0.18594207  0.25011911  0.59359497  1
  H  H14  1  0.31405793  0.74988089  0.09359497  1
  H  H15  1  0.68594207  0.74988089  0.90640503  1
  H  H16  1  0.34722881  0.86135866  0.61941648  1
  H  H17  1  0.65277119  0.86135866  0.38058352  1
  H  H18  1  0.84722881  0.13864134  0.88058352  1
  H  H19  1  0.15277119  0.13864134  0.11941648  1
  H  H20  1  0.65277119  0.13864134  0.38058352  1
  H  H21  1  0.34722881  0.13864134  0.61941648  1
  H  H22  1  0.15277119  0.86135866  0.11941648  1
  H  H23  1  0.84722881  0.86135866  0.88058352  1
  H  H24  1  0.20254311  0.65830673  0.36120506  1
  H  H25  1  0.79745689  0.65830673  0.63879494  1
  H  H26  1  0.70254311  0.34169327  0.13879494  1
  H  H27  1  0.29745689  0.34169327  0.86120506  1
  H  H28  1  0.79745689  0.34169327  0.63879494  1
  H  H29  1  0.20254311  0.34169327  0.36120506  1
  H  H30  1  0.29745689  0.65830673  0.86120506  1
  H  H31  1  0.70254311  0.65830673  0.13879494  1
  H  H32  1  0.40103287  0.66135351  0.29587406  1
  H  H33  1  0.59896713  0.66135351  0.70412594  1
  H  H34  1  0.90103287  0.33864649  0.20412594  1
  H  H35  1  0.09896713  0.33864649  0.79587406  1
  H  H36  1  0.59896713  0.33864649  0.70412594  1
  H  H37  1  0.40103287  0.33864649  0.29587406  1
  H  H38  1  0.09896713  0.66135351  0.79587406  1
  H  H39  1  0.90103287  0.66135351  0.20412594  1
  H  H40  1  0.38483855  0.00000000  0.77407335  1
  H  H41  1  0.61516145  0.00000000  0.22592665  1
  H  H42  1  0.88483855  0.00000000  0.72592665  1
  H  H43  1  0.11516145  0.00000000  0.27407335  1
  H  H44  1  0.57408846  0.00000000  0.70637771  1
  H  H45  1  0.42591154  0.00000000  0.29362229  1
  H  H46  1  0.07408846  0.00000000  0.79362229  1
  H  H47  1  0.92591154  0.00000000  0.20637771  1
  H  H48  1  0.91157018  0.00000000  0.55670416  1
  H  H49  1  0.08842982  0.00000000  0.44329584  1
  H  H50  1  0.41157018  0.00000000  0.94329584  1
  H  H51  1  0.58842982  0.00000000  0.05670416  1
  H  H52  1  0.68834092  0.00000000  0.56719472  1
  H  H53  1  0.31165908  0.00000000  0.43280528  1
  H  H54  1  0.18834092  0.00000000  0.93280528  1
  H  H55  1  0.81165908  0.00000000  0.06719472  1
  O  O56  1  0.31471866  0.50000000  0.54886269  1
  O  O57  1  0.68528134  0.50000000  0.45113731  1
  O  O58  1  0.81471866  0.50000000  0.95113731  1
  O  O59  1  0.18528134  0.50000000  0.04886269  1
  O  O60  1  0.29205534  0.80828108  0.56260626  1
  O  O61  1  0.70794466  0.80828108  0.43739374  1
  O  O62  1  0.79205534  0.19171892  0.93739374  1
  O  O63  1  0.20794466  0.19171892  0.06260626  1
  O  O64  1  0.70794466  0.19171892  0.43739374  1
  O  O65  1  0.29205534  0.19171892  0.56260626  1
  O  O66  1  0.20794466  0.80828108  0.06260626  1
  O  O67  1  0.79205534  0.80828108  0.93739374  1
  O  O68  1  0.95222568  0.36834240  0.35103799  1
  O  O69  1  0.04777432  0.36834240  0.64896201  1
  O  O70  1  0.45222568  0.63165760  0.14896201  1
  O  O71  1  0.54777432  0.63165760  0.85103799  1
  O  O72  1  0.04777432  0.63165760  0.64896201  1
  O  O73  1  0.95222568  0.63165760  0.35103799  1
  O  O74  1  0.54777432  0.36834240  0.85103799  1
  O  O75  1  0.45222568  0.36834240  0.14896201  1
  O  O76  1  0.34649077  0.68176768  0.36345301  1
  O  O77  1  0.65350923  0.68176768  0.63654699  1
  O  O78  1  0.84649077  0.31823232  0.13654699  1
  O  O79  1  0.15350923  0.31823232  0.86345301  1
  O  O80  1  0.65350923  0.31823232  0.63654699  1
  O  O81  1  0.34649077  0.31823232  0.36345301  1
  O  O82  1  0.15350923  0.68176768  0.86345301  1
  O  O83  1  0.84649077  0.68176768  0.13654699  1
  O  O84  1  0.43012126  0.00000000  0.70214182  1
  O  O85  1  0.56987874  0.00000000  0.29785818  1
  O  O86  1  0.93012126  0.00000000  0.79785818  1
  O  O87  1  0.06987874  0.00000000  0.20214182  1
  O  O88  1  0.80847320  0.00000000  0.60756094  1
  O  O89  1  0.19152680  0.00000000  0.39243906  1
  O  O90  1  0.30847320  0.00000000  0.89243906  1
  O  O91  1  0.69152680  0.00000000  0.10756094  1
