# generated using pymatgen
data_SrNd2Fe2O7
_symmetry_space_group_name_H-M   'P 1'
_cell_length_a   3.92776289
_cell_length_b   3.92776289
_cell_length_c   10.56946304
_cell_angle_alpha   79.29180738
_cell_angle_beta   79.29180738
_cell_angle_gamma   90.00000000
_symmetry_Int_Tables_number   1
_chemical_formula_structural   SrNd2Fe2O7
_chemical_formula_sum   'Sr1 Nd2 Fe2 O7'
_cell_volume   157.32834041
_cell_formula_units_Z   1
loop_
 _symmetry_equiv_pos_site_id
 _symmetry_equiv_pos_as_xyz
  1  'x, y, z'
loop_
 _atom_site_type_symbol
 _atom_site_label
 _atom_site_symmetry_multiplicity
 _atom_site_fract_x
 _atom_site_fract_y
 _atom_site_fract_z
 _atom_site_occupancy
  Sr  Sr0  1  0.31525592  0.31525592  0.36948815  1
  Nd  Nd1  1  0.49150489  0.49150489  0.01699022  1
  Nd  Nd2  1  0.68033900  0.68033900  0.63932200  1
  Fe  Fe3  1  0.09720359  0.09720359  0.80559282  1
  Fe  Fe4  1  0.89853715  0.89853715  0.20292569  1
  O  O5  1  0.60142040  0.10142040  0.79715919  1
  O  O6  1  0.10142040  0.60142040  0.79715919  1
  O  O7  1  0.40892432  0.90892432  0.18215137  1
  O  O8  1  0.90892432  0.40892432  0.18215137  1
  O  O9  1  0.19928414  0.19928414  0.60143173  1
  O  O10  1  0.79654514  0.79654514  0.40690971  1
  O  O11  1  0.00064072  0.00064072  -0.00128144  1
