# generated using pymatgen
data_Si14H89C30O
_symmetry_space_group_name_H-M   'P 1'
_cell_length_a   10.72681046
_cell_length_b   12.88407089
_cell_length_c   13.42728401
_cell_angle_alpha   83.21905705
_cell_angle_beta   73.00729579
_cell_angle_gamma   66.24894214
_symmetry_Int_Tables_number   1
_chemical_formula_structural   Si14H89C30O
_chemical_formula_sum   'Si14 H89 C30 O1'
_cell_volume   1624.39053145
_cell_formula_units_Z   1
loop_
 _symmetry_equiv_pos_site_id
 _symmetry_equiv_pos_as_xyz
  1  'x, y, z'
loop_
 _atom_site_type_symbol
 _atom_site_label
 _atom_site_symmetry_multiplicity
 _atom_site_fract_x
 _atom_site_fract_y
 _atom_site_fract_z
 _atom_site_occupancy
  Si  Si0  1  0.26763198  0.18616963  0.83259864  1
  Si  Si1  1  0.72996135  0.81405792  0.16688569  1
  Si  Si2  1  0.21822229  0.37102428  0.88986311  1
  Si  Si3  1  0.79069397  0.61750815  0.10306280  1
  Si  Si4  1  0.09554598  0.61618613  0.68000250  1
  Si  Si5  1  0.90656049  0.38115522  0.32304660  1
  Si  Si6  1  0.28066271  0.49397868  0.75525096  1
  Si  Si7  1  0.72112970  0.50283494  0.24854664  1
  Si  Si8  1  0.15446456  0.17301734  0.70963265  1
  Si  Si9  1  0.84658170  0.82484270  0.29016156  1
  Si  Si10  1  0.51504411  0.07252651  0.77857303  1
  Si  Si11  1  0.48227590  0.92708483  0.22114260  1
  Si  Si12  1  0.39739304  0.59761195  0.79894251  1
  Si  Si13  1  0.60267506  0.40219068  0.20134653  1
  H  H14  1  0.53464265  0.44619844  0.90615476  1
  H  H15  1  0.46758307  0.55417146  0.09446985  1
  H  H16  1  0.38343436  0.34445196  0.61483688  1
  H  H17  1  0.61670109  0.65565502  0.38617784  1
  H  H18  1  0.10232060  0.80342831  0.70861175  1
  H  H19  1  0.89868615  0.19543823  0.29186574  1
  H  H20  1  0.07745084  0.15633766  0.98273642  1
  H  H21  1  0.92242336  0.84170005  0.01713992  1
  H  H22  1  0.62333330  0.20987378  0.79096974  1
  H  H23  1  0.37592120  0.79012481  0.20876622  1
  H  H24  1  0.65791684  0.87042978  0.80707008  1
  H  H25  1  0.34228045  0.12913497  0.19299286  1
  H  H26  1  0.95387114  0.44987498  0.92715497  1
  H  H27  1  0.05403367  0.54573602  0.07584649  1
  H  H28  1  0.48416958  0.88621916  0.81133096  1
  H  H29  1  0.51629818  0.11294192  0.18879550  1
  H  H30  1  0.21627646  0.02466837  0.93574194  1
  H  H31  1  0.78313574  0.97230519  0.06577790  1
  H  H32  1  0.01046650  0.37639811  0.03517722  1
  H  H33  1  0.00075703  0.61674187  0.96496060  1
  H  H34  1  0.57448897  0.13829707  0.59221320  1
  H  H35  1  0.42562999  0.86169543  0.40773365  1
  H  H36  1  0.34805343  0.74156143  0.92724778  1
  H  H37  1  0.65260404  0.25826140  0.07300166  1
  H  H38  1  0.21627976  0.53539658  0.49800815  1
  H  H39  1  0.78461496  0.46355020  0.50354562  1
  H  H40  1  0.92068674  0.33400405  0.77601475  1
  H  H41  1  0.08084129  0.66513455  0.22351848  1
  H  H42  1  0.19259728  0.76907382  0.88779745  1
  H  H43  1  0.80805067  0.23104807  0.11188579  1
  H  H44  1  0.08628797  0.67478287  0.49877427  1
  H  H45  1  0.91362957  0.32409613  0.50515526  1
  H  H46  1  0.32309192  0.19718432  0.54225693  1
  H  H47  1  0.67688059  0.80263940  0.45746678  1
  H  H48  1  0.63418106  0.43643682  0.77344945  1
  H  H49  1  0.36643495  0.56391908  0.22688734  1
  H  H50  1  0.51748432  0.92507587  0.92030375  1
  H  H51  1  0.48287833  0.07415120  0.07939246  1
  H  H52  1  0.16543100  0.97574139  0.76086127  1
  H  H53  1  0.83427073  0.02329798  0.23807699  1
  H  H54  1  0.73907554  0.06674831  0.80152970  1
  H  H55  1  0.25887857  0.93333774  0.19769934  1
  H  H56  1  0.90329427  0.23274969  0.70759471  1
  H  H57  1  0.09640704  0.76706112  0.29226429  1
  H  H58  1  0.51539295  0.72352102  0.70194509  1
  H  H59  1  0.48449206  0.27619645  0.29822434  1
  H  H60  1  0.37161077  0.74174842  0.65196368  1
  H  H61  1  0.62817619  0.25775097  0.34836993  1
  H  H62  1  0.53473811  0.01568534  0.59944390  1
  H  H63  1  0.46588051  0.98414814  0.39990184  1
  H  H64  1  0.31181802  0.97087391  0.65345250  1
  H  H65  1  0.68763090  0.02808748  0.34570430  1
  H  H66  1  0.93818572  0.81935049  0.68983210  1
  H  H67  1  0.06393222  0.17770791  0.30977036  1
  H  H68  1  0.96981672  0.48917307  0.67383202  1
  H  H69  1  0.03025376  0.51026159  0.32698172  1
  H  H70  1  0.45459189  0.45088632  0.57899947  1
  H  H71  1  0.54403526  0.55030718  0.42198334  1
  H  H72  1  0.91912378  0.20424056  0.83690216  1
  H  H73  1  0.08122929  0.79529372  0.16279825  1
  H  H74  1  0.25474648  0.65397182  0.51235002  1
  H  H75  1  0.74591152  0.34498673  0.48975081  1
  H  H76  1  0.59632499  0.13580579  0.91000038  1
  H  H77  1  0.40414036  0.86293358  0.08982458  1
  H  H78  1  0.15601688  0.22078526  0.52487432  1
  H  H79  1  0.84393335  0.77905512  0.47468182  1
  H  H80  1  0.61677221  0.54368657  0.85482557  1
  H  H81  1  0.38364178  0.45685790  0.14586606  1
  H  H82  1  0.86492659  0.63479264  0.66165455  1
  H  H83  1  0.13796598  0.36523881  0.33845702  1
  H  H84  1  0.53290470  0.62127518  0.61559820  1
  H  H85  1  0.46694613  0.37824638  0.38470925  1
  H  H86  1  0.24475706  0.65938765  0.97940253  1
  H  H87  1  0.75490138  0.34123616  0.02078300  1
  H  H88  1  0.23943833  0.11020996  0.01763805  1
  H  H89  1  0.76051367  0.88861612  0.98140618  1
  H  H90  1  0.88252415  0.57817331  0.78614657  1
  H  H91  1  0.11603224  0.42184262  0.21462089  1
  H  H92  1  0.70001016  0.00273567  0.61336473  1
  H  H93  1  0.30032467  0.99723668  0.38684618  1
  H  H94  1  0.17773637  0.32818488  0.58138876  1
  H  H95  1  0.82192640  0.67111448  0.41938404  1
  H  H96  1  0.14137965  0.01228630  0.63403914  1
  H  H97  1  0.85841793  0.98503890  0.36472697  1
  H  H98  1  0.97364460  0.77329703  0.81232081  1
  H  H99  1  0.02633089  0.22665973  0.18823462  1
  H  H100  1  0.51668224  0.34341509  0.66915244  1
  H  H101  1  0.48570835  0.65587048  0.32939873  1
  H  H102  1  0.31338875  0.34204139  0.96185149  1
  C  C103  1  0.42245333  0.39847704  0.64382576  1
  C  C104  1  0.57837260  0.60139530  0.35681837  1
  C  C105  1  0.58636062  0.05671007  0.63203348  1
  C  C106  1  0.41395803  0.94311471  0.36766692  1
  C  C107  1  0.20845708  0.23610773  0.57759412  1
  C  C108  1  0.79146096  0.76317073  0.42226922  1
  C  C109  1  0.19284387  0.11263429  0.95417837  1
  C  C110  1  0.80703259  0.88476297  0.04520979  1
  C  C111  1  0.45892530  0.67840612  0.68042518  1
  C  C112  1  0.54105351  0.32121182  0.31983878  1
  C  C113  1  0.02146457  0.76700280  0.72774923  1
  C  C114  1  0.97992587  0.23141848  0.27298447  1
  C  C115  1  0.54518048  0.92545807  0.83484597  1
  C  C116  1  0.45506009  0.07422208  0.16486982  1
  C  C117  1  0.62805158  0.12693967  0.82488224  1
  C  C118  1  0.36993469  0.87319681  0.17476920  1
  C  C119  1  0.95608794  0.24274554  0.76269978  1
  C  C120  1  0.04446135  0.75645348  0.23676013  1
  C  C121  1  0.02631304  0.43926605  0.97477625  1
  C  C122  1  0.98559935  0.55392991  0.02578476  1
  C  C123  1  0.19819507  0.01818587  0.68801071  1
  C  C124  1  0.80093090  0.98059791  0.31046829  1
  C  C125  1  0.56085049  0.49591976  0.83687471  1
  C  C126  1  0.43994652  0.50457066  0.16338146  1
  C  C127  1  0.28382587  0.70178741  0.90872695  1
  C  C128  1  0.71649855  0.29842440  0.09140908  1
  C  C129  1  0.17162220  0.61973646  0.53372505  1
  C  C130  1  0.82945513  0.37865883  0.46891921  1
  C  C131  1  0.93948551  0.57444872  0.70318629  1
  C  C132  1  0.06142835  0.42466819  0.29796420  1
  O  O133  1  0.67969063  0.65710975  0.03481699  1
