# generated using pymatgen
data_Sr3V3BiO12
_symmetry_space_group_name_H-M   'P 1'
_cell_length_a   7.42058685
_cell_length_b   10.05735617
_cell_length_c   9.32300455
_cell_angle_alpha   110.74408654
_cell_angle_beta   72.76639571
_cell_angle_gamma   76.60897965
_symmetry_Int_Tables_number   1
_chemical_formula_structural   Sr3V3BiO12
_chemical_formula_sum   'Sr6 V6 Bi2 O24'
_cell_volume   575.67050189
_cell_formula_units_Z   2
loop_
 _symmetry_equiv_pos_site_id
 _symmetry_equiv_pos_as_xyz
  1  'x, y, z'
loop_
 _atom_site_type_symbol
 _atom_site_label
 _atom_site_symmetry_multiplicity
 _atom_site_fract_x
 _atom_site_fract_y
 _atom_site_fract_z
 _atom_site_occupancy
  Sr  Sr0  1  0.41032902  1.00000000  0.19200694  1
  Sr  Sr1  1  0.72772306  0.31850206  0.86672158  1
  Sr  Sr2  1  0.04622612  0.68149794  0.54821852  1
  Sr  Sr3  1  0.95377388  0.31850206  0.45178148  1
  Sr  Sr4  1  0.27227694  0.68149794  0.13327842  1
  Sr  Sr5  1  0.58967098  0.00000000  0.80799306  1
  V  V6  1  0.47314195  0.66238556  0.73733456  1
  V  V7  1  0.80594980  0.00000000  0.40357357  1
  V  V8  1  0.13552651  0.33761444  0.07495000  1
  V  V9  1  0.86447349  0.66238556  0.92505000  1
  V  V10  1  0.19405020  1.00000000  0.59642643  1
  V  V11  1  0.52685805  0.33761444  0.26266544  1
  Bi  Bi12  1  0.32746255  0.34507390  0.67253745  1
  Bi  Bi13  1  0.67253745  0.65492610  0.32746255  1
  O  O14  1  0.53839039  0.48987152  0.75682259  1
  O  O15  1  0.82974878  0.83030161  0.43021114  1
  O  O16  1  0.20386672  0.18640806  0.12061017  1
  O  O17  1  0.39027377  0.81359194  0.93420311  1
  O  O18  1  0.66005139  0.16969839  0.59990854  1
  O  O19  1  0.02826191  0.51012848  0.26695107  1
  O  O20  1  0.68689450  0.66384635  0.58718951  1
  O  O21  1  0.04510833  0.00000000  0.30668083  1
  O  O22  1  0.35073985  0.33615365  0.92334416  1
  O  O23  1  0.79613328  0.81359194  0.87938983  1
  O  O24  1  0.17025122  0.16969839  0.56978886  1
  O  O25  1  0.46160961  0.51012848  0.24317741  1
  O  O26  1  0.97173809  0.48987152  0.73304893  1
  O  O27  1  0.33994861  0.83030161  0.40009146  1
  O  O28  1  0.60972623  0.18640806  0.06579689  1
  O  O29  1  0.64926015  0.66384635  0.07665584  1
  O  O30  1  0.95489167  1.00000000  0.69331917  1
  O  O31  1  0.31310550  0.33615365  0.41281049  1
  O  O32  1  0.66825012  0.00000000  0.28938686  1
  O  O33  1  0.95416723  0.34027579  0.99847415  1
  O  O34  1  0.29444402  0.65972421  0.65819736  1
  O  O35  1  0.70555598  0.34027579  0.34180264  1
  O  O36  1  0.04583277  0.65972421  0.00152585  1
  O  O37  1  0.33174988  1.00000000  0.71061314  1
