# generated using pymatgen
data_Nd2NbGaO7
_symmetry_space_group_name_H-M   'P 1'
_cell_length_a   7.44451196
_cell_length_b   7.34901452
_cell_length_c   7.51781294
_cell_angle_alpha   90.00000000
_cell_angle_beta   59.67374866
_cell_angle_gamma   119.57655609
_symmetry_Int_Tables_number   1
_chemical_formula_structural   Nd2NbGaO7
_chemical_formula_sum   'Nd4 Nb2 Ga2 O14'
_cell_volume   291.24603726
_cell_formula_units_Z   2
loop_
 _symmetry_equiv_pos_site_id
 _symmetry_equiv_pos_as_xyz
  1  'x, y, z'
loop_
 _atom_site_type_symbol
 _atom_site_label
 _atom_site_symmetry_multiplicity
 _atom_site_fract_x
 _atom_site_fract_y
 _atom_site_fract_z
 _atom_site_occupancy
  Nd  Nd0  1  0.50000000  -0.00000000  0.50000000  1
  Nd  Nd1  1  0.50000000  0.50000000  0.50000000  1
  Nd  Nd2  1  -0.00000000  0.50000000  0.00000000  1
  Nd  Nd3  1  -0.00000000  0.50000000  0.50000000  1
  Nb  Nb4  1  0.00000000  -0.00000000  0.50000000  1
  Nb  Nb5  1  -0.00000000  -0.00000000  0.00000000  1
  Ga  Ga6  1  0.50000000  0.50000000  0.00000000  1
  Ga  Ga7  1  0.50000000  -0.00000000  0.00000000  1
  O  O8  1  0.84403215  0.92201608  0.32798392  1
  O  O9  1  0.65820509  0.32910254  0.92089746  1
  O  O10  1  0.24827183  0.92316331  0.92120495  1
  O  O11  1  0.24827183  0.32510852  0.33052322  1
  O  O12  1  0.24827183  0.32510852  0.92120495  1
  O  O13  1  0.24827183  0.92316331  0.33052322  1
  O  O14  1  0.15596785  0.07798392  0.67201608  1
  O  O15  1  0.34179491  0.67089746  0.07910254  1
  O  O16  1  0.75172817  0.07683669  0.07879505  1
  O  O17  1  0.75172817  0.67489148  0.66947678  1
  O  O18  1  0.75172817  0.67489148  0.07879505  1
  O  O19  1  0.75172817  0.07683669  0.66947678  1
  O  O20  1  0.74797217  0.37398609  0.37601391  1
  O  O21  1  0.25202783  0.62601391  0.62398609  1
