# generated using pymatgen
data_Nb4Pd
_symmetry_space_group_name_H-M   'P 1'
_cell_length_a   2.82598039
_cell_length_b   2.82598039
_cell_length_c   11.59663550
_cell_angle_alpha   84.88538203
_cell_angle_beta   84.88538203
_cell_angle_gamma   105.56579409
_symmetry_Int_Tables_number   1
_chemical_formula_structural   Nb4Pd
_chemical_formula_sum   'Nb4 Pd1'
_cell_volume   88.24147844
_cell_formula_units_Z   1
loop_
 _symmetry_equiv_pos_site_id
 _symmetry_equiv_pos_as_xyz
  1  'x, y, z'
loop_
 _atom_site_type_symbol
 _atom_site_label
 _atom_site_symmetry_multiplicity
 _atom_site_fract_x
 _atom_site_fract_y
 _atom_site_fract_z
 _atom_site_occupancy
  Nb  Nb0  1  0.40451895  0.40451895  0.19096211  1
  Nb  Nb1  1  0.80230035  0.80230035  0.39539931  1
  Nb  Nb2  1  0.19769965  0.19769965  0.60460069  1
  Nb  Nb3  1  0.59548105  0.59548105  0.80903789  1
  Pd  Pd4  1  0.00000000  -0.00000000  -0.00000000  1
