# generated using pymatgen
data_Nd2(CuAg)5
_symmetry_space_group_name_H-M   'P 1'
_cell_length_a   4.48510034
_cell_length_b   5.26650807
_cell_length_c   9.38027506
_cell_angle_alpha   89.99999967
_cell_angle_beta   90.00000000
_cell_angle_gamma   90.00000000
_symmetry_Int_Tables_number   1
_chemical_formula_structural   Nd2(CuAg)5
_chemical_formula_sum   'Nd2 Cu5 Ag5'
_cell_volume   221.56976194
_cell_formula_units_Z   1
loop_
 _symmetry_equiv_pos_site_id
 _symmetry_equiv_pos_as_xyz
  1  'x, y, z'
loop_
 _atom_site_type_symbol
 _atom_site_label
 _atom_site_symmetry_multiplicity
 _atom_site_fract_x
 _atom_site_fract_y
 _atom_site_fract_z
 _atom_site_occupancy
  Nd  Nd0  1  0.00000000  0.99997840  0.00000000  1
  Nd  Nd1  1  -0.00000000  0.49998438  0.50000000  1
  Cu  Cu2  1  0.50000000  0.99998876  0.50000000  1
  Cu  Cu3  1  0.50000000  0.24761901  0.25854199  1
  Cu  Cu4  1  0.50000000  0.75234535  0.74147231  1
  Cu  Cu5  1  0.50000000  0.75234535  0.25852769  1
  Cu  Cu6  1  0.50000000  0.24761901  0.74145801  1
  Ag  Ag7  1  0.00000000  0.99997859  0.33379982  1
  Ag  Ag8  1  -0.00000000  0.49998474  0.82160026  1
  Ag  Ag9  1  0.00000000  0.49998474  0.17839974  1
  Ag  Ag10  1  -0.00000000  0.99997859  0.66620018  1
  Ag  Ag11  1  0.50000000  0.49999307  -0.00000000  1
