# generated using pymatgen
data_NdCo
_symmetry_space_group_name_H-M   'P 1'
_cell_length_a   5.79418381
_cell_length_b   5.71686506
_cell_length_c   7.41591355
_cell_angle_alpha   89.28192091
_cell_angle_beta   90.00000000
_cell_angle_gamma   59.55158960
_symmetry_Int_Tables_number   1
_chemical_formula_structural   NdCo
_chemical_formula_sum   'Nd5 Co5'
_cell_volume   211.74807211
_cell_formula_units_Z   5
loop_
 _symmetry_equiv_pos_site_id
 _symmetry_equiv_pos_as_xyz
  1  'x, y, z'
loop_
 _atom_site_type_symbol
 _atom_site_label
 _atom_site_symmetry_multiplicity
 _atom_site_fract_x
 _atom_site_fract_y
 _atom_site_fract_z
 _atom_site_occupancy
  Nd  Nd0  1  0.66262060  0.67475881  0.87293355  1
  Nd  Nd1  1  0.33737940  0.32524119  0.12706645  1
  Nd  Nd2  1  0.84024083  0.31951835  0.42790058  1
  Nd  Nd3  1  0.15975917  0.68048165  0.57209942  1
  Nd  Nd4  1  0.00000000  0.00000000  -0.00000000  1
  Co  Co5  1  0.50000000  0.00000000  0.50000000  1
  Co  Co6  1  0.60857479  0.20130498  0.73938085  1
  Co  Co7  1  0.80987978  0.79869502  0.26061915  1
  Co  Co8  1  0.39142521  0.79869502  0.26061915  1
  Co  Co9  1  0.19012022  0.20130498  0.73938085  1
