# generated using pymatgen
data_Nb3Pb2O7F5
_symmetry_space_group_name_H-M   'P 1'
_cell_length_a   3.88509663
_cell_length_b   3.96166511
_cell_length_c   17.00995987
_cell_angle_alpha   83.31265704
_cell_angle_beta   83.44247860
_cell_angle_gamma   90.00000000
_symmetry_Int_Tables_number   1
_chemical_formula_structural   Nb3Pb2O7F5
_chemical_formula_sum   'Nb3 Pb2 O7 F5'
_cell_volume   258.30210372
_cell_formula_units_Z   1
loop_
 _symmetry_equiv_pos_site_id
 _symmetry_equiv_pos_as_xyz
  1  'x, y, z'
loop_
 _atom_site_type_symbol
 _atom_site_label
 _atom_site_symmetry_multiplicity
 _atom_site_fract_x
 _atom_site_fract_y
 _atom_site_fract_z
 _atom_site_occupancy
  Nb  Nb0  1  0.38037759  0.38037759  0.23924483  1
  Nb  Nb1  1  0.61583878  0.61583878  0.76832244  1
  Nb  Nb2  1  0.49562265  0.49562265  0.00875470  1
  Pb  Pb3  1  0.20990231  0.20990231  0.58019538  1
  Pb  Pb4  1  0.80488161  0.80488161  0.39023678  1
  O  O5  1  0.43570711  0.43570711  0.12858579  1
  O  O6  1  0.56305410  0.56305410  0.87389180  1
  O  O7  1  0.50261770  0.00261770  0.99476461  1
  O  O8  1  0.00374646  0.50374646  0.99250708  1
  O  O9  1  0.12621801  0.62621801  0.74756399  1
  O  O10  1  0.36857632  0.86857632  0.26284736  1
  O  O11  1  0.86777198  0.36777198  0.26445604  1
  F  F12  1  0.31204369  0.31204369  0.37591261  1
  F  F13  1  0.68315667  0.68315667  0.63368666  1
  F  F14  1  0.75134228  0.25134228  0.49731544  1
  F  F15  1  0.25126676  0.75126676  0.49746648  1
  F  F16  1  0.62787599  0.12787599  0.74424802  1
