# generated using pymatgen
data_CoAs2S6(NF3)6
_symmetry_space_group_name_H-M   'P 1'
_cell_length_a   9.55481359
_cell_length_b   9.68766082
_cell_length_c   13.65301335
_cell_angle_alpha   90.52399938
_cell_angle_beta   90.00000000
_cell_angle_gamma   90.00000000
_symmetry_Int_Tables_number   1
_chemical_formula_structural   CoAs2S6(NF3)6
_chemical_formula_sum   'Co2 As4 S12 N12 F36'
_cell_volume   1263.72185410
_cell_formula_units_Z   2
loop_
 _symmetry_equiv_pos_site_id
 _symmetry_equiv_pos_as_xyz
  1  'x, y, z'
loop_
 _atom_site_type_symbol
 _atom_site_label
 _atom_site_symmetry_multiplicity
 _atom_site_fract_x
 _atom_site_fract_y
 _atom_site_fract_z
 _atom_site_occupancy
  Co  Co0  1  0.50000000  0.50000000  0.50000000  1
  Co  Co1  1  0.00000000  -0.00000000  -0.00000000  1
  As  As2  1  0.44886673  0.99669604  0.25352169  1
  As  As3  1  0.05113327  0.49669604  0.75352169  1
  As  As4  1  0.55113327  0.00330396  0.74647831  1
  As  As5  1  0.94886673  0.50330396  0.24647831  1
  S  S6  1  0.69493484  0.80158327  0.46379758  1
  S  S7  1  0.80506516  0.30158327  0.96379758  1
  S  S8  1  0.30506516  0.19841673  0.53620242  1
  S  S9  1  0.19493484  0.69841673  0.03620242  1
  S  S10  1  0.19595426  0.69410785  0.46285680  1
  S  S11  1  0.30404574  0.19410785  0.96285680  1
  S  S12  1  0.80404574  0.30589215  0.53714320  1
  S  S13  1  0.69595426  0.80589215  0.03714320  1
  S  S14  1  0.53400835  0.42912047  0.24903332  1
  S  S15  1  0.96599165  0.92912047  0.74903332  1
  S  S16  1  0.46599165  0.57087953  0.75096668  1
  S  S17  1  0.03400835  0.07087953  0.25096668  1
  N  N18  1  0.61191334  0.67899437  0.47328804  1
  N  N19  1  0.88808666  0.17899437  0.97328804  1
  N  N20  1  0.38808666  0.32100563  0.52671196  1
  N  N21  1  0.11191334  0.82100563  0.02671196  1
  N  N22  1  0.52091163  0.44944789  0.35300483  1
  N  N23  1  0.97908837  0.94944789  0.85300483  1
  N  N24  1  0.47908837  0.55055211  0.64699517  1
  N  N25  1  0.02091163  0.05055211  0.14699517  1
  N  N26  1  0.31624699  0.60593383  0.47160299  1
  N  N27  1  0.18375301  0.10593383  0.97160299  1
  N  N28  1  0.68375301  0.39406617  0.52839701  1
  N  N29  1  0.81624699  0.89406617  0.02839701  1
  F  F30  1  0.59450255  0.10625673  0.23662171  1
  F  F31  1  0.90549745  0.60625673  0.73662171  1
  F  F32  1  0.40549745  0.89374327  0.76337829  1
  F  F33  1  0.09450255  0.39374327  0.26337829  1
  F  F34  1  0.42734099  0.98093400  0.12441682  1
  F  F35  1  0.07265901  0.48093400  0.62441682  1
  F  F36  1  0.57265901  0.01906600  0.87558318  1
  F  F37  1  0.92734099  0.51906600  0.37558318  1
  F  F38  1  0.29923749  0.88944451  0.27018830  1
  F  F39  1  0.20076251  0.38944451  0.77018830  1
  F  F40  1  0.70076251  0.11055549  0.72981170  1
  F  F41  1  0.79923749  0.61055549  0.22981170  1
  F  F42  1  0.46747152  0.01075220  0.38299011  1
  F  F43  1  0.03252848  0.51075220  0.88299011  1
  F  F44  1  0.53252848  0.98924780  0.61700989  1
  F  F45  1  0.96747152  0.48924780  0.11700989  1
  F  F46  1  0.33653069  0.14376712  0.25472712  1
  F  F47  1  0.16346931  0.64376712  0.75472712  1
  F  F48  1  0.66346931  0.85623288  0.74527288  1
  F  F49  1  0.83653069  0.35623288  0.24527288  1
  F  F50  1  0.56009453  0.85004981  0.25235241  1
  F  F51  1  0.93990547  0.35004981  0.75235241  1
  F  F52  1  0.43990547  0.14995019  0.74764759  1
  F  F53  1  0.06009453  0.64995019  0.24764759  1
  F  F54  1  0.84610996  0.80074273  0.52609236  1
  F  F55  1  0.65389004  0.30074273  0.02609236  1
  F  F56  1  0.15389004  0.19925727  0.47390764  1
  F  F57  1  0.34610996  0.69925727  0.97390764  1
  F  F58  1  0.20090197  0.83702324  0.53162710  1
  F  F59  1  0.29909803  0.33702324  0.03162710  1
  F  F60  1  0.79909803  0.16297676  0.46837290  1
  F  F61  1  0.70090197  0.66297676  0.96837290  1
  F  F62  1  0.45454367  0.54918570  0.18174636  1
  F  F63  1  0.04545633  0.04918570  0.68174636  1
  F  F64  1  0.54545633  0.45081430  0.81825364  1
  F  F65  1  0.95454367  0.95081430  0.31825364  1
