# generated using pymatgen
data_Mn5Fe5Si6
_symmetry_space_group_name_H-M   'P 1'
_cell_length_a   4.64199746
_cell_length_b   6.80640301
_cell_length_c   6.72528288
_cell_angle_alpha   60.37444451
_cell_angle_beta   89.99675315
_cell_angle_gamma   89.99747447
_symmetry_Int_Tables_number   1
_chemical_formula_structural   Mn5Fe5Si6
_chemical_formula_sum   'Mn5 Fe5 Si6'
_cell_volume   184.70985613
_cell_formula_units_Z   1
loop_
 _symmetry_equiv_pos_site_id
 _symmetry_equiv_pos_as_xyz
  1  'x, y, z'
loop_
 _atom_site_type_symbol
 _atom_site_label
 _atom_site_symmetry_multiplicity
 _atom_site_fract_x
 _atom_site_fract_y
 _atom_site_fract_z
 _atom_site_occupancy
  Mn  Mn0  1  0.24994432  -0.00001870  0.76746413  1
  Mn  Mn1  1  0.50003086  0.32844613  0.33816387  1
  Mn  Mn2  1  0.50005643  0.67161292  0.66653181  1
  Mn  Mn3  1  -0.00001528  0.67163642  0.66651221  1
  Mn  Mn4  1  -0.00003657  0.32843437  0.33816554  1
  Fe  Fe5  1  0.75001348  0.24931616  0.75127941  1
  Fe  Fe6  1  0.75001714  0.75054177  0.00061343  1
  Fe  Fe7  1  0.75001000  -0.00000374  0.23884458  1
  Fe  Fe8  1  0.24999216  0.75188296  0.24350485  1
  Fe  Fe9  1  0.24998019  0.24822230  0.99541227  1
  Si  Si10  1  0.75001664  0.60890291  0.39086414  1
  Si  Si11  1  0.75000839  0.39107538  -0.00008456  1
  Si  Si12  1  0.74999604  -0.00003643  0.60866644  1
  Si  Si13  1  0.24999068  0.40301451  0.60292077  1
  Si  Si14  1  0.24998726  0.59690759  0.00601257  1
  Si  Si15  1  0.25000825  0.00006545  0.38512856  1
