# generated using pymatgen
data_Mn5In3O12
_symmetry_space_group_name_H-M   'P 1'
_cell_length_a   5.21063032
_cell_length_b   5.40411702
_cell_length_c   7.93893925
_cell_angle_alpha   89.68244787
_cell_angle_beta   91.81472908
_cell_angle_gamma   90.50731477
_symmetry_Int_Tables_number   1
_chemical_formula_structural   Mn5In3O12
_chemical_formula_sum   'Mn5 In3 O12'
_cell_volume   223.42747016
_cell_formula_units_Z   1
loop_
 _symmetry_equiv_pos_site_id
 _symmetry_equiv_pos_as_xyz
  1  'x, y, z'
loop_
 _atom_site_type_symbol
 _atom_site_label
 _atom_site_symmetry_multiplicity
 _atom_site_fract_x
 _atom_site_fract_y
 _atom_site_fract_z
 _atom_site_occupancy
  Mn  Mn0  1  0.99752626  0.50047774  0.00345715  1
  Mn  Mn1  1  0.50229379  0.00008269  0.49721484  1
  Mn  Mn2  1  0.99957943  0.49906513  0.49557580  1
  Mn  Mn3  1  0.50086016  0.99887180  0.00476803  1
  Mn  Mn4  1  0.51806346  0.55263968  0.23628980  1
  In  In5  1  0.02152004  0.93961829  0.73813820  1
  In  In6  1  0.47768141  0.44132348  0.76521666  1
  In  In7  1  0.98068492  0.05764915  0.26100096  1
  O  O8  1  0.80280206  0.80855126  0.07986211  1
  O  O9  1  0.30232848  0.69986235  0.58263631  1
  O  O10  1  0.20088167  0.19538483  0.91801731  1
  O  O11  1  0.69626840  0.29916149  0.41512899  1
  O  O12  1  0.12664993  0.43488267  0.23291528  1
  O  O13  1  0.62805130  0.06474420  0.73185226  1
  O  O14  1  0.87177950  0.56282304  0.76722827  1
  O  O15  1  0.37340491  0.93164344  0.26767310  1
  O  O16  1  0.30475627  0.69834939  0.94193511  1
  O  O17  1  0.81396522  0.80859549  0.44925125  1
  O  O18  1  0.68593247  0.30865058  0.05536606  1
  O  O19  1  0.19497033  0.19762330  0.55647251  1
