# generated using pymatgen
data_NaAlGeO4
_symmetry_space_group_name_H-M   'P 1'
_cell_length_a   2.87938248
_cell_length_b   8.96252496
_cell_length_c   10.48789228
_cell_angle_alpha   90.00000000
_cell_angle_beta   90.00000000
_cell_angle_gamma   90.00000000
_symmetry_Int_Tables_number   1
_chemical_formula_structural   NaAlGeO4
_chemical_formula_sum   'Na4 Al4 Ge4 O16'
_cell_volume   270.65618381
_cell_formula_units_Z   4
loop_
 _symmetry_equiv_pos_site_id
 _symmetry_equiv_pos_as_xyz
  1  'x, y, z'
loop_
 _atom_site_type_symbol
 _atom_site_label
 _atom_site_symmetry_multiplicity
 _atom_site_fract_x
 _atom_site_fract_y
 _atom_site_fract_z
 _atom_site_occupancy
  Na  Na0  1  0.75000000  0.25689212  0.84940808  1
  Na  Na1  1  0.75000000  0.75689212  0.65059192  1
  Na  Na2  1  0.25000000  0.74056667  0.15816138  1
  Na  Na3  1  0.25000000  0.24056667  0.34183862  1
  Al  Al4  1  0.75000000  0.43464507  0.61135683  1
  Al  Al5  1  0.75000000  0.93464507  0.88864317  1
  Al  Al6  1  0.75000000  0.42182608  0.10288242  1
  Al  Al7  1  0.75000000  0.92182608  0.39711758  1
  Ge  Ge8  1  0.25000000  0.55785684  0.38780141  1
  Ge  Ge9  1  0.25000000  0.05785684  0.11219859  1
  Ge  Ge10  1  0.25000000  0.58450624  0.89861339  1
  Ge  Ge11  1  0.25000000  0.08450624  0.60138661  1
  O  O12  1  0.75000000  0.11962105  0.48306692  1
  O  O13  1  0.75000000  0.61962105  0.01693308  1
  O  O14  1  0.25000000  0.89128096  0.51461853  1
  O  O15  1  0.25000000  0.39128096  0.98538147  1
  O  O16  1  0.75000000  0.42097561  0.42420154  1
  O  O17  1  0.75000000  0.92097561  0.07579846  1
  O  O18  1  0.25000000  0.56997239  0.57110838  1
  O  O19  1  0.25000000  0.06997239  0.92889162  1
  O  O20  1  0.75000000  0.02600196  0.71440958  1
  O  O21  1  0.75000000  0.52600196  0.78559042  1
  O  O22  1  0.25000000  0.97857762  0.28544322  1
  O  O23  1  0.25000000  0.47857762  0.21455678  1
  O  O24  1  0.75000000  0.20184457  0.14728345  1
  O  O25  1  0.75000000  0.70184457  0.35271655  1
  O  O26  1  0.25000000  0.79543281  0.85016115  1
  O  O27  1  0.25000000  0.29543281  0.64983885  1
