# generated using pymatgen
data_RbIn(PO4)2
_symmetry_space_group_name_H-M   'P 1'
_cell_length_a   8.65510689
_cell_length_b   9.76203281
_cell_length_c   9.87005259
_cell_angle_alpha   116.52888148
_cell_angle_beta   90.00000000
_cell_angle_gamma   90.00000000
_symmetry_Int_Tables_number   1
_chemical_formula_structural   RbIn(PO4)2
_chemical_formula_sum   'Rb4 In4 P8 O32'
_cell_volume   746.12936348
_cell_formula_units_Z   4
loop_
 _symmetry_equiv_pos_site_id
 _symmetry_equiv_pos_as_xyz
  1  'x, y, z'
loop_
 _atom_site_type_symbol
 _atom_site_label
 _atom_site_symmetry_multiplicity
 _atom_site_fract_x
 _atom_site_fract_y
 _atom_site_fract_z
 _atom_site_occupancy
  Rb  Rb0  1  0.63386358  0.91224773  0.82538365  1
  Rb  Rb1  1  0.13386358  0.58775227  0.17461635  1
  Rb  Rb2  1  0.36613642  0.08775227  0.17461635  1
  Rb  Rb3  1  0.86613642  0.41224773  0.82538365  1
  In  In4  1  0.37495062  0.50796729  0.74429954  1
  In  In5  1  0.87495062  0.99203271  0.25570046  1
  In  In6  1  0.62504938  0.49203271  0.25570046  1
  In  In7  1  0.12504938  0.00796729  0.74429954  1
  P  P8  1  0.32513343  0.67329910  0.51177748  1
  P  P9  1  0.82513343  0.82670090  0.48822252  1
  P  P10  1  0.67486657  0.32670090  0.48822252  1
  P  P11  1  0.17486657  0.17329910  0.51177748  1
  P  P12  1  0.43075181  0.26647855  0.90701581  1
  P  P13  1  0.93075181  0.23352145  0.09298419  1
  P  P14  1  0.56924819  0.73352145  0.09298419  1
  P  P15  1  0.06924819  0.76647855  0.90701581  1
  O  O16  1  0.41458976  0.65600160  0.63791281  1
  O  O17  1  0.91458976  0.84399840  0.36208719  1
  O  O18  1  0.58541024  0.34399840  0.36208719  1
  O  O19  1  0.08541024  0.15600160  0.63791281  1
  O  O20  1  0.41941169  0.62020042  0.36491397  1
  O  O21  1  0.91941169  0.87979958  0.63508603  1
  O  O22  1  0.58058831  0.37979958  0.63508603  1
  O  O23  1  0.08058831  0.12020042  0.36491397  1
  O  O24  1  0.26760538  0.84045105  0.56144340  1
  O  O25  1  0.76760538  0.65954895  0.43855660  1
  O  O26  1  0.73239462  0.15954895  0.43855660  1
  O  O27  1  0.23239462  0.34045105  0.56144340  1
  O  O28  1  0.33707226  0.09565574  0.47877806  1
  O  O29  1  0.83707226  0.40434426  0.52122194  1
  O  O30  1  0.66292774  0.90434426  0.52122194  1
  O  O31  1  0.16292774  0.59565574  0.47877806  1
  O  O32  1  0.33562641  0.11885611  0.85949965  1
  O  O33  1  0.83562641  0.38114389  0.14050035  1
  O  O34  1  0.66437359  0.88114389  0.14050035  1
  O  O35  1  0.16437359  0.61885611  0.85949965  1
  O  O36  1  0.47932388  0.31965608  0.07541477  1
  O  O37  1  0.97932388  0.18034392  0.92458523  1
  O  O38  1  0.52067612  0.68034392  0.92458523  1
  O  O39  1  0.02067612  0.81965608  0.07541477  1
  O  O40  1  0.34334453  0.39071910  0.88317313  1
  O  O41  1  0.84334453  0.10928090  0.11682687  1
  O  O42  1  0.65665547  0.60928090  0.11682687  1
  O  O43  1  0.15665547  0.89071910  0.88317313  1
  O  O44  1  0.40412510  0.76761824  0.16334610  1
  O  O45  1  0.90412510  0.73238176  0.83665390  1
  O  O46  1  0.59587490  0.23238176  0.83665390  1
  O  O47  1  0.09587490  0.26761824  0.16334610  1
