# generated using pymatgen
data_MnZn5(BO5)2
_symmetry_space_group_name_H-M   'P 1'
_cell_length_a   3.09821929
_cell_length_b   9.46768574
_cell_length_c   12.47011675
_cell_angle_alpha   90.00000000
_cell_angle_beta   90.00000000
_cell_angle_gamma   90.00000000
_symmetry_Int_Tables_number   1
_chemical_formula_structural   MnZn5(BO5)2
_chemical_formula_sum   'Mn2 Zn10 B4 O20'
_cell_volume   365.78551802
_cell_formula_units_Z   2
loop_
 _symmetry_equiv_pos_site_id
 _symmetry_equiv_pos_as_xyz
  1  'x, y, z'
loop_
 _atom_site_type_symbol
 _atom_site_label
 _atom_site_symmetry_multiplicity
 _atom_site_fract_x
 _atom_site_fract_y
 _atom_site_fract_z
 _atom_site_occupancy
  Mn  Mn0  1  0.00000000  0.25696933  0.61502688  1
  Mn  Mn1  1  -0.00000000  0.24303067  0.11502688  1
  Zn  Zn2  1  0.50000000  0.51057593  0.22118260  1
  Zn  Zn3  1  0.50000000  0.50223335  0.77934895  1
  Zn  Zn4  1  0.50000000  0.99776665  0.27934895  1
  Zn  Zn5  1  0.50000000  0.98942407  0.72118260  1
  Zn  Zn6  1  0.50000000  0.50833304  0.49943697  1
  Zn  Zn7  1  0.50000000  0.99166696  0.99943697  1
  Zn  Zn8  1  0.00000000  0.98791610  0.49580797  1
  Zn  Zn9  1  0.00000000  0.51208390  0.99580797  1
  Zn  Zn10  1  0.00000000  0.73795758  0.38137888  1
  Zn  Zn11  1  -0.00000000  0.76204242  0.88137888  1
  B  B12  1  0.00000000  0.77553855  0.13881084  1
  B  B13  1  0.00000000  0.22983868  0.86193375  1
  B  B14  1  0.00000000  0.27016132  0.36193375  1
  B  B15  1  0.00000000  0.72446145  0.63881084  1
  O  O16  1  0.00000000  0.62693567  0.13935340  1
  O  O17  1  0.00000000  0.37473553  0.86047546  1
  O  O18  1  0.00000000  0.12526447  0.36047546  1
  O  O19  1  -0.00000000  0.87306433  0.63935340  1
  O  O20  1  0.50000000  0.60401393  0.35771293  1
  O  O21  1  0.50000000  0.38501097  0.64200616  1
  O  O22  1  0.50000000  0.11498903  0.14200616  1
  O  O23  1  0.50000000  0.89598607  0.85771293  1
  O  O24  1  -0.00000000  0.84960926  0.23458683  1
  O  O25  1  0.00000000  0.15608193  0.76461851  1
  O  O26  1  0.00000000  0.34391807  0.26461851  1
  O  O27  1  0.00000000  0.65039074  0.73458683  1
  O  O28  1  0.00000000  0.64947311  0.54370125  1
  O  O29  1  0.00000000  0.34541989  0.45888472  1
  O  O30  1  -0.00000000  0.15458011  0.95888472  1
  O  O31  1  -0.00000000  0.85052689  0.04370125  1
  O  O32  1  0.50000000  0.89000714  0.42110960  1
  O  O33  1  0.50000000  0.12422079  0.58462430  1
  O  O34  1  0.50000000  0.37577921  0.08462430  1
  O  O35  1  0.50000000  0.60999286  0.92110960  1
