# generated using pymatgen
data_Mn4CoSb4Ir3
_symmetry_space_group_name_H-M   'P 1'
_cell_length_a   4.27783673
_cell_length_b   4.27783673
_cell_length_c   14.12612837
_cell_angle_alpha   90.00000000
_cell_angle_beta   81.29101957
_cell_angle_gamma   120.00000000
_symmetry_Int_Tables_number   1
_chemical_formula_structural   Mn4CoSb4Ir3
_chemical_formula_sum   'Mn4 Co1 Sb4 Ir3'
_cell_volume   220.42489760
_cell_formula_units_Z   1
loop_
 _symmetry_equiv_pos_site_id
 _symmetry_equiv_pos_as_xyz
  1  'x, y, z'
loop_
 _atom_site_type_symbol
 _atom_site_label
 _atom_site_symmetry_multiplicity
 _atom_site_fract_x
 _atom_site_fract_y
 _atom_site_fract_z
 _atom_site_occupancy
  Mn  Mn0  1  0.24505873  0.62252937  0.13241190  1
  Mn  Mn1  1  0.75611640  0.87805820  0.36582540  1
  Mn  Mn2  1  0.25255479  0.12627739  0.62116782  1
  Mn  Mn3  1  0.74795392  0.37397696  0.87806911  1
  Co  Co4  1  0.87037619  0.93518810  0.19443571  1
  Sb  Sb5  1  0.00271057  0.50135529  0.49593414  1
  Sb  Sb6  1  0.49872934  0.74936467  0.75190599  1
  Sb  Sb7  1  0.99119725  0.99559862  0.01320413  1
  Sb  Sb8  1  0.50717924  0.25358962  0.23923114  1
  Ir  Ir9  1  0.38043593  0.19021797  0.42934610  1
  Ir  Ir10  1  0.87535900  0.43767950  0.68696151  1
  Ir  Ir11  1  0.37232863  0.68616432  0.94150705  1
