# generated using pymatgen
data_Nb3Co8Si
_symmetry_space_group_name_H-M   'P 1'
_cell_length_a   4.75811169
_cell_length_b   4.75090100
_cell_length_c   7.61394764
_cell_angle_alpha   90.00000000
_cell_angle_beta   89.97601954
_cell_angle_gamma   60.05012572
_symmetry_Int_Tables_number   1
_chemical_formula_structural   Nb3Co8Si
_chemical_formula_sum   'Nb3 Co8 Si1'
_cell_volume   149.13178660
_cell_formula_units_Z   1
loop_
 _symmetry_equiv_pos_site_id
 _symmetry_equiv_pos_as_xyz
  1  'x, y, z'
loop_
 _atom_site_type_symbol
 _atom_site_label
 _atom_site_symmetry_multiplicity
 _atom_site_fract_x
 _atom_site_fract_y
 _atom_site_fract_z
 _atom_site_occupancy
  Nb  Nb0  1  0.66647663  0.66676169  0.44476260  1
  Nb  Nb1  1  0.66624459  0.66687771  0.07104128  1
  Nb  Nb2  1  0.33336777  0.33331612  0.91128970  1
  Co  Co3  1  0.99968727  0.00015637  0.50510305  1
  Co  Co4  1  0.00044564  0.99977718  0.00730163  1
  Co  Co5  1  0.83114285  0.33754527  0.75204256  1
  Co  Co6  1  0.33784704  0.83107648  0.75199202  1
  Co  Co7  1  0.83114285  0.83131189  0.75204256  1
  Co  Co8  1  0.16992244  0.65995174  0.25486517  1
  Co  Co9  1  0.65983032  0.17008484  0.25465463  1
  Co  Co10  1  0.16992244  0.17012582  0.25486517  1
  Si  Si11  1  0.33397018  0.33301491  0.54003964  1
