# generated using pymatgen
data_LaFeTeO6
_symmetry_space_group_name_H-M   'P 1'
_cell_length_a   5.27559531
_cell_length_b   5.27559531
_cell_length_c   10.45687824
_cell_angle_alpha   90.38687928
_cell_angle_beta   89.61312076
_cell_angle_gamma   58.69538361
_symmetry_Int_Tables_number   1
_chemical_formula_structural   LaFeTeO6
_chemical_formula_sum   'La2 Fe2 Te2 O12'
_cell_volume   248.64151464
_cell_formula_units_Z   2
loop_
 _symmetry_equiv_pos_site_id
 _symmetry_equiv_pos_as_xyz
  1  'x, y, z'
loop_
 _atom_site_type_symbol
 _atom_site_label
 _atom_site_symmetry_multiplicity
 _atom_site_fract_x
 _atom_site_fract_y
 _atom_site_fract_z
 _atom_site_occupancy
  La  La0  1  -0.00000000  0.00000000  0.50000000  1
  La  La1  1  -0.00000000  0.00000000  -0.00000000  1
  Fe  Fe2  1  0.33014715  0.33014715  0.75000000  1
  Fe  Fe3  1  0.66985285  0.66985285  0.25000000  1
  Te  Te4  1  0.66394131  0.66394131  0.75000000  1
  Te  Te5  1  0.33605869  0.33605869  0.25000000  1
  O  O6  1  0.99081390  0.37737584  0.64105617  1
  O  O7  1  0.62553267  0.99688528  0.64745988  1
  O  O8  1  0.37712875  0.64038829  0.64400903  1
  O  O9  1  0.62262416  0.00918610  0.14105617  1
  O  O10  1  0.35961171  0.62287125  0.14400903  1
  O  O11  1  0.00311472  0.37446733  0.14745988  1
  O  O12  1  0.00918610  0.62262416  0.35894383  1
  O  O13  1  0.37446733  0.00311472  0.35254012  1
  O  O14  1  0.62287125  0.35961171  0.35599097  1
  O  O15  1  0.37737584  0.99081390  0.85894383  1
  O  O16  1  0.64038829  0.37712875  0.85599097  1
  O  O17  1  0.99688528  0.62553267  0.85254012  1
