# generated using pymatgen
data_InGaCuO4
_symmetry_space_group_name_H-M   'P 1'
_cell_length_a   3.43296779
_cell_length_b   3.43296779
_cell_length_c   8.50839002
_cell_angle_alpha   90.00000527
_cell_angle_beta   101.63873790
_cell_angle_gamma   59.99998783
_symmetry_Int_Tables_number   1
_chemical_formula_structural   InGaCuO4
_chemical_formula_sum   'In1 Ga1 Cu1 O4'
_cell_volume   84.45046654
_cell_formula_units_Z   1
loop_
 _symmetry_equiv_pos_site_id
 _symmetry_equiv_pos_as_xyz
  1  'x, y, z'
loop_
 _atom_site_type_symbol
 _atom_site_label
 _atom_site_symmetry_multiplicity
 _atom_site_fract_x
 _atom_site_fract_y
 _atom_site_fract_z
 _atom_site_occupancy
  In  In0  1  0.00201951  0.99899025  0.00302926  1
  Ga  Ga1  1  0.42311301  0.78844349  0.63466952  1
  Cu  Cu2  1  0.57310542  0.21344729  0.35965812  1
  O  O3  1  0.74576684  0.12711658  0.61865026  1
  O  O4  1  0.26440592  0.86779704  0.39660888  1
  O  O5  1  0.41342972  0.29328514  0.12014459  1
  O  O6  1  0.57815958  0.71092021  0.86723937  1
