# generated using pymatgen
data_KLa7(CuO4)4
_symmetry_space_group_name_H-M   'P 1'
_cell_length_a   5.41466797
_cell_length_b   5.41466797
_cell_length_c   13.65327458
_cell_angle_alpha   78.56290729
_cell_angle_beta   78.56290729
_cell_angle_gamma   90.00000000
_symmetry_Int_Tables_number   1
_chemical_formula_structural   KLa7(CuO4)4
_chemical_formula_sum   'K1 La7 Cu4 O16'
_cell_volume   384.23357500
_cell_formula_units_Z   1
loop_
 _symmetry_equiv_pos_site_id
 _symmetry_equiv_pos_as_xyz
  1  'x, y, z'
loop_
 _atom_site_type_symbol
 _atom_site_label
 _atom_site_symmetry_multiplicity
 _atom_site_fract_x
 _atom_site_fract_y
 _atom_site_fract_z
 _atom_site_occupancy
  K  K0  1  0.80300455  0.05300455  0.39399091  1
  La  La1  1  0.44531394  0.69531394  0.10937211  1
  La  La2  1  0.94242012  0.19242012  0.11515975  1
  La  La3  1  0.05555839  0.80555839  0.88888323  1
  La  La4  1  0.55555839  0.30555839  0.88888323  1
  La  La5  1  0.30531659  0.55531659  0.38936682  1
  La  La6  1  0.69734223  0.44734223  0.60531553  1
  La  La7  1  0.19734223  0.94734223  0.60531553  1
  Cu  Cu8  1  0.37211324  0.12211324  0.25577353  1
  Cu  Cu9  1  0.87211324  0.62211324  0.25577353  1
  Cu  Cu10  1  0.12394061  0.37394061  0.75211877  1
  Cu  Cu11  1  0.62539329  0.87539329  0.74921343  1
  O  O12  1  0.13754517  0.87160788  0.24084695  1
  O  O13  1  0.62160788  0.38754517  0.24084695  1
  O  O14  1  0.62160788  0.87160788  0.24084695  1
  O  O15  1  0.13754517  0.38754517  0.24084695  1
  O  O16  1  0.36948305  0.61948305  0.75246612  1
  O  O17  1  0.87805083  0.12805083  0.75246612  1
  O  O18  1  0.87805083  0.61948305  0.75246612  1
  O  O19  1  0.36948305  0.12805083  0.75246612  1
  O  O20  1  0.03278849  0.28278849  0.93442301  1
  O  O21  1  0.53946469  0.78946469  0.92107062  1
  O  O22  1  0.46761362  0.21761362  0.06477277  1
  O  O23  1  0.96761362  0.71761362  0.06477277  1
  O  O24  1  0.21647483  0.46647483  0.56705033  1
  O  O25  1  0.70211073  0.95211073  0.59577853  1
  O  O26  1  0.28257166  0.03257166  0.43485668  1
  O  O27  1  0.78257166  0.53257166  0.43485668  1
