# generated using pymatgen
data_K3Nd3Br10
_symmetry_space_group_name_H-M   'P 1'
_cell_length_a   8.34411690
_cell_length_b   9.16831914
_cell_length_c   13.60867804
_cell_angle_alpha   90.00000000
_cell_angle_beta   90.00000000
_cell_angle_gamma   86.70961286
_symmetry_Int_Tables_number   1
_chemical_formula_structural   K3Nd3Br10
_chemical_formula_sum   'K6 Nd6 Br20'
_cell_volume   1039.36837636
_cell_formula_units_Z   2
loop_
 _symmetry_equiv_pos_site_id
 _symmetry_equiv_pos_as_xyz
  1  'x, y, z'
loop_
 _atom_site_type_symbol
 _atom_site_label
 _atom_site_symmetry_multiplicity
 _atom_site_fract_x
 _atom_site_fract_y
 _atom_site_fract_z
 _atom_site_occupancy
  K  K0  1  0.94957614  0.00057060  0.16800712  1
  K  K1  1  0.55042386  0.49942940  0.66800712  1
  K  K2  1  0.95547335  0.50413803  0.17787897  1
  K  K3  1  0.54452665  0.99586197  0.67787897  1
  K  K4  1  0.04140902  0.99286882  0.82705582  1
  K  K5  1  0.45859098  0.50713118  0.32705582  1
  Nd  Nd6  1  0.56078893  0.75257561  0.99604263  1
  Nd  Nd7  1  0.93921107  0.74742439  0.49604263  1
  Nd  Nd8  1  0.41372030  0.26415915  0.99462628  1
  Nd  Nd9  1  0.08627970  0.23584085  0.49462628  1
  Nd  Nd10  1  0.05454652  0.48872037  0.82733945  1
  Nd  Nd11  1  0.44545348  0.01127963  0.32733945  1
  Br  Br12  1  0.66730761  0.45509890  0.91186402  1
  Br  Br13  1  0.83269239  0.04490110  0.41186402  1
  Br  Br14  1  0.33477660  0.97783801  0.09893668  1
  Br  Br15  1  0.16522340  0.52216199  0.59893668  1
  Br  Br16  1  0.34206859  0.54983007  0.09695645  1
  Br  Br17  1  0.15793141  0.95016993  0.59695645  1
  Br  Br18  1  0.66272606  0.03647370  0.91481206  1
  Br  Br19  1  0.83727394  0.46352630  0.41481206  1
  Br  Br20  1  0.32274030  0.71673672  0.82799248  1
  Br  Br21  1  0.17725970  0.78326328  0.32799248  1
  Br  Br22  1  0.62089221  0.22895639  0.18865216  1
  Br  Br23  1  0.87910779  0.27104361  0.68865216  1
  Br  Br24  1  0.44905678  0.23306292  0.49215587  1
  Br  Br25  1  0.05094322  0.26693708  0.99215587  1
  Br  Br26  1  0.56099025  0.77995525  0.48415674  1
  Br  Br27  1  0.93900975  0.72004475  0.98415674  1
  Br  Br28  1  0.83239283  0.72644147  0.71096762  1
  Br  Br29  1  0.66760717  0.77355853  0.21096762  1
  Br  Br30  1  0.18216599  0.24408178  0.28255564  1
  Br  Br31  1  0.31783401  0.25591822  0.78255564  1
