# generated using pymatgen
data_LiCe(MoO4)2
_symmetry_space_group_name_H-M   'P 1'
_cell_length_a   5.31085167
_cell_length_b   5.31085167
_cell_length_c   6.85577716
_cell_angle_alpha   67.21173655
_cell_angle_beta   67.21173655
_cell_angle_gamma   90.00000000
_symmetry_Int_Tables_number   1
_chemical_formula_structural   LiCe(MoO4)2
_chemical_formula_sum   'Li1 Ce1 Mo2 O8'
_cell_volume   161.77835072
_cell_formula_units_Z   1
loop_
 _symmetry_equiv_pos_site_id
 _symmetry_equiv_pos_as_xyz
  1  'x, y, z'
loop_
 _atom_site_type_symbol
 _atom_site_label
 _atom_site_symmetry_multiplicity
 _atom_site_fract_x
 _atom_site_fract_y
 _atom_site_fract_z
 _atom_site_occupancy
  Li  Li0  1  0.37500000  0.62500000  0.25000000  1
  Ce  Ce1  1  0.62500000  0.37500000  0.75000000  1
  Mo  Mo2  1  0.87500000  0.12500000  0.25000000  1
  Mo  Mo3  1  0.12500000  0.87500000  0.75000000  1
  O  O4  1  0.20479438  0.35848351  0.07563837  1
  O  O5  1  0.71956725  0.06587812  0.07563837  1
  O  O6  1  0.36133812  0.70980903  0.58277598  1
  O  O7  1  0.05588590  0.20741499  0.58277598  1
  O  O8  1  0.79258501  0.63866188  0.91722402  1
  O  O9  1  0.29019097  0.94411410  0.91722402  1
  O  O10  1  0.64151649  0.28043275  0.42436163  1
  O  O11  1  0.93412188  0.79520562  0.42436163  1
