# generated using pymatgen
data_La4CuNiO8
_symmetry_space_group_name_H-M   'P 1'
_cell_length_a   3.86953970
_cell_length_b   6.99432953
_cell_length_c   7.73052436
_cell_angle_alpha   106.01445015
_cell_angle_beta   90.00000000
_cell_angle_gamma   73.94143463
_symmetry_Int_Tables_number   1
_chemical_formula_structural   La4CuNiO8
_chemical_formula_sum   'La4 Cu1 Ni1 O8'
_cell_volume   192.59781905
_cell_formula_units_Z   1
loop_
 _symmetry_equiv_pos_site_id
 _symmetry_equiv_pos_as_xyz
  1  'x, y, z'
loop_
 _atom_site_type_symbol
 _atom_site_label
 _atom_site_symmetry_multiplicity
 _atom_site_fract_x
 _atom_site_fract_y
 _atom_site_fract_z
 _atom_site_occupancy
  La  La0  1  0.36151154  0.27697693  0.31782940  1
  La  La1  1  0.36309235  0.27381530  0.81979523  1
  La  La2  1  0.63848846  0.72302307  0.68217060  1
  La  La3  1  0.63690765  0.72618470  0.18020477  1
  Cu  Cu4  1  0.00000000  -0.00000000  0.00000000  1
  Ni  Ni5  1  0.00000000  -0.00000000  0.50000000  1
  O  O6  1  0.17775887  0.64448225  0.41331376  1
  O  O7  1  0.18706495  0.62587009  0.90397054  1
  O  O8  1  0.82224113  0.35551775  0.58668624  1
  O  O9  1  0.81293505  0.37412991  0.09602946  1
  O  O10  1  0.50000000  -0.00000000  0.00000000  1
  O  O11  1  0.50000000  -0.00000000  0.50000000  1
  O  O12  1  0.99911649  0.00176703  0.24666852  1
  O  O13  1  0.00088351  0.99823297  0.75333148  1
