# generated using pymatgen
data_LaAlCo4
_symmetry_space_group_name_H-M   'P 1'
_cell_length_a   3.83662213
_cell_length_b   5.22250664
_cell_length_c   5.23012897
_cell_angle_alpha   60.08804609
_cell_angle_beta   90.00000000
_cell_angle_gamma   90.00000000
_symmetry_Int_Tables_number   1
_chemical_formula_structural   LaAlCo4
_chemical_formula_sum   'La1 Al1 Co4'
_cell_volume   90.83551572
_cell_formula_units_Z   1
loop_
 _symmetry_equiv_pos_site_id
 _symmetry_equiv_pos_as_xyz
  1  'x, y, z'
loop_
 _atom_site_type_symbol
 _atom_site_label
 _atom_site_symmetry_multiplicity
 _atom_site_fract_x
 _atom_site_fract_y
 _atom_site_fract_z
 _atom_site_occupancy
  La  La0  1  -0.00000000  0.00000025  0.00005673  1
  Al  Al1  1  -0.00000000  0.33316259  0.33400215  1
  Co  Co2  1  -0.00000000  0.66689872  0.66625251  1
  Co  Co3  1  0.50000000  0.50393920  0.50368844  1
  Co  Co4  1  0.50000000  0.50386207  0.99225475  1
  Co  Co5  1  0.50000000  0.99203717  0.50384543  1
