# generated using pymatgen
data_La2Mn3ZnO9
_symmetry_space_group_name_H-M   'P 1'
_cell_length_a   5.43810760
_cell_length_b   7.86306071
_cell_length_c   16.66842919
_cell_angle_alpha   90.00000000
_cell_angle_beta   90.00000000
_cell_angle_gamma   90.00000000
_symmetry_Int_Tables_number   1
_chemical_formula_structural   La2Mn3ZnO9
_chemical_formula_sum   'La8 Mn12 Zn4 O36'
_cell_volume   712.74486924
_cell_formula_units_Z   4
loop_
 _symmetry_equiv_pos_site_id
 _symmetry_equiv_pos_as_xyz
  1  'x, y, z'
loop_
 _atom_site_type_symbol
 _atom_site_label
 _atom_site_symmetry_multiplicity
 _atom_site_fract_x
 _atom_site_fract_y
 _atom_site_fract_z
 _atom_site_occupancy
  La  La0  1  0.50089337  0.75000000  0.49123995  1
  La  La1  1  0.52455888  0.75000000  0.82589781  1
  La  La2  1  0.97544112  0.75000000  0.32589781  1
  La  La3  1  0.99910663  0.75000000  0.99123995  1
  La  La4  1  0.47544112  0.25000000  0.17410219  1
  La  La5  1  0.49910663  0.25000000  0.50876005  1
  La  La6  1  0.00089337  0.25000000  0.00876005  1
  La  La7  1  0.02455888  0.25000000  0.67410219  1
  Mn  Mn8  1  0.98731222  0.99520755  0.16578596  1
  Mn  Mn9  1  -0.00000000  -0.00000000  0.50000000  1
  Mn  Mn10  1  0.01268778  0.00479245  0.83421404  1
  Mn  Mn11  1  0.50000000  0.50000000  0.00000000  1
  Mn  Mn12  1  0.48731222  0.49520755  0.33421404  1
  Mn  Mn13  1  0.51268778  0.50479245  0.66578596  1
  Mn  Mn14  1  0.98731222  0.50479245  0.16578596  1
  Mn  Mn15  1  0.00000000  0.50000000  0.50000000  1
  Mn  Mn16  1  0.01268778  0.49520755  0.83421404  1
  Mn  Mn17  1  0.50000000  -0.00000000  0.00000000  1
  Mn  Mn18  1  0.48731222  0.00479245  0.33421404  1
  Mn  Mn19  1  0.51268778  0.99520755  0.66578596  1
  Zn  Zn20  1  0.47113381  0.75000000  0.19273900  1
  Zn  Zn21  1  0.02886619  0.75000000  0.69273900  1
  Zn  Zn22  1  0.52886619  0.25000000  0.80726100  1
  Zn  Zn23  1  0.97113381  0.25000000  0.30726100  1
  O  O24  1  0.26182479  0.04379471  0.09565892  1
  O  O25  1  0.29162001  0.02911150  0.43160348  1
  O  O26  1  0.31614724  0.05506450  0.76821793  1
  O  O27  1  0.18385276  0.44493550  0.26821793  1
  O  O28  1  0.23817521  0.45620529  0.59565892  1
  O  O29  1  0.20837999  0.47088850  0.93160348  1
  O  O30  1  0.68385276  0.55506450  0.23178207  1
  O  O31  1  0.70837999  0.52911150  0.56839652  1
  O  O32  1  0.73817521  0.54379471  0.90434108  1
  O  O33  1  0.79162001  0.97088850  0.06839652  1
  O  O34  1  0.76182479  0.95620529  0.40434108  1
  O  O35  1  0.81614724  0.94493550  0.73178207  1
  O  O36  1  0.68385276  0.94493550  0.23178207  1
  O  O37  1  0.70837999  0.97088850  0.56839652  1
  O  O38  1  0.73817521  0.95620529  0.90434108  1
  O  O39  1  0.79162001  0.52911150  0.06839652  1
  O  O40  1  0.76182479  0.54379471  0.40434108  1
  O  O41  1  0.81614724  0.55506450  0.73178207  1
  O  O42  1  0.26182479  0.45620529  0.09565892  1
  O  O43  1  0.29162001  0.47088850  0.43160348  1
  O  O44  1  0.31614724  0.44493550  0.76821793  1
  O  O45  1  0.18385276  0.05506450  0.26821793  1
  O  O46  1  0.23817521  0.04379471  0.59565892  1
  O  O47  1  0.20837999  0.02911150  0.93160348  1
  O  O48  1  0.41400982  0.75000000  0.33585019  1
  O  O49  1  0.38835830  0.75000000  0.67431149  1
  O  O50  1  0.44515686  0.75000000  0.99237011  1
  O  O51  1  0.11164170  0.75000000  0.17431149  1
  O  O52  1  0.05484314  0.75000000  0.49237011  1
  O  O53  1  0.08599018  0.75000000  0.83585019  1
  O  O54  1  0.55484314  0.25000000  0.00762989  1
  O  O55  1  0.61164170  0.25000000  0.32568851  1
  O  O56  1  0.58599018  0.25000000  0.66414981  1
  O  O57  1  0.91400982  0.25000000  0.16414981  1
  O  O58  1  0.94515686  0.25000000  0.50762989  1
  O  O59  1  0.88835830  0.25000000  0.82568851  1
