# generated using pymatgen
data_NaMnPH2(CO3)2
_symmetry_space_group_name_H-M   'P 1'
_cell_length_a   9.88231888
_cell_length_b   10.49145482
_cell_length_c   11.27401723
_cell_angle_alpha   90.00000000
_cell_angle_beta   90.00000000
_cell_angle_gamma   90.00000000
_symmetry_Int_Tables_number   1
_chemical_formula_structural   NaMnPH2(CO3)2
_chemical_formula_sum   'Na8 Mn8 P8 H16 C16 O48'
_cell_volume   1168.88900208
_cell_formula_units_Z   8
loop_
 _symmetry_equiv_pos_site_id
 _symmetry_equiv_pos_as_xyz
  1  'x, y, z'
loop_
 _atom_site_type_symbol
 _atom_site_label
 _atom_site_symmetry_multiplicity
 _atom_site_fract_x
 _atom_site_fract_y
 _atom_site_fract_z
 _atom_site_occupancy
  Na  Na0  1  0.08655066  0.62483222  0.07757551  1
  Na  Na1  1  0.41344934  0.12483222  0.92242449  1
  Na  Na2  1  0.58655066  0.37516778  0.42242449  1
  Na  Na3  1  0.91344934  0.87516778  0.57757551  1
  Na  Na4  1  0.91344934  0.37516778  0.92242449  1
  Na  Na5  1  0.58655066  0.87516778  0.07757551  1
  Na  Na6  1  0.41344934  0.62483222  0.57757551  1
  Na  Na7  1  0.08655066  0.12483222  0.42242449  1
  Mn  Mn8  1  0.91636367  0.82420543  0.89482547  1
  Mn  Mn9  1  0.58363633  0.32420543  0.10517453  1
  Mn  Mn10  1  0.41636367  0.17579457  0.60517453  1
  Mn  Mn11  1  0.08363633  0.67579457  0.39482547  1
  Mn  Mn12  1  0.08363633  0.17579457  0.10517453  1
  Mn  Mn13  1  0.41636367  0.67579457  0.89482547  1
  Mn  Mn14  1  0.58363633  0.82420543  0.39482547  1
  Mn  Mn15  1  0.91636367  0.32420543  0.60517453  1
  P  P16  1  0.22311222  0.89947852  0.03962167  1
  P  P17  1  0.27688778  0.39947852  0.96037833  1
  P  P18  1  0.72311222  0.10052148  0.46037833  1
  P  P19  1  0.77688778  0.60052148  0.53962167  1
  P  P20  1  0.77688778  0.10052148  0.96037833  1
  P  P21  1  0.72311222  0.60052148  0.03962167  1
  P  P22  1  0.27688778  0.89947852  0.53962167  1
  P  P23  1  0.22311222  0.39947852  0.46037833  1
  H  H24  1  0.32530822  0.71860304  0.24020686  1
  H  H25  1  0.17469178  0.21860304  0.75979314  1
  H  H26  1  0.82530822  0.28139696  0.25979314  1
  H  H27  1  0.67469178  0.78139696  0.74020686  1
  H  H28  1  0.67469178  0.28139696  0.75979314  1
  H  H29  1  0.82530822  0.78139696  0.24020686  1
  H  H30  1  0.17469178  0.71860304  0.74020686  1
  H  H31  1  0.32530822  0.21860304  0.25979314  1
  H  H32  1  0.27782965  0.93153222  0.24808999  1
  H  H33  1  0.22217035  0.43153222  0.75191001  1
  H  H34  1  0.77782965  0.06846778  0.25191001  1
  H  H35  1  0.72217035  0.56846778  0.74808999  1
  H  H36  1  0.72217035  0.06846778  0.75191001  1
  H  H37  1  0.77782965  0.56846778  0.24808999  1
  H  H38  1  0.22217035  0.93153222  0.74808999  1
  H  H39  1  0.27782965  0.43153222  0.25191001  1
  C  C40  1  0.93887805  0.09484925  0.76216283  1
  C  C41  1  0.56112195  0.59484925  0.23783717  1
  C  C42  1  0.43887805  0.90515075  0.73783717  1
  C  C43  1  0.06112195  0.40515075  0.26216283  1
  C  C44  1  0.06112195  0.90515075  0.23783717  1
  C  C45  1  0.43887805  0.40515075  0.76216283  1
  C  C46  1  0.56112195  0.09484925  0.26216283  1
  C  C47  1  0.93887805  0.59484925  0.73783717  1
  C  C48  1  0.20479048  0.86961774  0.20202686  1
  C  C49  1  0.29520952  0.36961774  0.79797314  1
  C  C50  1  0.70479048  0.13038226  0.29797314  1
  C  C51  1  0.79520952  0.63038226  0.70202686  1
  C  C52  1  0.79520952  0.13038226  0.79797314  1
  C  C53  1  0.70479048  0.63038226  0.20202686  1
  C  C54  1  0.29520952  0.86961774  0.70202686  1
  C  C55  1  0.20479048  0.36961774  0.29797314  1
  O  O56  1  0.36116791  0.84529177  0.00093458  1
  O  O57  1  0.13883209  0.34529177  0.99906542  1
  O  O58  1  0.86116791  0.15470823  0.49906542  1
  O  O59  1  0.63883209  0.65470823  0.50093458  1
  O  O60  1  0.63883209  0.15470823  0.99906542  1
  O  O61  1  0.86116791  0.65470823  0.00093458  1
  O  O62  1  0.13883209  0.84529177  0.50093458  1
  O  O63  1  0.36116791  0.34529177  0.49906542  1
  O  O64  1  0.21904369  0.04520070  0.02325327  1
  O  O65  1  0.28095631  0.54520070  0.97674673  1
  O  O66  1  0.71904369  0.95479930  0.47674673  1
  O  O67  1  0.78095631  0.45479930  0.52325327  1
  O  O68  1  0.78095631  0.95479930  0.97674673  1
  O  O69  1  0.71904369  0.45479930  0.02325327  1
  O  O70  1  0.28095631  0.04520070  0.52325327  1
  O  O71  1  0.21904369  0.54520070  0.47674673  1
  O  O72  1  0.10401612  0.82681633  0.98478197  1
  O  O73  1  0.39598388  0.32681633  0.01521803  1
  O  O74  1  0.60401612  0.17318367  0.51521803  1
  O  O75  1  0.89598388  0.67318367  0.48478197  1
  O  O76  1  0.89598388  0.17318367  0.01521803  1
  O  O77  1  0.60401612  0.67318367  0.98478197  1
  O  O78  1  0.39598388  0.82681633  0.48478197  1
  O  O79  1  0.10401612  0.32681633  0.51521803  1
  O  O80  1  0.22618920  0.73706460  0.22925595  1
  O  O81  1  0.27381080  0.23706460  0.77074405  1
  O  O82  1  0.72618920  0.26293540  0.27074405  1
  O  O83  1  0.77381080  0.76293540  0.72925595  1
  O  O84  1  0.77381080  0.26293540  0.77074405  1
  O  O85  1  0.72618920  0.76293540  0.22925595  1
  O  O86  1  0.27381080  0.73706460  0.72925595  1
  O  O87  1  0.22618920  0.23706460  0.27074405  1
  O  O88  1  0.97481166  0.97844577  0.76797916  1
  O  O89  1  0.52518834  0.47844577  0.23202084  1
  O  O90  1  0.47481166  0.02155423  0.73202084  1
  O  O91  1  0.02518834  0.52155423  0.26797916  1
  O  O92  1  0.02518834  0.02155423  0.23202084  1
  O  O93  1  0.47481166  0.52155423  0.76797916  1
  O  O94  1  0.52518834  0.97844577  0.26797916  1
  O  O95  1  0.97481166  0.47844577  0.73202084  1
  O  O96  1  0.01591443  0.68534458  0.77134955  1
  O  O97  1  0.48408557  0.18534458  0.22865045  1
  O  O98  1  0.51591443  0.31465542  0.72865045  1
  O  O99  1  0.98408557  0.81465542  0.27134955  1
  O  O100  1  0.98408557  0.31465542  0.22865045  1
  O  O101  1  0.51591443  0.81465542  0.77134955  1
  O  O102  1  0.48408557  0.68534458  0.27134955  1
  O  O103  1  0.01591443  0.18534458  0.72865045  1
