# generated using pymatgen
data_KTa2O6
_symmetry_space_group_name_H-M   'P 1'
_cell_length_a   7.54496077
_cell_length_b   7.59297944
_cell_length_c   7.56856342
_cell_angle_alpha   90.00000000
_cell_angle_beta   59.89646375
_cell_angle_gamma   120.21075482
_symmetry_Int_Tables_number   1
_chemical_formula_structural   KTa2O6
_chemical_formula_sum   'K2 Ta4 O12'
_cell_volume   305.13429048
_cell_formula_units_Z   2
loop_
 _symmetry_equiv_pos_site_id
 _symmetry_equiv_pos_as_xyz
  1  'x, y, z'
loop_
 _atom_site_type_symbol
 _atom_site_label
 _atom_site_symmetry_multiplicity
 _atom_site_fract_x
 _atom_site_fract_y
 _atom_site_fract_z
 _atom_site_occupancy
  K  K0  1  0.50000000  0.00000000  0.50000000  1
  K  K1  1  0.50000000  0.50000000  0.50000000  1
  Ta  Ta2  1  0.50000000  0.50000000  0.00000000  1
  Ta  Ta3  1  0.50000000  0.00000000  0.00000000  1
  Ta  Ta4  1  -0.00000000  0.00000000  0.50000000  1
  Ta  Ta5  1  -0.00000000  0.00000000  0.00000000  1
  O  O6  1  0.87601080  0.93800540  0.31199460  1
  O  O7  1  0.61774320  0.30887160  0.94112840  1
  O  O8  1  0.25312371  0.94306541  0.93682974  1
  O  O9  1  0.25312371  0.31005830  0.31004655  1
  O  O10  1  0.25312371  0.31005830  0.93682974  1
  O  O11  1  0.25312371  0.94306541  0.31004655  1
  O  O12  1  0.12398920  0.06199460  0.68800540  1
  O  O13  1  0.38225680  0.69112840  0.05887160  1
  O  O14  1  0.74687629  0.05693459  0.06317026  1
  O  O15  1  0.74687629  0.68994170  0.68995345  1
  O  O16  1  0.74687629  0.68994170  0.06317026  1
  O  O17  1  0.74687629  0.05693459  0.68995345  1
