# generated using pymatgen
data_Fe4Te3Se
_symmetry_space_group_name_H-M   'P 1'
_cell_length_a   3.65730429
_cell_length_b   7.28826051
_cell_length_c   6.41544185
_cell_angle_alpha   90.00000000
_cell_angle_beta   90.00000000
_cell_angle_gamma   90.00000000
_symmetry_Int_Tables_number   1
_chemical_formula_structural   Fe4Te3Se
_chemical_formula_sum   'Fe4 Te3 Se1'
_cell_volume   171.00608163
_cell_formula_units_Z   1
loop_
 _symmetry_equiv_pos_site_id
 _symmetry_equiv_pos_as_xyz
  1  'x, y, z'
loop_
 _atom_site_type_symbol
 _atom_site_label
 _atom_site_symmetry_multiplicity
 _atom_site_fract_x
 _atom_site_fract_y
 _atom_site_fract_z
 _atom_site_occupancy
  Fe  Fe0  1  0.50000000  0.25000000  0.00840759  1
  Fe  Fe1  1  0.50000000  0.75000000  0.00105550  1
  Fe  Fe2  1  0.00000000  0.00537417  0.00429784  1
  Fe  Fe3  1  0.00000000  0.49462583  0.00429784  1
  Te  Te4  1  0.00000000  0.75000000  0.28578502  1
  Te  Te5  1  0.50000000  0.00162178  0.71898146  1
  Te  Te6  1  0.50000000  0.49837822  0.71898146  1
  Se  Se7  1  0.00000000  0.25000000  0.25819329  1
