# generated using pymatgen
data_FeH7C3NO6
_symmetry_space_group_name_H-M   'P 1'
_cell_length_a   7.30938719
_cell_length_b   7.44999791
_cell_length_c   8.48726251
_cell_angle_alpha   90.21789524
_cell_angle_beta   89.99999997
_cell_angle_gamma   60.62240208
_symmetry_Int_Tables_number   1
_chemical_formula_structural   FeH7C3NO6
_chemical_formula_sum   'Fe2 H14 C6 N2 O12'
_cell_volume   402.73651320
_cell_formula_units_Z   2
loop_
 _symmetry_equiv_pos_site_id
 _symmetry_equiv_pos_as_xyz
  1  'x, y, z'
loop_
 _atom_site_type_symbol
 _atom_site_label
 _atom_site_symmetry_multiplicity
 _atom_site_fract_x
 _atom_site_fract_y
 _atom_site_fract_z
 _atom_site_occupancy
  Fe  Fe0  1  0.33240662  0.33433777  0.74957327  1
  Fe  Fe1  1  0.66674439  0.66566223  0.25042673  1
  H  H2  1  0.41756813  0.58771744  0.49833600  1
  H  H3  1  0.58367748  0.00000000  0.50000000  1
  H  H4  1  0.00528557  0.41228256  0.50166400  1
  H  H5  1  0.58614927  0.41506406  0.00269388  1
  H  H6  1  0.41638666  1.00000000  1.00000000  1
  H  H7  1  0.00121332  0.58493594  0.99730612  1
  H  H8  1  0.02218910  0.08145519  0.65720707  1
  H  H9  1  0.06472644  0.84921533  0.71989087  1
  H  H10  1  0.10364429  0.91854481  0.34279293  1
  H  H11  1  0.91394177  0.15078467  0.28010913  1
  H  H12  1  0.10629837  0.97742412  0.15824385  1
  H  H13  1  0.91020789  0.93564452  0.21804629  1
  H  H14  1  0.08372249  0.02257588  0.84175615  1
  H  H15  1  0.84585241  0.06435548  0.78195371  1
  C  C16  1  0.56300981  0.43663996  0.49666665  1
  C  C17  1  0.43226706  0.00000000  0.50000000  1
  C  C18  1  0.99964978  0.56336004  0.50333335  1
  C  C19  1  0.43857421  0.56430841  0.99929990  1
  C  C20  1  0.56766935  1.00000000  1.00000000  1
  C  C21  1  0.00288262  0.43569159  0.00070010  1
  N  N22  1  0.00267244  0.00362944  0.74999875  1
  N  N23  1  0.00630188  0.99637056  0.25000125  1
  O  O24  1  0.58192803  0.30514670  0.59891470  1
  O  O25  1  0.29463064  0.11281910  0.60083961  1
  O  O26  1  0.10811266  0.59210132  0.60801695  1
  O  O27  1  0.88707474  0.69485330  0.40108530  1
  O  O28  1  0.40744974  0.88718090  0.39916039  1
  O  O29  1  0.70021398  0.40789868  0.39198305  1
  O  O30  1  0.41641053  0.70236724  0.09894187  1
  O  O31  1  0.69918038  0.89615724  0.10683605  1
  O  O32  1  0.89015999  0.41262260  0.10293221  1
  O  O33  1  0.11877776  0.29763276  0.90105813  1
  O  O34  1  0.59533761  0.10384276  0.89316395  1
  O  O35  1  0.30278260  0.58737740  0.89706779  1
