# generated using pymatgen
data_K2Mn5Si12O31
_symmetry_space_group_name_H-M   'P 1'
_cell_length_a   10.57547398
_cell_length_b   10.57549534
_cell_length_c   14.44427074
_cell_angle_alpha   90.00000000
_cell_angle_beta   90.00000000
_cell_angle_gamma   60.00006710
_symmetry_Int_Tables_number   1
_chemical_formula_structural   K2Mn5Si12O31
_chemical_formula_sum   'K4 Mn10 Si24 O62'
_cell_volume   1399.03024984
_cell_formula_units_Z   2
loop_
 _symmetry_equiv_pos_site_id
 _symmetry_equiv_pos_as_xyz
  1  'x, y, z'
loop_
 _atom_site_type_symbol
 _atom_site_label
 _atom_site_symmetry_multiplicity
 _atom_site_fract_x
 _atom_site_fract_y
 _atom_site_fract_z
 _atom_site_occupancy
  K  K0  1  0.00000817  -0.00000000  0.25000000  1
  K  K1  1  0.00000817  -0.00000000  0.75000000  1
  K  K2  1  0.33333435  0.33334405  0.50000000  1
  K  K3  1  0.66667840  0.66665595  0.00000000  1
  Mn  Mn4  1  0.33333421  0.33333149  0.24430150  1
  Mn  Mn5  1  0.33333421  0.33333149  0.75569850  1
  Mn  Mn6  1  0.66666570  0.66666851  0.74430150  1
  Mn  Mn7  1  0.66666570  0.66666851  0.25569850  1
  Mn  Mn8  1  0.50021600  1.00000000  0.25000000  1
  Mn  Mn9  1  0.99999874  0.49977129  0.25000303  1
  Mn  Mn10  1  0.49977004  0.50022871  0.24999697  1
  Mn  Mn11  1  0.50021600  1.00000000  0.75000000  1
  Mn  Mn12  1  0.99999874  0.49977129  0.74999697  1
  Mn  Mn13  1  0.49977004  0.50022871  0.75000303  1
  Si  Si14  1  0.22863295  0.66125602  0.38778244  1
  Si  Si15  1  0.66125820  0.11011590  0.38778264  1
  Si  Si16  1  0.11011974  0.22862213  0.38778370  1
  Si  Si17  1  0.22863295  0.66125602  0.61221756  1
  Si  Si18  1  0.66125820  0.11011590  0.61221736  1
  Si  Si19  1  0.11011974  0.22862213  0.61221630  1
  Si  Si20  1  0.88988897  0.33874398  0.88778244  1
  Si  Si21  1  0.77137410  0.88988410  0.88778264  1
  Si  Si22  1  0.33874187  0.77137787  0.88778370  1
  Si  Si23  1  0.88988897  0.33874398  0.11221756  1
  Si  Si24  1  0.77137410  0.88988410  0.11221736  1
  Si  Si25  1  0.33874187  0.77137787  0.11221630  1
  Si  Si26  1  0.76979851  0.34154979  0.61174064  1
  Si  Si27  1  0.34155503  0.88865061  0.61174095  1
  Si  Si28  1  0.88865227  0.76979621  0.61174225  1
  Si  Si29  1  0.76979851  0.34154979  0.38825936  1
  Si  Si30  1  0.34155503  0.88865061  0.38825905  1
  Si  Si31  1  0.88865227  0.76979621  0.38825775  1
  Si  Si32  1  0.11134830  0.65845021  0.11174064  1
  Si  Si33  1  0.23020565  0.11134939  0.11174095  1
  Si  Si34  1  0.65844848  0.23020379  0.11174225  1
  Si  Si35  1  0.11134830  0.65845021  0.88825936  1
  Si  Si36  1  0.23020565  0.11134939  0.88825905  1
  Si  Si37  1  0.65844848  0.23020379  0.88825775  1
  O  O38  1  0.24433920  0.63293348  0.50000000  1
  O  O39  1  0.63293964  0.12272796  0.50000000  1
  O  O40  1  0.12273497  0.24433196  0.50000000  1
  O  O41  1  0.87727268  0.36706652  0.00000000  1
  O  O42  1  0.75566760  0.87727204  0.00000000  1
  O  O43  1  0.36706693  0.75566804  0.00000000  1
  O  O44  1  0.75567477  0.36428583  0.50000000  1
  O  O45  1  0.36427509  0.88003515  0.50000000  1
  O  O46  1  0.88001982  0.75569196  0.50000000  1
  O  O47  1  0.11996061  0.63571417  0.00000000  1
  O  O48  1  0.24431024  0.11996485  0.00000000  1
  O  O49  1  0.63571179  0.24430804  0.00000000  1
  O  O50  1  0.33432254  0.50962761  0.33505046  1
  O  O51  1  0.50963268  0.15604274  0.33505129  1
  O  O52  1  0.15604977  0.33432485  0.33504979  1
  O  O53  1  0.33432254  0.50962761  0.66494954  1
  O  O54  1  0.50963268  0.15604274  0.66494871  1
  O  O55  1  0.15604977  0.33432485  0.66495021  1
  O  O56  1  0.84395015  0.49037239  0.83505046  1
  O  O57  1  0.66567542  0.84395726  0.83505129  1
  O  O58  1  0.49037462  0.66567515  0.83504979  1
  O  O59  1  0.84395015  0.49037239  0.16494954  1
  O  O60  1  0.66567542  0.84395726  0.16494871  1
  O  O61  1  0.49037462  0.66567515  0.16495021  1
  O  O62  1  0.66545931  0.48770735  0.66859950  1
  O  O63  1  0.48770905  0.84682453  0.66860270  1
  O  O64  1  0.84683199  0.66546725  0.66860522  1
  O  O65  1  0.66545931  0.48770735  0.33140050  1
  O  O66  1  0.48770905  0.84682453  0.33139730  1
  O  O67  1  0.84683199  0.66546725  0.33139478  1
  O  O68  1  0.15316666  0.51229265  0.16859950  1
  O  O69  1  0.33453358  0.15317547  0.16860270  1
  O  O70  1  0.51229924  0.33453275  0.16860522  1
  O  O71  1  0.15316666  0.51229265  0.83140050  1
  O  O72  1  0.33453358  0.15317547  0.83139730  1
  O  O73  1  0.51229924  0.33453275  0.83139478  1
  O  O74  1  0.05621751  0.73076053  0.36002190  1
  O  O75  1  0.73076473  0.21301501  0.36001884  1
  O  O76  1  0.21301942  0.05622356  0.36001622  1
  O  O77  1  0.05621751  0.73076053  0.63997810  1
  O  O78  1  0.73076473  0.21301501  0.63998116  1
  O  O79  1  0.21301942  0.05622356  0.63998378  1
  O  O80  1  0.78697804  0.26923947  0.86002190  1
  O  O81  1  0.94377974  0.78698499  0.86001884  1
  O  O82  1  0.26924298  0.94377644  0.86001622  1
  O  O83  1  0.78697804  0.26923947  0.13997810  1
  O  O84  1  0.94377974  0.78698499  0.13998116  1
  O  O85  1  0.26924298  0.94377644  0.13998378  1
  O  O86  1  0.94349997  0.26980130  0.64042606  1
  O  O87  1  0.26980146  0.78669125  0.64042796  1
  O  O88  1  0.78670227  0.94350064  0.64042564  1
  O  O89  1  0.94349997  0.26980130  0.35957394  1
  O  O90  1  0.26980146  0.78669125  0.35957204  1
  O  O91  1  0.78670227  0.94350064  0.35957436  1
  O  O92  1  0.21330127  0.73019870  0.14042606  1
  O  O93  1  0.05649271  0.21330875  0.14042796  1
  O  O94  1  0.73020291  0.05649936  0.14042564  1
  O  O95  1  0.21330127  0.73019870  0.85957394  1
  O  O96  1  0.05649271  0.21330875  0.85957204  1
  O  O97  1  0.73020291  0.05649936  0.85957436  1
  O  O98  1  0.66665280  0.66667841  0.50000000  1
  O  O99  1  0.33333121  0.33332159  0.00000000  1
