# generated using pymatgen
data_InGaS3
_symmetry_space_group_name_H-M   'P 1'
_cell_length_a   6.75802369
_cell_length_b   6.75735624
_cell_length_c   15.58159371
_cell_angle_alpha   81.41070701
_cell_angle_beta   93.89108001
_cell_angle_gamma   120.01283265
_symmetry_Int_Tables_number   1
_chemical_formula_structural   InGaS3
_chemical_formula_sum   'In5 Ga5 S15'
_cell_volume   609.21494479
_cell_formula_units_Z   5
loop_
 _symmetry_equiv_pos_site_id
 _symmetry_equiv_pos_as_xyz
  1  'x, y, z'
loop_
 _atom_site_type_symbol
 _atom_site_label
 _atom_site_symmetry_multiplicity
 _atom_site_fract_x
 _atom_site_fract_y
 _atom_site_fract_z
 _atom_site_occupancy
  In  In0  1  0.66641046  0.32206997  0.00627930  1
  In  In1  1  0.34147783  0.67117201  0.00890050  1
  In  In2  1  0.98840906  0.99729440  0.00701984  1
  In  In3  1  0.00231385  0.41894854  0.74931578  1
  In  In4  1  0.66532210  0.74768810  0.74926886  1
  Ga  Ga5  1  0.32854496  0.25393510  0.25440004  1
  Ga  Ga6  1  0.00741946  0.57726910  0.25405174  1
  Ga  Ga7  1  0.00166517  0.85062583  0.44688211  1
  Ga  Ga8  1  0.66718851  0.18599008  0.44683210  1
  Ga  Ga9  1  0.33070648  0.08105812  0.75894245  1
  S  S10  1  0.98189867  0.50339148  0.48823947  1
  S  S11  1  0.68825662  0.85909658  0.48675884  1
  S  S12  1  0.33329359  0.15363359  0.48578489  1
  S  S13  1  0.99579629  0.63534321  0.09092720  1
  S  S14  1  0.66329284  0.96870971  0.09169328  1
  S  S15  1  0.33042412  0.29723479  0.09117172  1
  S  S16  1  0.64178493  0.10420314  0.69269673  1
  S  S17  1  0.33415153  0.41247062  0.68841572  1
  S  S18  1  0.02729953  0.79795449  0.68981993  1
  S  S19  1  0.01045717  0.37219525  0.91056190  1
  S  S20  1  0.66659509  0.68934338  0.91064548  1
  S  S21  1  0.32698236  0.03062542  0.90704373  1
  S  S22  1  0.66380650  0.24337448  0.28552141  1
  S  S23  1  0.33203335  0.57072524  0.28099996  1
  S  S24  1  0.00463651  0.89968037  0.28572703  1
