# generated using pymatgen
data_InCuS2
_symmetry_space_group_name_H-M   'P 1'
_cell_length_a   3.92421207
_cell_length_b   3.92496143
_cell_length_c   6.51025192
_cell_angle_alpha   90.00000000
_cell_angle_beta   90.01475895
_cell_angle_gamma   59.99368304
_symmetry_Int_Tables_number   1
_chemical_formula_structural   InCuS2
_chemical_formula_sum   'In1 Cu1 S2'
_cell_volume   86.83376285
_cell_formula_units_Z   1
loop_
 _symmetry_equiv_pos_site_id
 _symmetry_equiv_pos_as_xyz
  1  'x, y, z'
loop_
 _atom_site_type_symbol
 _atom_site_label
 _atom_site_symmetry_multiplicity
 _atom_site_fract_x
 _atom_site_fract_y
 _atom_site_fract_z
 _atom_site_occupancy
  In  In0  1  0.33327214  0.33336393  0.97253874  1
  Cu  Cu1  1  0.66658047  0.66670976  0.52012543  1
  S  S2  1  0.66669439  0.66665280  0.15685944  1
  S  S3  1  0.33345300  0.33327350  0.60047640  1
