# generated using pymatgen
data_P6H17S6(NO)7
_symmetry_space_group_name_H-M   'P 1'
_cell_length_a   11.72415436
_cell_length_b   11.65537867
_cell_length_c   12.00605796
_cell_angle_alpha   79.04197524
_cell_angle_beta   58.63142778
_cell_angle_gamma   60.84443782
_symmetry_Int_Tables_number   1
_chemical_formula_structural   P6H17S6(NO)7
_chemical_formula_sum   'P12 H34 S12 N14 O14'
_cell_volume   1218.89310241
_cell_formula_units_Z   2
loop_
 _symmetry_equiv_pos_site_id
 _symmetry_equiv_pos_as_xyz
  1  'x, y, z'
loop_
 _atom_site_type_symbol
 _atom_site_label
 _atom_site_symmetry_multiplicity
 _atom_site_fract_x
 _atom_site_fract_y
 _atom_site_fract_z
 _atom_site_occupancy
  P  P0  1  0.28906711  0.78470864  0.87933640  1
  P  P1  1  0.71093289  0.21529136  0.12066360  1
  P  P2  1  0.04723150  0.77376527  0.14101199  1
  P  P3  1  0.95276850  0.22623473  0.85898801  1
  P  P4  1  0.02721334  0.77972182  0.90215368  1
  P  P5  1  0.97278666  0.22027818  0.09784632  1
  P  P6  1  0.81827042  0.05490579  0.88888749  1
  P  P7  1  0.18172958  0.94509421  0.11111251  1
  P  P8  1  0.75302612  0.94114861  0.14895971  1
  P  P9  1  0.24697388  0.05885139  0.85104029  1
  P  P10  1  0.15077156  0.95641261  0.72133316  1
  P  P11  1  0.84922844  0.04358739  0.27866684  1
  H  H12  1  0.39469973  0.76722973  0.65052090  1
  H  H13  1  0.60530027  0.23277027  0.34947910  1
  H  H14  1  0.80746464  0.75585095  0.04123981  1
  H  H15  1  0.19253536  0.24414905  0.95876019  1
  H  H16  1  0.80926726  0.24329384  0.76586392  1
  H  H17  1  0.19073274  0.75670616  0.23413608  1
  H  H18  1  0.68822378  0.31743001  0.66354654  1
  H  H19  1  0.31177622  0.68256999  0.33645346  1
  H  H20  1  0.77810655  0.39461160  0.63914799  1
  H  H21  1  0.22189345  0.60538840  0.36085201  1
  H  H22  1  0.44642581  0.44678625  0.71795879  1
  H  H23  1  0.55357419  0.55321375  0.28204121  1
  H  H24  1  0.48567285  0.30518108  0.68710623  1
  H  H25  1  0.51432715  0.69481892  0.31289377  1
  H  H26  1  0.63286258  0.62326066  0.53342771  1
  H  H27  1  0.36713742  0.37673934  0.46657229  1
  H  H28  1  0.52290495  0.63131536  0.48753200  1
  H  H29  1  0.47709505  0.36868464  0.51246800  1
  H  H30  1  0.82867115  0.58162957  0.55967612  1
  H  H31  1  0.17132885  0.41837043  0.44032388  1
  H  H32  1  0.89862827  0.46026292  0.46686140  1
  H  H33  1  0.10137173  0.53973708  0.53313860  1
  H  H34  1  0.70693961  0.69494585  0.97920267  1
  H  H35  1  0.29306039  0.30505415  0.02079733  1
  H  H36  1  0.80491194  0.57646422  0.03091406  1
  H  H37  1  0.19508806  0.42353578  0.96908594  1
  H  H38  1  0.89162927  0.74767040  0.53798342  1
  H  H39  1  0.10837073  0.25232960  0.46201658  1
  H  H40  1  0.81538529  0.71264403  0.68428949  1
  H  H41  1  0.18461471  0.28735597  0.31571051  1
  H  H42  1  0.59259219  0.73336673  0.85830547  1
  H  H43  1  0.40740781  0.26663327  0.14169453  1
  H  H44  1  0.61590501  0.85274751  0.86673916  1
  H  H45  1  0.38409499  0.14725249  0.13326084  1
  S  S46  1  0.03569771  0.61668153  0.21388051  1
  S  S47  1  0.96430229  0.38331847  0.78611949  1
  S  S48  1  0.46658284  0.62963171  0.86425434  1
  S  S49  1  0.53341716  0.37036829  0.13574566  1
  S  S50  1  0.11407015  0.62630705  0.79334103  1
  S  S51  1  0.88592985  0.37369295  0.20665897  1
  S  S52  1  0.68971898  0.04154648  0.84464931  1
  S  S53  1  0.31028102  0.95845352  0.15535069  1
  S  S54  1  0.56123006  0.95750976  0.28497220  1
  S  S55  1  0.43876994  0.04249024  0.71502780  1
  S  S56  1  0.18261692  0.98169293  0.54770477  1
  S  S57  1  0.81738308  0.01830707  0.45229523  1
  N  N58  1  0.99856481  0.92712732  0.83228067  1
  N  N59  1  0.00143519  0.07287268  0.16771933  1
  N  N60  1  0.28962119  0.82875661  0.73912404  1
  N  N61  1  0.71037881  0.17124339  0.26087596  1
  N  N62  1  0.12404651  0.77466414  0.97330362  1
  N  N63  1  0.87595349  0.22533586  0.02669638  1
  N  N64  1  0.85694154  0.81737418  0.03268910  1
  N  N65  1  0.14305846  0.18262582  0.96731090  1
  N  N66  1  0.84955955  0.18443655  0.83583227  1
  N  N67  1  0.15044045  0.81556345  0.16416773  1
  N  N68  1  0.12001314  0.08244973  0.80579667  1
  N  N69  1  0.87998686  0.91755027  0.19420333  1
  N  N70  1  0.24649989  0.92730712  0.94599571  1
  N  N71  1  0.75350011  0.07269288  0.05400429  1
  O  O72  1  0.77431090  0.31003841  0.66681269  1
  O  O73  1  0.22568910  0.68996159  0.33318731  1
  O  O74  1  0.52207603  0.37075725  0.65263033  1
  O  O75  1  0.47792397  0.62924275  0.34736967  1
  O  O76  1  0.53603682  0.68082246  0.53389711  1
  O  O77  1  0.46396318  0.31917754  0.46610289  1
  O  O78  1  0.80155865  0.52331052  0.53772711  1
  O  O79  1  0.19844135  0.47668948  0.46227289  1
  O  O80  1  0.73278650  0.67023658  0.05037365  1
  O  O81  1  0.26721350  0.32976342  0.94962635  1
  O  O82  1  0.88900240  0.67399279  0.59218943  1
  O  O83  1  0.11099760  0.32600721  0.40781057  1
  O  O84  1  0.66653508  0.75667041  0.85199614  1
  O  O85  1  0.33346492  0.24332959  0.14800386  1
