# generated using pymatgen
data_FeMo3As4
_symmetry_space_group_name_H-M   'P 1'
_cell_length_a   3.36060018
_cell_length_b   5.99806619
_cell_length_c   6.39079829
_cell_angle_alpha   89.80735910
_cell_angle_beta   90.00000000
_cell_angle_gamma   90.00000000
_symmetry_Int_Tables_number   1
_chemical_formula_structural   FeMo3As4
_chemical_formula_sum   'Fe1 Mo3 As4'
_cell_volume   128.81924676
_cell_formula_units_Z   1
loop_
 _symmetry_equiv_pos_site_id
 _symmetry_equiv_pos_as_xyz
  1  'x, y, z'
loop_
 _atom_site_type_symbol
 _atom_site_label
 _atom_site_symmetry_multiplicity
 _atom_site_fract_x
 _atom_site_fract_y
 _atom_site_fract_z
 _atom_site_occupancy
  Fe  Fe0  1  0.75000000  0.48776989  0.68429503  1
  Mo  Mo1  1  0.75000000  0.98952610  0.81584413  1
  Mo  Mo2  1  0.25000000  0.51288731  0.30741325  1
  Mo  Mo3  1  0.25000000  0.00623664  0.18772789  1
  As  As4  1  0.75000000  0.30838873  0.07028480  1
  As  As5  1  0.75000000  0.80701724  0.44164084  1
  As  As6  1  0.25000000  0.68484377  0.92072869  1
  As  As7  1  0.25000000  0.20333034  0.57206537  1
