# generated using pymatgen
data_Cr8FeCo2CuS16
_symmetry_space_group_name_H-M   'P 1'
_cell_length_a   6.99519470
_cell_length_b   6.99519470
_cell_length_c   12.06439756
_cell_angle_alpha   73.14739664
_cell_angle_beta   90.00000000
_cell_angle_gamma   120.00000000
_symmetry_Int_Tables_number   1
_chemical_formula_structural   Cr8FeCo2CuS16
_chemical_formula_sum   'Cr8 Fe1 Co2 Cu1 S16'
_cell_volume   481.75548598
_cell_formula_units_Z   1
loop_
 _symmetry_equiv_pos_site_id
 _symmetry_equiv_pos_as_xyz
  1  'x, y, z'
loop_
 _atom_site_type_symbol
 _atom_site_label
 _atom_site_symmetry_multiplicity
 _atom_site_fract_x
 _atom_site_fract_y
 _atom_site_fract_z
 _atom_site_occupancy
  Cr  Cr0  1  0.25098914  0.00197829  0.24703257  1
  Cr  Cr1  1  0.74988425  0.99976850  0.75034726  1
  Cr  Cr2  1  0.49873536  0.49747072  0.00038824  1
  Cr  Cr3  1  0.99867978  0.49735956  0.50059421  1
  Cr  Cr4  1  0.49873536  0.00087641  0.00038824  1
  Cr  Cr5  1  0.99867978  0.00072601  0.50059421  1
  Cr  Cr6  1  0.00214105  0.00087641  0.00038824  1
  Cr  Cr7  1  0.50204623  0.00072601  0.50059421  1
  Fe  Fe8  1  0.56247796  0.62495592  0.31256612  1
  Co  Co9  1  0.43782805  0.37565611  0.68651584  1
  Co  Co10  1  0.06224840  0.62449679  0.81325481  1
  Cu  Cu11  1  0.93754365  0.37508730  0.18736906  1
  S  S12  1  0.87074965  0.24149931  0.38775104  1
  S  S13  1  0.37237348  0.24474696  0.88287957  1
  S  S14  1  0.13696909  0.77393818  0.12067535  1
  S  S15  1  0.63371581  0.76743162  0.62262406  1
  S  S16  1  0.13696909  0.24235556  0.12067535  1
  S  S17  1  0.63371581  0.24366013  0.62262406  1
  S  S18  1  0.60538647  0.24235556  0.12067535  1
  S  S19  1  0.10994432  0.24366013  0.62262406  1
  S  S20  1  0.62858328  0.75716655  0.11425017  1
  S  S21  1  0.12797638  0.75595275  0.61607087  1
  S  S22  1  0.36461019  0.22922039  0.37865651  1
  S  S23  1  0.86595436  0.23190871  0.87771585  1
  S  S24  1  0.36461019  0.75673329  0.37865651  1
  S  S25  1  0.86595436  0.75632979  0.87771585  1
  S  S26  1  0.89212310  0.75673329  0.37865651  1
  S  S27  1  0.39037544  0.75632979  0.87771585  1
