# generated using pymatgen
data_Co(ReO3)2
_symmetry_space_group_name_H-M   'P 1'
_cell_length_a   4.76281560
_cell_length_b   4.76281560
_cell_length_c   8.50535094
_cell_angle_alpha   90.00000000
_cell_angle_beta   90.00000000
_cell_angle_gamma   90.00000000
_symmetry_Int_Tables_number   1
_chemical_formula_structural   Co(ReO3)2
_chemical_formula_sum   'Co2 Re4 O12'
_cell_volume   192.93888867
_cell_formula_units_Z   2
loop_
 _symmetry_equiv_pos_site_id
 _symmetry_equiv_pos_as_xyz
  1  'x, y, z'
loop_
 _atom_site_type_symbol
 _atom_site_label
 _atom_site_symmetry_multiplicity
 _atom_site_fract_x
 _atom_site_fract_y
 _atom_site_fract_z
 _atom_site_occupancy
  Co  Co0  1  0.50000000  0.50000000  0.16666700  1
  Co  Co1  1  -0.00000000  -0.00000000  0.66666700  1
  Re  Re2  1  0.50000000  0.50000000  0.51258952  1
  Re  Re3  1  0.50000000  0.50000000  0.82074348  1
  Re  Re4  1  -0.00000000  -0.00000000  0.01258952  1
  Re  Re5  1  -0.00000000  -0.00000000  0.32074348  1
  O  O6  1  0.21897278  0.78102722  0.16666700  1
  O  O7  1  0.21189310  0.78810690  0.49109810  1
  O  O8  1  0.21189310  0.78810690  0.84223490  1
  O  O9  1  0.78102722  0.21897278  0.16666700  1
  O  O10  1  0.78810690  0.21189310  0.49109810  1
  O  O11  1  0.78810690  0.21189310  0.84223490  1
  O  O12  1  0.28810690  0.28810690  0.34223490  1
  O  O13  1  0.28102722  0.28102722  0.66666700  1
  O  O14  1  0.28810690  0.28810690  0.99109810  1
  O  O15  1  0.71189310  0.71189310  0.99109810  1
  O  O16  1  0.71189310  0.71189310  0.34223490  1
  O  O17  1  0.71897278  0.71897278  0.66666700  1
