# generated using pymatgen
data_Eu2P3(HO3)3
_symmetry_space_group_name_H-M   'P 1'
_cell_length_a   7.23493041
_cell_length_b   8.46558363
_cell_length_c   9.66594289
_cell_angle_alpha   89.15851160
_cell_angle_beta   68.28147060
_cell_angle_gamma   115.80587593
_symmetry_Int_Tables_number   1
_chemical_formula_structural   Eu2P3(HO3)3
_chemical_formula_sum   'Eu4 P6 H6 O18'
_cell_volume   484.08578991
_cell_formula_units_Z   2
loop_
 _symmetry_equiv_pos_site_id
 _symmetry_equiv_pos_as_xyz
  1  'x, y, z'
loop_
 _atom_site_type_symbol
 _atom_site_label
 _atom_site_symmetry_multiplicity
 _atom_site_fract_x
 _atom_site_fract_y
 _atom_site_fract_z
 _atom_site_occupancy
  Eu  Eu0  1  0.92903328  0.77182519  0.90597263  1
  Eu  Eu1  1  0.07096672  0.22817481  0.09402737  1
  Eu  Eu2  1  0.52950206  0.75301495  0.68179127  1
  Eu  Eu3  1  0.47049794  0.24698505  0.31820873  1
  P  P4  1  0.66171614  0.28411170  0.96075036  1
  P  P5  1  0.33828386  0.71588830  0.03924964  1
  P  P6  1  0.12081590  0.79223342  0.54713140  1
  P  P7  1  0.87918410  0.20776658  0.45286860  1
  P  P8  1  0.23065042  0.26874972  0.72690477  1
  P  P9  1  0.76934958  0.73125028  0.27309523  1
  H  H10  1  0.65021411  0.16753945  0.85868045  1
  H  H11  1  0.34978589  0.83246055  0.14131955  1
  H  H12  1  0.06722865  0.62952579  0.49698710  1
  H  H13  1  0.93277135  0.37047421  0.50301290  1
  H  H14  1  0.04186057  0.26217173  0.71163787  1
  H  H15  1  0.95813943  0.73782827  0.28836213  1
  O  O16  1  0.80332355  0.47661972  0.86892702  1
  O  O17  1  0.19667645  0.52338028  0.13107298  1
  O  O18  1  0.26713355  0.94028910  0.40350412  1
  O  O19  1  0.73286645  0.05971090  0.59649588  1
  O  O20  1  0.13737065  0.10108415  0.84993080  1
  O  O21  1  0.86262935  0.89891585  0.15006920  1
  O  O22  1  0.89747901  0.79175371  0.64839772  1
  O  O23  1  0.23500918  0.79507821  0.65465468  1
  O  O24  1  0.10252099  0.20824629  0.35160228  1
  O  O25  1  0.76499082  0.20492179  0.34534532  1
  O  O26  1  0.32384397  0.43354326  0.79649811  1
  O  O27  1  0.67615603  0.56645674  0.20350189  1
  O  O28  1  0.41749761  0.23917761  0.06966090  1
  O  O29  1  0.76149069  0.24138855  0.06402315  1
  O  O30  1  0.58250239  0.76082239  0.93033910  1
  O  O31  1  0.23850931  0.75861145  0.93597685  1
  O  O32  1  0.39583731  0.27880505  0.56875622  1
  O  O33  1  0.60416269  0.72119495  0.43124378  1
