# generated using pymatgen
data_SnH4S6(NCl)6
_symmetry_space_group_name_H-M   'P 1'
_cell_length_a   7.36415953
_cell_length_b   10.15509779
_cell_length_c   13.29017362
_cell_angle_alpha   90.00000000
_cell_angle_beta   90.00000000
_cell_angle_gamma   95.76426176
_symmetry_Int_Tables_number   1
_chemical_formula_structural   SnH4S6(NCl)6
_chemical_formula_sum   'Sn2 H8 S12 N12 Cl12'
_cell_volume   988.86360564
_cell_formula_units_Z   2
loop_
 _symmetry_equiv_pos_site_id
 _symmetry_equiv_pos_as_xyz
  1  'x, y, z'
loop_
 _atom_site_type_symbol
 _atom_site_label
 _atom_site_symmetry_multiplicity
 _atom_site_fract_x
 _atom_site_fract_y
 _atom_site_fract_z
 _atom_site_occupancy
  Sn  Sn0  1  -0.00000000  0.50000000  0.50000000  1
  Sn  Sn1  1  0.50000000  0.00000000  -0.00000000  1
  H  H2  1  0.60671514  0.16212277  0.72730293  1
  H  H3  1  0.10671514  0.66212277  0.77269707  1
  H  H4  1  0.39328486  0.83787723  0.27269707  1
  H  H5  1  0.89328486  0.33787723  0.22730293  1
  H  H6  1  0.63456194  0.27714683  0.62731185  1
  H  H7  1  0.13456194  0.77714683  0.87268815  1
  H  H8  1  0.36543806  0.72285317  0.37268815  1
  H  H9  1  0.86543806  0.22285317  0.12731185  1
  S  S10  1  0.97183661  0.01695123  0.65696686  1
  S  S11  1  0.47183661  0.51695123  0.84303314  1
  S  S12  1  0.02816339  0.98304877  0.34303314  1
  S  S13  1  0.52816339  0.48304877  0.15696686  1
  S  S14  1  0.72233392  0.07994063  0.57979168  1
  S  S15  1  0.22233392  0.57994063  0.92020832  1
  S  S16  1  0.27766608  0.92005937  0.42020832  1
  S  S17  1  0.77766608  0.42005937  0.07979168  1
  S  S18  1  0.67302747  0.83400568  0.67600220  1
  S  S19  1  0.17302747  0.33400568  0.82399780  1
  S  S20  1  0.32697253  0.16599432  0.32399780  1
  S  S21  1  0.82697253  0.66599432  0.17600220  1
  N  N22  1  0.60555636  0.93716521  0.59694052  1
  N  N23  1  0.10555636  0.43716521  0.90305948  1
  N  N24  1  0.39444364  0.06283479  0.40305948  1
  N  N25  1  0.89444364  0.56283479  0.09694052  1
  N  N26  1  0.87303202  0.88424193  0.70781979  1
  N  N27  1  0.37303202  0.38424193  0.79218021  1
  N  N28  1  0.12696798  0.11575807  0.29218021  1
  N  N29  1  0.62696798  0.61575807  0.20781979  1
  N  N30  1  0.63403739  0.18188323  0.65312944  1
  N  N31  1  0.13403739  0.68188323  0.84687056  1
  N  N32  1  0.36596261  0.81811677  0.34687056  1
  N  N33  1  0.86596261  0.31811677  0.15312944  1
  Cl  Cl34  1  0.11857022  0.28570208  0.54580180  1
  Cl  Cl35  1  0.61857022  0.78570208  0.95419820  1
  Cl  Cl36  1  0.88142978  0.71429792  0.45419820  1
  Cl  Cl37  1  0.38142978  0.21429792  0.04580180  1
  Cl  Cl38  1  0.84424768  0.50317861  0.66542976  1
  Cl  Cl39  1  0.34424768  0.00317861  0.83457024  1
  Cl  Cl40  1  0.15575232  0.49682139  0.33457024  1
  Cl  Cl41  1  0.65575232  0.99682139  0.16542976  1
  Cl  Cl42  1  0.27350413  0.62446051  0.57281584  1
  Cl  Cl43  1  0.77350413  0.12446051  0.92718416  1
  Cl  Cl44  1  0.72649587  0.37553949  0.42718416  1
  Cl  Cl45  1  0.22649587  0.87553949  0.07281584  1
