# generated using pymatgen
data_CePr4O10
_symmetry_space_group_name_H-M   'P 1'
_cell_length_a   4.02061754
_cell_length_b   4.02061754
_cell_length_c   16.48300661
_cell_angle_alpha   82.99462504
_cell_angle_beta   90.00000000
_cell_angle_gamma   119.99999994
_symmetry_Int_Tables_number   1
_chemical_formula_structural   CePr4O10
_chemical_formula_sum   'Ce1 Pr4 O10'
_cell_volume   228.45601782
_cell_formula_units_Z   1
loop_
 _symmetry_equiv_pos_site_id
 _symmetry_equiv_pos_as_xyz
  1  'x, y, z'
loop_
 _atom_site_type_symbol
 _atom_site_label
 _atom_site_symmetry_multiplicity
 _atom_site_fract_x
 _atom_site_fract_y
 _atom_site_fract_z
 _atom_site_occupancy
  Ce  Ce0  1  0.00000000  -0.00000000  0.00000000  1
  Pr  Pr1  1  0.60158672  0.20317345  0.19523983  1
  Pr  Pr2  1  0.20061462  0.40122925  0.39815613  1
  Pr  Pr3  1  0.79938538  0.59877075  0.60184387  1
  Pr  Pr4  1  0.39841328  0.79682655  0.80476017  1
  O  O5  1  0.04666690  0.09333380  0.85999930  1
  O  O6  1  0.85006055  0.70012111  0.44981834  1
  O  O7  1  0.44957350  0.89914699  0.65127951  1
  O  O8  1  0.65274682  0.30549365  0.04175953  1
  O  O9  1  0.25064442  0.50128884  0.24806674  1
  O  O10  1  0.34725318  0.69450635  0.95824047  1
  O  O11  1  0.14993945  0.29987889  0.55018166  1
  O  O12  1  0.74935558  0.49871116  0.75193326  1
  O  O13  1  0.95333310  0.90666620  0.14000070  1
  O  O14  1  0.55042650  0.10085301  0.34872049  1
