# generated using pymatgen
data_Cu5Ge2
_symmetry_space_group_name_H-M   'P 1'
_cell_length_a   4.11362635
_cell_length_b   4.11362635
_cell_length_c   6.99973262
_cell_angle_alpha   72.91191394
_cell_angle_beta   90.00000000
_cell_angle_gamma   120.00000000
_symmetry_Int_Tables_number   1
_chemical_formula_structural   Cu5Ge2
_chemical_formula_sum   'Cu5 Ge2'
_cell_volume   96.49460135
_cell_formula_units_Z   1
loop_
 _symmetry_equiv_pos_site_id
 _symmetry_equiv_pos_as_xyz
  1  'x, y, z'
loop_
 _atom_site_type_symbol
 _atom_site_label
 _atom_site_symmetry_multiplicity
 _atom_site_fract_x
 _atom_site_fract_y
 _atom_site_fract_z
 _atom_site_occupancy
  Cu  Cu0  1  0.25522669  0.51045337  0.23431994  1
  Cu  Cu1  1  0.74110004  0.48220008  0.77669988  1
  Cu  Cu2  1  0.12493550  0.24987101  0.62519349  1
  Cu  Cu3  1  0.87114496  0.74228991  0.38656513  1
  Cu  Cu4  1  0.37871149  0.75742298  0.86386552  1
  Ge  Ge5  1  0.99547970  0.99095940  0.01356090  1
  Ge  Ge6  1  0.50840163  0.01680325  0.47479512  1
