# generated using pymatgen
data_CsTi3AlO8
_symmetry_space_group_name_H-M   'P 1'
_cell_length_a   3.03521882
_cell_length_b   7.36889590
_cell_length_c   7.38671922
_cell_angle_alpha   92.16979342
_cell_angle_beta   101.63913433
_cell_angle_gamma   78.00686436
_symmetry_Int_Tables_number   1
_chemical_formula_structural   CsTi3AlO8
_chemical_formula_sum   'Cs1 Ti3 Al1 O8'
_cell_volume   158.28230816
_cell_formula_units_Z   1
loop_
 _symmetry_equiv_pos_site_id
 _symmetry_equiv_pos_as_xyz
  1  'x, y, z'
loop_
 _atom_site_type_symbol
 _atom_site_label
 _atom_site_symmetry_multiplicity
 _atom_site_fract_x
 _atom_site_fract_y
 _atom_site_fract_z
 _atom_site_occupancy
  Cs  Cs0  1  0.05263947  0.00659498  0.00309886  1
  Ti  Ti1  1  0.32229706  0.50631401  0.16907843  1
  Ti  Ti2  1  0.85682844  0.80354263  0.51686285  1
  Ti  Ti3  1  0.13822550  0.18590752  0.49552753  1
  Al  Al4  1  0.68381920  0.48991527  0.81423811  1
  O  O5  1  0.98975058  0.36828287  0.29185965  1
  O  O6  1  0.06313028  0.62397388  0.70570250  1
  O  O7  1  0.69401482  0.30168869  0.63368246  1
  O  O8  1  0.35545421  0.70697371  0.37047975  1
  O  O9  1  0.72916344  0.63541169  0.04518603  1
  O  O10  1  0.31664843  0.36977805  0.94467078  1
  O  O11  1  0.68907543  0.05515718  0.37162230  1
  O  O12  1  0.37395312  0.94645952  0.63799073  1
