# generated using pymatgen
data_Fe(Mo3Se4)2
_symmetry_space_group_name_H-M   'P 1'
_cell_length_a   6.84307387
_cell_length_b   6.86545904
_cell_length_c   6.87016455
_cell_angle_alpha   93.49192715
_cell_angle_beta   90.48763127
_cell_angle_gamma   93.87402810
_symmetry_Int_Tables_number   1
_chemical_formula_structural   Fe(Mo3Se4)2
_chemical_formula_sum   'Fe1 Mo6 Se8'
_cell_volume   321.40489098
_cell_formula_units_Z   1
loop_
 _symmetry_equiv_pos_site_id
 _symmetry_equiv_pos_as_xyz
  1  'x, y, z'
loop_
 _atom_site_type_symbol
 _atom_site_label
 _atom_site_symmetry_multiplicity
 _atom_site_fract_x
 _atom_site_fract_y
 _atom_site_fract_z
 _atom_site_occupancy
  Fe  Fe0  1  0.49396169  0.87371980  0.95436950  1
  Mo  Mo1  1  0.44486444  0.76882527  0.58400777  1
  Mo  Mo2  1  0.55045545  0.24127947  0.41797892  1
  Mo  Mo3  1  0.76048051  0.58567868  0.44739334  1
  Mo  Mo4  1  0.23510518  0.41930368  0.54595991  1
  Mo  Mo5  1  0.57789945  0.46519258  0.77158702  1
  Mo  Mo6  1  0.42081231  0.54597540  0.23389776  1
  Se  Se7  1  0.86609808  0.27899123  0.62473186  1
  Se  Se8  1  0.13155287  0.73005686  0.37666121  1
  Se  Se9  1  0.24288050  0.61348075  0.88551266  1
  Se  Se10  1  0.73679139  0.37545876  0.12225646  1
  Se  Se11  1  0.78692928  0.79498709  0.77898685  1
  Se  Se12  1  0.22887162  0.21282385  0.22062755  1
  Se  Se13  1  0.64085383  0.88184436  0.27964661  1
  Se  Se14  1  0.37014339  0.13048220  0.73568257  1
