# generated using pymatgen
data_SrNb2CuO6F
_symmetry_space_group_name_H-M   'P 1'
_cell_length_a   3.85994453
_cell_length_b   10.70751157
_cell_length_c   3.85994453
_cell_angle_alpha   79.61598422
_cell_angle_beta   90.00000000
_cell_angle_gamma   100.38401578
_symmetry_Int_Tables_number   1
_chemical_formula_structural   SrNb2CuO6F
_chemical_formula_sum   'Sr1 Nb2 Cu1 O6 F1'
_cell_volume   154.26307377
_cell_formula_units_Z   1
loop_
 _symmetry_equiv_pos_site_id
 _symmetry_equiv_pos_as_xyz
  1  'x, y, z'
loop_
 _atom_site_type_symbol
 _atom_site_label
 _atom_site_symmetry_multiplicity
 _atom_site_fract_x
 _atom_site_fract_y
 _atom_site_fract_z
 _atom_site_occupancy
  Sr  Sr0  1  -0.00000000  -0.00000000  0.00000000  1
  Nb  Nb1  1  0.61945516  0.23891032  0.38054484  1
  Nb  Nb2  1  0.38054484  0.76108968  0.61945516  1
  Cu  Cu3  1  0.25000000  0.50000000  0.25000000  1
  O  O4  1  0.70782545  0.41565191  0.29217455  1
  O  O5  1  0.09188874  0.18377748  0.40811126  1
  O  O6  1  0.40811126  0.81622252  0.09188874  1
  O  O7  1  0.29217455  0.58434809  0.70782545  1
  O  O8  1  0.59327995  0.18655991  0.90672005  1
  O  O9  1  0.90672005  0.81344009  0.59327995  1
  F  F10  1  0.50000000  -0.00000000  0.50000000  1
