# generated using pymatgen
data_Na(SeO3)4
_symmetry_space_group_name_H-M   'P 1'
_cell_length_a   5.41135214
_cell_length_b   6.31127085
_cell_length_c   20.09283736
_cell_angle_alpha   98.36661383
_cell_angle_beta   90.00000000
_cell_angle_gamma   90.00000000
_symmetry_Int_Tables_number   1
_chemical_formula_structural   Na(SeO3)4
_chemical_formula_sum   'Na2 Se8 O24'
_cell_volume   678.91755842
_cell_formula_units_Z   2
loop_
 _symmetry_equiv_pos_site_id
 _symmetry_equiv_pos_as_xyz
  1  'x, y, z'
loop_
 _atom_site_type_symbol
 _atom_site_label
 _atom_site_symmetry_multiplicity
 _atom_site_fract_x
 _atom_site_fract_y
 _atom_site_fract_z
 _atom_site_occupancy
  Na  Na0  1  0.21947422  0.10362411  0.14921904  1
  Na  Na1  1  0.78052578  0.60362411  0.64921904  1
  Se  Se2  1  0.35680107  0.59213584  0.08970093  1
  Se  Se3  1  0.64319893  0.09213584  0.58970093  1
  Se  Se4  1  0.92935971  0.04673353  0.98033819  1
  Se  Se5  1  0.07064029  0.54673353  0.48033819  1
  Se  Se6  1  0.90349860  0.60533621  0.20451437  1
  Se  Se7  1  0.09650140  0.10533621  0.70451437  1
  Se  Se8  1  0.52216882  0.11032596  0.32189228  1
  Se  Se9  1  0.47783118  0.61032596  0.82189228  1
  O  O10  1  0.48894584  0.45434917  0.14592819  1
  O  O11  1  0.51105416  0.95434917  0.64592819  1
  O  O12  1  0.46764115  0.83479100  0.08857549  1
  O  O13  1  0.53235885  0.33479100  0.58857549  1
  O  O14  1  0.31370880  0.44274420  0.01744076  1
  O  O15  1  0.68629120  0.94274420  0.51744076  1
  O  O16  1  0.96861050  0.78830143  0.96328115  1
  O  O17  1  0.03138950  0.28830143  0.46328115  1
  O  O18  1  0.92123791  0.15623765  0.05915430  1
  O  O19  1  0.07876209  0.65623765  0.55915430  1
  O  O20  1  0.89769840  0.19072042  0.92024738  1
  O  O21  1  0.10230160  0.69072042  0.42024738  1
  O  O22  1  0.99502782  0.36446851  0.21728212  1
  O  O23  1  0.00497218  0.86446851  0.71728212  1
  O  O24  1  0.00365160  0.80251049  0.26252143  1
  O  O25  1  0.99634840  0.30251049  0.76252143  1
  O  O26  1  0.04522245  0.66540780  0.12532907  1
  O  O27  1  0.95477755  0.16540780  0.62532907  1
  O  O28  1  0.51923383  0.35795724  0.35844343  1
  O  O29  1  0.48076617  0.85795724  0.85844343  1
  O  O30  1  0.55448075  0.91111006  0.36378474  1
  O  O31  1  0.44551925  0.41111006  0.86378474  1
  O  O32  1  0.49146406  0.06184637  0.24014713  1
  O  O33  1  0.50853594  0.56184637  0.74014713  1
