# generated using pymatgen
data_Ba2TiFe(Si2O7)2
_symmetry_space_group_name_H-M   'P 1'
_cell_length_a   7.15416473
_cell_length_b   12.21541921
_cell_length_c   14.20226104
_cell_angle_alpha   90.00000000
_cell_angle_beta   90.00000000
_cell_angle_gamma   90.00000000
_symmetry_Int_Tables_number   1
_chemical_formula_structural   Ba2TiFe(Si2O7)2
_chemical_formula_sum   'Ba8 Ti4 Fe4 Si16 O56'
_cell_volume   1241.15151692
_cell_formula_units_Z   4
loop_
 _symmetry_equiv_pos_site_id
 _symmetry_equiv_pos_as_xyz
  1  'x, y, z'
loop_
 _atom_site_type_symbol
 _atom_site_label
 _atom_site_symmetry_multiplicity
 _atom_site_fract_x
 _atom_site_fract_y
 _atom_site_fract_z
 _atom_site_occupancy
  Ba  Ba0  1  0.16296689  0.75000000  0.25000000  1
  Ba  Ba1  1  0.83703311  0.25000000  0.75000000  1
  Ba  Ba2  1  0.02829630  0.25077694  0.01081520  1
  Ba  Ba3  1  0.02829630  0.24922306  0.48918480  1
  Ba  Ba4  1  0.97170370  0.75077694  0.98918480  1
  Ba  Ba5  1  0.97170370  0.74922306  0.51081520  1
  Ba  Ba6  1  0.48774842  0.25000000  0.25000000  1
  Ba  Ba7  1  0.51225158  0.75000000  0.75000000  1
  Ti  Ti8  1  0.53039049  0.36294967  0.49741921  1
  Ti  Ti9  1  0.53039049  0.13705033  0.00258079  1
  Ti  Ti10  1  0.46960951  0.63705033  0.99741921  1
  Ti  Ti11  1  0.46960951  0.86294967  0.50258079  1
  Fe  Fe12  1  0.52467786  0.37395013  0.00085759  1
  Fe  Fe13  1  0.52467786  0.12604987  0.49914241  1
  Fe  Fe14  1  0.47532214  0.62604987  0.50085759  1
  Fe  Fe15  1  0.47532214  0.87395013  0.99914241  1
  Si  Si16  1  0.20691543  0.48341933  0.13520346  1
  Si  Si17  1  0.20607826  0.48609900  0.36524453  1
  Si  Si18  1  0.20607826  0.01390100  0.13475547  1
  Si  Si19  1  0.20691543  0.01658067  0.36479654  1
  Si  Si20  1  0.79392174  0.51390100  0.86524453  1
  Si  Si21  1  0.79308457  0.51658067  0.63520346  1
  Si  Si22  1  0.79308457  0.98341933  0.86479654  1
  Si  Si23  1  0.79392174  0.98609900  0.63475547  1
  Si  Si24  1  0.19657375  0.47492340  0.85415179  1
  Si  Si25  1  0.19997673  0.47536916  0.64482551  1
  Si  Si26  1  0.19997673  0.02463084  0.85517449  1
  Si  Si27  1  0.19657375  0.02507660  0.64584821  1
  Si  Si28  1  0.80002327  0.52463084  0.14482551  1
  Si  Si29  1  0.80342625  0.52507660  0.35415179  1
  Si  Si30  1  0.80342625  0.97492340  0.14584821  1
  Si  Si31  1  0.80002327  0.97536916  0.35517449  1
  O  O32  1  0.27034663  0.52060279  0.74973366  1
  O  O33  1  0.27034663  0.97939721  0.75026634  1
  O  O34  1  0.72965337  0.47939721  0.24973366  1
  O  O35  1  0.72965337  0.02060279  0.25026634  1
  O  O36  1  0.32188473  0.37447186  0.10388903  1
  O  O37  1  0.32600249  0.37879367  0.39826966  1
  O  O38  1  0.32600249  0.12120633  0.10173034  1
  O  O39  1  0.32188473  0.12552814  0.39611097  1
  O  O40  1  0.67399751  0.62120633  0.89826966  1
  O  O41  1  0.67811527  0.62552814  0.60388903  1
  O  O42  1  0.67811527  0.87447186  0.89611097  1
  O  O43  1  0.67399751  0.87879367  0.60173034  1
  O  O44  1  0.01479833  0.55432212  0.88618643  1
  O  O45  1  0.01559587  0.55241263  0.61324566  1
  O  O46  1  0.01559587  0.94758737  0.88675434  1
  O  O47  1  0.01479833  0.94567788  0.61381357  1
  O  O48  1  0.98440413  0.44758737  0.11324566  1
  O  O49  1  0.98520167  0.44567788  0.38618643  1
  O  O50  1  0.98520167  0.05432212  0.11381357  1
  O  O51  1  0.98440413  0.05241263  0.38675434  1
  O  O52  1  0.41998883  0.24636414  0.93682934  1
  O  O53  1  0.41998883  0.25363586  0.56317066  1
  O  O54  1  0.58001117  0.74636414  0.06317066  1
  O  O55  1  0.58001117  0.75363586  0.43682934  1
  O  O56  1  0.09870743  0.35680317  0.85132442  1
  O  O57  1  0.10572253  0.35594109  0.64653957  1
  O  O58  1  0.10572253  0.14405891  0.85346043  1
  O  O59  1  0.09870743  0.14319683  0.64867558  1
  O  O60  1  0.89427747  0.64405891  0.14653957  1
  O  O61  1  0.90129257  0.64319683  0.35132442  1
  O  O62  1  0.90129257  0.85680317  0.14867558  1
  O  O63  1  0.89427747  0.85594109  0.35346043  1
  O  O64  1  0.22594653  0.50146546  0.25001130  1
  O  O65  1  0.22594653  0.99853454  0.24998870  1
  O  O66  1  0.77405347  0.49853454  0.75001130  1
  O  O67  1  0.77405347  0.00146546  0.74998870  1
  O  O68  1  0.36811037  0.48928634  0.92838136  1
  O  O69  1  0.37126074  0.49130559  0.57059900  1
  O  O70  1  0.37126074  0.00869441  0.92940100  1
  O  O71  1  0.36811037  0.01071366  0.57161864  1
  O  O72  1  0.62873926  0.50869441  0.07059900  1
  O  O73  1  0.63188963  0.51071366  0.42838136  1
  O  O74  1  0.63188963  0.98928634  0.07161864  1
  O  O75  1  0.62873926  0.99130559  0.42940100  1
  O  O76  1  0.26599823  0.60005874  0.08698691  1
  O  O77  1  0.26149319  0.60359602  0.41187772  1
  O  O78  1  0.26149319  0.89640398  0.08812228  1
  O  O79  1  0.26599823  0.89994126  0.41301309  1
  O  O80  1  0.73850681  0.39640398  0.91187772  1
  O  O81  1  0.73400177  0.39994126  0.58698691  1
  O  O82  1  0.73400177  0.10005874  0.91301309  1
  O  O83  1  0.73850681  0.10359602  0.58812228  1
  O  O84  1  0.34662321  0.74379692  0.92780158  1
  O  O85  1  0.34662321  0.75620308  0.57219842  1
  O  O86  1  0.65337679  0.24379692  0.07219842  1
  O  O87  1  0.65337679  0.25620308  0.42780158  1
