# generated using pymatgen
data_Ca2Ta2O6F
_symmetry_space_group_name_H-M   'P 1'
_cell_length_a   7.35679520
_cell_length_b   7.35679519
_cell_length_c   7.35679520
_cell_angle_alpha   59.99999997
_cell_angle_beta   59.99999999
_cell_angle_gamma   60.00000000
_symmetry_Int_Tables_number   1
_chemical_formula_structural   Ca2Ta2O6F
_chemical_formula_sum   'Ca4 Ta4 O12 F2'
_cell_volume   281.54706221
_cell_formula_units_Z   2
loop_
 _symmetry_equiv_pos_site_id
 _symmetry_equiv_pos_as_xyz
  1  'x, y, z'
loop_
 _atom_site_type_symbol
 _atom_site_label
 _atom_site_symmetry_multiplicity
 _atom_site_fract_x
 _atom_site_fract_y
 _atom_site_fract_z
 _atom_site_occupancy
  O  O0  1  0.66515182  0.08484818  0.66515182  1
  O  O1  1  0.08484818  0.66515182  0.08484818  1
  O  O2  1  0.91515182  0.91515182  0.33484818  1
  O  O3  1  0.66515182  0.66515182  0.08484818  1
  O  O4  1  0.33484818  0.91515182  0.91515182  1
  O  O5  1  0.91515182  0.33484818  0.91515182  1
  O  O6  1  0.08484818  0.08484818  0.66515182  1
  O  O7  1  0.91515182  0.33484818  0.33484818  1
  O  O8  1  0.33484818  0.33484818  0.91515182  1
  O  O9  1  0.66515182  0.08484818  0.08484818  1
  O  O10  1  0.08484818  0.66515182  0.66515182  1
  O  O11  1  0.33484818  0.91515182  0.33484818  1
  F  F12  1  0.62500000  0.62500000  0.62500000  1
  F  F13  1  0.37500000  0.37500000  0.37500000  1
  Ca  Ca14  1  0.50000000  0.00000000  0.50000000  1
  Ca  Ca15  1  0.00000000  0.50000000  0.50000000  1
  Ca  Ca16  1  0.50000000  0.50000000  0.00000000  1
  Ca  Ca17  1  0.50000000  0.50000000  0.50000000  1
  Ta  Ta18  1  0.00000000  0.50000000  0.00000000  1
  Ta  Ta19  1  0.50000000  0.00000000  0.00000000  1
  Ta  Ta20  1  0.00000000  0.00000000  0.50000000  1
  Ta  Ta21  1  0.00000000  0.00000000  0.00000000  1
