# generated using pymatgen
data_B12S
_symmetry_space_group_name_H-M   'P 1'
_cell_length_a   5.22895601
_cell_length_b   5.22895601
_cell_length_c   5.22895583
_cell_angle_alpha   64.64424010
_cell_angle_beta   64.64424010
_cell_angle_gamma   64.64424557
_symmetry_Int_Tables_number   1
_chemical_formula_structural   B12S
_chemical_formula_sum   'B12 S1'
_cell_volume   111.37947886
_cell_formula_units_Z   1
loop_
 _symmetry_equiv_pos_site_id
 _symmetry_equiv_pos_as_xyz
  1  'x, y, z'
loop_
 _atom_site_type_symbol
 _atom_site_label
 _atom_site_symmetry_multiplicity
 _atom_site_fract_x
 _atom_site_fract_y
 _atom_site_fract_z
 _atom_site_occupancy
  B  B0  1  0.82809113  0.50398758  0.50398758  1
  B  B1  1  0.50398758  0.50398758  0.82809113  1
  B  B2  1  0.50398758  0.82809113  0.50398758  1
  B  B3  1  0.16621189  0.49470433  0.49470433  1
  B  B4  1  0.49470433  0.49470433  0.16621189  1
  B  B5  1  0.49470433  0.16621189  0.49470433  1
  B  B6  1  0.82093956  0.30059133  0.30059133  1
  B  B7  1  0.30059133  0.30059133  0.82093956  1
  B  B8  1  0.30059133  0.82093956  0.30059133  1
  B  B9  1  0.20094863  0.68619888  0.68619888  1
  B  B10  1  0.68619888  0.68619888  0.20094863  1
  B  B11  1  0.68619888  0.20094863  0.68619888  1
  S  S12  1  0.91364455  0.91364455  0.91364455  1
