# generated using pymatgen
data_Nd2CuO4
_symmetry_space_group_name_H-M   'P 1'
_cell_length_a   5.24944863
_cell_length_b   5.59673384
_cell_length_c   6.91514917
_cell_angle_alpha   90.00000000
_cell_angle_beta   112.30652299
_cell_angle_gamma   90.00000000
_symmetry_Int_Tables_number   1
_chemical_formula_structural   Nd2CuO4
_chemical_formula_sum   'Nd4 Cu2 O8'
_cell_volume   187.96188929
_cell_formula_units_Z   2
loop_
 _symmetry_equiv_pos_site_id
 _symmetry_equiv_pos_as_xyz
  1  'x, y, z'
loop_
 _atom_site_type_symbol
 _atom_site_label
 _atom_site_symmetry_multiplicity
 _atom_site_fract_x
 _atom_site_fract_y
 _atom_site_fract_z
 _atom_site_occupancy
  O  O0  1  0.26703429  0.25000000  0.03406859  1
  O  O1  1  0.23296571  0.75000000  0.96593141  1
  O  O2  1  0.73296571  0.75000000  0.96593141  1
  O  O3  1  0.76703429  0.25000000  0.03406859  1
  O  O4  1  0.18681871  0.92571690  0.37363742  1
  O  O5  1  0.81318129  0.07428310  0.62636258  1
  O  O6  1  0.68681871  0.57428310  0.37363742  1
  O  O7  1  0.31318129  0.42571690  0.62636258  1
  Cu  Cu8  1  0.00000000  0.00000000  0.00000000  1
  Cu  Cu9  1  0.50000000  0.50000000  0.00000000  1
  Nd  Nd10  1  0.36116585  0.01837092  0.72233170  1
  Nd  Nd11  1  0.63883415  0.98162908  0.27766830  1
  Nd  Nd12  1  0.13883415  0.51837092  0.27766830  1
  Nd  Nd13  1  0.86116585  0.48162908  0.72233170  1
