# generated using pymatgen
data_Ca4Fe3As8Pt
_symmetry_space_group_name_H-M   'P 1'
_cell_length_a   3.93726081
_cell_length_b   3.93726081
_cell_length_c   20.28954819
_cell_angle_alpha   90.00000000
_cell_angle_beta   90.00000000
_cell_angle_gamma   90.00000000
_symmetry_Int_Tables_number   1
_chemical_formula_structural   Ca4Fe3As8Pt
_chemical_formula_sum   'Ca4 Fe3 As8 Pt1'
_cell_volume   314.52903633
_cell_formula_units_Z   1
loop_
 _symmetry_equiv_pos_site_id
 _symmetry_equiv_pos_as_xyz
  1  'x, y, z'
loop_
 _atom_site_type_symbol
 _atom_site_label
 _atom_site_symmetry_multiplicity
 _atom_site_fract_x
 _atom_site_fract_y
 _atom_site_fract_z
 _atom_site_occupancy
  Ca  Ca0  1  0.75000000  0.75000000  0.13568989  1
  Ca  Ca1  1  0.75000000  0.75000000  0.63144205  1
  Ca  Ca2  1  0.25000000  0.25000000  0.36855795  1
  Ca  Ca3  1  0.25000000  0.25000000  0.86431011  1
  Fe  Fe4  1  0.75000000  0.25000000  0.50000000  1
  Fe  Fe5  1  0.25000000  0.75000000  0.00000000  1
  Fe  Fe6  1  0.25000000  0.75000000  0.50000000  1
  As  As7  1  0.75000000  0.25000000  0.25082775  1
  As  As8  1  0.75000000  0.25000000  0.74917225  1
  As  As9  1  0.25000000  0.75000000  0.25167059  1
  As  As10  1  0.25000000  0.75000000  0.74832941  1
  As  As11  1  0.75000000  0.75000000  0.43809219  1
  As  As12  1  0.75000000  0.75000000  0.92754228  1
  As  As13  1  0.25000000  0.25000000  0.07245772  1
  As  As14  1  0.25000000  0.25000000  0.56190781  1
  Pt  Pt15  1  0.75000000  0.25000000  0.00000000  1
