# generated using pymatgen
data_Mn5(SiO4)3
_symmetry_space_group_name_H-M   'P 1'
_cell_length_a   10.38322801
_cell_length_b   10.38322801
_cell_length_c   10.38322801
_cell_angle_alpha   109.47122062
_cell_angle_beta   109.47122061
_cell_angle_gamma   109.47122063
_symmetry_Int_Tables_number   1
_chemical_formula_structural   Mn5(SiO4)3
_chemical_formula_sum   'Mn20 Si12 O48'
_cell_volume   861.73807519
_cell_formula_units_Z   4
loop_
 _symmetry_equiv_pos_site_id
 _symmetry_equiv_pos_as_xyz
  1  'x, y, z'
loop_
 _atom_site_type_symbol
 _atom_site_label
 _atom_site_symmetry_multiplicity
 _atom_site_fract_x
 _atom_site_fract_y
 _atom_site_fract_z
 _atom_site_occupancy
  O  O0  1  0.71129911  0.69401766  0.08880891  1
  O  O1  1  0.69401766  0.10520875  0.98271855  1
  O  O2  1  0.62249020  0.71129911  0.51728145  1
  O  O3  1  0.51728145  0.62249020  0.71129911  1
  O  O4  1  0.08880891  0.87750980  0.39479125  1
  O  O5  1  0.39479125  0.08880891  0.87750980  1
  O  O6  1  0.10520875  0.98271855  0.69401766  1
  O  O7  1  0.62249020  0.41119109  0.10520875  1
  O  O8  1  0.51728145  0.39479125  0.80598234  1
  O  O9  1  0.87750980  0.98271855  0.78870089  1
  O  O10  1  0.41119109  0.10520875  0.62249020  1
  O  O11  1  0.80598234  0.51728145  0.39479125  1
  O  O12  1  0.98271855  0.78870089  0.87750980  1
  O  O13  1  0.08880891  0.71129911  0.69401766  1
  O  O14  1  0.69401766  0.08880891  0.71129911  1
  O  O15  1  0.10520875  0.62249020  0.41119109  1
  O  O16  1  0.80598234  0.78870089  0.41119109  1
  O  O17  1  0.39479125  0.80598234  0.51728145  1
  O  O18  1  0.41119109  0.80598234  0.78870089  1
  O  O19  1  0.78870089  0.87750980  0.98271855  1
  O  O20  1  0.78870089  0.41119109  0.80598234  1
  O  O21  1  0.87750980  0.39479125  0.08880891  1
  O  O22  1  0.98271855  0.69401766  0.10520875  1
  O  O23  1  0.71129911  0.51728145  0.62249020  1
  O  O24  1  0.28870089  0.30598234  0.91119109  1
  O  O25  1  0.30598234  0.89479125  0.01728145  1
  O  O26  1  0.37750980  0.28870089  0.48271855  1
  O  O27  1  0.48271855  0.37750980  0.28870089  1
  O  O28  1  0.91119109  0.12249020  0.60520875  1
  O  O29  1  0.60520875  0.91119109  0.12249020  1
  O  O30  1  0.89479125  0.01728145  0.30598234  1
  O  O31  1  0.37750980  0.58880891  0.89479125  1
  O  O32  1  0.48271855  0.60520875  0.19401766  1
  O  O33  1  0.12249020  0.01728145  0.21129911  1
  O  O34  1  0.58880891  0.89479125  0.37750980  1
  O  O35  1  0.19401766  0.48271855  0.60520875  1
  O  O36  1  0.01728145  0.21129911  0.12249020  1
  O  O37  1  0.91119109  0.28870089  0.30598234  1
  O  O38  1  0.30598234  0.91119109  0.28870089  1
  O  O39  1  0.89479125  0.37750980  0.58880891  1
  O  O40  1  0.19401766  0.21129911  0.58880891  1
  O  O41  1  0.60520875  0.19401766  0.48271855  1
  O  O42  1  0.58880891  0.19401766  0.21129911  1
  O  O43  1  0.21129911  0.12249020  0.01728145  1
  O  O44  1  0.21129911  0.58880891  0.19401766  1
  O  O45  1  0.12249020  0.60520875  0.91119109  1
  O  O46  1  0.01728145  0.30598234  0.89479125  1
  O  O47  1  0.28870089  0.48271855  0.37750980  1
  Si  Si48  1  0.25000000  0.12500000  0.87500000  1
  Si  Si49  1  0.75000000  0.87500000  0.12500000  1
  Si  Si50  1  0.37500000  0.25000000  0.62500000  1
  Si  Si51  1  0.62500000  0.37500000  0.25000000  1
  Si  Si52  1  0.12500000  0.75000000  0.87500000  1
  Si  Si53  1  0.87500000  0.12500000  0.75000000  1
  Si  Si54  1  0.75000000  0.37500000  0.62500000  1
  Si  Si55  1  0.37500000  0.62500000  0.75000000  1
  Si  Si56  1  0.12500000  0.87500000  0.25000000  1
  Si  Si57  1  0.87500000  0.25000000  0.12500000  1
  Si  Si58  1  0.62500000  0.75000000  0.37500000  1
  Si  Si59  1  0.25000000  0.62500000  0.37500000  1
  Mn  Mn60  1  0.00000000  0.00000000  0.00000000  1
  Mn  Mn61  1  0.00000000  0.50000000  0.00000000  1
  Mn  Mn62  1  0.00000000  0.00000000  0.50000000  1
  Mn  Mn63  1  0.50000000  0.00000000  0.00000000  1
  Mn  Mn64  1  0.00000000  0.50000000  0.50000000  1
  Mn  Mn65  1  0.50000000  0.00000000  0.50000000  1
  Mn  Mn66  1  0.50000000  0.50000000  0.00000000  1
  Mn  Mn67  1  0.50000000  0.50000000  0.50000000  1
  Mn  Mn68  1  0.62500000  0.25000000  0.87500000  1
  Mn  Mn69  1  0.87500000  0.75000000  0.62500000  1
  Mn  Mn70  1  0.75000000  0.62500000  0.87500000  1
  Mn  Mn71  1  0.25000000  0.87500000  0.62500000  1
  Mn  Mn72  1  0.87500000  0.62500000  0.25000000  1
  Mn  Mn73  1  0.62500000  0.87500000  0.75000000  1
  Mn  Mn74  1  0.37500000  0.75000000  0.12500000  1
  Mn  Mn75  1  0.12500000  0.25000000  0.37500000  1
  Mn  Mn76  1  0.25000000  0.37500000  0.12500000  1
  Mn  Mn77  1  0.75000000  0.12500000  0.37500000  1
  Mn  Mn78  1  0.12500000  0.37500000  0.75000000  1
  Mn  Mn79  1  0.37500000  0.12500000  0.25000000  1
