# generated using pymatgen
data_BaYMn2O6
_symmetry_space_group_name_H-M   'P 1'
_cell_length_a   5.56233730
_cell_length_b   5.52575154
_cell_length_c   7.90961375
_cell_angle_alpha   90.74519580
_cell_angle_beta   90.00000000
_cell_angle_gamma   90.00000000
_symmetry_Int_Tables_number   1
_chemical_formula_structural   BaYMn2O6
_chemical_formula_sum   'Ba2 Y2 Mn4 O12'
_cell_volume   243.09006902
_cell_formula_units_Z   2
loop_
 _symmetry_equiv_pos_site_id
 _symmetry_equiv_pos_as_xyz
  1  'x, y, z'
loop_
 _atom_site_type_symbol
 _atom_site_label
 _atom_site_symmetry_multiplicity
 _atom_site_fract_x
 _atom_site_fract_y
 _atom_site_fract_z
 _atom_site_occupancy
  O  O0  1  0.51720326  0.50000049  0.50000012  1
  O  O1  1  0.97607607  0.99999940  0.50000000  1
  O  O2  1  0.20787193  0.71335870  0.23822554  1
  O  O3  1  0.20787193  0.28664228  0.76177470  1
  O  O4  1  0.28540322  0.21338340  0.23823108  1
  O  O5  1  0.28540322  0.78661757  0.76176789  1
  O  O6  1  0.71149532  0.78689869  0.20173049  1
  O  O7  1  0.71149532  0.21310228  0.79826848  1
  O  O8  1  0.05602644  0.00000000  0.00000000  1
  O  O9  1  0.43732588  0.49999927  0.00000011  1
  O  O10  1  0.78176236  0.28686626  0.20170117  1
  O  O11  1  0.78176236  0.71313290  0.79829906  1
  Mn  Mn12  1  0.49809499  0.50094802  0.24236529  1
  Mn  Mn13  1  0.49809499  0.49905113  0.75763367  1
  Mn  Mn14  1  0.99521931  0.99904086  0.75755591  1
  Mn  Mn15  1  0.99521931  0.00096012  0.24244434  1
  Y  Y16  1  0.47992552  0.00000000  0.00000000  1
  Y  Y17  1  0.01342572  0.49999927  0.00000011  1
  Ba  Ba18  1  0.00077063  0.50000049  0.50000012  1
  Ba  Ba19  1  0.49255498  0.99999940  0.50000000  1
