# generated using pymatgen
data_RbHoS2O9
_symmetry_space_group_name_H-M   'P 1'
_cell_length_a   8.55629048
_cell_length_b   10.19259715
_cell_length_c   10.63944332
_cell_angle_alpha   120.26383573
_cell_angle_beta   90.00000000
_cell_angle_gamma   90.00000000
_symmetry_Int_Tables_number   1
_chemical_formula_structural   RbHoS2O9
_chemical_formula_sum   'Rb4 Ho4 S8 O36'
_cell_volume   801.41812168
_cell_formula_units_Z   4
loop_
 _symmetry_equiv_pos_site_id
 _symmetry_equiv_pos_as_xyz
  1  'x, y, z'
loop_
 _atom_site_type_symbol
 _atom_site_label
 _atom_site_symmetry_multiplicity
 _atom_site_fract_x
 _atom_site_fract_y
 _atom_site_fract_z
 _atom_site_occupancy
  Rb  Rb0  1  0.16470445  0.03665699  0.81831927  1
  Rb  Rb1  1  0.66470445  0.46334301  0.68168073  1
  Rb  Rb2  1  0.83529555  0.96334301  0.18168073  1
  Rb  Rb3  1  0.33529555  0.53665699  0.31831927  1
  Ho  Ho4  1  0.12915339  0.28181646  0.53002317  1
  Ho  Ho5  1  0.62915339  0.21818354  0.96997683  1
  Ho  Ho6  1  0.87084661  0.71818354  0.46997683  1
  Ho  Ho7  1  0.37084661  0.78181646  0.03002317  1
  S  S8  1  0.86363841  0.37630051  0.31590209  1
  S  S9  1  0.36363841  0.12369949  0.18409791  1
  S  S10  1  0.13636159  0.62369949  0.68409791  1
  S  S11  1  0.63636159  0.87630051  0.81590209  1
  S  S12  1  0.80357343  0.10151293  0.60900524  1
  S  S13  1  0.30357343  0.39848707  0.89099476  1
  S  S14  1  0.19642657  0.89848707  0.39099476  1
  S  S15  1  0.69642657  0.60151293  0.10900524  1
  O  O16  1  0.93350129  0.29025194  0.38145313  1
  O  O17  1  0.43350129  0.20974806  0.11854687  1
  O  O18  1  0.06649871  0.70974806  0.61854687  1
  O  O19  1  0.56649871  0.79025194  0.88145313  1
  O  O20  1  0.37994279  0.21971048  0.56583901  1
  O  O21  1  0.87994279  0.28028952  0.93416099  1
  O  O22  1  0.62005721  0.78028952  0.43416099  1
  O  O23  1  0.12005721  0.71971048  0.06583901  1
  O  O24  1  0.28927175  0.23511356  0.32315829  1
  O  O25  1  0.78927175  0.26488644  0.17684171  1
  O  O26  1  0.71072825  0.76488644  0.67684171  1
  O  O27  1  0.21072825  0.73511356  0.82315829  1
  O  O28  1  0.70494332  0.03769588  0.47743367  1
  O  O29  1  0.20494332  0.46230412  0.02256633  1
  O  O30  1  0.29505668  0.96230412  0.52256633  1
  O  O31  1  0.79505668  0.53769588  0.97743367  1
  O  O32  1  0.60591665  0.47982096  0.11458086  1
  O  O33  1  0.10591665  0.02017904  0.38541914  1
  O  O34  1  0.39408335  0.52017904  0.88541914  1
  O  O35  1  0.89408335  0.97982096  0.61458086  1
  O  O36  1  0.90897750  0.21954824  0.61401813  1
  O  O37  1  0.40897750  0.28045176  0.88598187  1
  O  O38  1  0.09102250  0.78045176  0.38598187  1
  O  O39  1  0.59102250  0.71954824  0.11401813  1
  O  O40  1  0.70252893  0.18056795  0.74324360  1
  O  O41  1  0.20252893  0.31943205  0.75675640  1
  O  O42  1  0.29747107  0.81943205  0.25675640  1
  O  O43  1  0.79747107  0.68056795  0.24324360  1
  O  O44  1  0.74454013  0.48791096  0.41895914  1
  O  O45  1  0.24454013  0.01208904  0.08104086  1
  O  O46  1  0.25545987  0.51208904  0.58104086  1
  O  O47  1  0.75545987  0.98791096  0.91895914  1
  O  O48  1  0.98452077  0.47153194  0.29936916  1
  O  O49  1  0.48452077  0.02846806  0.20063084  1
  O  O50  1  0.01547923  0.52846806  0.70063084  1
  O  O51  1  0.51547923  0.97153194  0.79936916  1
