# generated using pymatgen
data_Tl2Fe3S4
_symmetry_space_group_name_H-M   'P 1'
_cell_length_a   5.18802127
_cell_length_b   8.83825102
_cell_length_c   8.83825102
_cell_angle_alpha   72.78498851
_cell_angle_beta   72.93249889
_cell_angle_gamma   72.93249889
_symmetry_Int_Tables_number   1
_chemical_formula_structural   Tl2Fe3S4
_chemical_formula_sum   'Tl4 Fe6 S8'
_cell_volume   360.45756964
_cell_formula_units_Z   2
loop_
 _symmetry_equiv_pos_site_id
 _symmetry_equiv_pos_as_xyz
  1  'x, y, z'
loop_
 _atom_site_type_symbol
 _atom_site_label
 _atom_site_symmetry_multiplicity
 _atom_site_fract_x
 _atom_site_fract_y
 _atom_site_fract_z
 _atom_site_occupancy
  Tl  Tl0  1  0.73739709  0.37278627  0.62721373  1
  Tl  Tl1  1  0.26260291  0.62721373  0.37278627  1
  Tl  Tl2  1  0.76260291  0.87278627  0.12721373  1
  Tl  Tl3  1  0.23739709  0.12721373  0.87278627  1
  Fe  Fe4  1  0.75000000  0.75000000  0.75000000  1
  Fe  Fe5  1  0.25000000  0.25000000  0.25000000  1
  Fe  Fe6  1  0.25000000  0.49981617  0.00018383  1
  Fe  Fe7  1  0.25000000  0.00018383  0.49981617  1
  Fe  Fe8  1  0.75000000  0.50018383  -0.00018383  1
  Fe  Fe9  1  0.75000000  -0.00018383  0.50018383  1
  S  S10  1  0.58891636  0.28961505  0.02985938  1
  S  S11  1  0.09160921  0.02985938  0.28961505  1
  S  S12  1  0.91108364  0.47014062  0.21038495  1
  S  S13  1  0.40839079  0.21038495  0.47014062  1
  S  S14  1  0.41108364  0.71038495  0.97014062  1
  S  S15  1  0.90839079  0.97014062  0.71038495  1
  S  S16  1  0.08891636  0.52985938  0.78961505  1
  S  S17  1  0.59160921  0.78961505  0.52985938  1
