# generated using pymatgen
data_CdSO3
_symmetry_space_group_name_H-M   'P 1'
_cell_length_a   8.33582986
_cell_length_b   8.33582986
_cell_length_c   8.33582986
_cell_angle_alpha   109.10807853
_cell_angle_beta   109.10807852
_cell_angle_gamma   109.10807854
_symmetry_Int_Tables_number   1
_chemical_formula_structural   CdSO3
_chemical_formula_sum   'Cd6 S6 O18'
_cell_volume   451.78230408
_cell_formula_units_Z   6
loop_
 _symmetry_equiv_pos_site_id
 _symmetry_equiv_pos_as_xyz
  1  'x, y, z'
loop_
 _atom_site_type_symbol
 _atom_site_label
 _atom_site_symmetry_multiplicity
 _atom_site_fract_x
 _atom_site_fract_y
 _atom_site_fract_z
 _atom_site_occupancy
  O  O0  1  0.13032677  0.87475797  0.42340667  1
  O  O1  1  0.87475797  0.42340667  0.13032677  1
  O  O2  1  0.42340667  0.13032677  0.87475797  1
  O  O3  1  0.86967323  0.12524203  0.57659333  1
  O  O4  1  0.12524203  0.57659333  0.86967323  1
  O  O5  1  0.57659333  0.86967323  0.12524203  1
  O  O6  1  0.68908841  0.63696912  0.02297820  1
  O  O7  1  0.63696912  0.02297820  0.68908841  1
  O  O8  1  0.02297820  0.68908841  0.63696912  1
  O  O9  1  0.31091159  0.36303088  0.97702180  1
  O  O10  1  0.36303088  0.97702180  0.31091159  1
  O  O11  1  0.97702180  0.31091159  0.36303088  1
  O  O12  1  0.54610647  0.34084273  0.22293145  1
  O  O13  1  0.22293145  0.54610647  0.34084273  1
  O  O14  1  0.34084273  0.22293145  0.54610647  1
  O  O15  1  0.45389353  0.65915727  0.77706855  1
  O  O16  1  0.77706855  0.45389353  0.65915727  1
  O  O17  1  0.65915727  0.77706855  0.45389353  1
  S  S18  1  0.78850604  0.97861522  0.64361530  1
  S  S19  1  0.97861522  0.64361530  0.78850604  1
  S  S20  1  0.64361530  0.78850604  0.97861522  1
  S  S21  1  0.21149396  0.02138478  0.35638470  1
  S  S22  1  0.02138478  0.35638470  0.21149396  1
  S  S23  1  0.35638470  0.21149396  0.02138478  1
  Cd  Cd24  1  0.81564699  0.64115487  0.32667494  1
  Cd  Cd25  1  0.64115487  0.32667494  0.81564699  1
  Cd  Cd26  1  0.32667494  0.81564699  0.64115487  1
  Cd  Cd27  1  0.18435301  0.35884513  0.67332506  1
  Cd  Cd28  1  0.35884513  0.67332506  0.18435301  1
  Cd  Cd29  1  0.67332506  0.18435301  0.35884513  1
