# generated using pymatgen
data_Re2W3C
_symmetry_space_group_name_H-M   'P 1'
_cell_length_a   6.95722461
_cell_length_b   6.95722461
_cell_length_c   6.95722461
_cell_angle_alpha   90.00000000
_cell_angle_beta   90.00000000
_cell_angle_gamma   90.00000000
_symmetry_Int_Tables_number   1
_chemical_formula_structural   Re2W3C
_chemical_formula_sum   'Re8 W12 C4'
_cell_volume   336.75036382
_cell_formula_units_Z   4
loop_
 _symmetry_equiv_pos_site_id
 _symmetry_equiv_pos_as_xyz
  1  'x, y, z'
loop_
 _atom_site_type_symbol
 _atom_site_label
 _atom_site_symmetry_multiplicity
 _atom_site_fract_x
 _atom_site_fract_y
 _atom_site_fract_z
 _atom_site_occupancy
  C  C0  1  0.87500000  0.12500000  0.62500000  1
  C  C1  1  0.12500000  0.62500000  0.87500000  1
  C  C2  1  0.62500000  0.87500000  0.12500000  1
  C  C3  1  0.37500000  0.37500000  0.37500000  1
  W  W4  1  0.62500000  0.29453785  0.54453785  1
  W  W5  1  0.70546215  0.04453785  0.87500000  1
  W  W6  1  0.54453785  0.62500000  0.29453785  1
  W  W7  1  0.95546215  0.37500000  0.79453785  1
  W  W8  1  0.12500000  0.20546215  0.45546215  1
  W  W9  1  0.37500000  0.79453785  0.95546215  1
  W  W10  1  0.87500000  0.70546215  0.04453785  1
  W  W11  1  0.20546215  0.45546215  0.12500000  1
  W  W12  1  0.79453785  0.95546215  0.37500000  1
  W  W13  1  0.04453785  0.87500000  0.70546215  1
  W  W14  1  0.45546215  0.12500000  0.20546215  1
  W  W15  1  0.29453785  0.54453785  0.62500000  1
  Re  Re16  1  0.68183324  0.68183324  0.68183324  1
  Re  Re17  1  0.93183324  0.56816676  0.43183324  1
  Re  Re18  1  0.56816676  0.43183324  0.93183324  1
  Re  Re19  1  0.43183324  0.93183324  0.56816676  1
  Re  Re20  1  0.18183324  0.81816676  0.31816676  1
  Re  Re21  1  0.81816676  0.31816676  0.18183324  1
  Re  Re22  1  0.31816676  0.18183324  0.81816676  1
  Re  Re23  1  0.06816676  0.06816676  0.06816676  1
