# generated using pymatgen
data_Co5As2
_symmetry_space_group_name_H-M   'P 1'
_cell_length_a   6.78679965
_cell_length_b   6.78679965
_cell_length_c   12.37938015
_cell_angle_alpha   90.00000000
_cell_angle_beta   90.00000000
_cell_angle_gamma   119.99999995
_symmetry_Int_Tables_number   1
_chemical_formula_structural   Co5As2
_chemical_formula_sum   'Co30 As12'
_cell_volume   493.80966865
_cell_formula_units_Z   6
loop_
 _symmetry_equiv_pos_site_id
 _symmetry_equiv_pos_as_xyz
  1  'x, y, z'
loop_
 _atom_site_type_symbol
 _atom_site_label
 _atom_site_symmetry_multiplicity
 _atom_site_fract_x
 _atom_site_fract_y
 _atom_site_fract_z
 _atom_site_occupancy
  Co  Co0  1  0.00000000  0.00000000  0.94714314  1
  Co  Co1  1  0.00000000  0.00000000  0.44714314  1
  Co  Co2  1  0.33333333  0.66666667  0.08582633  1
  Co  Co3  1  0.66666667  0.33333333  0.58582633  1
  Co  Co4  1  0.33333333  0.66666667  0.58582633  1
  Co  Co5  1  0.66666667  0.33333333  0.08582633  1
  Co  Co6  1  0.27060909  0.00000000  0.11747742  1
  Co  Co7  1  0.27060909  0.27060909  0.61747742  1
  Co  Co8  1  0.00000000  0.72939091  0.61747742  1
  Co  Co9  1  0.00000000  0.27060909  0.11747742  1
  Co  Co10  1  0.72939091  0.72939091  0.11747742  1
  Co  Co11  1  0.72939091  0.00000000  0.61747742  1
  Co  Co12  1  0.62637745  0.00000000  0.21221050  1
  Co  Co13  1  0.62637745  0.62637745  0.71221050  1
  Co  Co14  1  0.00000000  0.37362255  0.71221050  1
  Co  Co15  1  0.00000000  0.62637745  0.21221050  1
  Co  Co16  1  0.37362255  0.37362255  0.21221050  1
  Co  Co17  1  0.37362255  0.00000000  0.71221050  1
  Co  Co18  1  0.30685584  0.00000000  0.32233030  1
  Co  Co19  1  0.30685584  0.30685584  0.82233030  1
  Co  Co20  1  0.00000000  0.69314416  0.82233030  1
  Co  Co21  1  0.00000000  0.30685584  0.32233030  1
  Co  Co22  1  0.69314416  0.69314416  0.32233030  1
  Co  Co23  1  0.69314416  0.00000000  0.82233030  1
  Co  Co24  1  0.63001227  0.00000000  0.42327099  1
  Co  Co25  1  0.63001227  0.63001227  0.92327099  1
  Co  Co26  1  0.00000000  0.36998773  0.92327099  1
  Co  Co27  1  0.00000000  0.63001227  0.42327099  1
  Co  Co28  1  0.36998773  0.36998773  0.42327099  1
  Co  Co29  1  0.36998773  0.00000000  0.92327099  1
  As  As30  1  0.00000000  0.00000000  0.24493659  1
  As  As31  1  0.00000000  0.00000000  0.74493659  1
  As  As32  1  0.33333333  0.66666667  0.29007383  1
  As  As33  1  0.66666667  0.33333333  0.79007383  1
  As  As34  1  0.33333333  0.66666667  0.79007383  1
  As  As35  1  0.66666667  0.33333333  0.29007383  1
  As  As36  1  0.67134971  0.00000000  0.01608410  1
  As  As37  1  0.67134971  0.67134971  0.51608410  1
  As  As38  1  0.00000000  0.32865029  0.51608410  1
  As  As39  1  0.00000000  0.67134971  0.01608410  1
  As  As40  1  0.32865029  0.32865029  0.01608410  1
  As  As41  1  0.32865029  0.00000000  0.51608410  1
