# generated using pymatgen
data_ZnH6(CO3)2
_symmetry_space_group_name_H-M   'P 1'
_cell_length_a   7.24041796
_cell_length_b   8.81754931
_cell_length_c   9.37525076
_cell_angle_alpha   97.50046931
_cell_angle_beta   90.00000000
_cell_angle_gamma   90.00000000
_symmetry_Int_Tables_number   1
_chemical_formula_structural   ZnH6(CO3)2
_chemical_formula_sum   'Zn4 H24 C8 O24'
_cell_volume   593.42047172
_cell_formula_units_Z   4
loop_
 _symmetry_equiv_pos_site_id
 _symmetry_equiv_pos_as_xyz
  1  'x, y, z'
loop_
 _atom_site_type_symbol
 _atom_site_label
 _atom_site_symmetry_multiplicity
 _atom_site_fract_x
 _atom_site_fract_y
 _atom_site_fract_z
 _atom_site_occupancy
  H  H0  1  0.09874704  0.69544887  0.73537046  1
  H  H1  1  0.59874704  0.30455113  0.76462954  1
  H  H2  1  0.90125296  0.30455113  0.26462954  1
  H  H3  1  0.40125296  0.69544887  0.23537046  1
  H  H4  1  0.15107633  0.52951106  0.77712417  1
  H  H5  1  0.65107633  0.47048894  0.72287583  1
  H  H6  1  0.84892367  0.47048894  0.22287583  1
  H  H7  1  0.34892367  0.52951106  0.27712417  1
  H  H8  1  0.10272089  0.23748732  0.54812818  1
  H  H9  1  0.60272089  0.76251268  0.95187182  1
  H  H10  1  0.89727911  0.76251268  0.45187182  1
  H  H11  1  0.39727911  0.23748732  0.04812818  1
  H  H12  1  0.88762158  0.21551312  0.51046766  1
  H  H13  1  0.38762158  0.78448688  0.98953234  1
  H  H14  1  0.11237842  0.78448688  0.48953234  1
  H  H15  1  0.61237842  0.21551312  0.01046766  1
  H  H16  1  0.19940937  0.05743278  0.27934211  1
  H  H17  1  0.69940937  0.94256722  0.22065789  1
  H  H18  1  0.80059063  0.94256722  0.72065789  1
  H  H19  1  0.30059063  0.05743278  0.77934211  1
  H  H20  1  0.47580084  0.67988173  0.61007781  1
  H  H21  1  0.97580084  0.32011827  0.88992219  1
  H  H22  1  0.52419916  0.32011827  0.38992219  1
  H  H23  1  0.02419916  0.67988173  0.11007781  1
  C  C24  1  0.27335528  0.95649782  0.22565954  1
  C  C25  1  0.77335528  0.04350218  0.27434046  1
  C  C26  1  0.72664472  0.04350218  0.77434046  1
  C  C27  1  0.22664472  0.95649782  0.72565954  1
  C  C28  1  0.88225772  0.67981588  0.06659363  1
  C  C29  1  0.38225772  0.32018412  0.43340637  1
  C  C30  1  0.11774228  0.32018412  0.93340637  1
  C  C31  1  0.61774228  0.67981588  0.56659363  1
  O  O32  1  0.12010971  0.58736516  0.69567694  1
  O  O33  1  0.62010971  0.41263484  0.80432306  1
  O  O34  1  0.87989029  0.41263484  0.30432306  1
  O  O35  1  0.37989029  0.58736516  0.19567694  1
  O  O36  1  0.97710024  0.28127576  0.57057748  1
  O  O37  1  0.47710024  0.71872424  0.92942252  1
  O  O38  1  0.02289976  0.71872424  0.42942252  1
  O  O39  1  0.52289976  0.28127576  0.07057748  1
  O  O40  1  0.22737080  0.90555345  0.09716079  1
  O  O41  1  0.72737080  0.09444655  0.40283921  1
  O  O42  1  0.77262920  0.09444655  0.90283921  1
  O  O43  1  0.27262920  0.90555345  0.59716079  1
  O  O44  1  0.39907523  0.89685522  0.29475221  1
  O  O45  1  0.89907523  0.10314478  0.20524779  1
  O  O46  1  0.60092477  0.10314478  0.70524779  1
  O  O47  1  0.10092477  0.89685522  0.79475221  1
  O  O48  1  0.72006493  0.56701105  0.58421019  1
  O  O49  1  0.22006493  0.43298895  0.91578981  1
  O  O50  1  0.27993507  0.43298895  0.41578981  1
  O  O51  1  0.77993507  0.56701105  0.08421019  1
  O  O52  1  0.66698791  0.79362539  0.50352676  1
  O  O53  1  0.16698791  0.20637461  0.99647324  1
  O  O54  1  0.33301209  0.20637461  0.49647324  1
  O  O55  1  0.83301209  0.79362539  0.00352676  1
  Zn  Zn56  1  0.00000000  0.50000000  0.50000000  1
  Zn  Zn57  1  0.50000000  0.50000000  0.00000000  1
  Zn  Zn58  1  0.50000000  0.00000000  0.50000000  1
  Zn  Zn59  1  0.00000000  0.00000000  0.00000000  1
