# generated using pymatgen
data_BaYCo2O5
_symmetry_space_group_name_H-M   'P 1'
_cell_length_a   3.85051414
_cell_length_b   7.75312637
_cell_length_c   7.88587810
_cell_angle_alpha   90.00000000
_cell_angle_beta   90.00000000
_cell_angle_gamma   90.00000000
_symmetry_Int_Tables_number   1
_chemical_formula_structural   BaYCo2O5
_chemical_formula_sum   'Ba2 Y2 Co4 O10'
_cell_volume   235.42124100
_cell_formula_units_Z   2
loop_
 _symmetry_equiv_pos_site_id
 _symmetry_equiv_pos_as_xyz
  1  'x, y, z'
loop_
 _atom_site_type_symbol
 _atom_site_label
 _atom_site_symmetry_multiplicity
 _atom_site_fract_x
 _atom_site_fract_y
 _atom_site_fract_z
 _atom_site_occupancy
  O  O0  1  0.49999985  0.68786455  0.49928598  1
  O  O1  1  0.49999985  0.31213468  0.50071405  1
  O  O2  1  0.49999985  0.68786455  0.00071404  1
  O  O3  1  0.49999985  0.31213468  0.99928599  1
  O  O4  1  0.00000000  0.67964604  0.75000002  1
  O  O5  1  0.00000000  0.32035453  0.25000001  1
  O  O6  1  0.00000000  0.31804878  0.75000002  1
  O  O7  1  0.00000000  0.68195045  0.25000001  1
  O  O8  1  0.49999985  0.00072662  0.25000001  1
  O  O9  1  0.49999985  0.99927394  0.75000002  1
  Co  Co10  1  0.49999985  0.26280720  0.75000002  1
  Co  Co11  1  0.49999985  0.73719203  0.25000001  1
  Co  Co12  1  0.49999985  0.26133596  0.25000001  1
  Co  Co13  1  0.49999985  0.73866461  0.75000002  1
  Y  Y14  1  0.00000000  0.50000028  0.00000000  1
  Y  Y15  1  0.00000000  0.50000028  0.50000001  1
  Ba  Ba16  1  0.00000000  0.00000000  0.50000001  1
  Ba  Ba17  1  0.00000000  0.00000000  0.00000000  1
