# generated using pymatgen
data_La2NiO4
_symmetry_space_group_name_H-M   'P 1'
_cell_length_a   3.91929380
_cell_length_b   3.91929380
_cell_length_c   6.83764696
_cell_angle_alpha   106.65431329
_cell_angle_beta   106.65431328
_cell_angle_gamma   90.00000001
_symmetry_Int_Tables_number   1
_chemical_formula_structural   La2NiO4
_chemical_formula_sum   'La2 Ni1 O4'
_cell_volume   96.01828222
_cell_formula_units_Z   1
loop_
 _symmetry_equiv_pos_site_id
 _symmetry_equiv_pos_as_xyz
  1  'x, y, z'
loop_
 _atom_site_type_symbol
 _atom_site_label
 _atom_site_symmetry_multiplicity
 _atom_site_fract_x
 _atom_site_fract_y
 _atom_site_fract_z
 _atom_site_occupancy
  O  O0  1  0.82109138  0.82108907  0.64218137  1
  O  O1  1  0.17890909  0.17891046  0.35781873  1
  O  O2  1  0.99999974  0.50000007  0.00000045  1
  O  O3  1  0.50000048  0.99999999  0.00000055  1
  Ni  Ni4  1  0.00000000  0.00000000  0.00000000  1
  La  La5  1  0.63649307  0.63649284  0.27298567  1
  La  La6  1  0.36350740  0.36350670  0.72701442  1
