# generated using pymatgen
data_NaH6ClO5
_symmetry_space_group_name_H-M   'P 1'
_cell_length_a   5.49585652
_cell_length_b   6.53362381
_cell_length_c   9.00594983
_cell_angle_alpha   71.22267321
_cell_angle_beta   88.02301364
_cell_angle_gamma   70.92595819
_symmetry_Int_Tables_number   1
_chemical_formula_structural   NaH6ClO5
_chemical_formula_sum   'Na2 H12 Cl2 O10'
_cell_volume   288.45854500
_cell_formula_units_Z   2
loop_
 _symmetry_equiv_pos_site_id
 _symmetry_equiv_pos_as_xyz
  1  'x, y, z'
loop_
 _atom_site_type_symbol
 _atom_site_label
 _atom_site_symmetry_multiplicity
 _atom_site_fract_x
 _atom_site_fract_y
 _atom_site_fract_z
 _atom_site_occupancy
  H  H0  1  0.74491481  0.09379529  0.56875611  1
  H  H1  1  0.25508519  0.90620471  0.43124389  1
  H  H2  1  0.84496551  0.23460764  0.41922714  1
  H  H3  1  0.15503449  0.76539236  0.58077286  1
  H  H4  1  0.29862370  0.31304965  0.74516481  1
  H  H5  1  0.70137630  0.68695035  0.25483519  1
  H  H6  1  0.61747513  0.31448255  0.93459899  1
  H  H7  1  0.38252487  0.68551745  0.06540101  1
  H  H8  1  0.40532360  0.55574172  0.85125384  1
  H  H9  1  0.59467640  0.44425828  0.14874616  1
  H  H10  1  0.80394400  0.88238327  0.26046986  1
  H  H11  1  0.19605600  0.11761673  0.73953014  1
  O  O12  1  0.28990062  0.74758900  0.50676244  1
  O  O13  1  0.71009938  0.25241100  0.49323756  1
  O  O14  1  0.51029422  0.40929232  0.83495739  1
  O  O15  1  0.48970578  0.59070768  0.16504261  1
  O  O16  1  0.79581435  0.17802457  0.13016183  1
  O  O17  1  0.20418565  0.82197543  0.86983817  1
  O  O18  1  0.15487533  0.18321939  0.30674236  1
  O  O19  1  0.84512467  0.81678061  0.69325764  1
  O  O20  1  0.81949228  0.72090575  0.31714730  1
  O  O21  1  0.18050772  0.27909425  0.68285270  1
  Na  Na22  1  0.26707237  0.45841360  0.39854072  1
  Na  Na23  1  0.73292763  0.54158640  0.60145928  1
  Cl  Cl24  1  0.91747686  0.81404523  0.86260149  1
  Cl  Cl25  1  0.08252314  0.18595477  0.13739851  1
