# generated using pymatgen
data_CoH9(CN2)3
_symmetry_space_group_name_H-M   'P 1'
_cell_length_a   7.31426512
_cell_length_b   7.31426512
_cell_length_c   7.31426512
_cell_angle_alpha   97.40594307
_cell_angle_beta   97.40594305
_cell_angle_gamma   97.40594303
_symmetry_Int_Tables_number   1
_chemical_formula_structural   CoH9(CN2)3
_chemical_formula_sum   'Co2 H18 C6 N12'
_cell_volume   380.56456814
_cell_formula_units_Z   2
loop_
 _symmetry_equiv_pos_site_id
 _symmetry_equiv_pos_as_xyz
  1  'x, y, z'
loop_
 _atom_site_type_symbol
 _atom_site_label
 _atom_site_symmetry_multiplicity
 _atom_site_fract_x
 _atom_site_fract_y
 _atom_site_fract_z
 _atom_site_occupancy
  H  H0  1  0.45237217  0.64939905  0.20103406  1
  H  H1  1  0.64939905  0.20103406  0.45237217  1
  H  H2  1  0.35060095  0.79896594  0.54762783  1
  H  H3  1  0.79896594  0.54762783  0.35060095  1
  H  H4  1  0.33992339  0.43493379  0.16070434  1
  H  H5  1  0.43493379  0.16070434  0.33992339  1
  H  H6  1  0.16070434  0.33992339  0.43493379  1
  H  H7  1  0.66007661  0.56506621  0.83929566  1
  H  H8  1  0.56506621  0.83929566  0.66007661  1
  H  H9  1  0.83929566  0.66007661  0.56506621  1
  H  H10  1  0.24930575  0.60197904  0.27399025  1
  H  H11  1  0.54762783  0.35060095  0.79896594  1
  H  H12  1  0.27399025  0.24930575  0.60197904  1
  H  H13  1  0.75069425  0.39802096  0.72600975  1
  H  H14  1  0.39802096  0.72600975  0.75069425  1
  H  H15  1  0.72600975  0.75069425  0.39802096  1
  H  H16  1  0.20103406  0.45237217  0.64939905  1
  H  H17  1  0.60197904  0.27399025  0.24930575  1
  C  C18  1  0.95031750  0.22573167  0.12244178  1
  C  C19  1  0.04968250  0.77426833  0.87755822  1
  C  C20  1  0.12244178  0.95031750  0.22573167  1
  C  C21  1  0.77426833  0.87755822  0.04968250  1
  C  C22  1  0.87755822  0.04968250  0.77426833  1
  C  C23  1  0.22573167  0.12244178  0.95031750  1
  N  N24  1  0.55185135  0.25993153  0.37223105  1
  N  N25  1  0.44814865  0.74006847  0.62776895  1
  N  N26  1  0.74006847  0.62776895  0.44814865  1
  N  N27  1  0.62776895  0.44814865  0.74006847  1
  N  N28  1  0.79608406  0.07716471  0.63341999  1
  N  N29  1  0.07716471  0.63341999  0.79608406  1
  N  N30  1  0.63341999  0.79608406  0.07716471  1
  N  N31  1  0.37223105  0.55185135  0.25993153  1
  N  N32  1  0.92283529  0.36658001  0.20391594  1
  N  N33  1  0.36658001  0.20391594  0.92283529  1
  N  N34  1  0.25993153  0.37223105  0.55185135  1
  N  N35  1  0.20391594  0.92283529  0.36658001  1
  Co  Co36  1  0.50000000  0.50000000  0.50000000  1
  Co  Co37  1  0.00000000  0.00000000  0.00000000  1
