# generated using pymatgen
data_Y7(O2F3)3
_symmetry_space_group_name_H-M   'P 1'
_cell_length_a   5.52327112
_cell_length_b   5.57892779
_cell_length_c   19.91694737
_cell_angle_alpha   98.05101675
_cell_angle_beta   90.00000000
_cell_angle_gamma   90.00000000
_symmetry_Int_Tables_number   1
_chemical_formula_structural   Y7(O2F3)3
_chemical_formula_sum   'Y14 O12 F18'
_cell_volume   607.67046768
_cell_formula_units_Z   2
loop_
 _symmetry_equiv_pos_site_id
 _symmetry_equiv_pos_as_xyz
  1  'x, y, z'
loop_
 _atom_site_type_symbol
 _atom_site_label
 _atom_site_symmetry_multiplicity
 _atom_site_fract_x
 _atom_site_fract_y
 _atom_site_fract_z
 _atom_site_occupancy
  O  O0  1  0.52052629  0.37477882  0.71496625  1
  O  O1  1  0.00000000  0.98044509  0.00000000  1
  O  O2  1  0.47947371  0.65981257  0.28503375  1
  O  O3  1  0.00000000  0.48044509  0.00000000  1
  O  O4  1  0.52052629  0.15981257  0.28503375  1
  O  O5  1  0.47947371  0.87477882  0.71496625  1
  O  O6  1  0.46106522  0.54503475  0.14023384  1
  O  O7  1  0.53893478  0.40480091  0.85976616  1
  O  O8  1  0.53893478  0.04503475  0.14023384  1
  O  O9  1  0.46106522  0.90480091  0.85976616  1
  O  O10  1  0.50000000  0.99586026  0.00000000  1
  O  O11  1  0.50000000  0.49586026  0.00000000  1
  F  F12  1  0.95544447  0.00504402  0.84633115  1
  F  F13  1  0.04455553  0.50504402  0.84633115  1
  F  F14  1  0.95544447  0.65871287  0.15366885  1
  F  F15  1  0.04455553  0.15871287  0.15366885  1
  F  F16  1  0.96563626  0.79751491  0.71672921  1
  F  F17  1  0.03436374  0.08078571  0.28327079  1
  F  F18  1  0.03436374  0.29751491  0.71672921  1
  F  F19  1  0.96563626  0.58078571  0.28327079  1
  F  F20  1  0.90128248  0.41465241  0.60231056  1
  F  F21  1  0.09871752  0.81234185  0.39768944  1
  F  F22  1  0.87109191  0.05682818  0.50000000  1
  F  F23  1  0.90128248  0.31234185  0.39768944  1
  F  F24  1  0.55010261  0.75640179  0.56856536  1
  F  F25  1  0.44989739  0.18783643  0.43143464  1
  F  F26  1  0.44989739  0.25640179  0.56856536  1
  F  F27  1  0.55010261  0.68783643  0.43143464  1
  F  F28  1  0.12890809  0.55682818  0.50000000  1
  F  F29  1  0.09871752  0.91465241  0.60231056  1
  Y  Y30  1  0.25800561  0.93354354  0.50000000  1
  Y  Y31  1  0.74199439  0.43354354  0.50000000  1
  Y  Y32  1  0.26596031  0.41749843  0.33796000  1
  Y  Y33  1  0.73403969  0.07953843  0.66204000  1
  Y  Y34  1  0.73403969  0.91749843  0.33796000  1
  Y  Y35  1  0.26596031  0.57953843  0.66204000  1
  Y  Y36  1  0.69996247  0.35836413  0.19945142  1
  Y  Y37  1  0.30003753  0.15891271  0.80054858  1
  Y  Y38  1  0.30003753  0.85836413  0.19945142  1
  Y  Y39  1  0.69996247  0.65891271  0.80054858  1
  Y  Y40  1  0.26203739  0.26999229  0.05769241  1
  Y  Y41  1  0.73796261  0.21229988  0.94230759  1
  Y  Y42  1  0.73796261  0.76999229  0.05769241  1
  Y  Y43  1  0.26203739  0.71229988  0.94230759  1
