# generated using pymatgen
data_BiTeCl
_symmetry_space_group_name_H-M   'P 1'
_cell_length_a   4.30299266
_cell_length_b   4.30299266
_cell_length_c   14.14164476
_cell_angle_alpha   90.00000000
_cell_angle_beta   90.00000000
_cell_angle_gamma   119.99999997
_symmetry_Int_Tables_number   1
_chemical_formula_structural   BiTeCl
_chemical_formula_sum   'Bi2 Te2 Cl2'
_cell_volume   226.76277668
_cell_formula_units_Z   2
loop_
 _symmetry_equiv_pos_site_id
 _symmetry_equiv_pos_as_xyz
  1  'x, y, z'
loop_
 _atom_site_type_symbol
 _atom_site_label
 _atom_site_symmetry_multiplicity
 _atom_site_fract_x
 _atom_site_fract_y
 _atom_site_fract_z
 _atom_site_occupancy
  Cl  Cl0  1  0.00000000  0.00000000  0.02032409  1
  Cl  Cl1  1  0.00000000  0.00000000  0.52032409  1
  Te  Te2  1  0.66666667  0.33333333  0.26130444  1
  Te  Te3  1  0.33333333  0.66666667  0.76130444  1
  Bi  Bi4  1  0.33333333  0.66666667  0.13647147  1
  Bi  Bi5  1  0.66666667  0.33333333  0.63647147  1
