# generated using pymatgen
data_Ce2Te4O11
_symmetry_space_group_name_H-M   'P 1'
_cell_length_a   5.31661534
_cell_length_b   6.94888251
_cell_length_c   16.30722577
_cell_angle_alpha   79.67287647
_cell_angle_beta   80.61810907
_cell_angle_gamma   67.50816176
_symmetry_Int_Tables_number   1
_chemical_formula_structural   Ce2Te4O11
_chemical_formula_sum   'Ce4 Te8 O22'
_cell_volume   544.65519219
_cell_formula_units_Z   2
loop_
 _symmetry_equiv_pos_site_id
 _symmetry_equiv_pos_as_xyz
  1  'x, y, z'
loop_
 _atom_site_type_symbol
 _atom_site_label
 _atom_site_symmetry_multiplicity
 _atom_site_fract_x
 _atom_site_fract_y
 _atom_site_fract_z
 _atom_site_occupancy
  Ce  Ce0  1  0.13453056  0.69960378  0.53779809  1
  Ce  Ce1  1  0.86546944  0.30039622  0.46220191  1
  Ce  Ce2  1  0.37193243  0.80039622  0.96220191  1
  Ce  Ce3  1  0.62806757  0.19960378  0.03779809  1
  Te  Te4  1  0.39181190  0.46149131  0.29837866  1
  Te  Te5  1  0.14958176  0.38804379  0.87238458  1
  Te  Te6  1  0.84831812  0.96149131  0.79837866  1
  Te  Te7  1  0.60818810  0.53850869  0.70162134  1
  Te  Te8  1  0.85041824  0.61195621  0.12761542  1
  Te  Te9  1  0.58998986  0.88804379  0.37238458  1
  Te  Te10  1  0.41001014  0.11195621  0.62761542  1
  Te  Te11  1  0.15168188  0.03850869  0.20162134  1
  O  O12  1  0.19196545  0.30817297  0.54552496  1
  O  O13  1  0.61714099  0.04764576  0.89897961  1
  O  O14  1  0.43623364  0.54764576  0.39897961  1
  O  O15  1  0.68205226  0.13032538  0.37074503  1
  O  O16  1  0.79774951  0.12153154  0.17043181  1
  O  O17  1  0.95433662  0.80817297  0.04552496  1
  O  O18  1  0.25158966  0.96970151  0.44298465  1
  O  O19  1  0.18312267  0.36967462  0.12925497  1
  O  O20  1  0.14253971  0.75000000  0.25000000  1
  O  O21  1  0.91028714  0.62153154  0.67043181  1
  O  O22  1  0.31794774  0.86967462  0.62925497  1
  O  O23  1  0.04566338  0.19182703  0.95447504  1
  O  O24  1  0.08971286  0.37846846  0.32956819  1
  O  O25  1  0.85746029  0.25000000  0.75000000  1
  O  O26  1  0.56376636  0.45235424  0.60102039  1
  O  O27  1  0.80803455  0.69182703  0.45447504  1
  O  O28  1  0.38285901  0.95235424  0.10102039  1
  O  O29  1  0.74841034  0.03029849  0.55701535  1
  O  O30  1  0.81687733  0.63032538  0.87074503  1
  O  O31  1  0.66427582  0.53029849  0.05701535  1
  O  O32  1  0.20225049  0.87846846  0.82956819  1
  O  O33  1  0.33572418  0.46970151  0.94298465  1
