# generated using pymatgen
data_Ba7Fe6(OF16)2
_symmetry_space_group_name_H-M   'P 1'
_cell_length_a   7.65147846
_cell_length_b   10.39131536
_cell_length_c   10.39131536
_cell_angle_alpha   68.21801990
_cell_angle_beta   80.92188231
_cell_angle_gamma   80.92188231
_symmetry_Int_Tables_number   1
_chemical_formula_structural   Ba7Fe6(OF16)2
_chemical_formula_sum   'Ba7 Fe6 O2 F32'
_cell_volume   753.15437595
_cell_formula_units_Z   1
loop_
 _symmetry_equiv_pos_site_id
 _symmetry_equiv_pos_as_xyz
  1  'x, y, z'
loop_
 _atom_site_type_symbol
 _atom_site_label
 _atom_site_symmetry_multiplicity
 _atom_site_fract_x
 _atom_site_fract_y
 _atom_site_fract_z
 _atom_site_occupancy
  Ba  Ba0  1  -0.00000000  -0.00000000  -0.00000000  1
  Ba  Ba1  1  0.87023487  0.26622227  0.26622227  1
  Ba  Ba2  1  0.12976513  0.73377773  0.73377773  1
  Ba  Ba3  1  0.69699579  0.43402100  0.84772130  1
  Ba  Ba4  1  0.69699579  0.84772130  0.43402100  1
  Ba  Ba5  1  0.30300421  0.56597900  0.15227870  1
  Ba  Ba6  1  0.30300421  0.15227870  0.56597900  1
  Fe  Fe7  1  0.45559933  0.17553373  0.17553373  1
  Fe  Fe8  1  0.54440067  0.82446627  0.82446627  1
  Fe  Fe9  1  0.19973662  0.35506135  0.86544303  1
  Fe  Fe10  1  0.19973662  0.86544303  0.35506135  1
  Fe  Fe11  1  0.80026338  0.64493865  0.13455697  1
  Fe  Fe12  1  0.80026338  0.13455697  0.64493865  1
  O  O13  1  0.26657286  0.46232817  0.46232817  1
  O  O14  1  0.73342714  0.53767183  0.53767183  1
  F  F15  1  0.97106063  0.51535691  0.25312135  1
  F  F16  1  0.97106063  0.25312135  0.51535691  1
  F  F17  1  0.02893937  0.48464309  0.74687865  1
  F  F18  1  0.02893937  0.74687865  0.48464309  1
  F  F19  1  0.61019837  0.55019963  0.26056820  1
  F  F20  1  0.61019837  0.26056820  0.55019963  1
  F  F21  1  0.38980163  0.44980037  0.73943180  1
  F  F22  1  0.38980163  0.73943180  0.44980037  1
  F  F23  1  0.81174323  0.51787743  0.03549619  1
  F  F24  1  0.81174323  0.03549619  0.51787743  1
  F  F25  1  0.18825677  0.48212257  0.96450381  1
  F  F26  1  0.18825677  0.96450381  0.48212257  1
  F  F27  1  0.00120616  0.26544530  0.00117791  1
  F  F28  1  0.00120616  0.00117791  0.26544530  1
  F  F29  1  0.99879384  0.73455470  0.99882209  1
  F  F30  1  0.99879384  0.99882209  0.73455470  1
  F  F31  1  0.54587031  0.35647162  0.12079791  1
  F  F32  1  0.54587031  0.12079791  0.35647162  1
  F  F33  1  0.45412969  0.64352838  0.87920209  1
  F  F34  1  0.45412969  0.87920209  0.64352838  1
  F  F35  1  0.20350115  0.20829580  0.79372241  1
  F  F36  1  0.20350115  0.79372241  0.20829580  1
  F  F37  1  0.79649885  0.79170420  0.20627759  1
  F  F38  1  0.79649885  0.20627759  0.79170420  1
  F  F39  1  0.38183258  0.22946784  0.98944464  1
  F  F40  1  0.38183258  0.98944464  0.22946784  1
  F  F41  1  0.61816742  0.77053216  0.01055536  1
  F  F42  1  0.61816742  0.01055536  0.77053216  1
  F  F43  1  0.23859405  0.25738844  0.25738844  1
  F  F44  1  0.76140595  0.74261156  0.74261156  1
  F  F45  1  0.69300580  0.11248981  0.11248981  1
  F  F46  1  0.30699420  0.88751019  0.88751019  1
