# generated using pymatgen
data_LiMo2(PO4)3
_symmetry_space_group_name_H-M   'P 1'
_cell_length_a   4.94257684
_cell_length_b   4.94257684
_cell_length_c   21.53560567
_cell_angle_alpha   84.80147991
_cell_angle_beta   84.80147991
_cell_angle_gamma   65.26155292
_symmetry_Int_Tables_number   1
_chemical_formula_structural   LiMo2(PO4)3
_chemical_formula_sum   'Li2 Mo4 P6 O24'
_cell_volume   475.04028485
_cell_formula_units_Z   2
loop_
 _symmetry_equiv_pos_site_id
 _symmetry_equiv_pos_as_xyz
  1  'x, y, z'
loop_
 _atom_site_type_symbol
 _atom_site_label
 _atom_site_symmetry_multiplicity
 _atom_site_fract_x
 _atom_site_fract_y
 _atom_site_fract_z
 _atom_site_occupancy
  Li  Li0  1  -0.00828041  -0.00827832  0.50084947  1
  Li  Li1  1  1.00827944  1.00827899  0.83248380  1
  O  O2  1  0.23850389  0.72170090  0.08665699  1
  O  O3  1  0.80162953  0.80163083  0.87369777  1
  O  O4  1  0.77333269  0.77333410  0.64955007  1
  O  O5  1  0.77057565  0.77057664  0.53082567  1
  O  O6  1  0.19671363  0.19671307  0.33972623  1
  O  O7  1  0.27990072  0.27990043  0.02935740  1
  O  O8  1  0.19836950  0.19836983  0.45963550  1
  O  O9  1  0.25658059  0.25658018  0.14900131  1
  O  O10  1  0.22666634  0.22666656  0.68378320  1
  O  O11  1  0.22942338  0.22942402  0.80250760  1
  O  O12  1  0.80328632  0.80328536  0.99360706  1
  O  O13  1  0.18118216  0.64558705  0.38936531  1
  O  O14  1  0.20817237  0.68031654  0.73203767  1
  O  O15  1  0.27829897  0.76149729  0.24667608  1
  O  O16  1  0.31968375  0.79182734  0.60129607  1
  O  O17  1  0.35441329  0.81881722  0.94396843  1
  O  O18  1  0.72009991  0.72009930  0.30397567  1
  O  O19  1  0.64558663  0.18118119  0.38936533  1
  O  O20  1  0.68031820  0.20817108  0.73203767  1
  O  O21  1  0.76149674  0.27829882  0.24667609  1
  O  O22  1  0.79182755  0.31968187  0.60129609  1
  O  O23  1  0.81881888  0.35441359  0.94396840  1
  O  O24  1  0.74341798  0.74341952  0.18433227  1
  O  O25  1  0.72170166  0.23850244  0.08665700  1
  P  P26  1  0.70620853  0.70620882  0.93613197  1
  P  P27  1  0.67016134  0.67016093  0.59203952  1
  P  P28  1  0.63391602  0.63391516  0.24558941  1
  P  P29  1  0.32983860  0.32983750  0.74129377  1
  P  P30  1  0.29379050  0.29379185  0.39720130  1
  P  P31  1  0.36608461  0.36608457  0.08774366  1
  Mo  Mo32  1  0.99999920  0.99999978  0.16666687  1
  Mo  Mo33  1  0.00000091  0.99999916  0.66666647  1
  Mo  Mo34  1  0.04126750  0.04126763  0.00655239  1
  Mo  Mo35  1  0.95873153  0.95873304  0.32678088  1
