# generated using pymatgen
data_Zr9Ni11
_symmetry_space_group_name_H-M   'P 1'
_cell_length_a   6.47517021
_cell_length_b   7.77259743
_cell_length_c   7.77259744
_cell_angle_alpha   80.00837547
_cell_angle_beta   65.38376730
_cell_angle_gamma   65.38376734
_symmetry_Int_Tables_number   1
_chemical_formula_structural   Zr9Ni11
_chemical_formula_sum   'Zr9 Ni11'
_cell_volume   323.31375447
_cell_formula_units_Z   1
loop_
 _symmetry_equiv_pos_site_id
 _symmetry_equiv_pos_as_xyz
  1  'x, y, z'
loop_
 _atom_site_type_symbol
 _atom_site_label
 _atom_site_symmetry_multiplicity
 _atom_site_fract_x
 _atom_site_fract_y
 _atom_site_fract_z
 _atom_site_occupancy
  Ni  Ni0  1  0.50000000  0.00000000  0.00000000  1
  Ni  Ni1  1  0.25000000  0.50000000  0.50000000  1
  Ni  Ni2  1  0.75000000  0.50000000  0.50000000  1
  Ni  Ni3  1  0.42942871  0.89513033  0.65735924  1
  Ni  Ni4  1  0.08678795  0.34264076  0.89513033  1
  Ni  Ni5  1  0.32455904  0.65735924  0.10486967  1
  Ni  Ni6  1  0.98191828  0.10486967  0.34264076  1
  Ni  Ni7  1  0.57057129  0.10486967  0.34264076  1
  Ni  Ni8  1  0.91321205  0.65735924  0.10486967  1
  Ni  Ni9  1  0.67544096  0.34264076  0.89513033  1
  Ni  Ni10  1  0.01808172  0.89513033  0.65735924  1
  Zr  Zr11  1  0.00000000  0.00000000  0.00000000  1
  Zr  Zr12  1  0.41517936  0.83238014  0.33726115  1
  Zr  Zr13  1  0.75244051  0.66273885  0.83238014  1
  Zr  Zr14  1  0.24755949  0.33726115  0.16761986  1
  Zr  Zr15  1  0.58482064  0.16761986  0.66273885  1
  Zr  Zr16  1  0.09059923  0.22072454  0.59807701  1
  Zr  Zr17  1  0.68867624  0.40192299  0.22072454  1
  Zr  Zr18  1  0.31132376  0.59807701  0.77927546  1
  Zr  Zr19  1  0.90940077  0.77927546  0.40192299  1
