# generated using pymatgen
data_Na4Al3Ge3B(HO3)4
_symmetry_space_group_name_H-M   'P 1'
_cell_length_a   9.13979708
_cell_length_b   9.13979708
_cell_length_c   9.13979708
_cell_angle_alpha   90.00000000
_cell_angle_beta   90.00000000
_cell_angle_gamma   90.00000000
_symmetry_Int_Tables_number   1
_chemical_formula_structural   Na4Al3Ge3B(HO3)4
_chemical_formula_sum   'Na8 Al6 Ge6 B2 H8 O24'
_cell_volume   763.50108956
_cell_formula_units_Z   2
loop_
 _symmetry_equiv_pos_site_id
 _symmetry_equiv_pos_as_xyz
  1  'x, y, z'
loop_
 _atom_site_type_symbol
 _atom_site_label
 _atom_site_symmetry_multiplicity
 _atom_site_fract_x
 _atom_site_fract_y
 _atom_site_fract_z
 _atom_site_occupancy
  Al  Al0  1  0.75000000  0.00000000  0.50000000  1
  Al  Al1  1  0.00000000  0.50000000  0.75000000  1
  Al  Al2  1  0.25000000  0.00000000  0.50000000  1
  Al  Al3  1  0.50000000  0.25000000  0.00000000  1
  Al  Al4  1  0.50000000  0.75000000  0.00000000  1
  Al  Al5  1  0.00000000  0.50000000  0.25000000  1
  B  B6  1  0.00000000  0.00000000  0.00000000  1
  B  B7  1  0.50000000  0.50000000  0.50000000  1
  Ge  Ge8  1  0.75000000  0.50000000  0.00000000  1
  Ge  Ge9  1  0.00000000  0.75000000  0.50000000  1
  Ge  Ge10  1  0.25000000  0.50000000  0.00000000  1
  Ge  Ge11  1  0.50000000  0.00000000  0.25000000  1
  Ge  Ge12  1  0.50000000  0.00000000  0.75000000  1
  Ge  Ge13  1  0.00000000  0.25000000  0.50000000  1
  H  H14  1  0.57769889  0.57769889  0.42230111  1
  H  H15  1  0.57769889  0.42230111  0.57769889  1
  H  H16  1  0.07769889  0.07769889  0.92230111  1
  H  H17  1  0.07769889  0.92230111  0.07769889  1
  H  H18  1  0.42230111  0.57769889  0.57769889  1
  H  H19  1  0.42230111  0.42230111  0.42230111  1
  H  H20  1  0.92230111  0.92230111  0.92230111  1
  H  H21  1  0.92230111  0.07769889  0.07769889  1
  Na  Na22  1  0.82730552  0.82730552  0.17269448  1
  Na  Na23  1  0.82730552  0.17269448  0.82730552  1
  Na  Na24  1  0.17269448  0.82730552  0.82730552  1
  Na  Na25  1  0.17269448  0.17269448  0.17269448  1
  Na  Na26  1  0.32730552  0.32730552  0.67269448  1
  Na  Na27  1  0.32730552  0.67269448  0.32730552  1
  Na  Na28  1  0.67269448  0.32730552  0.32730552  1
  Na  Na29  1  0.67269448  0.67269448  0.67269448  1
  O  O30  1  0.57363143  0.85656527  0.14377612  1
  O  O31  1  0.57363143  0.14343473  0.85622388  1
  O  O32  1  0.85622388  0.57363143  0.14343473  1
  O  O33  1  0.85622388  0.42636857  0.85656527  1
  O  O34  1  0.85656527  0.14377612  0.57363143  1
  O  O35  1  0.85656527  0.85622388  0.42636857  1
  O  O36  1  0.07363143  0.35622388  0.64343473  1
  O  O37  1  0.07363143  0.64377612  0.35656527  1
  O  O38  1  0.14343473  0.85622388  0.57363143  1
  O  O39  1  0.14343473  0.14377612  0.42636857  1
  O  O40  1  0.14377612  0.57363143  0.85656527  1
  O  O41  1  0.14377612  0.42636857  0.14343473  1
  O  O42  1  0.35622388  0.35656527  0.92636857  1
  O  O43  1  0.35622388  0.64343473  0.07363143  1
  O  O44  1  0.35656527  0.07363143  0.64377612  1
  O  O45  1  0.35656527  0.92636857  0.35622388  1
  O  O46  1  0.42636857  0.85656527  0.85622388  1
  O  O47  1  0.42636857  0.14343473  0.14377612  1
  O  O48  1  0.64343473  0.07363143  0.35622388  1
  O  O49  1  0.64343473  0.92636857  0.64377612  1
  O  O50  1  0.64377612  0.35656527  0.07363143  1
  O  O51  1  0.64377612  0.64343473  0.92636857  1
  O  O52  1  0.92636857  0.35622388  0.35656527  1
  O  O53  1  0.92636857  0.64377612  0.64343473  1
