# generated using pymatgen
data_Li3Ni2(PO4)3
_symmetry_space_group_name_H-M   'P 1'
_cell_length_a   9.79974356
_cell_length_b   9.79974285
_cell_length_c   9.72706225
_cell_angle_alpha   86.04866852
_cell_angle_beta   93.95133120
_cell_angle_gamma   94.01929507
_symmetry_Int_Tables_number   1
_chemical_formula_structural   Li3Ni2(PO4)3
_chemical_formula_sum   'Li12 Ni8 P12 O48'
_cell_volume   927.69639633
_cell_formula_units_Z   4
loop_
 _symmetry_equiv_pos_site_id
 _symmetry_equiv_pos_as_xyz
  1  'x, y, z'
loop_
 _atom_site_type_symbol
 _atom_site_label
 _atom_site_symmetry_multiplicity
 _atom_site_fract_x
 _atom_site_fract_y
 _atom_site_fract_z
 _atom_site_occupancy
  Li  Li0  1  0.23367999  0.95952514  0.60336375  1
  Li  Li1  1  0.21651637  0.73352168  0.17340462  1
  Li  Li2  1  0.02124061  0.50825385  0.26828920  1
  Li  Li3  1  0.37666904  0.75218582  0.83600305  1
  Li  Li4  1  0.23478355  0.57396736  0.47700595  1
  Li  Li5  1  0.67157854  0.90915469  0.97990519  1
  Li  Li6  1  0.90915469  0.67157954  0.02009481  1
  Li  Li7  1  0.57396736  0.23478355  0.52299405  1
  Li  Li8  1  0.75218582  0.37667004  0.16399695  1
  Li  Li9  1  0.50825385  0.02124061  0.73171080  1
  Li  Li10  1  0.73352168  0.21651537  0.82659538  1
  Li  Li11  1  0.95952514  0.23367999  0.39663625  1
  O  O12  1  0.08856800  0.59651900  0.06313328  1
  O  O13  1  0.95828213  0.11510061  0.65031488  1
  O  O14  1  0.81406464  0.08734858  0.43539411  1
  O  O15  1  0.91331658  0.28043241  0.19476616  1
  O  O16  1  0.90637823  0.20333844  0.94650345  1
  O  O17  1  0.69547071  0.10381667  0.65769147  1
  O  O18  1  0.61387992  0.09015563  0.20179616  1
  O  O19  1  0.88972696  0.37796592  0.71405867  1
  O  O20  1  0.02824000  0.88339801  0.85938508  1
  O  O21  1  0.11510061  0.95828213  0.34968512  1
  O  O22  1  0.08734958  0.81406364  0.56460589  1
  O  O23  1  0.28043241  0.91331658  0.80523384  1
  O  O24  1  0.20333844  0.90637823  0.05349655  1
  O  O25  1  0.10381667  0.69546971  0.34230853  1
  O  O26  1  0.09015563  0.61388092  0.79820384  1
  O  O27  1  0.41011642  0.92251139  0.54758369  1
  O  O28  1  0.37796592  0.88972796  0.28594133  1
  O  O29  1  0.88339901  0.02824000  0.14061492  1
  O  O30  1  0.30883260  0.59222153  0.94178475  1
  O  O31  1  0.12469153  0.39034101  0.92529338  1
  O  O32  1  0.57149946  0.80022962  0.84073118  1
  O  O33  1  0.40975706  0.68957386  0.44459619  1
  O  O34  1  0.61029874  0.87368847  0.41516997  1
  O  O35  1  0.20985978  0.42701686  0.34576971  1
  O  O36  1  0.18998370  0.30015983  0.66194503  1
  O  O37  1  0.38465991  0.46739714  0.62726893  1
  O  O38  1  0.82319355  0.89074674  0.62687592  1
  O  O39  1  0.62464982  0.67037145  0.63763099  1
  O  O40  1  0.69727582  0.80307454  0.15472200  1
  O  O41  1  0.37532856  0.33263787  0.85995598  1
  O  O42  1  0.16285601  0.11138625  0.87689523  1
  O  O43  1  0.59185666  0.53968911  0.85952054  1
  O  O44  1  0.53968911  0.59185666  0.14047946  1
  O  O45  1  0.11138625  0.16285601  0.12310477  1
  O  O46  1  0.33263787  0.37532856  0.14004402  1
  O  O47  1  0.80307454  0.69727582  0.84527800  1
  O  O48  1  0.67037145  0.62464982  0.36236901  1
  O  O49  1  0.89074574  0.82319355  0.37312408  1
  O  O50  1  0.46739814  0.38465991  0.37273107  1
  O  O51  1  0.30015983  0.18998370  0.33805497  1
  O  O52  1  0.42701686  0.20985978  0.65423029  1
  O  O53  1  0.87368847  0.61029874  0.58483003  1
  O  O54  1  0.68957386  0.40975606  0.55540381  1
  O  O55  1  0.80022962  0.57149946  0.15926882  1
  O  O56  1  0.39034101  0.12469053  0.07470662  1
  O  O57  1  0.59222153  0.30883260  0.05821525  1
  O  O58  1  0.59651900  0.08856800  0.93686672  1
  O  O59  1  0.92251139  0.41011642  0.45241631  1
  P  P60  1  0.95101256  0.17114796  0.10057911  1
  P  P61  1  0.81946736  0.05049548  0.59394462  1
  P  P62  1  0.55012034  0.15259062  0.06492243  1
  P  P63  1  0.84639935  0.45082167  0.57355517  1
  P  P64  1  0.67961982  0.64886007  0.20100198  1
  P  P65  1  0.32552621  0.34566568  0.30115639  1
  P  P66  1  0.34566568  0.32552621  0.69884361  1
  P  P67  1  0.64885907  0.67961982  0.79899802  1
  P  P68  1  0.17114796  0.95101256  0.89942089  1
  P  P69  1  0.05049548  0.81946736  0.40605538  1
  P  P70  1  0.45082167  0.84640035  0.42644483  1
  P  P71  1  0.15259162  0.55012034  0.93507757  1
  Ni  Ni72  1  0.03202044  0.25155545  0.78537248  1
  Ni  Ni73  1  0.75173028  0.96178447  0.28022761  1
  Ni  Ni74  1  0.53389872  0.53389872  0.50000100  1
  Ni  Ni75  1  0.75022596  0.75022596  0.50000100  1
  Ni  Ni76  1  0.25034132  0.25034132  0.00000000  1
  Ni  Ni77  1  0.46652889  0.46652889  1.00000000  1
  Ni  Ni78  1  0.96178447  0.75173028  0.71977239  1
  Ni  Ni79  1  0.25155545  0.03201944  0.21462752  1
