# generated using pymatgen
data_Cu2WO4
_symmetry_space_group_name_H-M   'P 1'
_cell_length_a   5.93353966
_cell_length_b   8.11352516
_cell_length_c   8.29737188
_cell_angle_alpha   109.77970563
_cell_angle_beta   95.24075354
_cell_angle_gamma   92.21425511
_symmetry_Int_Tables_number   1
_chemical_formula_structural   Cu2WO4
_chemical_formula_sum   'Cu8 W4 O16'
_cell_volume   373.28044617
_cell_formula_units_Z   4
loop_
 _symmetry_equiv_pos_site_id
 _symmetry_equiv_pos_as_xyz
  1  'x, y, z'
loop_
 _atom_site_type_symbol
 _atom_site_label
 _atom_site_symmetry_multiplicity
 _atom_site_fract_x
 _atom_site_fract_y
 _atom_site_fract_z
 _atom_site_occupancy
  O  O0  1  0.37784958  0.07143054  0.24870024  1
  O  O1  1  0.58181495  0.71017423  0.65791501  1
  O  O2  1  0.59714062  0.78854970  0.33851713  1
  O  O3  1  0.65267990  0.07782876  0.71100498  1
  O  O4  1  0.52420552  0.41965606  0.28409464  1
  O  O5  1  0.79971615  0.42617796  0.74689253  1
  O  O6  1  0.94779849  0.70015060  0.12214878  1
  O  O7  1  0.50584776  0.53485170  0.00731619  1
  O  O8  1  0.32934687  0.31561846  0.67116141  1
  O  O9  1  0.84776617  0.18317102  0.32560953  1
  O  O10  1  0.22093842  0.91788976  0.59797645  1
  O  O11  1  0.22957950  0.79679250  0.87323817  1
  O  O12  1  0.79493285  0.32459592  0.04758045  1
  O  O13  1  0.95597984  0.57913649  0.39745261  1
  O  O14  1  0.67177393  0.96260421  0.98857156  1
  O  O15  1  0.38234367  0.17208533  0.94759019  1
  Cu  Cu16  1  0.31319499  0.95745999  0.40081380  1
  Cu  Cu17  1  0.86100391  0.54373555  0.59639062  1
  Cu  Cu18  1  0.21557616  0.60787664  0.04960489  1
  Cu  Cu19  1  0.08760509  0.25004377  0.49918419  1
  Cu  Cu20  1  0.94484381  0.01074491  0.66105545  1
  Cu  Cu21  1  0.96167839  0.88805297  0.94671662  1
  Cu  Cu22  1  0.23134390  0.48567959  0.33299892  1
  Cu  Cu23  1  0.08844462  0.24810721  0.99718958  1
  W  W24  1  0.60228386  0.17594694  0.17558151  1
  W  W25  1  0.73941713  0.60384314  0.22317410  1
  W  W26  1  0.57553185  0.32157276  0.82016685  1
  W  W27  1  0.43746407  0.89412230  0.77285761  1
