# generated using pymatgen
data_TiN
_symmetry_space_group_name_H-M   'P 1'
_cell_length_a   3.00740536
_cell_length_b   3.00740510
_cell_length_c   75.09409918
_cell_angle_alpha   60.00802302
_cell_angle_beta   60.00801985
_cell_angle_gamma   60.09282697
_symmetry_Int_Tables_number   1
_chemical_formula_structural   TiN
_chemical_formula_sum   'Ti22 N22'
_cell_volume   480.65247622
_cell_formula_units_Z   22
loop_
 _symmetry_equiv_pos_site_id
 _symmetry_equiv_pos_as_xyz
  1  'x, y, z'
loop_
 _atom_site_type_symbol
 _atom_site_label
 _atom_site_symmetry_multiplicity
 _atom_site_fract_x
 _atom_site_fract_y
 _atom_site_fract_z
 _atom_site_occupancy
  N  N0  1  0.50693837  0.50693837  0.13917649  1
  N  N1  1  0.50107180  0.50107180  0.17987113  1
  N  N2  1  0.50107177  0.50107177  0.21987885  1
  N  N3  1  0.49947213  0.49947213  0.26006241  1
  N  N4  1  0.50013098  0.50013098  0.29998244  1
  N  N5  1  0.50022710  0.50022710  0.33999663  1
  N  N6  1  0.49985489  0.49985489  0.38000667  1
  N  N7  1  0.50021908  0.50021908  0.41999047  1
  N  N8  1  0.49985763  0.49985763  0.46000818  1
  N  N9  1  0.50012927  0.50012927  0.49999418  1
  N  N10  1  0.49989580  0.49989580  0.54000507  1
  N  N11  1  0.50008558  0.50008558  0.57999718  1
  N  N12  1  0.49996659  0.49996659  0.61999913  1
  N  N13  1  0.49999412  0.49999412  0.66000315  1
  N  N14  1  0.50002077  0.50002077  0.69999745  1
  N  N15  1  0.50006167  0.50006167  0.73999648  1
  N  N16  1  0.49966216  0.49966216  0.78000468  1
  N  N17  1  0.50019740  0.50019740  0.82000868  1
  N  N18  1  0.50066994  0.50066994  0.85991705  1
  N  N19  1  0.49907075  0.49907075  0.90009634  1
  N  N20  1  0.50854765  0.50854765  0.93897076  1
  N  N21  1  0.52635228  0.52635228  0.97682539  1
  Ti  Ti22  1  0.99013241  0.99013241  0.12118830  1
  Ti  Ti23  1  0.00496325  0.00496325  0.15940394  1
  Ti  Ti24  1  0.99752260  0.99752260  0.20028777  1
  Ti  Ti25  1  0.00144402  0.00144402  0.23980924  1
  Ti  Ti26  1  0.99912106  0.99912106  0.28012726  1
  Ti  Ti27  1  0.00037419  0.00037419  0.31992539  1
  Ti  Ti28  1  0.00059286  0.00059286  0.39994443  1
  Ti  Ti29  1  0.99948703  0.99948703  0.36005482  1
  Ti  Ti30  1  0.99950350  0.99950350  0.44003855  1
  Ti  Ti31  1  0.00031755  0.00031755  0.47997121  1
  Ti  Ti32  1  0.99994490  0.99994490  0.56000291  1
  Ti  Ti33  1  0.99983443  0.99983443  0.52001512  1
  Ti  Ti34  1  0.00011680  0.00011680  0.59999537  1
  Ti  Ti35  1  0.99963181  0.99963181  0.64003016  1
  Ti  Ti36  1  0.00075230  0.00075230  0.67994136  1
  Ti  Ti37  1  0.99887683  0.99887683  0.72007622  1
  Ti  Ti38  1  0.99907792  0.99907792  0.80008526  1
  Ti  Ti39  1  0.00125879  0.00125879  0.75991767  1
  Ti  Ti40  1  0.99992150  0.99992150  0.88005865  1
  Ti  Ti41  1  -0.00002494  -0.00002494  0.83997739  1
  Ti  Ti42  1  0.96656138  0.96656138  0.96403067  1
  Ti  Ti43  1  0.99709207  0.99709207  0.92032950  1
