# generated using pymatgen
data_Ni5(Mo3Se4)8
_symmetry_space_group_name_H-M   'P 1'
_cell_length_a   6.83186964
_cell_length_b   6.83865784
_cell_length_c   27.24580265
_cell_angle_alpha   91.61176040
_cell_angle_beta   90.93565024
_cell_angle_gamma   90.78370749
_symmetry_Int_Tables_number   1
_chemical_formula_structural   Ni5(Mo3Se4)8
_chemical_formula_sum   'Ni5 Mo24 Se32'
_cell_volume   1272.14564788
_cell_formula_units_Z   1
loop_
 _symmetry_equiv_pos_site_id
 _symmetry_equiv_pos_as_xyz
  1  'x, y, z'
loop_
 _atom_site_type_symbol
 _atom_site_label
 _atom_site_symmetry_multiplicity
 _atom_site_fract_x
 _atom_site_fract_y
 _atom_site_fract_z
 _atom_site_occupancy
  Ni  Ni0  1  0.06532118  0.50252750  0.29125103  1
  Ni  Ni1  1  0.49853493  0.16087431  0.01534672  1
  Ni  Ni2  1  0.93962296  0.49622995  0.46009213  1
  Ni  Ni3  1  0.84291531  0.92804322  0.87441173  1
  Ni  Ni4  1  0.84537713  0.93136801  0.62518429  1
  Mo  Mo5  1  0.24288447  0.41224721  0.88811531  1
  Mo  Mo6  1  0.24910752  0.41284734  0.63837427  1
  Mo  Mo7  1  0.21786471  0.41689198  0.38493280  1
  Mo  Mo8  1  0.23692218  0.41688124  0.14009035  1
  Mo  Mo9  1  0.42912878  0.53221741  0.80787297  1
  Mo  Mo10  1  0.43205060  0.53648110  0.55845216  1
  Mo  Mo11  1  0.46241099  0.76163820  0.89445870  1
  Mo  Mo12  1  0.43217536  0.55450360  0.30936431  1
  Mo  Mo13  1  0.46773374  0.76567094  0.64585495  1
  Mo  Mo14  1  0.41344147  0.54119787  0.05742973  1
  Mo  Mo15  1  0.44931291  0.75748571  0.39679087  1
  Mo  Mo16  1  0.43900198  0.76714322  0.14560142  1
  Mo  Mo17  1  0.55529279  0.21775383  0.85400288  1
  Mo  Mo18  1  0.55922640  0.21828201  0.60481044  1
  Mo  Mo19  1  0.58596974  0.43424908  0.94006328  1
  Mo  Mo20  1  0.55611828  0.24038119  0.35448150  1
  Mo  Mo21  1  0.59216350  0.43437214  0.69014994  1
  Mo  Mo22  1  0.54818776  0.23026046  0.10767292  1
  Mo  Mo23  1  0.57344732  0.44249307  0.44158676  1
  Mo  Mo24  1  0.57898536  0.45507234  0.19315883  1
  Mo  Mo25  1  0.77699764  0.55930284  0.86123374  1
  Mo  Mo26  1  0.78146384  0.56265745  0.61218796  1
  Mo  Mo27  1  0.78663047  0.58124148  0.36613649  1
  Mo  Mo28  1  0.75882614  0.58036389  0.11431725  1
  Se  Se29  1  0.12907896  0.73646037  0.84694489  1
  Se  Se30  1  0.13393483  0.73946108  0.59879154  1
  Se  Se31  1  0.12599736  0.75825212  0.34849187  1
  Se  Se32  1  0.11954636  0.73317309  0.09436926  1
  Se  Se33  1  0.23167648  0.21504331  0.80639756  1
  Se  Se34  1  0.26693460  0.62198380  0.96748631  1
  Se  Se35  1  0.23718502  0.21653987  0.55704377  1
  Se  Se36  1  0.27534947  0.62069801  0.71870020  1
  Se  Se37  1  0.22956716  0.20754792  0.30651051  1
  Se  Se38  1  0.26240961  0.62011077  0.47210833  1
  Se  Se39  1  0.20595243  0.22956891  0.05617086  1
  Se  Se40  1  0.25149656  0.62227605  0.22103272  1
  Se  Se41  1  0.37258670  0.11141329  0.93440170  1
  Se  Se42  1  0.38465968  0.12005704  0.68512956  1
  Se  Se43  1  0.36780948  0.12857461  0.43281951  1
  Se  Se44  1  0.38062277  0.12743371  0.18710123  1
  Se  Se45  1  0.61625318  0.86280188  0.81095449  1
  Se  Se46  1  0.61850223  0.86710515  0.56167236  1
  Se  Se47  1  0.63579129  0.86970668  0.31843211  1
  Se  Se48  1  0.60085884  0.87519408  0.06375453  1
  Se  Se49  1  0.74626290  0.35656309  0.78093382  1
  Se  Se50  1  0.77454078  0.76597280  0.94712538  1
  Se  Se51  1  0.75676344  0.36958974  0.52993786  1
  Se  Se52  1  0.77970824  0.76734189  0.69828472  1
  Se  Se53  1  0.74389837  0.37658495  0.27983441  1
  Se  Se54  1  0.77578026  0.79104295  0.44453579  1
  Se  Se55  1  0.74997787  0.38890203  0.03094238  1
  Se  Se56  1  0.76240104  0.78176544  0.19439197  1
  Se  Se57  1  0.88876647  0.25021220  0.90635223  1
  Se  Se58  1  0.89514945  0.25275584  0.65656279  1
  Se  Se59  1  0.87939846  0.23964172  0.40271691  1
  Se  Se60  1  0.87122724  0.26314903  0.15649773  1
