# generated using pymatgen
data_LiCo7O8
_symmetry_space_group_name_H-M   'P 1'
_cell_length_a   6.01351011
_cell_length_b   6.01618209
_cell_length_c   6.01482183
_cell_angle_alpha   59.91866857
_cell_angle_beta   59.93885618
_cell_angle_gamma   59.94535138
_symmetry_Int_Tables_number   1
_chemical_formula_structural   LiCo7O8
_chemical_formula_sum   'Li1 Co7 O8'
_cell_volume   153.64165974
_cell_formula_units_Z   1
loop_
 _symmetry_equiv_pos_site_id
 _symmetry_equiv_pos_as_xyz
  1  'x, y, z'
loop_
 _atom_site_type_symbol
 _atom_site_label
 _atom_site_symmetry_multiplicity
 _atom_site_fract_x
 _atom_site_fract_y
 _atom_site_fract_z
 _atom_site_occupancy
  Li  Li0  1  0.00000002  0.00000002  0.99999999  1
  Co  Co1  1  -0.00000001  0.00000000  0.49999999  1
  Co  Co2  1  0.99999996  0.50000002  0.99999999  1
  Co  Co3  1  0.00000001  0.50000001  0.50000001  1
  Co  Co4  1  0.50000006  0.50000001  0.99999997  1
  Co  Co5  1  0.49999996  0.49999999  0.50000002  1
  Co  Co6  1  0.50000000  0.00000002  0.00000002  1
  Co  Co7  1  0.49999996  0.00000001  0.50000000  1
  O  O8  1  0.25028294  0.24985104  0.24990773  1
  O  O9  1  0.25229691  0.25269583  0.74708689  1
  O  O10  1  0.25208167  0.74787764  0.25256976  1
  O  O11  1  0.74806768  0.25180325  0.25217305  1
  O  O12  1  0.25193228  0.74819668  0.74782700  1
  O  O13  1  0.74770302  0.74730407  0.25291317  1
  O  O14  1  0.74791851  0.25212233  0.74743018  1
  O  O15  1  0.74971704  0.75014904  0.75009222  1
