# generated using pymatgen
data_CsBe4Al4(B3O7)4
_symmetry_space_group_name_H-M   'P 1'
_cell_length_a   7.41822027
_cell_length_b   7.41822027
_cell_length_c   7.41822027
_cell_angle_alpha   90.00000000
_cell_angle_beta   90.00000000
_cell_angle_gamma   90.00000000
_symmetry_Int_Tables_number   1
_chemical_formula_structural   CsBe4Al4(B3O7)4
_chemical_formula_sum   'Cs1 Be4 Al4 B12 O28'
_cell_volume   408.22460192
_cell_formula_units_Z   1
loop_
 _symmetry_equiv_pos_site_id
 _symmetry_equiv_pos_as_xyz
  1  'x, y, z'
loop_
 _atom_site_type_symbol
 _atom_site_label
 _atom_site_symmetry_multiplicity
 _atom_site_fract_x
 _atom_site_fract_y
 _atom_site_fract_z
 _atom_site_occupancy
  Cs  Cs0  1  0.00000000  0.00000000  0.00000000  1
  B  B1  1  0.24949358  0.50000000  0.00000000  1
  B  B2  1  0.75050642  0.00000000  0.50000000  1
  B  B3  1  0.00000000  0.50000000  0.24949358  1
  B  B4  1  0.00000000  0.50000000  0.75050642  1
  B  B5  1  0.50000000  0.75050642  0.00000000  1
  B  B6  1  0.50000000  0.24949358  0.00000000  1
  B  B7  1  0.00000000  0.24949358  0.50000000  1
  B  B8  1  0.50000000  0.00000000  0.24949358  1
  B  B9  1  0.00000000  0.75050642  0.50000000  1
  B  B10  1  0.50000000  0.00000000  0.75050642  1
  B  B11  1  0.75050642  0.50000000  0.00000000  1
  B  B12  1  0.24949358  0.00000000  0.50000000  1
  Be  Be13  1  0.73986919  0.73986919  0.73986919  1
  Be  Be14  1  0.26013081  0.73986919  0.26013081  1
  Be  Be15  1  0.26013081  0.26013081  0.73986919  1
  Be  Be16  1  0.73986919  0.26013081  0.26013081  1
  Al  Al17  1  0.36036544  0.36036544  0.36036544  1
  Al  Al18  1  0.63963456  0.36036544  0.63963456  1
  Al  Al19  1  0.63963456  0.63963456  0.36036544  1
  Al  Al20  1  0.36036544  0.63963456  0.63963456  1
  O  O21  1  0.61844414  0.61844414  0.61844414  1
  O  O22  1  0.38155586  0.61844414  0.38155586  1
  O  O23  1  0.38155586  0.38155586  0.61844414  1
  O  O24  1  0.61844414  0.38155586  0.38155586  1
  O  O25  1  0.36208919  0.36208919  0.09516283  1
  O  O26  1  0.63791081  0.09516283  0.63791081  1
  O  O27  1  0.63791081  0.90483717  0.36208919  1
  O  O28  1  0.90483717  0.63791081  0.36208919  1
  O  O29  1  0.09516283  0.63791081  0.63791081  1
  O  O30  1  0.36208919  0.63791081  0.90483717  1
  O  O31  1  0.63791081  0.36208919  0.90483717  1
  O  O32  1  0.09516283  0.36208919  0.36208919  1
  O  O33  1  0.36208919  0.09516283  0.36208919  1
  O  O34  1  0.90483717  0.36208919  0.63791081  1
  O  O35  1  0.36208919  0.90483717  0.63791081  1
  O  O36  1  0.63791081  0.63791081  0.09516283  1
  O  O37  1  0.13702827  0.13702827  0.59639876  1
  O  O38  1  0.86297173  0.59639876  0.86297173  1
  O  O39  1  0.86297173  0.40360124  0.13702827  1
  O  O40  1  0.40360124  0.86297173  0.13702827  1
  O  O41  1  0.59639876  0.86297173  0.86297173  1
  O  O42  1  0.13702827  0.86297173  0.40360124  1
  O  O43  1  0.86297173  0.13702827  0.40360124  1
  O  O44  1  0.59639876  0.13702827  0.13702827  1
  O  O45  1  0.13702827  0.59639876  0.13702827  1
  O  O46  1  0.40360124  0.13702827  0.86297173  1
  O  O47  1  0.13702827  0.40360124  0.86297173  1
  O  O48  1  0.86297173  0.86297173  0.59639876  1
