# generated using pymatgen
data_TlNiO3
_symmetry_space_group_name_H-M   'P 1'
_cell_length_a   5.32786157
_cell_length_b   5.45557851
_cell_length_c   7.74743470
_cell_angle_alpha   90.00000000
_cell_angle_beta   90.00000000
_cell_angle_gamma   90.00000000
_symmetry_Int_Tables_number   1
_chemical_formula_structural   TlNiO3
_chemical_formula_sum   'Tl4 Ni4 O12'
_cell_volume   225.19133045
_cell_formula_units_Z   4
loop_
 _symmetry_equiv_pos_site_id
 _symmetry_equiv_pos_as_xyz
  1  'x, y, z'
loop_
 _atom_site_type_symbol
 _atom_site_label
 _atom_site_symmetry_multiplicity
 _atom_site_fract_x
 _atom_site_fract_y
 _atom_site_fract_z
 _atom_site_occupancy
  Tl  Tl0  1  0.98337602  0.04992074  0.25000000  1
  Tl  Tl1  1  0.48337602  0.45007926  0.75000000  1
  Tl  Tl2  1  0.51662398  0.54992074  0.25000000  1
  Tl  Tl3  1  0.01662398  0.95007926  0.75000000  1
  Ni  Ni4  1  0.50000000  0.00000000  0.00000000  1
  Ni  Ni5  1  0.00000000  0.50000000  0.00000000  1
  Ni  Ni6  1  0.00000000  0.50000000  0.50000000  1
  Ni  Ni7  1  0.50000000  0.00000000  0.50000000  1
  O  O8  1  0.10718950  0.45453536  0.25000000  1
  O  O9  1  0.60718950  0.04546464  0.75000000  1
  O  O10  1  0.39281050  0.95453536  0.25000000  1
  O  O11  1  0.89281050  0.54546464  0.75000000  1
  O  O12  1  0.70380836  0.29411322  0.05870612  1
  O  O13  1  0.20380836  0.20588678  0.94129388  1
  O  O14  1  0.79619164  0.79411322  0.44129388  1
  O  O15  1  0.29619164  0.70588678  0.55870612  1
  O  O16  1  0.29619164  0.70588678  0.94129388  1
  O  O17  1  0.79619164  0.79411322  0.05870612  1
  O  O18  1  0.20380836  0.20588678  0.55870612  1
  O  O19  1  0.70380836  0.29411322  0.44129388  1
