# generated using pymatgen
data_ZnH12C6(S2N)2
_symmetry_space_group_name_H-M   'P 1'
_cell_length_a   9.57602665
_cell_length_b   9.42928079
_cell_length_c   18.79687687
_cell_angle_alpha   86.56977999
_cell_angle_beta   83.23300280
_cell_angle_gamma   59.48383681
_symmetry_Int_Tables_number   1
_chemical_formula_structural   ZnH12C6(S2N)2
_chemical_formula_sum   'Zn4 H48 C24 S16 N8'
_cell_volume   1451.98366020
_cell_formula_units_Z   4
loop_
 _symmetry_equiv_pos_site_id
 _symmetry_equiv_pos_as_xyz
  1  'x, y, z'
loop_
 _atom_site_type_symbol
 _atom_site_label
 _atom_site_symmetry_multiplicity
 _atom_site_fract_x
 _atom_site_fract_y
 _atom_site_fract_z
 _atom_site_occupancy
  Zn  Zn0  1  0.90563070  0.21483115  0.13856234  1
  Zn  Zn1  1  0.87953815  0.21483115  0.36143766  1
  Zn  Zn2  1  0.09436930  0.78516885  0.86143766  1
  Zn  Zn3  1  0.12046185  0.78516885  0.63856234  1
  H  H4  1  0.79293074  0.73065177  0.30194170  1
  H  H5  1  0.47641749  0.73065177  0.19805830  1
  H  H6  1  0.20706926  0.26934823  0.69805830  1
  H  H7  1  0.52358251  0.26934823  0.80194170  1
  H  H8  1  0.98320331  0.70675412  0.26477400  1
  H  H9  1  0.31004258  0.70675412  0.23522600  1
  H  H10  1  0.01679669  0.29324588  0.73522600  1
  H  H11  1  0.68995742  0.29324588  0.76477400  1
  H  H12  1  0.86734042  0.66172744  0.21147714  1
  H  H13  1  0.47093214  0.66172744  0.28852286  1
  H  H14  1  0.13265958  0.33827256  0.78852286  1
  H  H15  1  0.52906786  0.33827256  0.71147714  1
  H  H16  1  0.70245993  0.83261393  0.14541628  1
  H  H17  1  0.46492614  0.83261393  0.35458372  1
  H  H18  1  0.29754007  0.16738607  0.85458372  1
  H  H19  1  0.53507386  0.16738607  0.64541628  1
  H  H20  1  0.57232925  0.04617095  0.16909380  1
  H  H21  1  0.38149979  0.04617095  0.33090620  1
  H  H22  1  0.42767075  0.95382905  0.83090620  1
  H  H23  1  0.61850021  0.95382905  0.66909380  1
  H  H24  1  0.76109935  0.98042696  0.11588181  1
  H  H25  1  0.25847370  0.98042696  0.38411819  1
  H  H26  1  0.23890065  0.01957304  0.88411819  1
  H  H27  1  0.74152630  0.01957304  0.61588181  1
  H  H28  1  0.57652575  0.77078282  0.02741111  1
  H  H29  1  0.65269143  0.77078282  0.47258889  1
  H  H30  1  0.42347425  0.22921718  0.97258889  1
  H  H31  1  0.34730857  0.22921718  0.52741111  1
  H  H32  1  0.61825169  0.78082907  0.93273582  1
  H  H33  1  0.60091924  0.78082907  0.56726418  1
  H  H34  1  0.38174831  0.21917093  0.06726418  1
  H  H35  1  0.39908076  0.21917093  0.43273582  1
  H  H36  1  0.77538898  0.72622710  0.98945704  1
  H  H37  1  0.49838392  0.72622710  0.51054296  1
  H  H38  1  0.22461102  0.27377290  0.01054296  1
  H  H39  1  0.50161608  0.27377290  0.48945704  1
  H  H40  1  0.73629050  0.36893306  0.90181801  1
  H  H41  1  0.89477643  0.36893306  0.59818199  1
  H  H42  1  0.26370950  0.63106694  0.09818199  1
  H  H43  1  0.10522357  0.63106694  0.40181801  1
  H  H44  1  0.71924438  0.55381459  0.86130671  1
  H  H45  1  0.72694102  0.55381459  0.63869329  1
  H  H46  1  0.28075562  0.44618541  0.13869329  1
  H  H47  1  0.27305898  0.44618541  0.36130671  1
  H  H48  1  0.54430277  0.55865694  0.90875693  1
  H  H49  1  0.89704029  0.55865694  0.59124307  1
  H  H50  1  0.45569723  0.44134306  0.09124307  1
  H  H51  1  0.10295971  0.44134306  0.40875693  1
  C  C52  1  0.85993360  0.74329730  0.25262733  1
  C  C53  1  0.39676910  0.74329730  0.24737267  1
  C  C54  1  0.14006640  0.25670270  0.74737267  1
  C  C55  1  0.60323090  0.25670270  0.75262733  1
  C  C56  1  0.69908665  0.94518931  0.16011780  1
  C  C57  1  0.35572404  0.94518931  0.33988220  1
  C  C58  1  0.30091335  0.05481069  0.83988220  1
  C  C59  1  0.64427596  0.05481069  0.66011780  1
  C  C60  1  0.77843304  0.03338965  0.26076455  1
  C  C61  1  0.18817731  0.03338965  0.23923545  1
  C  C62  1  0.22156696  0.96661035  0.73923545  1
  C  C63  1  0.81182269  0.96661035  0.76076455  1
  C  C64  1  0.78696875  0.43130589  0.02447404  1
  C  C65  1  0.78172536  0.43130589  0.47552596  1
  C  C66  1  0.21303125  0.56869411  0.97552596  1
  C  C67  1  0.21827464  0.56869411  0.52447404  1
  C  C68  1  0.66947284  0.71511113  0.98158159  1
  C  C69  1  0.61541603  0.71511113  0.51841841  1
  C  C70  1  0.33052716  0.28488887  0.01841841  1
  C  C71  1  0.38458397  0.28488887  0.48158159  1
  C  C72  1  0.67726569  0.50279490  0.90734667  1
  C  C73  1  0.81993941  0.50279490  0.59265333  1
  C  C74  1  0.32273431  0.49720510  0.09265333  1
  C  C75  1  0.18006059  0.49720510  0.40734667  1
  S  S76  1  0.15806400  0.98789678  0.15687831  1
  S  S77  1  0.85403923  0.98789678  0.34312169  1
  S  S78  1  0.84193600  0.01210322  0.84312169  1
  S  S79  1  0.14596077  0.01210322  0.65687831  1
  S  S80  1  0.69539720  0.23048095  0.22526248  1
  S  S81  1  0.07412185  0.23048095  0.27473752  1
  S  S82  1  0.30460280  0.76951905  0.77473752  1
  S  S83  1  0.92587815  0.76951905  0.72526248  1
  S  S84  1  0.82444252  0.48956630  0.10263833  1
  S  S85  1  0.68599118  0.48956630  0.39736167  1
  S  S86  1  0.17555748  0.51043370  0.89736167  1
  S  S87  1  0.31400882  0.51043370  0.60263833  1
  S  S88  1  0.84073584  0.22805424  0.01641877  1
  S  S89  1  0.93120993  0.22805424  0.48358123  1
  S  S90  1  0.15926416  0.77194576  0.98358123  1
  S  S91  1  0.06879007  0.77194576  0.51641877  1
  N  N92  1  0.77942867  0.91251566  0.22570807  1
  N  N93  1  0.30805567  0.91251566  0.27429193  1
  N  N94  1  0.22057133  0.08748434  0.77429193  1
  N  N95  1  0.69194433  0.08748434  0.72570807  1
  N  N96  1  0.71794583  0.54229645  0.97313001  1
  N  N97  1  0.73975772  0.54229645  0.52686999  1
  N  N98  1  0.28205417  0.45770355  0.02686999  1
  N  N99  1  0.26024228  0.45770355  0.47313001  1
