# generated using pymatgen
data_MnPbO3
_symmetry_space_group_name_H-M   'P 1'
_cell_length_a   5.60775367
_cell_length_b   5.59410355
_cell_length_c   13.85591763
_cell_angle_alpha   88.94657064
_cell_angle_beta   87.89792724
_cell_angle_gamma   59.91925563
_symmetry_Int_Tables_number   1
_chemical_formula_structural   MnPbO3
_chemical_formula_sum   'Mn6 Pb6 O18'
_cell_volume   375.87121926
_cell_formula_units_Z   6
loop_
 _symmetry_equiv_pos_site_id
 _symmetry_equiv_pos_as_xyz
  1  'x, y, z'
loop_
 _atom_site_type_symbol
 _atom_site_label
 _atom_site_symmetry_multiplicity
 _atom_site_fract_x
 _atom_site_fract_y
 _atom_site_fract_z
 _atom_site_occupancy
  Pb  Pb0  1  0.01072970  0.97854059  0.25000000  1
  Pb  Pb1  1  0.98927030  0.02145941  0.75000000  1
  Pb  Pb2  1  0.66960262  0.65969763  0.08932204  1
  Pb  Pb3  1  0.67069975  0.65969763  0.41067796  1
  Pb  Pb4  1  0.33039738  0.34030237  0.91067796  1
  Pb  Pb5  1  0.32930025  0.34030237  0.58932204  1
  Mn  Mn6  1  0.00000000  0.00000000  0.00000000  1
  Mn  Mn7  1  0.00000000  0.00000000  0.50000000  1
  Mn  Mn8  1  0.68037874  0.67408253  0.84509654  1
  Mn  Mn9  1  0.64553873  0.67408253  0.65490346  1
  Mn  Mn10  1  0.31962126  0.32591747  0.15490346  1
  Mn  Mn11  1  0.35446127  0.32591747  0.34509654  1
  O  O12  1  0.48732271  0.02535458  0.25000000  1
  O  O13  1  0.51267729  0.97464542  0.75000000  1
  O  O14  1  0.04023896  0.47501450  0.26493378  1
  O  O15  1  0.48474654  0.47501450  0.23506622  1
  O  O16  1  0.95976104  0.52498550  0.73506622  1
  O  O17  1  0.51525346  0.52498550  0.76493378  1
  O  O18  1  0.10622319  0.66401504  0.07992039  1
  O  O19  1  0.22976178  0.66401504  0.42007961  1
  O  O20  1  0.89377681  0.33598496  0.92007961  1
  O  O21  1  0.77023822  0.33598496  0.57992039  1
  O  O22  1  0.10585874  0.16902172  0.10049269  1
  O  O23  1  0.72511954  0.16902172  0.39950731  1
  O  O24  1  0.89414126  0.83097828  0.89950731  1
  O  O25  1  0.27488046  0.83097828  0.60049269  1
  O  O26  1  0.61445779  0.16486756  0.05832421  1
  O  O27  1  0.22067465  0.16486756  0.44167579  1
  O  O28  1  0.38554221  0.83513244  0.94167579  1
  O  O29  1  0.77932535  0.83513244  0.55832421  1
