# generated using pymatgen
data_Nd2AlNO3
_symmetry_space_group_name_H-M   'P 1'
_cell_length_a   3.73607902
_cell_length_b   3.73606705
_cell_length_c   6.82553505
_cell_angle_alpha   105.88355354
_cell_angle_beta   105.88359783
_cell_angle_gamma   89.99999692
_symmetry_Int_Tables_number   1
_chemical_formula_structural   Nd2AlNO3
_chemical_formula_sum   'Nd2 Al1 N1 O3'
_cell_volume   87.84693365
_cell_formula_units_Z   1
loop_
 _symmetry_equiv_pos_site_id
 _symmetry_equiv_pos_as_xyz
  1  'x, y, z'
loop_
 _atom_site_type_symbol
 _atom_site_label
 _atom_site_symmetry_multiplicity
 _atom_site_fract_x
 _atom_site_fract_y
 _atom_site_fract_z
 _atom_site_occupancy
  N  N0  1  0.17321481  0.17321481  0.34642961  1
  O  O1  1  0.83999013  0.83999013  0.67998026  1
  Al  Al2  1  0.01246057  0.01246057  0.02492113  1
  O  O3  1  0.99980388  0.49980388  0.99960775  1
  Nd  Nd4  1  0.36161291  0.36161291  0.72322583  1
  O  O5  1  0.49980439  0.99980439  0.99960877  1
  Nd  Nd6  1  0.65041332  0.65041332  0.30082664  1
