# generated using pymatgen
data_Fe(PO3)4
_symmetry_space_group_name_H-M   'P 1'
_cell_length_a   7.08279943
_cell_length_b   9.51413877
_cell_length_c   7.08279982
_cell_angle_alpha   88.45647603
_cell_angle_beta   71.01566438
_cell_angle_gamma   91.54352640
_symmetry_Int_Tables_number   1
_chemical_formula_structural   Fe(PO3)4
_chemical_formula_sum   'Fe2 P8 O24'
_cell_volume   450.84034864
_cell_formula_units_Z   2
loop_
 _symmetry_equiv_pos_site_id
 _symmetry_equiv_pos_as_xyz
  1  'x, y, z'
loop_
 _atom_site_type_symbol
 _atom_site_label
 _atom_site_symmetry_multiplicity
 _atom_site_fract_x
 _atom_site_fract_y
 _atom_site_fract_z
 _atom_site_occupancy
  Fe  Fe0  1  0.89549212  0.25000000  0.39549212  1
  Fe  Fe1  1  0.10450788  0.75000000  0.60450788  1
  P  P2  1  0.79565845  0.47150787  0.78041346  1
  P  P3  1  0.71958654  0.97150787  0.70434155  1
  P  P4  1  0.62854837  0.46639626  0.22300935  1
  P  P5  1  0.27699065  0.96639626  0.87145163  1
  P  P6  1  0.20434155  0.52849213  0.21958654  1
  P  P7  1  0.72300935  0.03360374  0.12854837  1
  P  P8  1  0.28041346  0.02849213  0.29565845  1
  P  P9  1  0.37145163  0.53360374  0.77699065  1
  O  O10  1  0.85770871  0.85549890  0.62004876  1
  O  O11  1  0.13239609  0.85636666  0.84168997  1
  O  O12  1  0.23231832  0.96915145  0.10575273  1
  O  O13  1  0.70155652  0.40224593  0.00157316  1
  O  O14  1  0.65831003  0.35636666  0.36760391  1
  O  O15  1  0.28288759  0.90306511  0.42859226  1
  O  O16  1  0.92859226  0.59693489  0.78288759  1
  O  O17  1  0.50157316  0.09775407  0.20155652  1
  O  O18  1  0.86760391  0.14363334  0.15831003  1
  O  O19  1  0.27551593  0.39170701  0.77022979  1
  O  O20  1  0.07140774  0.40306511  0.21711241  1
  O  O21  1  0.39424727  0.46915145  0.26768168  1
  O  O22  1  0.14229129  0.14450110  0.37995124  1
  O  O23  1  0.12004876  0.64450110  0.35770871  1
  O  O24  1  0.72977021  0.89170701  0.22448407  1
  O  O25  1  0.49842684  0.90224593  0.79844348  1
  O  O26  1  0.76768168  0.03084855  0.89424727  1
  O  O27  1  0.29844348  0.59775407  0.99842684  1
  O  O28  1  0.72448407  0.60829299  0.22977021  1
  O  O29  1  0.34168997  0.64363334  0.63239609  1
  O  O30  1  0.60575273  0.53084855  0.73231832  1
  O  O31  1  0.27022979  0.10829299  0.77551593  1
  O  O32  1  0.87995124  0.35549890  0.64229129  1
  O  O33  1  0.71711241  0.09693489  0.57140774  1
