# generated using pymatgen
data_Li3Ni3(PO4)4
_symmetry_space_group_name_H-M   'P 1'
_cell_length_a   6.46351251
_cell_length_b   9.85573409
_cell_length_c   10.37816064
_cell_angle_alpha   89.05148426
_cell_angle_beta   90.00000000
_cell_angle_gamma   70.85826080
_symmetry_Int_Tables_number   1
_chemical_formula_structural   Li3Ni3(PO4)4
_chemical_formula_sum   'Li6 Ni6 P8 O32'
_cell_volume   624.46761380
_cell_formula_units_Z   2
loop_
 _symmetry_equiv_pos_site_id
 _symmetry_equiv_pos_as_xyz
  1  'x, y, z'
loop_
 _atom_site_type_symbol
 _atom_site_label
 _atom_site_symmetry_multiplicity
 _atom_site_fract_x
 _atom_site_fract_y
 _atom_site_fract_z
 _atom_site_occupancy
  Li  Li0  1  0.07619660  0.15948217  0.53907510  1
  Li  Li1  1  0.56439711  0.00000000  0.75000000  1
  Li  Li2  1  0.76432122  0.15948217  0.03907510  1
  Li  Li3  1  0.43560289  0.00000000  0.25000000  1
  Li  Li4  1  0.92380340  0.84051783  0.46092490  1
  Li  Li5  1  0.23567878  0.84051783  0.96092490  1
  Ni  Ni6  1  0.63603455  0.68699248  0.75171293  1
  Ni  Ni7  1  0.32302703  0.31300752  0.74828707  1
  Ni  Ni8  1  0.67697297  0.68699248  0.25171293  1
  Ni  Ni9  1  0.36396545  0.31300752  0.24828707  1
  Ni  Ni10  1  0.50000000  0.50000000  0.50000000  1
  Ni  Ni11  1  0.00000000  0.50000000  0.00000000  1
  P  P12  1  0.21620978  0.60450494  0.24660127  1
  P  P13  1  0.41330787  0.84014430  0.49403329  1
  P  P14  1  0.17928528  0.60450494  0.74660127  1
  P  P15  1  0.74654783  0.84014430  0.99403329  1
  P  P16  1  0.58669213  0.15985570  0.50596671  1
  P  P17  1  0.82071472  0.39549506  0.25339873  1
  P  P18  1  0.78379022  0.39549506  0.75339873  1
  P  P19  1  0.25345217  0.15985570  0.00596671  1
  O  O20  1  0.57872960  0.82882338  0.88892821  1
  O  O21  1  0.32979356  0.71001371  0.49289642  1
  O  O22  1  0.77102824  0.50960490  0.86255105  1
  O  O23  1  0.40755297  0.17117662  0.61107179  1
  O  O24  1  0.31200106  0.48418411  0.35657215  1
  O  O25  1  0.64162318  0.30441406  0.78979822  1
  O  O26  1  0.19079178  0.02605243  0.03884974  1
  O  O27  1  0.36917480  0.14954844  0.87332873  1
  O  O28  1  0.71936686  0.50960490  0.36255105  1
  O  O29  1  0.68765322  0.30045920  0.21400027  1
  O  O30  1  0.35837682  0.69558594  0.21020178  1
  O  O31  1  0.68799894  0.51581589  0.64342785  1
  O  O32  1  0.22897176  0.49039510  0.13744895  1
  O  O33  1  0.63082520  0.85045156  0.12667127  1
  O  O34  1  0.80920822  0.97394757  0.96115026  1
  O  O35  1  0.79618517  0.51581589  0.14342785  1
  O  O36  1  0.67020644  0.28998629  0.50710358  1
  O  O37  1  0.21684322  0.97394757  0.46115026  1
  O  O38  1  0.51872324  0.85045156  0.62667127  1
  O  O39  1  0.59244703  0.82882338  0.38892821  1
  O  O40  1  0.78315678  0.02605243  0.53884974  1
  O  O41  1  0.48127676  0.14954844  0.37332873  1
  O  O42  1  0.94603825  0.69558594  0.71020178  1
  O  O43  1  0.20381483  0.48418411  0.85657215  1
  O  O44  1  0.31234678  0.69954080  0.78599973  1
  O  O45  1  0.03980727  0.28998629  0.00710358  1
  O  O46  1  0.28063314  0.49039510  0.63744895  1
  O  O47  1  0.96019273  0.71001371  0.99289642  1
  O  O48  1  0.05396175  0.30441406  0.28979822  1
  O  O49  1  0.01188758  0.30045920  0.71400027  1
  O  O50  1  0.98811242  0.69954080  0.28599973  1
  O  O51  1  0.42127040  0.17117662  0.11107179  1
