# generated using pymatgen
data_PH6CNO3
_symmetry_space_group_name_H-M   'P 1'
_cell_length_a   9.19597780
_cell_length_b   9.24782456
_cell_length_c   10.18125064
_cell_angle_alpha   90.00000000
_cell_angle_beta   90.00000000
_cell_angle_gamma   90.00000000
_symmetry_Int_Tables_number   1
_chemical_formula_structural   PH6CNO3
_chemical_formula_sum   'P8 H48 C8 N8 O24'
_cell_volume   865.84195352
_cell_formula_units_Z   8
loop_
 _symmetry_equiv_pos_site_id
 _symmetry_equiv_pos_as_xyz
  1  'x, y, z'
loop_
 _atom_site_type_symbol
 _atom_site_label
 _atom_site_symmetry_multiplicity
 _atom_site_fract_x
 _atom_site_fract_y
 _atom_site_fract_z
 _atom_site_occupancy
  C  C0  1  0.07078396  0.10571620  0.16299816  1
  C  C1  1  0.57078396  0.39428380  0.83700184  1
  C  C2  1  0.92921604  0.60571620  0.33700184  1
  C  C3  1  0.42921604  0.89428380  0.66299816  1
  C  C4  1  0.92921604  0.89428380  0.83700184  1
  C  C5  1  0.42921604  0.60571620  0.16299816  1
  C  C6  1  0.07078396  0.39428380  0.66299816  1
  C  C7  1  0.57078396  0.10571620  0.33700184  1
  H  H8  1  0.18244194  0.00799611  0.32293814  1
  H  H9  1  0.68244194  0.49200389  0.67706186  1
  H  H10  1  0.81755806  0.50799611  0.17706186  1
  H  H11  1  0.31755806  0.99200389  0.82293814  1
  H  H12  1  0.81755806  0.99200389  0.67706186  1
  H  H13  1  0.31755806  0.50799611  0.32293814  1
  H  H14  1  0.18244194  0.49200389  0.82293814  1
  H  H15  1  0.68244194  0.00799611  0.17706186  1
  H  H16  1  0.00876210  0.05458069  0.35429020  1
  H  H17  1  0.50876210  0.44541931  0.64570980  1
  H  H18  1  0.99123790  0.55458069  0.14570980  1
  H  H19  1  0.49123790  0.94541931  0.85429020  1
  H  H20  1  0.99123790  0.94541931  0.64570980  1
  H  H21  1  0.49123790  0.55458069  0.35429020  1
  H  H22  1  0.00876210  0.44541931  0.85429020  1
  H  H23  1  0.50876210  0.05458069  0.14570980  1
  H  H24  1  0.14025076  0.18478068  0.34826377  1
  H  H25  1  0.64025076  0.31521932  0.65173623  1
  H  H26  1  0.85974924  0.68478068  0.15173623  1
  H  H27  1  0.35974924  0.81521932  0.84826377  1
  H  H28  1  0.85974924  0.81521932  0.65173623  1
  H  H29  1  0.35974924  0.68478068  0.34826377  1
  H  H30  1  0.14025076  0.31521932  0.84826377  1
  H  H31  1  0.64025076  0.18478068  0.15173623  1
  H  H32  1  0.00894523  0.01073389  0.12976260  1
  H  H33  1  0.50894523  0.48926611  0.87023740  1
  H  H34  1  0.99105477  0.51073389  0.37023740  1
  H  H35  1  0.49105477  0.98926611  0.62976260  1
  H  H36  1  0.99105477  0.98926611  0.87023740  1
  H  H37  1  0.49105477  0.51073389  0.12976260  1
  H  H38  1  0.00894523  0.48926611  0.62976260  1
  H  H39  1  0.50894523  0.01073389  0.37023740  1
  H  H40  1  0.00048348  0.20094019  0.15234165  1
  H  H41  1  0.50048348  0.29905981  0.84765835  1
  H  H42  1  0.99951652  0.70094019  0.34765835  1
  H  H43  1  0.49951652  0.79905981  0.65234165  1
  H  H44  1  0.99951652  0.79905981  0.84765835  1
  H  H45  1  0.49951652  0.70094019  0.15234165  1
  H  H46  1  0.00048348  0.29905981  0.65234165  1
  H  H47  1  0.50048348  0.20094019  0.34765835  1
  H  H48  1  0.25202070  0.35895609  0.11054788  1
  H  H49  1  0.75202070  0.14104391  0.88945212  1
  H  H50  1  0.74797930  0.85895609  0.38945212  1
  H  H51  1  0.24797930  0.64104391  0.61054788  1
  H  H52  1  0.74797930  0.64104391  0.88945212  1
  H  H53  1  0.24797930  0.85895609  0.11054788  1
  H  H54  1  0.25202070  0.14104391  0.61054788  1
  H  H55  1  0.75202070  0.35895609  0.38945212  1
  N  N56  1  0.10439793  0.08721251  0.30563312  1
  N  N57  1  0.60439793  0.41278749  0.69436688  1
  N  N58  1  0.89560207  0.58721251  0.19436688  1
  N  N59  1  0.39560207  0.91278749  0.80563312  1
  N  N60  1  0.89560207  0.91278749  0.69436688  1
  N  N61  1  0.39560207  0.58721251  0.30563312  1
  N  N62  1  0.10439793  0.41278749  0.80563312  1
  N  N63  1  0.60439793  0.08721251  0.19436688  1
  O  O64  1  0.33484377  0.99931141  0.09480426  1
  O  O65  1  0.83484377  0.50068859  0.90519574  1
  O  O66  1  0.66515623  0.49931141  0.40519574  1
  O  O67  1  0.16515623  0.00068859  0.59480426  1
  O  O68  1  0.66515623  0.00068859  0.90519574  1
  O  O69  1  0.16515623  0.49931141  0.09480426  1
  O  O70  1  0.33484377  0.50068859  0.59480426  1
  O  O71  1  0.83484377  0.99931141  0.40519574  1
  O  O72  1  0.31336698  0.26612349  0.12125923  1
  O  O73  1  0.81336698  0.23387651  0.87874077  1
  O  O74  1  0.68663302  0.76612349  0.37874077  1
  O  O75  1  0.18663302  0.73387651  0.62125923  1
  O  O76  1  0.68663302  0.73387651  0.87874077  1
  O  O77  1  0.18663302  0.76612349  0.12125923  1
  O  O78  1  0.31336698  0.23387651  0.62125923  1
  O  O79  1  0.81336698  0.26612349  0.37874077  1
  O  O80  1  0.19170347  0.14457099  0.92012308  1
  O  O81  1  0.69170347  0.35542901  0.07987692  1
  O  O82  1  0.80829653  0.64457099  0.57987692  1
  O  O83  1  0.30829653  0.85542901  0.42012308  1
  O  O84  1  0.80829653  0.85542901  0.07987692  1
  O  O85  1  0.30829653  0.64457099  0.92012308  1
  O  O86  1  0.19170347  0.35542901  0.42012308  1
  O  O87  1  0.69170347  0.14457099  0.57987692  1
  P  P88  1  0.23486447  0.12736381  0.06282873  1
  P  P89  1  0.73486447  0.37263619  0.93717127  1
  P  P90  1  0.76513553  0.62736381  0.43717127  1
  P  P91  1  0.26513553  0.87263619  0.56282873  1
  P  P92  1  0.76513553  0.87263619  0.93717127  1
  P  P93  1  0.26513553  0.62736381  0.06282873  1
  P  P94  1  0.23486447  0.37263619  0.56282873  1
  P  P95  1  0.73486447  0.12736381  0.43717127  1
