# generated using pymatgen
data_MgH6(CO3)2
_symmetry_space_group_name_H-M   'P 1'
_cell_length_a   7.20379097
_cell_length_b   8.72493775
_cell_length_c   9.45934971
_cell_angle_alpha   98.05593975
_cell_angle_beta   90.00000000
_cell_angle_gamma   90.00000000
_symmetry_Int_Tables_number   1
_chemical_formula_structural   MgH6(CO3)2
_chemical_formula_sum   'Mg4 H24 C8 O24'
_cell_volume   588.67784874
_cell_formula_units_Z   4
loop_
 _symmetry_equiv_pos_site_id
 _symmetry_equiv_pos_as_xyz
  1  'x, y, z'
loop_
 _atom_site_type_symbol
 _atom_site_label
 _atom_site_symmetry_multiplicity
 _atom_site_fract_x
 _atom_site_fract_y
 _atom_site_fract_z
 _atom_site_occupancy
  Mg  Mg0  1  0.00000000  0.00000000  0.00000000  1
  Mg  Mg1  1  0.50000000  0.00000000  0.50000000  1
  Mg  Mg2  1  0.50000000  0.50000000  0.00000000  1
  Mg  Mg3  1  0.00000000  0.50000000  0.50000000  1
  C  C4  1  0.77485282  0.96523684  0.72616477  1
  C  C5  1  0.27485282  0.03476316  0.77383523  1
  C  C6  1  0.22514718  0.03476316  0.27383523  1
  C  C7  1  0.72514718  0.96523684  0.22616477  1
  C  C8  1  0.38493429  0.67447966  0.56590854  1
  C  C9  1  0.88493429  0.32552034  0.93409146  1
  C  C10  1  0.61506571  0.32552034  0.43409146  1
  C  C11  1  0.11506571  0.67447966  0.06590854  1
  O  O12  1  0.89250532  0.90223557  0.79958953  1
  O  O13  1  0.39250532  0.09776443  0.70041047  1
  O  O14  1  0.10749468  0.09776443  0.20041047  1
  O  O15  1  0.60749468  0.90223557  0.29958953  1
  O  O16  1  0.72833597  0.91232521  0.59894665  1
  O  O17  1  0.22833597  0.08767479  0.90105335  1
  O  O18  1  0.27166403  0.08767479  0.40105335  1
  O  O19  1  0.77166403  0.91232521  0.09894665  1
  O  O20  1  0.27560215  0.56336494  0.57918685  1
  O  O21  1  0.77560215  0.43663506  0.92081315  1
  O  O22  1  0.72439785  0.43663506  0.42081315  1
  O  O23  1  0.22439785  0.56336494  0.07918685  1
  O  O24  1  0.34532938  0.79116773  0.50391516  1
  O  O25  1  0.84532938  0.20883227  0.99608484  1
  O  O26  1  0.65467062  0.20883227  0.49608484  1
  O  O27  1  0.15467062  0.79116773  0.00391516  1
  O  O28  1  0.51962949  0.72084152  0.93653081  1
  O  O29  1  0.01962949  0.27915848  0.56346919  1
  O  O30  1  0.48037051  0.27915848  0.06346919  1
  O  O31  1  0.98037051  0.72084152  0.43653081  1
  O  O32  1  0.89078038  0.58684864  0.69822294  1
  O  O33  1  0.39078038  0.41315136  0.80177706  1
  O  O34  1  0.10921962  0.41315136  0.30177706  1
  O  O35  1  0.60921962  0.58684864  0.19822294  1
  H  H36  1  0.60961597  0.79137920  0.99244578  1
  H  H37  1  0.10961597  0.20862080  0.50755422  1
  H  H38  1  0.39038403  0.20862080  0.00755422  1
  H  H39  1  0.89038403  0.79137920  0.49244578  1
  H  H40  1  0.39368797  0.76653446  0.95468155  1
  H  H41  1  0.89368797  0.23346554  0.54531845  1
  H  H42  1  0.60631203  0.23346554  0.04531845  1
  H  H43  1  0.10631203  0.76653446  0.45468155  1
  H  H44  1  0.52517053  0.67008802  0.61312664  1
  H  H45  1  0.02517053  0.32991198  0.88687336  1
  H  H46  1  0.47482947  0.32991198  0.38687336  1
  H  H47  1  0.97482947  0.67008802  0.11312664  1
  H  H48  1  0.70755414  0.07321595  0.77572605  1
  H  H49  1  0.20755414  0.92678405  0.72427395  1
  H  H50  1  0.29244586  0.92678405  0.22427395  1
  H  H51  1  0.79244586  0.07321595  0.27572605  1
  H  H52  1  0.84762492  0.53185290  0.77726653  1
  H  H53  1  0.34762492  0.46814710  0.72273347  1
  H  H54  1  0.15237508  0.46814710  0.22273347  1
  H  H55  1  0.65237508  0.53185290  0.27726653  1
  H  H56  1  0.89861099  0.69814424  0.73691648  1
  H  H57  1  0.39861099  0.30185576  0.76308352  1
  H  H58  1  0.10138901  0.30185576  0.26308352  1
  H  H59  1  0.60138901  0.69814424  0.23691648  1
