# generated using pymatgen
data_Tb11O20
_symmetry_space_group_name_H-M   'P 1'
_cell_length_a   6.56303486
_cell_length_b   6.69116999
_cell_length_c   10.29680205
_cell_angle_alpha   94.03706389
_cell_angle_beta   92.93645294
_cell_angle_gamma   98.91940181
_symmetry_Int_Tables_number   1
_chemical_formula_structural   Tb11O20
_chemical_formula_sum   'Tb11 O20'
_cell_volume   444.71439950
_cell_formula_units_Z   1
loop_
 _symmetry_equiv_pos_site_id
 _symmetry_equiv_pos_as_xyz
  1  'x, y, z'
loop_
 _atom_site_type_symbol
 _atom_site_label
 _atom_site_symmetry_multiplicity
 _atom_site_fract_x
 _atom_site_fract_y
 _atom_site_fract_z
 _atom_site_occupancy
  Tb  Tb0  1  0.12821918  0.54881442  0.17289746  1
  Tb  Tb1  1  0.81847835  0.88882474  0.63133306  1
  Tb  Tb2  1  0.72900479  0.36366655  0.47873763  1
  Tb  Tb3  1  0.37008117  0.14508707  0.72368846  1
  Tb  Tb4  1  0.87178082  0.45118558  0.82710254  1
  Tb  Tb5  1  0.18152165  0.11117526  0.36866694  1
  Tb  Tb6  1  0.46925928  0.73229902  0.92422531  1
  Tb  Tb7  1  0.27099521  0.63633345  0.52126237  1
  Tb  Tb8  1  0.62991883  0.85491293  0.27631154  1
  Tb  Tb9  1  0.00000000  0.00000000  0.00000000  1
  Tb  Tb10  1  0.53074072  0.26770098  0.07577469  1
  O  O11  1  0.52947000  0.40910101  0.87158078  1
  O  O12  1  0.87785045  0.33596070  0.03796277  1
  O  O13  1  0.54007987  0.18313178  0.29579688  1
  O  O14  1  0.45992013  0.81686822  0.70420312  1
  O  O15  1  0.03510098  0.42719400  0.36990584  1
  O  O16  1  0.66881181  0.96573422  0.06972524  1
  O  O17  1  0.84764766  0.05734242  0.43158743  1
  O  O18  1  0.47053000  0.59089899  0.12841922  1
  O  O19  1  0.79359714  0.78054836  0.83881145  1
  O  O20  1  0.15235234  0.94265758  0.56841257  1
  O  O21  1  0.28728909  0.79924086  0.33110394  1
  O  O22  1  0.95907528  0.83301441  0.20059314  1
  O  O23  1  0.62853797  0.67602579  0.46192438  1
  O  O24  1  0.20640286  0.21945164  0.16118855  1
  O  O25  1  0.37146203  0.32397421  0.53807562  1
  O  O26  1  0.12214955  0.66403930  0.96203723  1
  O  O27  1  0.04092472  0.16698559  0.79940686  1
  O  O28  1  0.96489902  0.57280600  0.63009416  1
  O  O29  1  0.71271091  0.20075914  0.66889606  1
  O  O30  1  0.33118819  0.03426578  0.93027476  1
