# generated using pymatgen
data_Te2As2Se8S(OF6)2
_symmetry_space_group_name_H-M   'P 1'
_cell_length_a   7.48448008
_cell_length_b   8.82929414
_cell_length_c   36.84331148
_cell_angle_alpha   90.00000000
_cell_angle_beta   91.58291047
_cell_angle_gamma   90.00000000
_symmetry_Int_Tables_number   1
_chemical_formula_structural   Te2As2Se8S(OF6)2
_chemical_formula_sum   'Te8 As8 Se32 S4 O8 F48'
_cell_volume   2433.77553173
_cell_formula_units_Z   4
loop_
 _symmetry_equiv_pos_site_id
 _symmetry_equiv_pos_as_xyz
  1  'x, y, z'
loop_
 _atom_site_type_symbol
 _atom_site_label
 _atom_site_symmetry_multiplicity
 _atom_site_fract_x
 _atom_site_fract_y
 _atom_site_fract_z
 _atom_site_occupancy
  Te  Te0  1  0.84746559  0.53841080  0.68559844  1
  Te  Te1  1  0.15253441  0.03841080  0.81440156  1
  Te  Te2  1  0.84746559  0.96158920  0.18559844  1
  Te  Te3  1  0.69639995  0.67062283  0.07256140  1
  Te  Te4  1  0.69639995  0.82937717  0.57256140  1
  Te  Te5  1  0.30360005  0.17062283  0.42743860  1
  Te  Te6  1  0.30360005  0.32937717  0.92743860  1
  Te  Te7  1  0.15253441  0.46158920  0.31440156  1
  As  As8  1  0.77628047  0.87875662  0.45435788  1
  As  As9  1  0.22371953  0.12124338  0.54564212  1
  As  As10  1  0.60470757  0.74314929  0.29258689  1
  As  As11  1  0.39529243  0.25685071  0.70741311  1
  As  As12  1  0.39529243  0.24314929  0.20741311  1
  As  As13  1  0.60470757  0.75685071  0.79258689  1
  As  As14  1  0.77628047  0.62124338  0.95435788  1
  As  As15  1  0.22371953  0.37875662  0.04564212  1
  Se  Se16  1  0.92105187  0.24679165  0.29830720  1
  Se  Se17  1  0.89778229  0.96526320  0.70381578  1
  Se  Se18  1  0.33785321  0.94258555  0.38287692  1
  Se  Se19  1  0.00815992  0.77254572  0.09782105  1
  Se  Se20  1  0.66214679  0.05741445  0.61712308  1
  Se  Se21  1  0.33785321  0.55741445  0.88287692  1
  Se  Se22  1  0.42778197  0.21316555  0.83180583  1
  Se  Se23  1  0.07894813  0.74679165  0.20169280  1
  Se  Se24  1  0.89778229  0.53473680  0.20381578  1
  Se  Se25  1  0.49034221  0.36647735  0.39031699  1
  Se  Se26  1  0.06056130  0.58263926  0.85379639  1
  Se  Se27  1  0.06181150  0.98854926  0.88123748  1
  Se  Se28  1  0.10221771  0.03473680  0.29618422  1
  Se  Se29  1  0.42778197  0.28683445  0.33180583  1
  Se  Se30  1  0.06181150  0.51145074  0.38123748  1
  Se  Se31  1  0.93818850  0.48854926  0.61876252  1
  Se  Se32  1  0.00815992  0.72745428  0.59782105  1
  Se  Se33  1  0.99184008  0.27254572  0.40217895  1
  Se  Se34  1  0.92105187  0.25320835  0.79830720  1
  Se  Se35  1  0.57221803  0.71316555  0.66819417  1
  Se  Se36  1  0.50965779  0.86647735  0.10968301  1
  Se  Se37  1  0.66214679  0.44258555  0.11712308  1
  Se  Se38  1  0.10221771  0.46526320  0.79618422  1
  Se  Se39  1  0.93943870  0.41736074  0.14620361  1
  Se  Se40  1  0.07894813  0.75320835  0.70169280  1
  Se  Se41  1  0.57221803  0.78683445  0.16819417  1
  Se  Se42  1  0.49034221  0.13352265  0.89031699  1
  Se  Se43  1  0.99184008  0.22745428  0.90217895  1
  Se  Se44  1  0.50965779  0.63352265  0.60968301  1
  Se  Se45  1  0.93943870  0.08263926  0.64620361  1
  Se  Se46  1  0.93818850  0.01145074  0.11876252  1
  Se  Se47  1  0.06056130  0.91736074  0.35379639  1
  S  S48  1  0.27019367  0.64774712  0.49184638  1
  S  S49  1  0.72980633  0.35225288  0.50815362  1
  S  S50  1  0.72980633  0.14774712  0.00815362  1
  S  S51  1  0.27019367  0.85225288  0.99184638  1
  O  O52  1  0.64024192  0.38465257  0.47355210  1
  O  O53  1  0.24412304  0.97779726  0.96678308  1
  O  O54  1  0.35975808  0.88465257  0.02644790  1
  O  O55  1  0.75587696  0.47779726  0.53321692  1
  O  O56  1  0.35975808  0.61534743  0.52644790  1
  O  O57  1  0.24412304  0.52220274  0.46678308  1
  O  O58  1  0.75587696  0.02220274  0.03321692  1
  O  O59  1  0.64024192  0.11534743  0.97355210  1
  F  F60  1  0.44606526  0.06798879  0.22834460  1
  F  F61  1  0.82205482  0.67203775  0.30497947  1
  F  F62  1  0.55393474  0.93201121  0.77165540  1
  F  F63  1  0.19198029  0.26179823  0.57910467  1
  F  F64  1  0.19198029  0.23820177  0.07910467  1
  F  F65  1  0.80801971  0.73820177  0.42089533  1
  F  F66  1  0.74420447  0.47890686  0.98721832  1
  F  F67  1  0.69113320  0.81090551  0.25076706  1
  F  F68  1  0.17794518  0.32796225  0.69502053  1
  F  F69  1  0.38848101  0.81042096  0.28005411  1
  F  F70  1  0.55991875  0.80584620  0.46241694  1
  F  F71  1  0.67961724  0.49735693  0.92040314  1
  F  F72  1  0.47969234  0.32427429  0.66562046  1
  F  F73  1  0.65948856  0.91840078  0.31339197  1
  F  F74  1  0.00927756  0.45605212  0.05543989  1
  F  F75  1  0.25579553  0.97890686  0.51278168  1
  F  F76  1  0.38848101  0.68957904  0.78005411  1
  F  F77  1  0.61151899  0.18957904  0.71994589  1
  F  F78  1  0.55991875  0.69415380  0.96241694  1
  F  F79  1  0.30886680  0.31090551  0.24923294  1
  F  F80  1  0.32038276  0.50264307  0.07959686  1
  F  F81  1  0.44606526  0.43201121  0.72834460  1
  F  F82  1  0.74420447  0.02109314  0.48721832  1
  F  F83  1  0.52030766  0.82427429  0.83437954  1
  F  F84  1  0.30886680  0.18909449  0.74923294  1
  F  F85  1  0.87276697  0.74053783  0.98816488  1
  F  F86  1  0.12723303  0.25946217  0.01183512  1
  F  F87  1  0.44008125  0.30584620  0.03758306  1
  F  F88  1  0.34051144  0.08159922  0.68660803  1
  F  F89  1  0.69113320  0.68909449  0.75076706  1
  F  F90  1  0.00927756  0.04394788  0.55543989  1
  F  F91  1  0.67961724  0.00264307  0.42040314  1
  F  F92  1  0.34051144  0.41840078  0.18660803  1
  F  F93  1  0.87276697  0.75946217  0.48816488  1
  F  F94  1  0.80801971  0.76179823  0.92089533  1
  F  F95  1  0.82205482  0.82796225  0.80497947  1
  F  F96  1  0.52030766  0.67572571  0.33437954  1
  F  F97  1  0.25579553  0.52109314  0.01278168  1
  F  F98  1  0.44008125  0.19415380  0.53758306  1
  F  F99  1  0.17794518  0.17203775  0.19502053  1
  F  F100  1  0.65948856  0.58159922  0.81339197  1
  F  F101  1  0.32038276  0.99735693  0.57959686  1
  F  F102  1  0.12723303  0.24053783  0.51183512  1
  F  F103  1  0.99072244  0.54394788  0.94456011  1
  F  F104  1  0.99072244  0.95605212  0.44456011  1
  F  F105  1  0.55393474  0.56798879  0.27165540  1
  F  F106  1  0.61151899  0.31042096  0.21994589  1
  F  F107  1  0.47969234  0.17572571  0.16562046  1
