# generated using pymatgen
data_CoH6(CO3)2
_symmetry_space_group_name_H-M   'P 1'
_cell_length_a   7.24396590
_cell_length_b   8.76229655
_cell_length_c   9.31466707
_cell_angle_alpha   97.24668093
_cell_angle_beta   90.00000000
_cell_angle_gamma   90.00000000
_symmetry_Int_Tables_number   1
_chemical_formula_structural   CoH6(CO3)2
_chemical_formula_sum   'Co4 H24 C8 O24'
_cell_volume   586.51445510
_cell_formula_units_Z   4
loop_
 _symmetry_equiv_pos_site_id
 _symmetry_equiv_pos_as_xyz
  1  'x, y, z'
loop_
 _atom_site_type_symbol
 _atom_site_label
 _atom_site_symmetry_multiplicity
 _atom_site_fract_x
 _atom_site_fract_y
 _atom_site_fract_z
 _atom_site_occupancy
  Co  Co0  1  0.50000000  0.00000000  0.50000000  1
  Co  Co1  1  0.00000000  0.00000000  0.00000000  1
  Co  Co2  1  0.00000000  0.50000000  0.50000000  1
  Co  Co3  1  0.50000000  0.50000000  0.00000000  1
  O  O4  1  0.72561750  0.56313979  0.58053960  1
  O  O5  1  0.22561750  0.43686021  0.91946040  1
  O  O6  1  0.27438250  0.43686021  0.41946040  1
  O  O7  1  0.77438250  0.56313979  0.08053960  1
  O  O8  1  0.33567779  0.20913997  0.49969184  1
  O  O9  1  0.83567779  0.79086003  0.00030816  1
  O  O10  1  0.66432221  0.79086003  0.50030816  1
  O  O11  1  0.16432221  0.20913997  0.99969184  1
  O  O12  1  0.72690688  0.09362094  0.40383631  1
  O  O13  1  0.22690688  0.90637906  0.09616369  1
  O  O14  1  0.27309312  0.90637906  0.59616369  1
  O  O15  1  0.77309312  0.09362094  0.90383631  1
  O  O16  1  0.90004838  0.10074323  0.20536982  1
  O  O17  1  0.40004838  0.89925677  0.29463018  1
  O  O18  1  0.09995162  0.89925677  0.79463018  1
  O  O19  1  0.59995162  0.10074323  0.70536982  1
  O  O20  1  0.02248321  0.72031809  0.42858885  1
  O  O21  1  0.52248321  0.27968191  0.07141115  1
  O  O22  1  0.97751679  0.27968191  0.57141115  1
  O  O23  1  0.47751679  0.72031809  0.92858885  1
  O  O24  1  0.89066073  0.41108060  0.30273037  1
  O  O25  1  0.39066073  0.58891940  0.19726963  1
  O  O26  1  0.10933927  0.58891940  0.69726963  1
  O  O27  1  0.60933927  0.41108060  0.80273037  1
  C  C28  1  0.38020766  0.32471403  0.43631260  1
  C  C29  1  0.88020766  0.67528597  0.06368740  1
  C  C30  1  0.61979234  0.67528597  0.56368740  1
  C  C31  1  0.11979234  0.32471403  0.93631260  1
  C  C32  1  0.77811983  0.03865418  0.27684323  1
  C  C33  1  0.27811983  0.96134582  0.22315677  1
  C  C34  1  0.22188017  0.96134582  0.72315677  1
  C  C35  1  0.72188017  0.03865418  0.77684323  1
  H  H36  1  0.47879788  0.67216657  0.60863515  1
  H  H37  1  0.97879788  0.32783343  0.89136485  1
  H  H38  1  0.52120212  0.32783343  0.39136485  1
  H  H39  1  0.02120212  0.67216657  0.10863515  1
  H  H40  1  0.71181513  0.93167040  0.22670946  1
  H  H41  1  0.21181513  0.06832960  0.27329054  1
  H  H42  1  0.28818487  0.06832960  0.77329054  1
  H  H43  1  0.78818487  0.93167040  0.72670946  1
  H  H44  1  0.11333686  0.78630489  0.48741336  1
  H  H45  1  0.61333686  0.21369511  0.01258664  1
  H  H46  1  0.88666314  0.21369511  0.51258664  1
  H  H47  1  0.38666314  0.78630489  0.98741336  1
  H  H48  1  0.89757776  0.76525632  0.45071279  1
  H  H49  1  0.39757776  0.23474368  0.04928721  1
  H  H50  1  0.10242224  0.23474368  0.54928721  1
  H  H51  1  0.60242224  0.76525632  0.95071279  1
  H  H52  1  0.90589140  0.30111145  0.26410929  1
  H  H53  1  0.40589140  0.69888855  0.23589071  1
  H  H54  1  0.09410860  0.69888855  0.73589071  1
  H  H55  1  0.59410860  0.30111145  0.76410929  1
  H  H56  1  0.84546189  0.46710742  0.22295588  1
  H  H57  1  0.34546189  0.53289258  0.27704412  1
  H  H58  1  0.15453811  0.53289258  0.77704412  1
  H  H59  1  0.65453811  0.46710742  0.72295588  1
