# generated using pymatgen
data_AsCSCl2F9
_symmetry_space_group_name_H-M   'P 1'
_cell_length_a   7.86676136
_cell_length_b   9.67577072
_cell_length_c   12.45882878
_cell_angle_alpha   90.00000000
_cell_angle_beta   100.93358183
_cell_angle_gamma   90.00000000
_symmetry_Int_Tables_number   1
_chemical_formula_structural   AsCSCl2F9
_chemical_formula_sum   'As4 C4 S4 Cl8 F36'
_cell_volume   931.11408196
_cell_formula_units_Z   4
loop_
 _symmetry_equiv_pos_site_id
 _symmetry_equiv_pos_as_xyz
  1  'x, y, z'
loop_
 _atom_site_type_symbol
 _atom_site_label
 _atom_site_symmetry_multiplicity
 _atom_site_fract_x
 _atom_site_fract_y
 _atom_site_fract_z
 _atom_site_occupancy
  As  As0  1  0.80547956  0.74516094  0.92966152  1
  As  As1  1  0.19452044  0.25483906  0.07033848  1
  As  As2  1  0.80547956  0.75483906  0.42966152  1
  As  As3  1  0.19452044  0.24516094  0.57033848  1
  C  C4  1  0.37876519  0.66945201  0.61783977  1
  C  C5  1  0.62123481  0.16945201  0.88216023  1
  C  C6  1  0.62123481  0.33054799  0.38216023  1
  C  C7  1  0.37876519  0.83054799  0.11783977  1
  S  S8  1  0.82732410  0.32824299  0.30568685  1
  S  S9  1  0.17267590  0.67175701  0.69431315  1
  S  S10  1  0.17267590  0.82824299  0.19431315  1
  S  S11  1  0.82732410  0.17175701  0.80568685  1
  Cl  Cl12  1  0.73505032  0.43744024  0.17308878  1
  Cl  Cl13  1  0.73505032  0.06255976  0.67308878  1
  Cl  Cl14  1  0.26494968  0.56255976  0.82691122  1
  Cl  Cl15  1  0.26494968  0.93744024  0.32691122  1
  Cl  Cl16  1  0.81596124  0.13387490  0.25676103  1
  Cl  Cl17  1  0.18403876  0.86612510  0.74323897  1
  Cl  Cl18  1  0.81596124  0.36612510  0.75676103  1
  Cl  Cl19  1  0.18403876  0.63387490  0.24323897  1
  F  F20  1  0.98220149  0.30376108  0.00190616  1
  F  F21  1  0.10907908  0.40876995  0.60107791  1
  F  F22  1  0.01779851  0.69623892  0.99809384  1
  F  F23  1  0.42953024  0.79871582  0.60797914  1
  F  F24  1  0.49739260  0.09341088  0.82397450  1
  F  F25  1  0.14701969  0.32212252  0.19425964  1
  F  F26  1  0.57046976  0.20128418  0.39202086  1
  F  F27  1  0.31917063  0.61330873  0.52067807  1
  F  F28  1  0.27783189  0.41760169  0.04084469  1
  F  F29  1  0.89092092  0.59123005  0.39892209  1
  F  F30  1  0.31917063  0.88669127  0.02067807  1
  F  F31  1  0.50260740  0.59341088  0.67602550  1
  F  F32  1  0.98220149  0.19623892  0.50190616  1
  F  F33  1  0.59745600  0.79748120  0.86095946  1
  F  F34  1  0.50260740  0.90658912  0.17602550  1
  F  F35  1  0.72216811  0.91760169  0.45915531  1
  F  F36  1  0.68082937  0.11330873  0.97932193  1
  F  F37  1  0.57046976  0.29871582  0.89202086  1
  F  F38  1  0.76457725  0.68764185  0.55419204  1
  F  F39  1  0.76457725  0.81235815  0.05419204  1
  F  F40  1  0.85298031  0.67787748  0.80574036  1
  F  F41  1  0.68082937  0.38669127  0.47932193  1
  F  F42  1  0.40254400  0.29748120  0.63904054  1
  F  F43  1  0.14701969  0.17787748  0.69425964  1
  F  F44  1  0.40254400  0.20251880  0.13904054  1
  F  F45  1  0.59745600  0.70251880  0.36095946  1
  F  F46  1  0.23542275  0.31235815  0.44580796  1
  F  F47  1  0.72216811  0.58239831  0.95915531  1
  F  F48  1  0.85298031  0.82212252  0.30574036  1
  F  F49  1  0.01779851  0.80376108  0.49809384  1
  F  F50  1  0.49739260  0.40658912  0.32397450  1
  F  F51  1  0.42953024  0.70128418  0.10797914  1
  F  F52  1  0.23542275  0.18764185  0.94580796  1
  F  F53  1  0.27783189  0.08239831  0.54084469  1
  F  F54  1  0.10907908  0.09123005  0.10107791  1
  F  F55  1  0.89092092  0.90876995  0.89892209  1
