# generated using pymatgen
data_H4C2N3Cl
_symmetry_space_group_name_H-M   'P 1'
_cell_length_a   9.04268579
_cell_length_b   9.66029712
_cell_length_c   11.40763315
_cell_angle_alpha   95.62545348
_cell_angle_beta   90.00000000
_cell_angle_gamma   90.00000000
_symmetry_Int_Tables_number   1
_chemical_formula_structural   H4C2N3Cl
_chemical_formula_sum   'H32 C16 N24 Cl8'
_cell_volume   991.71489183
_cell_formula_units_Z   8
loop_
 _symmetry_equiv_pos_site_id
 _symmetry_equiv_pos_as_xyz
  1  'x, y, z'
loop_
 _atom_site_type_symbol
 _atom_site_label
 _atom_site_symmetry_multiplicity
 _atom_site_fract_x
 _atom_site_fract_y
 _atom_site_fract_z
 _atom_site_occupancy
  H  H0  1  0.11455536  0.37712433  0.32176550  1
  H  H1  1  0.38544464  0.87712433  0.82176550  1
  H  H2  1  0.88544464  0.62287567  0.67823450  1
  H  H3  1  0.61455536  0.12287567  0.17823450  1
  H  H4  1  0.10132669  0.32471022  0.67265031  1
  H  H5  1  0.39867331  0.82471022  0.17265031  1
  H  H6  1  0.89867331  0.67528978  0.32734969  1
  H  H7  1  0.60132669  0.17528978  0.82734969  1
  H  H8  1  0.91263053  0.14505803  0.56763928  1
  H  H9  1  0.58736947  0.64505803  0.06763928  1
  H  H10  1  0.08736947  0.85494197  0.43236072  1
  H  H11  1  0.41263053  0.35494197  0.93236072  1
  H  H12  1  0.92229596  0.16794433  0.34099248  1
  H  H13  1  0.57770404  0.66794433  0.84099248  1
  H  H14  1  0.07770404  0.83205567  0.65900752  1
  H  H15  1  0.42229596  0.33205567  0.15900752  1
  H  H16  1  0.86832194  0.39000756  0.08383965  1
  H  H17  1  0.63167806  0.89000756  0.58383965  1
  H  H18  1  0.13167806  0.60999244  0.91616035  1
  H  H19  1  0.36832194  0.10999244  0.41616035  1
  H  H20  1  0.17148178  0.07013983  0.09683584  1
  H  H21  1  0.32851822  0.57013983  0.59683584  1
  H  H22  1  0.82851822  0.92986017  0.90316416  1
  H  H23  1  0.67148178  0.42986017  0.40316416  1
  H  H24  1  0.14690777  0.11816535  0.87584431  1
  H  H25  1  0.35309223  0.61816535  0.37584431  1
  H  H26  1  0.85309223  0.88183465  0.12415569  1
  H  H27  1  0.64690777  0.38183465  0.62415569  1
  H  H28  1  0.94954956  0.31927254  0.86583482  1
  H  H29  1  0.55045044  0.81927254  0.36583482  1
  H  H30  1  0.05045044  0.68072746  0.13416518  1
  H  H31  1  0.44954956  0.18072746  0.63416518  1
  C  C32  1  0.07677019  0.31002559  0.57908077  1
  C  C33  1  0.42322981  0.81002559  0.07908077  1
  C  C34  1  0.92322981  0.68997441  0.42091923  1
  C  C35  1  0.57677019  0.18997441  0.92091923  1
  C  C36  1  0.98447595  0.22922691  0.40967090  1
  C  C37  1  0.51552405  0.72922691  0.90967090  1
  C  C38  1  0.01552405  0.77077309  0.59032910  1
  C  C39  1  0.48447595  0.27077309  0.09032910  1
  C  C40  1  0.09936795  0.14802260  0.06452602  1
  C  C41  1  0.40063205  0.64802260  0.56452602  1
  C  C42  1  0.90063205  0.85197740  0.93547398  1
  C  C43  1  0.59936795  0.35197740  0.43547398  1
  C  C44  1  0.98893175  0.27391422  0.94357165  1
  C  C45  1  0.51106825  0.77391422  0.44357165  1
  C  C46  1  0.01106825  0.72608578  0.05642835  1
  C  C47  1  0.48893175  0.22608578  0.55642835  1
  N  N48  1  0.07944263  0.33126758  0.39679055  1
  N  N49  1  0.42055737  0.83126758  0.89679055  1
  N  N50  1  0.92055737  0.66873242  0.60320945  1
  N  N51  1  0.57944263  0.16873242  0.10320945  1
  N  N52  1  0.13921893  0.38318555  0.50133170  1
  N  N53  1  0.36078107  0.88318555  0.00133170  1
  N  N54  1  0.86078107  0.61681445  0.49866830  1
  N  N55  1  0.63921893  0.11681445  0.99866830  1
  N  N56  1  0.98043224  0.21469291  0.52584092  1
  N  N57  1  0.51956776  0.71469291  0.02584092  1
  N  N58  1  0.01956776  0.78530709  0.47415908  1
  N  N59  1  0.48043224  0.28530709  0.97415908  1
  N  N60  1  0.94621272  0.31124661  0.05331550  1
  N  N61  1  0.55378728  0.81124661  0.55331550  1
  N  N62  1  0.05378728  0.68875339  0.94668450  1
  N  N63  1  0.44621272  0.18875339  0.44668450  1
  N  N64  1  0.01403212  0.23374723  0.13101898  1
  N  N65  1  0.48596788  0.73374723  0.63101898  1
  N  N66  1  0.98596788  0.76625277  0.86898102  1
  N  N67  1  0.51403212  0.26625277  0.36898102  1
  N  N68  1  0.08640051  0.16956657  0.94828869  1
  N  N69  1  0.41359949  0.66956657  0.44828869  1
  N  N70  1  0.91359949  0.83043343  0.05171131  1
  N  N71  1  0.58640051  0.33043343  0.55171131  1
  Cl  Cl72  1  0.26326455  0.02836112  0.74601355  1
  Cl  Cl73  1  0.23673545  0.52836112  0.24601355  1
  Cl  Cl74  1  0.73673545  0.97163888  0.25398645  1
  Cl  Cl75  1  0.76326455  0.47163888  0.75398645  1
  Cl  Cl76  1  0.27179044  0.47164435  0.84189793  1
  Cl  Cl77  1  0.22820956  0.97164435  0.34189793  1
  Cl  Cl78  1  0.72820956  0.52835565  0.15810207  1
  Cl  Cl79  1  0.77179044  0.02835565  0.65810207  1
