# generated using pymatgen
data_ZrCoF6
_symmetry_space_group_name_H-M   'P 1'
_cell_length_a   5.73127798
_cell_length_b   5.73127745
_cell_length_c   5.73127757
_cell_angle_alpha   59.25766137
_cell_angle_beta   59.25766446
_cell_angle_gamma   59.25766214
_symmetry_Int_Tables_number   1
_chemical_formula_structural   ZrCoF6
_chemical_formula_sum   'Zr1 Co1 F6'
_cell_volume   130.86810007
_cell_formula_units_Z   1
loop_
 _symmetry_equiv_pos_site_id
 _symmetry_equiv_pos_as_xyz
  1  'x, y, z'
loop_
 _atom_site_type_symbol
 _atom_site_label
 _atom_site_symmetry_multiplicity
 _atom_site_fract_x
 _atom_site_fract_y
 _atom_site_fract_z
 _atom_site_occupancy
  Zr  Zr0  1  0.50000000  0.50000000  0.50000000  1
  Co  Co1  1  0.00000000  0.00000000  0.00000000  1
  F  F2  1  0.69010049  0.25065872  0.80976850  1
  F  F3  1  0.25065872  0.80976850  0.69010049  1
  F  F4  1  0.19023150  0.30989951  0.74934128  1
  F  F5  1  0.74934128  0.19023150  0.30989951  1
  F  F6  1  0.30989951  0.74934128  0.19023150  1
  F  F7  1  0.80976850  0.69010049  0.25065872  1
