# generated using pymatgen
data_MoS2N2Cl5
_symmetry_space_group_name_H-M   'P 1'
_cell_length_a   7.34769578
_cell_length_b   7.68337482
_cell_length_c   10.20051669
_cell_angle_alpha   75.16119602
_cell_angle_beta   81.33174410
_cell_angle_gamma   84.61792151
_symmetry_Int_Tables_number   1
_chemical_formula_structural   MoS2N2Cl5
_chemical_formula_sum   'Mo2 S4 N4 Cl10'
_cell_volume   549.38864440
_cell_formula_units_Z   2
loop_
 _symmetry_equiv_pos_site_id
 _symmetry_equiv_pos_as_xyz
  1  'x, y, z'
loop_
 _atom_site_type_symbol
 _atom_site_label
 _atom_site_symmetry_multiplicity
 _atom_site_fract_x
 _atom_site_fract_y
 _atom_site_fract_z
 _atom_site_occupancy
  Mo  Mo0  1  0.19430695  0.15546213  0.23431677  1
  Mo  Mo1  1  0.80569305  0.84453787  0.76568323  1
  S  S2  1  0.96861046  0.58895653  0.08373166  1
  S  S3  1  0.03138954  0.41104347  0.91626834  1
  S  S4  1  0.39068955  0.80862249  0.44888401  1
  S  S5  1  0.60931045  0.19137751  0.55111599  1
  N  N6  1  0.70167660  0.02725869  0.64886901  1
  N  N7  1  0.06254935  0.38634143  0.07742379  1
  N  N8  1  0.29832340  0.97274131  0.35113099  1
  N  N9  1  0.93745065  0.61365857  0.92257621  1
  Cl  Cl10  1  0.90468627  0.63788242  0.63401856  1
  Cl  Cl11  1  0.51147651  0.64645680  0.32332920  1
  Cl  Cl12  1  0.23689046  0.04070299  0.04106446  1
  Cl  Cl13  1  0.52908238  0.69525237  0.84355668  1
  Cl  Cl14  1  0.76310954  0.95929701  0.95893554  1
  Cl  Cl15  1  0.09531373  0.36211758  0.36598144  1
  Cl  Cl16  1  0.10243656  0.96240602  0.70565621  1
  Cl  Cl17  1  0.48852349  0.35354320  0.67667080  1
  Cl  Cl18  1  0.89756344  0.03759398  0.29434379  1
  Cl  Cl19  1  0.47091762  0.30474763  0.15644332  1
