# generated using pymatgen
data_Na4Sc2(PO4)3
_symmetry_space_group_name_H-M   'P 1'
_cell_length_a   9.30768999
_cell_length_b   9.30769023
_cell_length_c   8.87382447
_cell_angle_alpha   58.36909342
_cell_angle_beta   58.36909266
_cell_angle_gamma   60.00004620
_symmetry_Int_Tables_number   1
_chemical_formula_structural   Na4Sc2(PO4)3
_chemical_formula_sum   'Na8 Sc4 P6 O24'
_cell_volume   529.81228641
_cell_formula_units_Z   2
loop_
 _symmetry_equiv_pos_site_id
 _symmetry_equiv_pos_as_xyz
  1  'x, y, z'
loop_
 _atom_site_type_symbol
 _atom_site_label
 _atom_site_symmetry_multiplicity
 _atom_site_fract_x
 _atom_site_fract_y
 _atom_site_fract_z
 _atom_site_occupancy
  Na  Na0  1  0.11385736  0.25000732  0.74978708  1
  Na  Na1  1  0.61376765  0.38623235  0.25000000  1
  Na  Na2  1  0.38623235  0.61376765  0.75000000  1
  Na  Na3  1  0.74999268  0.88614264  0.75021292  1
  Na  Na4  1  0.25000732  0.11385736  0.24978708  1
  Na  Na5  1  0.50000000  0.00000000  0.50000000  1
  Na  Na6  1  0.88614264  0.74999268  0.25021292  1
  Na  Na7  1  0.00000000  0.50000000  0.00000000  1
  Sc  Sc8  1  0.84407924  0.34405872  0.46777852  1
  Sc  Sc9  1  0.34405872  0.84407924  0.96777852  1
  Sc  Sc10  1  0.65594128  0.15592076  0.03222148  1
  Sc  Sc11  1  0.15592076  0.65594128  0.53222148  1
  P  P12  1  0.44187894  0.24999564  0.74999247  1
  P  P13  1  0.94185498  0.05814502  0.25000000  1
  P  P14  1  0.55812106  0.75000436  0.25000753  1
  P  P15  1  0.75000436  0.55812106  0.75000753  1
  P  P16  1  0.24999564  0.44187894  0.24999247  1
  P  P17  1  0.05814502  0.94185498  0.75000000  1
  O  O18  1  0.91007948  0.57643807  0.74452371  1
  O  O19  1  0.07643720  0.76894591  0.74453647  1
  O  O20  1  0.20375806  0.47061973  0.42948134  1
  O  O21  1  0.23105409  0.92356280  0.75546353  1
  O  O22  1  0.10384241  0.02939884  0.07049619  1
  O  O23  1  0.42356193  0.08992052  0.75547629  1
  O  O24  1  0.47061973  0.20375806  0.92948134  1
  O  O25  1  0.57643807  0.91007948  0.24452371  1
  O  O26  1  0.52938027  0.79624194  0.07051866  1
  O  O27  1  0.76894591  0.07643720  0.24453647  1
  O  O28  1  0.92356280  0.23105409  0.25546353  1
  O  O29  1  0.29630039  0.60381993  0.07049105  1
  O  O30  1  0.39618007  0.70369961  0.42950895  1
  O  O31  1  0.26890326  0.41010919  0.74454793  1
  O  O32  1  0.60381993  0.29630039  0.57049105  1
  O  O33  1  0.02939884  0.10384241  0.57049619  1
  O  O34  1  0.89615759  0.97060116  0.92950381  1
  O  O35  1  0.41010919  0.26890326  0.24454793  1
  O  O36  1  0.08992052  0.42356193  0.25547629  1
  O  O37  1  0.58989081  0.73109674  0.75545207  1
  O  O38  1  0.73109674  0.58989081  0.25545207  1
  O  O39  1  0.79624194  0.52938027  0.57051866  1
  O  O40  1  0.70369961  0.39618007  0.92950895  1
  O  O41  1  0.97060116  0.89615759  0.42950381  1
