# generated using pymatgen
data_ZnGaNO
_symmetry_space_group_name_H-M   'P 1'
_cell_length_a   6.53757131
_cell_length_b   6.53757142
_cell_length_c   10.55413889
_cell_angle_alpha   90.00000000
_cell_angle_beta   90.00000000
_cell_angle_gamma   119.99999948
_symmetry_Int_Tables_number   1
_chemical_formula_structural   ZnGaNO
_chemical_formula_sum   'Zn8 Ga8 N8 O8'
_cell_volume   390.64864712
_cell_formula_units_Z   8
loop_
 _symmetry_equiv_pos_site_id
 _symmetry_equiv_pos_as_xyz
  1  'x, y, z'
loop_
 _atom_site_type_symbol
 _atom_site_label
 _atom_site_symmetry_multiplicity
 _atom_site_fract_x
 _atom_site_fract_y
 _atom_site_fract_z
 _atom_site_occupancy
  Zn  Zn0  1  0.66666700  0.33333300  0.99651076  1
  Zn  Zn1  1  0.82736427  0.65472955  0.73763675  1
  Zn  Zn2  1  0.82736427  0.17263573  0.73763675  1
  Zn  Zn3  1  0.67490677  0.83745288  0.49017600  1
  Zn  Zn4  1  0.34527045  0.17263573  0.73763675  1
  Zn  Zn5  1  0.16254712  0.32509323  0.49017600  1
  Zn  Zn6  1  0.33333300  0.66666700  0.25513081  1
  Zn  Zn7  1  0.16254712  0.83745288  0.49017600  1
  Ga  Ga8  1  0.33333300  0.66666700  0.74921304  1
  Ga  Ga9  1  0.16911610  0.33823121  0.00733830  1
  Ga  Ga10  1  0.66176879  0.83088390  0.00733830  1
  Ga  Ga11  1  0.83941608  0.67883315  0.25618546  1
  Ga  Ga12  1  0.66666700  0.33333300  0.49579121  1
  Ga  Ga13  1  0.32116685  0.16058392  0.25618546  1
  Ga  Ga14  1  0.83941608  0.16058392  0.25618546  1
  Ga  Ga15  1  0.16911610  0.83088390  0.00733830  1
  N  N16  1  0.66666700  0.33333300  0.68199355  1
  N  N17  1  0.82800951  0.17199049  0.43516718  1
  N  N18  1  0.82800951  0.65602002  0.43516718  1
  N  N19  1  0.16296096  0.83703904  0.18646020  1
  N  N20  1  0.34397998  0.17199049  0.43516718  1
  N  N21  1  0.33333300  0.66666700  0.93747468  1
  N  N22  1  0.67407909  0.83703904  0.18646020  1
  N  N23  1  0.16296096  0.32592091  0.18646020  1
  O  O24  1  0.17339692  0.82660308  0.69822193  1
  O  O25  1  0.84088419  0.15911581  0.94389311  1
  O  O26  1  0.33333300  0.66666700  0.44637898  1
  O  O27  1  0.66666700  0.33333300  0.18825418  1
  O  O28  1  0.17339692  0.34679284  0.69822193  1
  O  O29  1  0.31823061  0.15911581  0.94389311  1
  O  O30  1  0.84088419  0.68176939  0.94389311  1
  O  O31  1  0.65320716  0.82660308  0.69822193  1
