# generated using pymatgen
data_Nb9Fe3Ge2
_symmetry_space_group_name_H-M   'P 1'
_cell_length_a   5.04328506
_cell_length_b   9.85072753
_cell_length_c   9.89916274
_cell_angle_alpha   93.73879075
_cell_angle_beta   104.75775939
_cell_angle_gamma   75.16801682
_symmetry_Int_Tables_number   1
_chemical_formula_structural   Nb9Fe3Ge2
_chemical_formula_sum   'Nb18 Fe6 Ge4'
_cell_volume   459.72161824
_cell_formula_units_Z   2
loop_
 _symmetry_equiv_pos_site_id
 _symmetry_equiv_pos_as_xyz
  1  'x, y, z'
loop_
 _atom_site_type_symbol
 _atom_site_label
 _atom_site_symmetry_multiplicity
 _atom_site_fract_x
 _atom_site_fract_y
 _atom_site_fract_z
 _atom_site_occupancy
  Nb  Nb0  1  0.24402422  0.50000000  0.50000000  1
  Nb  Nb1  1  0.75597578  0.50000000  0.50000000  1
  Nb  Nb2  1  0.33082980  0.07803812  0.73969773  1
  Nb  Nb3  1  0.66917020  0.92196188  0.26030227  1
  Nb  Nb4  1  0.83227260  0.25753015  0.92207534  1
  Nb  Nb5  1  0.16772740  0.74246985  0.07792466  1
  Nb  Nb6  1  0.58980275  0.74246985  0.92207534  1
  Nb  Nb7  1  0.41019725  0.25753015  0.07792466  1
  Nb  Nb8  1  0.90886793  0.92196188  0.73969773  1
  Nb  Nb9  1  0.09113207  0.07803812  0.26030227  1
  Nb  Nb10  1  0.43138775  0.77300940  0.63578490  1
  Nb  Nb11  1  0.56861225  0.22699060  0.36421510  1
  Nb  Nb12  1  0.93292040  0.36012618  0.22596697  1
  Nb  Nb13  1  0.06707960  0.63987382  0.77403303  1
  Nb  Nb14  1  0.79304657  0.63987382  0.22596697  1
  Nb  Nb15  1  0.20695343  0.36012618  0.77403303  1
  Nb  Nb16  1  0.70439715  0.22699060  0.63578490  1
  Nb  Nb17  1  0.29560285  0.77300940  0.36421510  1
  Fe  Fe18  1  0.86588427  0.76823146  0.50000000  1
  Fe  Fe19  1  0.13411573  0.23176854  0.50000000  1
  Fe  Fe20  1  0.00000000  -0.00000000  0.50000000  1
  Fe  Fe21  1  0.50000000  -0.00000000  0.50000000  1
  Fe  Fe22  1  0.50000000  0.50000000  0.00000000  1
  Fe  Fe23  1  0.00000000  0.50000000  0.00000000  1
  Ge  Ge24  1  0.50000000  -0.00000000  0.00000000  1
  Ge  Ge25  1  0.00000000  -0.00000000  0.00000000  1
  Ge  Ge26  1  0.36955557  0.50000000  0.23911114  1
  Ge  Ge27  1  0.63044443  0.50000000  0.76088886  1
