# generated using pymatgen
data_Ba21Si2O5
_symmetry_space_group_name_H-M   'P 1'
_cell_length_a   15.04661119
_cell_length_b   15.04661182
_cell_length_c   15.04661195
_cell_angle_alpha   59.99999973
_cell_angle_beta   59.99999834
_cell_angle_gamma   60.00000171
_symmetry_Int_Tables_number   1
_chemical_formula_structural   Ba21Si2O5
_chemical_formula_sum   'Ba42 Si4 O10'
_cell_volume   2408.80219178
_cell_formula_units_Z   2
loop_
 _symmetry_equiv_pos_site_id
 _symmetry_equiv_pos_as_xyz
  1  'x, y, z'
loop_
 _atom_site_type_symbol
 _atom_site_label
 _atom_site_symmetry_multiplicity
 _atom_site_fract_x
 _atom_site_fract_y
 _atom_site_fract_z
 _atom_site_occupancy
  Ba  Ba0  1  0.37500000  0.37500000  0.37500000  1
  Ba  Ba1  1  0.16987145  0.43142247  0.16987145  1
  Ba  Ba2  1  0.16987145  0.72883464  0.16987145  1
  Ba  Ba3  1  0.83012855  0.27116536  0.56857753  1
  Ba  Ba4  1  0.50000000  0.00000000  0.50000000  1
  Ba  Ba5  1  0.00099971  0.74900029  0.00099971  1
  Ba  Ba6  1  0.74900029  0.74900029  0.00099971  1
  Ba  Ba7  1  0.99900029  0.25099971  0.25099971  1
  Ba  Ba8  1  0.72883464  0.16987145  0.16987145  1
  Ba  Ba9  1  0.56857753  0.83012855  0.83012855  1
  Ba  Ba10  1  0.27116536  0.83012855  0.56857753  1
  Ba  Ba11  1  0.99900029  0.25099971  0.99900029  1
  Ba  Ba12  1  0.25099971  0.99900029  0.99900029  1
  Ba  Ba13  1  0.62500000  0.62500000  0.62500000  1
  Ba  Ba14  1  0.99900029  0.99900029  0.25099971  1
  Ba  Ba15  1  0.16987145  0.16987145  0.43142247  1
  Ba  Ba16  1  0.72883464  0.43142247  0.16987145  1
  Ba  Ba17  1  0.83012855  0.56857753  0.27116536  1
  Ba  Ba18  1  0.83012855  0.56857753  0.83012855  1
  Ba  Ba19  1  0.27116536  0.83012855  0.83012855  1
  Ba  Ba20  1  0.00099971  0.00099971  0.74900029  1
  Ba  Ba21  1  0.56857753  0.83012855  0.27116536  1
  Ba  Ba22  1  0.74900029  0.00099971  0.74900029  1
  Ba  Ba23  1  0.56857753  0.27116536  0.83012855  1
  Ba  Ba24  1  0.83012855  0.83012855  0.56857753  1
  Ba  Ba25  1  0.43142247  0.72883464  0.16987145  1
  Ba  Ba26  1  0.16987145  0.72883464  0.43142247  1
  Ba  Ba27  1  0.50000000  0.50000000  0.50000000  1
  Ba  Ba28  1  0.25099971  0.25099971  0.99900029  1
  Ba  Ba29  1  0.74900029  0.00099971  0.00099971  1
  Ba  Ba30  1  0.16987145  0.16987145  0.72883464  1
  Ba  Ba31  1  0.27116536  0.56857753  0.83012855  1
  Ba  Ba32  1  0.83012855  0.83012855  0.27116536  1
  Ba  Ba33  1  0.72883464  0.16987145  0.43142247  1
  Ba  Ba34  1  0.50000000  0.50000000  0.00000000  1
  Ba  Ba35  1  0.83012855  0.27116536  0.83012855  1
  Ba  Ba36  1  0.00099971  0.74900029  0.74900029  1
  Ba  Ba37  1  0.16987145  0.43142247  0.72883464  1
  Ba  Ba38  1  0.43142247  0.16987145  0.16987145  1
  Ba  Ba39  1  0.43142247  0.16987145  0.72883464  1
  Ba  Ba40  1  0.00000000  0.50000000  0.50000000  1
  Ba  Ba41  1  0.25099971  0.99900029  0.25099971  1
  Si  Si42  1  0.50000000  0.00000000  0.00000000  1
  Si  Si43  1  0.00000000  0.50000000  0.00000000  1
  Si  Si44  1  0.00000000  0.00000000  0.50000000  1
  Si  Si45  1  0.00000000  0.00000000  0.00000000  1
  O  O46  1  0.21646781  0.21646781  0.21646781  1
  O  O47  1  0.87500000  0.87500000  0.87500000  1
  O  O48  1  0.78353219  0.14940342  0.78353219  1
  O  O49  1  0.14940342  0.78353219  0.78353219  1
  O  O50  1  0.21646781  0.21646781  0.85059658  1
  O  O51  1  0.12500000  0.12500000  0.12500000  1
  O  O52  1  0.85059658  0.21646781  0.21646781  1
  O  O53  1  0.78353219  0.78353219  0.14940342  1
  O  O54  1  0.21646781  0.85059658  0.21646781  1
  O  O55  1  0.78353219  0.78353219  0.78353219  1
