# generated using pymatgen
data_K2OsNCl5
_symmetry_space_group_name_H-M   'P 1'
_cell_length_a   10.24074755
_cell_length_b   8.33210126
_cell_length_c   8.33210126
_cell_angle_alpha   122.31046983
_cell_angle_beta   90.00000000
_cell_angle_gamma   90.00000000
_symmetry_Int_Tables_number   1
_chemical_formula_structural   K2OsNCl5
_chemical_formula_sum   'K4 Os2 N2 Cl10'
_cell_volume   600.87179552
_cell_formula_units_Z   2
loop_
 _symmetry_equiv_pos_site_id
 _symmetry_equiv_pos_as_xyz
  1  'x, y, z'
loop_
 _atom_site_type_symbol
 _atom_site_label
 _atom_site_symmetry_multiplicity
 _atom_site_fract_x
 _atom_site_fract_y
 _atom_site_fract_z
 _atom_site_occupancy
  K  K0  1  0.38552226  0.71709694  0.28290306  1
  K  K1  1  0.88552226  0.28290306  0.71709694  1
  K  K2  1  0.88874849  0.59109901  0.40890099  1
  K  K3  1  0.38874849  0.40890099  0.59109901  1
  Os  Os4  1  0.52856866  0.15226255  0.84773745  1
  Os  Os5  1  0.02856866  0.84773745  0.15226255  1
  N  N6  1  0.18272967  0.88384017  0.11615983  1
  N  N7  1  0.68272967  0.11615983  0.88384017  1
  Cl  Cl8  1  0.44855559  0.83884713  0.73409549  1
  Cl  Cl9  1  0.44855559  0.26590451  0.16115287  1
  Cl  Cl10  1  0.94855559  0.16115287  0.26590451  1
  Cl  Cl11  1  0.94855559  0.73409549  0.83884713  1
  Cl  Cl12  1  0.06743712  0.93177680  0.47045356  1
  Cl  Cl13  1  0.06743712  0.52954644  0.06822320  1
  Cl  Cl14  1  0.56743712  0.06822320  0.52954644  1
  Cl  Cl15  1  0.56743712  0.47045356  0.93177680  1
  Cl  Cl16  1  0.29644549  0.21475532  0.78524468  1
  Cl  Cl17  1  0.79644549  0.78524468  0.21475532  1
