# generated using pymatgen
data_FeH12C2N2F5
_symmetry_space_group_name_H-M   'P 1'
_cell_length_a   7.99446376
_cell_length_b   9.72084340
_cell_length_c   10.16176159
_cell_angle_alpha   90.00000000
_cell_angle_beta   90.00000000
_cell_angle_gamma   90.00000000
_symmetry_Int_Tables_number   1
_chemical_formula_structural   FeH12C2N2F5
_chemical_formula_sum   'Fe4 H48 C8 N8 F20'
_cell_volume   789.70026994
_cell_formula_units_Z   4
loop_
 _symmetry_equiv_pos_site_id
 _symmetry_equiv_pos_as_xyz
  1  'x, y, z'
loop_
 _atom_site_type_symbol
 _atom_site_label
 _atom_site_symmetry_multiplicity
 _atom_site_fract_x
 _atom_site_fract_y
 _atom_site_fract_z
 _atom_site_occupancy
  Fe  Fe0  1  0.00000000  0.50000000  0.50000000  1
  Fe  Fe1  1  0.50000000  0.50000000  0.50000000  1
  Fe  Fe2  1  0.50000000  0.00000000  0.00000000  1
  Fe  Fe3  1  0.00000000  0.00000000  0.00000000  1
  H  H4  1  0.25000000  0.49771040  0.85073278  1
  H  H5  1  0.86163213  0.42248242  0.83542794  1
  H  H6  1  0.85659717  0.17856692  0.78260019  1
  H  H7  1  0.86157667  0.13236412  0.44112247  1
  H  H8  1  0.75000000  0.50228960  0.14926722  1
  H  H9  1  0.13842333  0.86763588  0.55887753  1
  H  H10  1  0.36163213  0.57751758  0.16457206  1
  H  H11  1  0.85659717  0.67856692  0.71739981  1
  H  H12  1  0.25000000  0.67668116  0.04338123  1
  H  H13  1  0.25000000  0.17668116  0.45661877  1
  H  H14  1  0.63842333  0.13236412  0.44112247  1
  H  H15  1  0.36157667  0.36763588  0.94112247  1
  H  H16  1  0.35479132  0.81554647  0.79625018  1
  H  H17  1  0.75000000  0.77193096  0.83033747  1
  H  H18  1  0.13836787  0.07751758  0.33542794  1
  H  H19  1  0.64520868  0.68445353  0.29625018  1
  H  H20  1  0.75000000  0.32331884  0.95661877  1
  H  H21  1  0.36163213  0.07751758  0.33542794  1
  H  H22  1  0.25000000  0.72806904  0.33033747  1
  H  H23  1  0.25000000  0.19878507  0.79295669  1
  H  H24  1  0.14340283  0.82143308  0.21739981  1
  H  H25  1  0.36157667  0.86763588  0.55887753  1
  H  H26  1  0.35479132  0.31554647  0.70374982  1
  H  H27  1  0.86163213  0.92248242  0.66457206  1
  H  H28  1  0.75000000  0.82331884  0.54338123  1
  H  H29  1  0.35659717  0.32143308  0.28260019  1
  H  H30  1  0.35659717  0.82143308  0.21739981  1
  H  H31  1  0.63836787  0.42248242  0.83542794  1
  H  H32  1  0.25000000  0.69878507  0.70704331  1
  H  H33  1  0.64520868  0.18445353  0.20374982  1
  H  H34  1  0.14520868  0.31554647  0.70374982  1
  H  H35  1  0.25000000  0.22806904  0.16966253  1
  H  H36  1  0.14520868  0.81554647  0.79625018  1
  H  H37  1  0.13842333  0.36763588  0.94112247  1
  H  H38  1  0.64340283  0.17856692  0.78260019  1
  H  H39  1  0.63842333  0.63236412  0.05887753  1
  H  H40  1  0.13836787  0.57751758  0.16457206  1
  H  H41  1  0.63836787  0.92248242  0.66457206  1
  H  H42  1  0.75000000  0.30121493  0.29295669  1
  H  H43  1  0.64340283  0.67856692  0.71739981  1
  H  H44  1  0.85479132  0.18445353  0.20374982  1
  H  H45  1  0.75000000  0.27193096  0.66966253  1
  H  H46  1  0.75000000  0.80121493  0.20704331  1
  H  H47  1  0.75000000  0.00228960  0.35073278  1
  H  H48  1  0.25000000  0.99771040  0.64926722  1
  H  H49  1  0.86157667  0.63236412  0.05887753  1
  H  H50  1  0.85479132  0.68445353  0.29625018  1
  H  H51  1  0.14340283  0.32143308  0.28260019  1
  C  C52  1  0.25000000  0.39029622  0.88237497  1
  C  C53  1  0.25000000  0.63951607  0.14489418  1
  C  C54  1  0.75000000  0.60970378  0.11762503  1
  C  C55  1  0.75000000  0.10970378  0.38237497  1
  C  C56  1  0.75000000  0.86048393  0.64489418  1
  C  C57  1  0.75000000  0.36048393  0.85510582  1
  C  C58  1  0.25000000  0.89029622  0.61762503  1
  C  C59  1  0.25000000  0.13951607  0.35510582  1
  N  N60  1  0.25000000  0.80046003  0.73564798  1
  N  N61  1  0.75000000  0.19953997  0.26435202  1
  N  N62  1  0.75000000  0.23933472  0.76592117  1
  N  N63  1  0.75000000  0.69953997  0.23564798  1
  N  N64  1  0.25000000  0.26066528  0.26592117  1
  N  N65  1  0.75000000  0.73933472  0.73407883  1
  N  N66  1  0.25000000  0.76066528  0.23407883  1
  N  N67  1  0.25000000  0.30046003  0.76435202  1
  F  F68  1  0.49508324  0.31877489  0.58085688  1
  F  F69  1  0.75000000  0.00407835  0.97762344  1
  F  F70  1  0.52314871  0.41718452  0.32592588  1
  F  F71  1  0.75000000  0.50407835  0.52237656  1
  F  F72  1  0.99508324  0.18122511  0.08085688  1
  F  F73  1  0.25000000  0.99592165  0.02237656  1
  F  F74  1  0.50491676  0.18122511  0.08085688  1
  F  F75  1  0.99508324  0.68122511  0.41914312  1
  F  F76  1  0.02314871  0.08281548  0.82592588  1
  F  F77  1  0.02314871  0.58281548  0.67407412  1
  F  F78  1  0.97685129  0.91718452  0.17407412  1
  F  F79  1  0.50491676  0.68122511  0.41914312  1
  F  F80  1  0.00491676  0.81877489  0.91914312  1
  F  F81  1  0.47685129  0.58281548  0.67407412  1
  F  F82  1  0.49508324  0.81877489  0.91914312  1
  F  F83  1  0.97685129  0.41718452  0.32592588  1
  F  F84  1  0.47685129  0.08281548  0.82592588  1
  F  F85  1  0.52314871  0.91718452  0.17407412  1
  F  F86  1  0.25000000  0.49592165  0.47762344  1
  F  F87  1  0.00491676  0.31877489  0.58085688  1
