# generated using pymatgen
data_NaCaVO4
_symmetry_space_group_name_H-M   'P 1'
_cell_length_a   5.64827878
_cell_length_b   5.64827799
_cell_length_c   7.11104298
_cell_angle_alpha   90.00000000
_cell_angle_beta   90.00000000
_cell_angle_gamma   114.47770729
_symmetry_Int_Tables_number   1
_chemical_formula_structural   NaCaVO4
_chemical_formula_sum   'Na2 Ca2 V2 O8'
_cell_volume   206.47399769
_cell_formula_units_Z   2
loop_
 _symmetry_equiv_pos_site_id
 _symmetry_equiv_pos_as_xyz
  1  'x, y, z'
loop_
 _atom_site_type_symbol
 _atom_site_label
 _atom_site_symmetry_multiplicity
 _atom_site_fract_x
 _atom_site_fract_y
 _atom_site_fract_z
 _atom_site_occupancy
  Na  Na0  1  0.50000000  0.50000000  0.00000000  1
  Na  Na1  1  0.50000000  0.50000000  0.50000000  1
  Ca  Ca2  1  0.82722630  0.17277370  0.25000000  1
  Ca  Ca3  1  0.17277370  0.82722630  0.75000000  1
  V  V4  1  0.14749386  0.85250614  0.25000000  1
  V  V5  1  0.85250614  0.14749386  0.75000000  1
  O  O6  1  0.25543367  0.19102621  0.25000000  1
  O  O7  1  0.25320609  0.74679391  0.05086610  1
  O  O8  1  0.80897379  0.74456633  0.25000000  1
  O  O9  1  0.74679391  0.25320609  0.55086610  1
  O  O10  1  0.19102621  0.25543367  0.75000000  1
  O  O11  1  0.25320609  0.74679391  0.44913390  1
  O  O12  1  0.74679391  0.25320609  0.94913390  1
  O  O13  1  0.74456633  0.80897379  0.75000000  1
