# generated using pymatgen
data_SbCNCl6
_symmetry_space_group_name_H-M   'P 1'
_cell_length_a   8.08289581
_cell_length_b   10.12700901
_cell_length_c   13.40851037
_cell_angle_alpha   90.00000000
_cell_angle_beta   90.00000000
_cell_angle_gamma   90.00000000
_symmetry_Int_Tables_number   1
_chemical_formula_structural   SbCNCl6
_chemical_formula_sum   'Sb4 C4 N4 Cl24'
_cell_volume   1097.56110760
_cell_formula_units_Z   4
loop_
 _symmetry_equiv_pos_site_id
 _symmetry_equiv_pos_as_xyz
  1  'x, y, z'
loop_
 _atom_site_type_symbol
 _atom_site_label
 _atom_site_symmetry_multiplicity
 _atom_site_fract_x
 _atom_site_fract_y
 _atom_site_fract_z
 _atom_site_occupancy
  Sb  Sb0  1  0.79130639  0.25000000  0.41692753  1
  Sb  Sb1  1  0.29130639  0.75000000  0.08307247  1
  Sb  Sb2  1  0.20869361  0.75000000  0.58307247  1
  Sb  Sb3  1  0.70869361  0.25000000  0.91692753  1
  C  C4  1  0.65538459  0.75000000  0.94479837  1
  C  C5  1  0.15538459  0.25000000  0.55520163  1
  C  C6  1  0.34461541  0.25000000  0.05520163  1
  C  C7  1  0.84461541  0.75000000  0.44479837  1
  N  N8  1  0.46032220  0.25000000  0.00333693  1
  N  N9  1  0.03967780  0.25000000  0.50333693  1
  N  N10  1  0.53967780  0.75000000  0.99666307  1
  N  N11  1  0.96032220  0.75000000  0.49666307  1
  Cl  Cl12  1  0.71476420  0.41537664  0.53375463  1
  Cl  Cl13  1  0.46596811  0.75000000  0.66767265  1
  Cl  Cl14  1  0.08271065  0.58515237  0.68442365  1
  Cl  Cl15  1  0.03403189  0.75000000  0.16767265  1
  Cl  Cl16  1  0.31397128  0.25000000  0.62593031  1
  Cl  Cl17  1  0.96596811  0.25000000  0.83232735  1
  Cl  Cl18  1  0.81397128  0.75000000  0.87406969  1
  Cl  Cl19  1  0.08271065  0.91484763  0.68442365  1
  Cl  Cl20  1  0.28523580  0.58462336  0.46624537  1
  Cl  Cl21  1  0.21476420  0.91537664  0.96624537  1
  Cl  Cl22  1  0.91728935  0.08515237  0.31557635  1
  Cl  Cl23  1  0.21476420  0.58462336  0.96624537  1
  Cl  Cl24  1  0.53403189  0.25000000  0.33232735  1
  Cl  Cl25  1  0.71476420  0.08462336  0.53375463  1
  Cl  Cl26  1  0.91728935  0.41484763  0.31557635  1
  Cl  Cl27  1  0.68602872  0.75000000  0.37406969  1
  Cl  Cl28  1  0.28523580  0.91537664  0.46624537  1
  Cl  Cl29  1  0.18602872  0.25000000  0.12593031  1
  Cl  Cl30  1  0.58271065  0.41484763  0.81557635  1
  Cl  Cl31  1  0.41728935  0.91484763  0.18442365  1
  Cl  Cl32  1  0.58271065  0.08515237  0.81557635  1
  Cl  Cl33  1  0.78523580  0.41537664  0.03375463  1
  Cl  Cl34  1  0.78523580  0.08462336  0.03375463  1
  Cl  Cl35  1  0.41728935  0.58515237  0.18442365  1
