# generated using pymatgen
data_Li2Mn2NiO6
_symmetry_space_group_name_H-M   'P 1'
_cell_length_a   5.05432642
_cell_length_b   5.05928919
_cell_length_c   10.26145161
_cell_angle_alpha   90.00000000
_cell_angle_beta   90.00000000
_cell_angle_gamma   119.96756359
_symmetry_Int_Tables_number   1
_chemical_formula_structural   Li2Mn2NiO6
_chemical_formula_sum   'Li4 Mn4 Ni2 O12'
_cell_volume   227.31813285
_cell_formula_units_Z   2
loop_
 _symmetry_equiv_pos_site_id
 _symmetry_equiv_pos_as_xyz
  1  'x, y, z'
loop_
 _atom_site_type_symbol
 _atom_site_label
 _atom_site_symmetry_multiplicity
 _atom_site_fract_x
 _atom_site_fract_y
 _atom_site_fract_z
 _atom_site_occupancy
  Li  Li0  1  0.17006833  0.50000000  0.25000000  1
  Li  Li1  1  0.82993167  0.50000000  0.75000000  1
  Li  Li2  1  0.32993167  0.50000000  0.75000000  1
  Li  Li3  1  0.67006833  0.50000000  0.25000000  1
  Mn  Mn4  1  0.16312509  0.32625018  0.50000000  1
  Mn  Mn5  1  0.83687491  0.67374982  0.50000000  1
  Mn  Mn6  1  0.66312509  0.32625018  0.00000000  1
  Mn  Mn7  1  0.33687491  0.67374982  0.00000000  1
  Ni  Ni8  1  0.50000000  0.00000000  0.50000000  1
  Ni  Ni9  1  0.00000000  0.00000000  0.00000000  1
  O  O10  1  0.14861245  0.00000000  0.40010505  1
  O  O11  1  0.64861245  0.00000000  0.09989495  1
  O  O12  1  0.50295319  0.36108889  0.60506303  1
  O  O13  1  0.85813571  0.36108889  0.39493697  1
  O  O14  1  0.64186429  0.63891111  0.89493697  1
  O  O15  1  0.35813571  0.36108889  0.10506303  1
  O  O16  1  0.85138755  1.00000000  0.59989495  1
  O  O17  1  0.35138755  1.00000000  0.90010505  1
  O  O18  1  0.00295319  0.36108889  0.89493697  1
  O  O19  1  0.99704681  0.63891111  0.10506303  1
  O  O20  1  0.49704681  0.63891111  0.39493697  1
  O  O21  1  0.14186429  0.63891111  0.60506303  1
