# generated using pymatgen
data_H32RuC8N4Cl7
_symmetry_space_group_name_H-M   'P 1'
_cell_length_a   8.84993162
_cell_length_b   10.26951416
_cell_length_c   12.93175536
_cell_angle_alpha   89.99164674
_cell_angle_beta   90.01805910
_cell_angle_gamma   90.00097529
_symmetry_Int_Tables_number   1
_chemical_formula_structural   H32RuC8N4Cl7
_chemical_formula_sum   'H64 Ru2 C16 N8 Cl14'
_cell_volume   1175.29602354
_cell_formula_units_Z   2
loop_
 _symmetry_equiv_pos_site_id
 _symmetry_equiv_pos_as_xyz
  1  'x, y, z'
loop_
 _atom_site_type_symbol
 _atom_site_label
 _atom_site_symmetry_multiplicity
 _atom_site_fract_x
 _atom_site_fract_y
 _atom_site_fract_z
 _atom_site_occupancy
  H  H0  1  0.39885174  0.52997610  0.84089299  1
  H  H1  1  0.51955309  0.26072886  0.83992929  1
  H  H2  1  0.29196199  0.61686208  0.17275491  1
  H  H3  1  0.90112132  0.65269598  0.51653155  1
  H  H4  1  0.52521181  0.36316219  0.73961499  1
  H  H5  1  0.90105743  0.34731591  0.48344476  1
  H  H6  1  0.60983944  0.91340814  0.55461269  1
  H  H7  1  0.95257782  0.16256227  0.25197615  1
  H  H8  1  0.67833287  0.48274472  0.16084531  1
  H  H9  1  0.32167765  0.01723094  0.66079212  1
  H  H10  1  0.70804045  0.88312641  0.67279366  1
  H  H11  1  0.16410109  0.80188241  0.27217276  1
  H  H12  1  0.10892391  0.92659647  0.89349276  1
  H  H13  1  0.19421921  0.23023520  0.08835125  1
  H  H14  1  0.51948136  0.73926747  0.16008333  1
  H  H15  1  0.04761910  0.17661102  0.55947333  1
  H  H16  1  0.80576608  0.26977595  0.58832095  1
  H  H17  1  0.09887052  0.15272670  0.98348440  1
  H  H18  1  0.09889918  0.84727528  0.01652574  1
  H  H19  1  0.39017384  0.41338745  0.94539995  1
  H  H20  1  0.48044742  0.23930656  0.33988647  1
  H  H21  1  0.70803627  0.11685397  0.32722976  1
  H  H22  1  0.04748414  0.33741534  0.75195318  1
  H  H23  1  0.23221570  0.13938625  0.32650026  1
  H  H24  1  0.16413834  0.19807946  0.72789549  1
  H  H25  1  0.95237775  0.67666098  0.94054829  1
  H  H26  1  0.13608133  0.67761846  0.42636465  1
  H  H27  1  0.23223001  0.86063395  0.67348641  1
  Ru  Ru28  1  0.41953210  0.49999130  0.49999818  1
  H  H29  1  0.89107922  0.57341088  0.39351963  1
  H  H30  1  0.89103775  0.42659827  0.60645191  1
  H  H31  1  0.39888746  0.47002911  0.15910858  1
  H  H32  1  0.13609390  0.32232879  0.57365614  1
  H  H33  1  0.76777585  0.63934927  0.17350458  1
  H  H34  1  0.67827983  0.51723321  0.83916270  1
  H  H35  1  0.60992059  0.08657794  0.44540991  1
  H  H36  1  0.86387586  0.17766006  0.07367082  1
  H  H37  1  0.32466351  0.90172596  0.55593997  1
  H  H38  1  0.76777669  0.36063355  0.82653467  1
  H  H39  1  0.95252814  0.83743842  0.74798815  1
  H  H40  1  0.80578466  0.73024689  0.41163512  1
  H  H41  1  0.67525764  0.59830074  0.05596028  1
  H  H42  1  0.83590544  0.30188442  0.22782653  1
  H  H43  1  0.60107925  0.02995410  0.65908816  1
  H  H44  1  0.10896830  0.07340727  0.10651452  1
  H  H45  1  0.96259561  0.17991563  0.73477466  1
  H  H46  1  0.52524329  0.63682427  0.26038968  1
  H  H47  1  0.67532974  0.40169530  0.94405983  1
  H  H48  1  0.47482995  0.86306621  0.76040209  1
  H  H49  1  0.83588743  0.69812725  0.77212723  1
  H  H50  1  0.86390660  0.82239528  0.92628180  1
  H  H51  1  0.04761794  0.82335553  0.44054085  1
  H  H52  1  0.32173317  0.98277969  0.33919242  1
  H  H53  1  0.32474848  0.09829715  0.44404466  1
  H  H54  1  0.19421522  0.76976154  0.91167456  1
  H  H55  1  0.03746078  0.32005933  0.23474776  1
  H  H56  1  0.47474702  0.13691146  0.23959528  1
  H  H57  1  0.48052805  0.76069469  0.66009537  1
  H  H58  1  0.39010008  0.58660965  0.05459745  1
  H  H59  1  0.04746599  0.66256381  0.24805467  1
  H  H60  1  0.03744306  0.67994782  0.76527485  1
  H  H61  1  0.29196407  0.38314988  0.82722648  1
  H  H62  1  0.60114522  0.97003618  0.34093350  1
  Ru  Ru63  1  0.58040956  1.00000209  1.00000096  1
  H  H64  1  0.95235260  0.32338154  0.05944498  1
  H  H65  1  0.96254891  0.82006624  0.26521972  1
  C  C66  1  0.90082201  0.66735418  0.43279781  1
  C  C67  1  0.94477440  0.74419391  0.78894602  1
  C  C68  1  0.05526157  0.24416490  0.71104585  1
  C  C69  1  0.67297081  0.58587361  0.13992945  1
  C  C70  1  0.09918075  0.83265522  0.93279473  1
  C  C71  1  0.60727971  0.92672182  0.63848278  1
  C  C72  1  0.39269705  0.57325796  0.13846960  1
  C  C73  1  0.39273175  0.42674079  0.86153060  1
  C  C74  1  0.60728631  0.07327461  0.36153435  1
  C  C75  1  0.32703098  0.91411525  0.63990891  1
  C  C76  1  0.05520920  0.75581831  0.28896793  1
  C  C77  1  0.90081953  0.33265948  0.56717246  1
  C  C78  1  0.09915803  0.16735394  0.06721414  1
  C  C79  1  0.67298939  0.41412940  0.86008905  1
  C  C80  1  0.94478779  0.25581299  0.21103342  1
  C  C81  1  0.32703229  0.08589766  0.36007323  1
  N  N82  1  0.95591874  0.76785222  0.90199319  1
  N  N83  1  0.04405095  0.26780881  0.59799179  1
  N  N84  1  0.04407214  0.73216063  0.40201950  1
  N  N85  1  0.47123359  0.14082505  0.32017652  1
  N  N86  1  0.52876329  0.64078042  0.17981660  1
  N  N87  1  0.47125438  0.85916990  0.67982154  1
  N  N88  1  0.52875838  0.35920719  0.82019463  1
  N  N89  1  0.95592649  0.23217643  0.09798737  1
  Cl  Cl90  1  0.60577504  0.42458972  0.38012674  1
  Cl  Cl91  1  0.22491953  0.57400641  0.61429366  1
  Cl  Cl92  1  0.39412690  0.07546911  0.88008598  1
  Cl  Cl93  1  0.60586817  0.57544088  0.61991304  1
  Cl  Cl94  1  0.77505398  0.07403150  0.88565885  1
  Cl  Cl95  1  0.57515752  0.79014993  0.91568731  1
  Cl  Cl96  1  0.57515479  0.20982364  0.08431563  1
  Cl  Cl97  1  0.01158439  0.49999547  0.00001024  1
  Cl  Cl98  1  0.98846349  0.00001791  0.49999364  1
  Cl  Cl99  1  0.42482451  0.29016621  0.58432282  1
  Cl  Cl100  1  0.77516778  0.92593645  0.11435670  1
  Cl  Cl101  1  0.42484422  0.70986229  0.41566783  1
  Cl  Cl102  1  0.22478913  0.42598512  0.38565586  1
  Cl  Cl103  1  0.39425117  0.92458344  0.11991417  1
