# generated using pymatgen
data_K
_symmetry_space_group_name_H-M   'P 1'
_cell_length_a   4.41641174
_cell_length_b   4.41289371
_cell_length_c   8.49300332
_cell_angle_alpha   104.56765265
_cell_angle_beta   105.78381873
_cell_angle_gamma   89.71479642
_symmetry_Int_Tables_number   1
_chemical_formula_structural   K
_chemical_formula_sum   K2
_cell_volume   153.80176571
_cell_formula_units_Z   2
loop_
 _symmetry_equiv_pos_site_id
 _symmetry_equiv_pos_as_xyz
  1  'x, y, z'
loop_
 _atom_site_type_symbol
 _atom_site_label
 _atom_site_symmetry_multiplicity
 _atom_site_fract_x
 _atom_site_fract_y
 _atom_site_fract_z
 _atom_site_occupancy
  K  K0  1  0.12326450  0.36381679  0.75612421  1
  K  K1  1  0.88806650  0.62112421  0.25605279  1
