# generated using pymatgen
data_Hg2H12C4I5N
_symmetry_space_group_name_H-M   'P 1'
_cell_length_a   14.26063338
_cell_length_b   14.78457096
_cell_length_c   18.57608113
_cell_angle_alpha   90.00000000
_cell_angle_beta   90.00000000
_cell_angle_gamma   90.00000000
_symmetry_Int_Tables_number   1
_chemical_formula_structural   Hg2H12C4I5N
_chemical_formula_sum   'Hg16 H96 C32 I40 N8'
_cell_volume   3916.53164715
_cell_formula_units_Z   8
loop_
 _symmetry_equiv_pos_site_id
 _symmetry_equiv_pos_as_xyz
  1  'x, y, z'
loop_
 _atom_site_type_symbol
 _atom_site_label
 _atom_site_symmetry_multiplicity
 _atom_site_fract_x
 _atom_site_fract_y
 _atom_site_fract_z
 _atom_site_occupancy
  Hg  Hg0  1  0.21920823  0.71152430  0.88508056  1
  Hg  Hg1  1  0.21920823  0.21152430  0.61491944  1
  Hg  Hg2  1  0.71920823  0.78847570  0.88508056  1
  Hg  Hg3  1  0.92411483  0.09993635  0.54627213  1
  Hg  Hg4  1  0.71920823  0.28847570  0.61491944  1
  Hg  Hg5  1  0.28079177  0.71152430  0.38508056  1
  Hg  Hg6  1  0.92411483  0.59993635  0.95372787  1
  Hg  Hg7  1  0.57588517  0.09993635  0.04627213  1
  Hg  Hg8  1  0.28079177  0.21152430  0.11491944  1
  Hg  Hg9  1  0.42411483  0.40006365  0.54627213  1
  Hg  Hg10  1  0.78079177  0.28847570  0.11491944  1
  Hg  Hg11  1  0.57588517  0.59993635  0.45372787  1
  Hg  Hg12  1  0.42411483  0.90006365  0.95372787  1
  Hg  Hg13  1  0.07588517  0.90006365  0.45372787  1
  Hg  Hg14  1  0.78079177  0.78847570  0.38508056  1
  Hg  Hg15  1  0.07588517  0.40006365  0.04627213  1
  H  H16  1  0.45563322  0.04218731  0.29926522  1
  H  H17  1  0.20427380  0.35377661  0.39013047  1
  H  H18  1  0.55928824  0.05894596  0.24592937  1
  H  H19  1  0.45563322  0.54218731  0.20073478  1
  H  H20  1  0.00983973  0.07650898  0.95250511  1
  H  H21  1  0.19889866  0.88023193  0.20425903  1
  H  H22  1  0.04345317  0.78430780  0.19833939  1
  H  H23  1  0.70427380  0.64622339  0.10986953  1
  H  H24  1  0.94700793  0.46489004  0.69343938  1
  H  H25  1  0.80110134  0.61976807  0.70425903  1
  H  H26  1  0.95563322  0.95781269  0.20073478  1
  H  H27  1  0.05071362  0.52375928  0.42233982  1
  H  H28  1  0.99016027  0.42349102  0.45250511  1
  H  H29  1  0.56787448  0.72787396  0.10397471  1
  H  H30  1  0.29572620  0.85377661  0.60986953  1
  H  H31  1  0.06787448  0.27212604  0.39602529  1
  H  H32  1  0.30110134  0.88023193  0.70425903  1
  H  H33  1  0.56787448  0.22787396  0.39602529  1
  H  H34  1  0.94928638  0.47624072  0.57766018  1
  H  H35  1  0.20803831  0.46951040  0.36110025  1
  H  H36  1  0.05928824  0.44105404  0.24592937  1
  H  H37  1  0.70427380  0.14622339  0.39013047  1
  H  H38  1  0.94071176  0.05894596  0.74592937  1
  H  H39  1  0.95748335  0.31815970  0.36697448  1
  H  H40  1  0.54436678  0.95781269  0.70073478  1
  H  H41  1  0.54251665  0.31815970  0.86697448  1
  H  H42  1  0.54436678  0.45781269  0.79926522  1
  H  H43  1  0.44071176  0.94105404  0.75407063  1
  H  H44  1  0.44700793  0.03510996  0.69343938  1
  H  H45  1  0.20427380  0.85377661  0.10986953  1
  H  H46  1  0.69889866  0.11976807  0.29574097  1
  H  H47  1  0.50983973  0.92349102  0.54749489  1
  H  H48  1  0.79572620  0.14622339  0.89013047  1
  H  H49  1  0.80110134  0.11976807  0.79574097  1
  H  H50  1  0.45654683  0.28430780  0.80166061  1
  H  H51  1  0.43212552  0.27212604  0.89602529  1
  H  H52  1  0.45748335  0.18184030  0.36697448  1
  H  H53  1  0.45748335  0.68184030  0.13302552  1
  H  H54  1  0.45654683  0.78430780  0.69833939  1
  H  H55  1  0.69889866  0.61976807  0.20425903  1
  H  H56  1  0.94700793  0.96489004  0.80656062  1
  H  H57  1  0.49016027  0.07650898  0.45250511  1
  H  H58  1  0.30110134  0.38023193  0.79574097  1
  H  H59  1  0.29572620  0.35377661  0.89013047  1
  H  H60  1  0.04345317  0.28430780  0.30166061  1
  H  H61  1  0.44928638  0.02375928  0.57766018  1
  H  H62  1  0.61423668  0.06514180  0.46550415  1
  H  H63  1  0.19889866  0.38023193  0.29574097  1
  H  H64  1  0.55071362  0.47624072  0.07766018  1
  H  H65  1  0.95563322  0.45781269  0.29926522  1
  H  H66  1  0.43212552  0.77212604  0.60397471  1
  H  H67  1  0.11423668  0.93485820  0.03449585  1
  H  H68  1  0.94071176  0.55894596  0.75407063  1
  H  H69  1  0.05071362  0.02375928  0.07766018  1
  H  H70  1  0.49016027  0.57650898  0.04749489  1
  H  H71  1  0.79196169  0.03048960  0.86110025  1
  H  H72  1  0.95654683  0.71569220  0.69833939  1
  H  H73  1  0.44071176  0.44105404  0.74592937  1
  H  H74  1  0.04436678  0.54218731  0.70073478  1
  H  H75  1  0.04436678  0.04218731  0.79926522  1
  H  H76  1  0.38576332  0.43485820  0.96550415  1
  H  H77  1  0.61423668  0.56514180  0.03449585  1
  H  H78  1  0.54251665  0.81815970  0.63302552  1
  H  H79  1  0.29196169  0.46951040  0.86110025  1
  H  H80  1  0.05928824  0.94105404  0.25407063  1
  H  H81  1  0.55928824  0.55894596  0.25407063  1
  H  H82  1  0.55299207  0.46489004  0.19343938  1
  H  H83  1  0.93212552  0.72787396  0.60397471  1
  H  H84  1  0.11423668  0.43485820  0.46550415  1
  H  H85  1  0.54345317  0.21569220  0.30166061  1
  H  H86  1  0.79196169  0.53048960  0.63889975  1
  H  H87  1  0.50983973  0.42349102  0.95250511  1
  H  H88  1  0.99016027  0.92349102  0.04749489  1
  H  H89  1  0.04251665  0.18184030  0.86697448  1
  H  H90  1  0.70803831  0.53048960  0.13889975  1
  H  H91  1  0.94928638  0.97624072  0.92233982  1
  H  H92  1  0.05299207  0.03510996  0.19343938  1
  H  H93  1  0.79572620  0.64622339  0.60986953  1
  H  H94  1  0.29196169  0.96951040  0.63889975  1
  H  H95  1  0.20803831  0.96951040  0.13889975  1
  H  H96  1  0.06787448  0.77212604  0.10397471  1
  H  H97  1  0.38576332  0.93485820  0.53449585  1
  H  H98  1  0.55071362  0.97624072  0.42233982  1
  H  H99  1  0.95654683  0.21569220  0.80166061  1
  H  H100  1  0.44700793  0.53510996  0.80656062  1
  H  H101  1  0.00983973  0.57650898  0.54749489  1
  H  H102  1  0.54345317  0.71569220  0.19833939  1
  H  H103  1  0.05299207  0.53510996  0.30656062  1
  H  H104  1  0.70803831  0.03048960  0.36110025  1
  H  H105  1  0.88576332  0.56514180  0.53449585  1
  H  H106  1  0.95748335  0.81815970  0.13302552  1
  H  H107  1  0.04251665  0.68184030  0.63302552  1
  H  H108  1  0.44928638  0.52375928  0.92233982  1
  H  H109  1  0.55299207  0.96489004  0.30656062  1
  H  H110  1  0.93212552  0.22787396  0.89602529  1
  H  H111  1  0.88576332  0.06514180  0.96550415  1
  C  C112  1  0.05528482  0.95055681  0.07022519  1
  C  C113  1  0.17929971  0.40239562  0.35005030  1
  C  C114  1  0.67929971  0.59760438  0.14994970  1
  C  C115  1  0.05528482  0.45055681  0.42977481  1
  C  C116  1  0.53216265  0.53553503  0.20179135  1
  C  C117  1  0.96742722  0.18642169  0.85522762  1
  C  C118  1  0.46742722  0.81357831  0.64477238  1
  C  C119  1  0.32070029  0.90239562  0.64994970  1
  C  C120  1  0.53257278  0.18642169  0.35522762  1
  C  C121  1  0.53216265  0.03553503  0.29820865  1
  C  C122  1  0.82070029  0.09760438  0.85005030  1
  C  C123  1  0.55528482  0.04944319  0.42977481  1
  C  C124  1  0.53257278  0.68642169  0.14477238  1
  C  C125  1  0.44471518  0.95055681  0.57022519  1
  C  C126  1  0.03216265  0.96446497  0.20179135  1
  C  C127  1  0.55528482  0.54944319  0.07022519  1
  C  C128  1  0.46783735  0.46446497  0.79820865  1
  C  C129  1  0.03257278  0.31357831  0.35522762  1
  C  C130  1  0.17929971  0.90239562  0.14994970  1
  C  C131  1  0.94471518  0.04944319  0.92977481  1
  C  C132  1  0.67929971  0.09760438  0.35005030  1
  C  C133  1  0.96783735  0.53553503  0.70179135  1
  C  C134  1  0.46742722  0.31357831  0.85522762  1
  C  C135  1  0.94471518  0.54944319  0.57022519  1
  C  C136  1  0.82070029  0.59760438  0.64994970  1
  C  C137  1  0.03216265  0.46446497  0.29820865  1
  C  C138  1  0.96742722  0.68642169  0.64477238  1
  C  C139  1  0.96783735  0.03553503  0.79820865  1
  C  C140  1  0.44471518  0.45055681  0.92977481  1
  C  C141  1  0.46783735  0.96446497  0.70179135  1
  C  C142  1  0.32070029  0.40239562  0.85005030  1
  C  C143  1  0.03257278  0.81357831  0.14477238  1
  I  I144  1  0.74850883  0.08273090  0.61592440  1
  I  I145  1  0.25631910  0.17014626  0.47481986  1
  I  I146  1  0.25445466  0.14906775  0.25098685  1
  I  I147  1  0.50460528  0.74453992  0.88999008  1
  I  I148  1  0.24554534  0.64906775  0.74901315  1
  I  I149  1  0.25631910  0.67014626  0.02518014  1
  I  I150  1  0.25149117  0.91726910  0.38407560  1
  I  I151  1  0.74368090  0.32985374  0.97481986  1
  I  I152  1  0.75149117  0.08273090  0.11592440  1
  I  I153  1  0.55083291  0.55483529  0.59956186  1
  I  I154  1  0.24554534  0.14906775  0.75098685  1
  I  I155  1  0.25445466  0.64906775  0.24901315  1
  I  I156  1  0.00460528  0.75546008  0.88999008  1
  I  I157  1  0.50460528  0.24453992  0.61000992  1
  I  I158  1  0.05083291  0.94516471  0.59956186  1
  I  I159  1  0.94916709  0.55483529  0.09956186  1
  I  I160  1  0.44916709  0.94516471  0.09956186  1
  I  I161  1  0.94916709  0.05483529  0.40043814  1
  I  I162  1  0.25149117  0.41726910  0.11592440  1
  I  I163  1  0.55083291  0.05483529  0.90043814  1
  I  I164  1  0.44916709  0.44516471  0.40043814  1
  I  I165  1  0.99539472  0.24453992  0.11000992  1
  I  I166  1  0.75631910  0.82985374  0.02518014  1
  I  I167  1  0.99539472  0.74453992  0.38999008  1
  I  I168  1  0.24368090  0.17014626  0.97481986  1
  I  I169  1  0.74554534  0.35093225  0.75098685  1
  I  I170  1  0.05083291  0.44516471  0.90043814  1
  I  I171  1  0.24368090  0.67014626  0.52518014  1
  I  I172  1  0.75445466  0.85093225  0.24901315  1
  I  I173  1  0.24850883  0.91726910  0.88407560  1
  I  I174  1  0.49539472  0.75546008  0.38999008  1
  I  I175  1  0.24850883  0.41726910  0.61592440  1
  I  I176  1  0.75445466  0.35093225  0.25098685  1
  I  I177  1  0.74368090  0.82985374  0.52518014  1
  I  I178  1  0.49539472  0.25546008  0.11000992  1
  I  I179  1  0.00460528  0.25546008  0.61000992  1
  I  I180  1  0.74850883  0.58273090  0.88407560  1
  I  I181  1  0.75631910  0.32985374  0.47481986  1
  I  I182  1  0.75149117  0.58273090  0.38407560  1
  I  I183  1  0.74554534  0.85093225  0.74901315  1
  N  N184  1  0.57416531  0.59271324  0.14265140  1
  N  N185  1  0.07416531  0.40728676  0.35734860  1
  N  N186  1  0.42583469  0.40728676  0.85734860  1
  N  N187  1  0.92583469  0.09271324  0.85734860  1
  N  N188  1  0.92583469  0.59271324  0.64265140  1
  N  N189  1  0.57416531  0.09271324  0.35734860  1
  N  N190  1  0.42583469  0.90728676  0.64265140  1
  N  N191  1  0.07416531  0.90728676  0.14265140  1
