# generated using pymatgen
data_CoCu2(BO3)2
_symmetry_space_group_name_H-M   'P 1'
_cell_length_a   3.27059181
_cell_length_b   9.27057690
_cell_length_c   14.94114887
_cell_angle_alpha   90.00000000
_cell_angle_beta   90.00000000
_cell_angle_gamma   94.50943371
_symmetry_Int_Tables_number   1
_chemical_formula_structural   CoCu2(BO3)2
_chemical_formula_sum   'Co4 Cu8 B8 O24'
_cell_volume   451.61734427
_cell_formula_units_Z   4
loop_
 _symmetry_equiv_pos_site_id
 _symmetry_equiv_pos_as_xyz
  1  'x, y, z'
loop_
 _atom_site_type_symbol
 _atom_site_label
 _atom_site_symmetry_multiplicity
 _atom_site_fract_x
 _atom_site_fract_y
 _atom_site_fract_z
 _atom_site_occupancy
  Co  Co0  1  0.80475511  0.62187212  0.86298951  1
  Co  Co1  1  0.19524489  0.87812788  0.36298951  1
  Co  Co2  1  0.80475511  0.12187212  0.63701049  1
  Co  Co3  1  0.19524489  0.37812788  0.13701049  1
  Cu  Cu4  1  0.31056429  0.36305412  0.54317592  1
  Cu  Cu5  1  0.31056429  0.86305412  0.95682408  1
  Cu  Cu6  1  0.68943571  0.63694588  0.45682408  1
  Cu  Cu7  1  0.68943571  0.13694588  0.04317592  1
  Cu  Cu8  1  0.66708940  0.12473662  0.25758799  1
  Cu  Cu9  1  0.33291060  0.37526338  0.75758799  1
  Cu  Cu10  1  0.66708940  0.62473662  0.24241201  1
  Cu  Cu11  1  0.33291060  0.87526338  0.74241201  1
  B  B12  1  0.81342783  0.59505082  0.65219785  1
  B  B13  1  0.86348675  0.66517206  0.07974341  1
  B  B14  1  0.18657217  0.40494918  0.34780215  1
  B  B15  1  0.13651325  0.83482794  0.57974341  1
  B  B16  1  0.81342783  0.09505082  0.84780215  1
  B  B17  1  0.86348675  0.16517206  0.42025659  1
  B  B18  1  0.13651325  0.33482794  0.92025659  1
  B  B19  1  0.18657217  0.90494918  0.15219785  1
  O  O20  1  0.76905633  0.53009833  0.73348487  1
  O  O21  1  0.76905633  0.03009833  0.76651513  1
  O  O22  1  0.69816725  0.03757255  0.38376556  1
  O  O23  1  0.30183275  0.96242745  0.61623444  1
  O  O24  1  0.08989148  0.29744647  0.00623770  1
  O  O25  1  0.66442730  0.74013592  0.34614022  1
  O  O26  1  0.66442730  0.24013592  0.15385978  1
  O  O27  1  0.08989148  0.79744647  0.49376230  1
  O  O28  1  0.67964648  0.53647903  0.57323509  1
  O  O29  1  0.30183275  0.46242745  0.88376556  1
  O  O30  1  0.91010852  0.20255353  0.50623770  1
  O  O31  1  0.01524815  0.23638653  0.84861458  1
  O  O32  1  0.32035352  0.96352097  0.07323509  1
  O  O33  1  0.33557270  0.75986408  0.84614022  1
  O  O34  1  0.98475185  0.76361347  0.15138542  1
  O  O35  1  0.23094367  0.46990167  0.26651513  1
  O  O36  1  0.32035352  0.46352097  0.42676491  1
  O  O37  1  0.01524815  0.73638653  0.65138542  1
  O  O38  1  0.69816725  0.53757255  0.11623444  1
  O  O39  1  0.23094367  0.96990167  0.23348487  1
  O  O40  1  0.98475185  0.26361347  0.34861458  1
  O  O41  1  0.91010852  0.70255353  0.99376230  1
  O  O42  1  0.33557270  0.25986408  0.65385978  1
  O  O43  1  0.67964648  0.03647903  0.92676491  1
