# generated using pymatgen
data_K2CuH8(CO3)4
_symmetry_space_group_name_H-M   'P 1'
_cell_length_a   3.89233998
_cell_length_b   10.96164865
_cell_length_c   14.87618484
_cell_angle_alpha   90.00000000
_cell_angle_beta   90.00000000
_cell_angle_gamma   93.39160407
_symmetry_Int_Tables_number   1
_chemical_formula_structural   K2CuH8(CO3)4
_chemical_formula_sum   'K4 Cu2 H16 C8 O24'
_cell_volume   633.60249786
_cell_formula_units_Z   2
loop_
 _symmetry_equiv_pos_site_id
 _symmetry_equiv_pos_as_xyz
  1  'x, y, z'
loop_
 _atom_site_type_symbol
 _atom_site_label
 _atom_site_symmetry_multiplicity
 _atom_site_fract_x
 _atom_site_fract_y
 _atom_site_fract_z
 _atom_site_occupancy
  K  K0  1  0.22009875  0.48675956  0.63121825  1
  K  K1  1  0.77990125  0.51324044  0.36878175  1
  K  K2  1  0.72009875  0.98675956  0.86878175  1
  K  K3  1  0.27990125  0.01324044  0.13121825  1
  Cu  Cu4  1  0.50000000  0.00000000  0.50000000  1
  Cu  Cu5  1  0.00000000  0.50000000  0.00000000  1
  H  H6  1  0.21251534  0.23763773  0.87460528  1
  H  H7  1  0.10188133  0.97828646  0.68888347  1
  H  H8  1  0.28312541  0.29805160  0.27172968  1
  H  H9  1  0.21687459  0.20194840  0.77172968  1
  H  H10  1  0.78312541  0.79805160  0.22827032  1
  H  H11  1  0.60188133  0.47828646  0.81111653  1
  H  H12  1  0.89811867  0.02171354  0.31111653  1
  H  H13  1  0.82854697  0.15421203  0.28572653  1
  H  H14  1  0.28748466  0.26236227  0.37460528  1
  H  H15  1  0.71687459  0.70194840  0.72827032  1
  H  H16  1  0.67145303  0.34578797  0.78572653  1
  H  H17  1  0.78748466  0.76236227  0.12539472  1
  H  H18  1  0.39811867  0.52171354  0.18888347  1
  H  H19  1  0.71251534  0.73763773  0.62539472  1
  H  H20  1  0.32854697  0.65421203  0.21427347  1
  H  H21  1  0.17145303  0.84578797  0.71427347  1
  C  C22  1  0.12152106  0.82592208  0.40188681  1
  C  C23  1  0.81418908  0.25525081  0.02522242  1
  C  C24  1  0.68581092  0.24474919  0.52522242  1
  C  C25  1  0.37847894  0.67407792  0.90188681  1
  C  C26  1  0.87847894  0.17407792  0.59811319  1
  C  C27  1  0.18581092  0.74474919  0.97477758  1
  C  C28  1  0.31418908  0.75525081  0.47477758  1
  C  C29  1  0.62152106  0.32592208  0.09811319  1
  O  O30  1  0.49946880  0.17560860  0.47114222  1
  O  O31  1  0.56101908  0.73106245  0.84530178  1
  O  O32  1  0.43898092  0.26893755  0.15469822  1
  O  O33  1  0.66506952  0.44387286  0.09353249  1
  O  O34  1  0.78556355  0.14184131  0.02145888  1
  O  O35  1  0.83345766  0.68977374  0.67042612  1
  O  O36  1  0.29940104  0.57030599  0.23698010  1
  O  O37  1  0.71443645  0.35815869  0.52145888  1
  O  O38  1  0.66654234  0.81022626  0.17042612  1
  O  O39  1  0.50053120  0.82439140  0.52885778  1
  O  O40  1  0.16654234  0.31022626  0.32957388  1
  O  O41  1  0.21443645  0.85815869  0.97854112  1
  O  O42  1  0.70059896  0.42969401  0.76301990  1
  O  O43  1  0.33345766  0.18977374  0.82957388  1
  O  O44  1  0.20059896  0.92969401  0.73698010  1
  O  O45  1  0.33493048  0.55612714  0.90646751  1
  O  O46  1  0.06101908  0.23106245  0.65469822  1
  O  O47  1  0.79940104  0.07030599  0.26301990  1
  O  O48  1  0.00053120  0.32439140  0.97114222  1
  O  O49  1  0.16506952  0.94387286  0.40646751  1
  O  O50  1  0.93898092  0.76893755  0.34530178  1
  O  O51  1  0.99946880  0.67560860  0.02885778  1
  O  O52  1  0.28556355  0.64184131  0.47854112  1
  O  O53  1  0.83493048  0.05612714  0.59353249  1
