# generated using pymatgen
data_FeHO2
_symmetry_space_group_name_H-M   'P 1'
_cell_length_a   7.71333143
_cell_length_b   7.71333143
_cell_length_c   7.71333143
_cell_angle_alpha   92.25976247
_cell_angle_beta   92.25976247
_cell_angle_gamma   157.09329435
_symmetry_Int_Tables_number   1
_chemical_formula_structural   FeHO2
_chemical_formula_sum   'Fe4 H4 O8'
_cell_volume   175.06476305
_cell_formula_units_Z   4
loop_
 _symmetry_equiv_pos_site_id
 _symmetry_equiv_pos_as_xyz
  1  'x, y, z'
loop_
 _atom_site_type_symbol
 _atom_site_label
 _atom_site_symmetry_multiplicity
 _atom_site_fract_x
 _atom_site_fract_y
 _atom_site_fract_z
 _atom_site_occupancy
  Fe  Fe0  1  0.35072588  0.85212099  0.20284687  1
  Fe  Fe1  1  0.64927412  0.14787901  0.79715313  1
  Fe  Fe2  1  0.14787901  0.35072588  0.49860489  1
  Fe  Fe3  1  0.85212099  0.64927412  0.50139511  1
  H  H4  1  0.08130270  0.83615436  0.91745807  1
  H  H5  1  0.91869730  0.16384564  0.08254193  1
  H  H6  1  0.16384564  0.08130270  0.24514834  1
  H  H7  1  0.83615436  0.91869730  0.75485166  1
  O  O8  1  0.15834309  0.78761079  0.94595388  1
  O  O9  1  0.84165691  0.21238921  0.05404612  1
  O  O10  1  0.21238921  0.15834309  0.37073229  1
  O  O11  1  0.78761079  0.84165691  0.62926771  1
  O  O12  1  0.53437476  0.82667447  0.36104922  1
  O  O13  1  0.46562524  0.17332553  0.63895078  1
  O  O14  1  0.17332553  0.53437476  0.70770029  1
  O  O15  1  0.82667447  0.46562524  0.29229971  1
