# generated using pymatgen
data_U3(HO5)2
_symmetry_space_group_name_H-M   'P 1'
_cell_length_a   6.84248260
_cell_length_b   7.38701832
_cell_length_c   5.57022311
_cell_angle_alpha   107.88774373
_cell_angle_beta   124.38817963
_cell_angle_gamma   89.60865926
_symmetry_Int_Tables_number   1
_chemical_formula_structural   U3(HO5)2
_chemical_formula_sum   'U3 H2 O10'
_cell_volume   216.07647585
_cell_formula_units_Z   1
loop_
 _symmetry_equiv_pos_site_id
 _symmetry_equiv_pos_as_xyz
  1  'x, y, z'
loop_
 _atom_site_type_symbol
 _atom_site_label
 _atom_site_symmetry_multiplicity
 _atom_site_fract_x
 _atom_site_fract_y
 _atom_site_fract_z
 _atom_site_occupancy
  U  U0  1  0.99721867  0.99747999  0.00119373  1
  U  U1  1  0.55548974  0.74996549  0.01578648  1
  U  U2  1  0.43720525  0.25552664  0.99038853  1
  H  H3  1  0.80326475  0.44493997  0.94193898  1
  H  H4  1  0.34422002  0.61078244  0.35445571  1
  O  O5  1  0.91881133  0.76109344  0.02224147  1
  O  O6  1  0.07428553  0.23644220  0.98406100  1
  O  O7  1  0.69858853  0.46672447  0.01056519  1
  O  O8  1  0.35100992  0.55854602  0.02920682  1
  O  O9  1  0.31191406  0.95708707  0.01228085  1
  O  O10  1  0.68265221  0.03640526  0.99303200  1
  O  O11  1  0.23345400  0.14502364  0.54514853  1
  O  O12  1  0.76865208  0.86321241  0.47172522  1
  O  O13  1  0.35200001  0.64806331  0.54992941  1
  O  O14  1  0.62587192  0.34603665  0.41161006  1
