# generated using pymatgen
data_Rb3Pb4Au
_symmetry_space_group_name_H-M   'P 1'
_cell_length_a   6.98171712
_cell_length_b   7.17215392
_cell_length_c   15.67187776
_cell_angle_alpha   90.00032835
_cell_angle_beta   89.99914023
_cell_angle_gamma   89.99895621
_symmetry_Int_Tables_number   1
_chemical_formula_structural   Rb3Pb4Au
_chemical_formula_sum   'Rb6 Pb8 Au2'
_cell_volume   784.75282028
_cell_formula_units_Z   2
loop_
 _symmetry_equiv_pos_site_id
 _symmetry_equiv_pos_as_xyz
  1  'x, y, z'
loop_
 _atom_site_type_symbol
 _atom_site_label
 _atom_site_symmetry_multiplicity
 _atom_site_fract_x
 _atom_site_fract_y
 _atom_site_fract_z
 _atom_site_occupancy
  Rb  Rb0  1  0.49381111  0.75001166  0.74999266  1
  Rb  Rb1  1  0.10413917  0.74997703  0.94406196  1
  Rb  Rb2  1  0.50619688  0.24998318  0.25000547  1
  Rb  Rb3  1  0.89586914  0.25000833  0.05593512  1
  Rb  Rb4  1  0.89588751  0.25002479  0.44406224  1
  Rb  Rb5  1  0.10409857  0.75001995  0.55593378  1
  Pb  Pb6  1  0.05127863  0.97961998  0.25000059  1
  Pb  Pb7  1  0.64012276  0.25000186  0.85434365  1
  Pb  Pb8  1  0.94872196  0.02037749  0.75000413  1
  Pb  Pb9  1  0.05128204  0.52037360  0.24999894  1
  Pb  Pb10  1  0.35987159  0.74999481  0.14565842  1
  Pb  Pb11  1  0.35986868  0.74999106  0.35434357  1
  Pb  Pb12  1  0.94871731  0.47962163  0.75000085  1
  Pb  Pb13  1  0.64013474  0.24999856  0.64565899  1
  Au  Au14  1  0.29275148  0.25000066  0.74999879  1
  Au  Au15  1  0.70724844  0.74999544  0.25000083  1
