# generated using pymatgen
data_Ba6Ga2Co11O26
_symmetry_space_group_name_H-M   'P 1'
_cell_length_a   5.81190611
_cell_length_b   5.81190651
_cell_length_c   19.26002427
_cell_angle_alpha   90.00000000
_cell_angle_beta   90.00000000
_cell_angle_gamma   119.99999780
_symmetry_Int_Tables_number   1
_chemical_formula_structural   Ba6Ga2Co11O26
_chemical_formula_sum   'Ba6 Ga2 Co11 O26'
_cell_volume   563.41016790
_cell_formula_units_Z   1
loop_
 _symmetry_equiv_pos_site_id
 _symmetry_equiv_pos_as_xyz
  1  'x, y, z'
loop_
 _atom_site_type_symbol
 _atom_site_label
 _atom_site_symmetry_multiplicity
 _atom_site_fract_x
 _atom_site_fract_y
 _atom_site_fract_z
 _atom_site_occupancy
  Ba  Ba0  1  0.00000000  0.00000000  0.19402928  1
  Ba  Ba1  1  0.33333300  0.66666700  0.33174955  1
  Ba  Ba2  1  0.33333300  0.66666700  0.55334824  1
  Ba  Ba3  1  0.00000000  0.00000000  0.80597072  1
  Ba  Ba4  1  0.66666700  0.33333300  0.66825045  1
  Ba  Ba5  1  0.66666700  0.33333300  0.44665176  1
  Ga  Ga6  1  0.33333300  0.66666700  0.15308564  1
  Ga  Ga7  1  0.66666700  0.33333300  0.84691436  1
  Co  Co8  1  0.66666700  0.33333300  0.12699388  1
  Co  Co9  1  0.00000000  0.00000000  0.00000000  1
  Co  Co10  1  0.00000000  0.00000000  0.37324680  1
  Co  Co11  1  0.66666700  0.33333300  0.27514958  1
  Co  Co12  1  0.00000000  0.00000000  0.62675320  1
  Co  Co13  1  0.33333300  0.66666700  0.87300612  1
  Co  Co14  1  0.50000000  0.00000000  0.00000000  1
  Co  Co15  1  0.33333300  0.66666700  0.72485042  1
  Co  Co16  1  0.00000000  0.50000000  0.00000000  1
  Co  Co17  1  0.00000000  0.00000000  0.50000000  1
  Co  Co18  1  0.50000000  0.50000000  0.00000000  1
  O  O19  1  0.70687202  0.85343601  0.43577019  1
  O  O20  1  0.01390375  0.50695188  0.81166944  1
  O  O21  1  0.98609625  0.49304812  0.18833056  1
  O  O22  1  0.66666700  0.33333300  0.94260600  1
  O  O23  1  0.82669662  0.17330338  0.05922767  1
  O  O24  1  0.17330338  0.34660677  0.94077233  1
  O  O25  1  0.14656399  0.29312798  0.43577019  1
  O  O26  1  0.65339323  0.82669662  0.94077233  1
  O  O27  1  0.85343601  0.70687202  0.56422981  1
  O  O28  1  0.29312798  0.14656399  0.56422981  1
  O  O29  1  0.14656399  0.85343601  0.43577019  1
  O  O30  1  0.16234941  0.83765059  0.68444657  1
  O  O31  1  0.85343601  0.14656399  0.56422981  1
  O  O32  1  0.17330338  0.82669662  0.94077233  1
  O  O33  1  0.49304812  0.50695188  0.81166944  1
  O  O34  1  0.67530117  0.83765059  0.68444657  1
  O  O35  1  0.50695188  0.01390375  0.18833056  1
  O  O36  1  0.83765059  0.67530117  0.31555343  1
  O  O37  1  0.16234941  0.32469883  0.68444657  1
  O  O38  1  0.50695188  0.49304812  0.18833056  1
  O  O39  1  0.82669662  0.65339323  0.05922767  1
  O  O40  1  0.83765059  0.16234941  0.31555343  1
  O  O41  1  0.49304812  0.98609625  0.81166944  1
  O  O42  1  0.34660677  0.17330338  0.05922767  1
  O  O43  1  0.32469883  0.16234941  0.31555343  1
  O  O44  1  0.33333300  0.66666700  0.05739400  1
