# generated using pymatgen
data_Ge7H18O23
_symmetry_space_group_name_H-M   'P 1'
_cell_length_a   7.77711331
_cell_length_b   7.85991482
_cell_length_c   8.01212035
_cell_angle_alpha   90.83088572
_cell_angle_beta   89.82989291
_cell_angle_gamma   90.59061076
_symmetry_Int_Tables_number   1
_chemical_formula_structural   Ge7H18O23
_chemical_formula_sum   'Ge7 H18 O23'
_cell_volume   489.68101055
_cell_formula_units_Z   1
loop_
 _symmetry_equiv_pos_site_id
 _symmetry_equiv_pos_as_xyz
  1  'x, y, z'
loop_
 _atom_site_type_symbol
 _atom_site_label
 _atom_site_symmetry_multiplicity
 _atom_site_fract_x
 _atom_site_fract_y
 _atom_site_fract_z
 _atom_site_occupancy
  Ge  Ge0  1  0.84862753  0.87428042  0.14091961  1
  Ge  Ge1  1  0.85880835  0.14020849  0.87166351  1
  Ge  Ge2  1  0.13532141  0.86350118  0.87536976  1
  Ge  Ge3  1  0.13140413  0.13969603  0.14770838  1
  Ge  Ge4  1  0.99139168  0.99224262  0.48669541  1
  Ge  Ge5  1  0.00459500  0.49145588  0.99635740  1
  Ge  Ge6  1  0.49229061  0.00452682  0.00069772  1
  H  H7  1  0.78982920  0.79406356  0.80706102  1
  H  H8  1  0.72890449  0.57561381  0.10681242  1
  H  H9  1  0.71537642  0.07465940  0.58909006  1
  H  H10  1  0.08207609  0.72271623  0.58504838  1
  H  H11  1  0.53313391  0.29083529  0.29179368  1
  H  H12  1  0.51766617  0.96767693  0.42947447  1
  H  H13  1  0.49103035  0.93685485  0.61897773  1
  H  H14  1  0.05796703  0.48665581  0.44085648  1
  H  H15  1  0.97817289  0.45900919  0.61946047  1
  H  H16  1  0.42471188  0.56054503  0.95644365  1
  H  H17  1  0.53023599  0.39718302  0.91278583  1
  H  H18  1  0.29326555  0.71482929  0.26061744  1
  H  H19  1  0.39340736  0.58451701  0.36671783  1
  H  H20  1  0.73323558  0.63862040  0.61525743  1
  H  H21  1  0.62161129  0.61534137  0.78503085  1
  H  H22  1  0.72460784  0.26451779  0.25193938  1
  H  H23  1  0.27072998  0.32875112  0.69876846  1
  H  H24  1  0.41857661  0.24277319  0.60230600  1
  O  O25  1  0.10011507  0.88464035  0.11582285  1
  O  O26  1  0.87083830  0.87561957  0.88802138  1
  O  O27  1  0.87889359  0.12046068  0.11529330  1
  O  O28  1  0.10054259  0.10413818  0.87174053  1
  O  O29  1  0.85305258  0.86582723  0.36673073  1
  O  O30  1  0.84912956  0.62007837  0.11944905  1
  O  O31  1  0.61554089  0.87101533  0.12861715  1
  O  O32  1  0.84291424  0.10481730  0.62578131  1
  O  O33  1  0.88236766  0.37095309  0.85176763  1
  O  O34  1  0.62493069  0.13799690  0.87752379  1
  O  O35  1  0.10304152  0.84814309  0.62525956  1
  O  O36  1  0.13506650  0.62962990  0.88169646  1
  O  O37  1  0.36811291  0.87725635  0.86150412  1
  O  O38  1  0.12303037  0.13307584  0.38005508  1
  O  O39  1  0.12486076  0.37465705  0.13712941  1
  O  O40  1  0.36449022  0.13343199  0.13257799  1
  O  O41  1  0.53179171  0.02238893  0.53950623  1
  O  O42  1  -0.00026886  0.54430184  0.53389616  1
  O  O43  1  0.54191724  0.51596214  0.95111662  1
  O  O44  1  0.32856654  0.68968720  0.37416738  1
  O  O45  1  0.68128505  0.69973005  0.71000127  1
  O  O46  1  0.64699663  0.34026785  0.31354343  1
  O  O47  1  0.37843389  0.35425205  0.64180220  1
