# generated using pymatgen
data_LaNb2CuClO7
_symmetry_space_group_name_H-M   'P 1'
_cell_length_a   3.92224429
_cell_length_b   3.92222365
_cell_length_c   11.84313829
_cell_angle_alpha   89.99978275
_cell_angle_beta   90.00013629
_cell_angle_gamma   90.00019516
_symmetry_Int_Tables_number   1
_chemical_formula_structural   LaNb2CuClO7
_chemical_formula_sum   'La1 Nb2 Cu1 Cl1 O7'
_cell_volume   182.19388389
_cell_formula_units_Z   1
loop_
 _symmetry_equiv_pos_site_id
 _symmetry_equiv_pos_as_xyz
  1  'x, y, z'
loop_
 _atom_site_type_symbol
 _atom_site_label
 _atom_site_symmetry_multiplicity
 _atom_site_fract_x
 _atom_site_fract_y
 _atom_site_fract_z
 _atom_site_occupancy
  La  La0  1  0.99999342  -0.00000805  0.00000099  1
  Nb  Nb1  1  0.50000195  0.50000363  0.80667551  1
  Nb  Nb2  1  0.49999974  0.50000172  0.19332340  1
  Cu  Cu3  1  0.49999532  0.49999684  0.50000112  1
  Cl  Cl4  1  0.00000464  0.00000135  0.50000054  1
  O  O5  1  -0.00000001  0.49999849  0.15600396  1
  O  O6  1  0.50000108  0.50000041  0.65439953  1
  O  O7  1  0.00000119  0.50000810  0.84399461  1
  O  O8  1  0.50000253  0.50000232  0.34560121  1
  O  O9  1  0.49999897  0.99999953  0.15600570  1
  O  O10  1  0.50000399  -0.00000102  0.84399358  1
  O  O11  1  0.49999719  0.49999669  0.99999984  1
