# generated using pymatgen
data_OsC4(ClO2)2
_symmetry_space_group_name_H-M   'P 1'
_cell_length_a   6.16942788
_cell_length_b   6.16942763
_cell_length_c   11.81661152
_cell_angle_alpha   93.52477783
_cell_angle_beta   93.52477771
_cell_angle_gamma   114.23516454
_symmetry_Int_Tables_number   1
_chemical_formula_structural   OsC4(ClO2)2
_chemical_formula_sum   'Os2 C8 Cl4 O8'
_cell_volume   407.48562542
_cell_formula_units_Z   2
loop_
 _symmetry_equiv_pos_site_id
 _symmetry_equiv_pos_as_xyz
  1  'x, y, z'
loop_
 _atom_site_type_symbol
 _atom_site_label
 _atom_site_symmetry_multiplicity
 _atom_site_fract_x
 _atom_site_fract_y
 _atom_site_fract_z
 _atom_site_occupancy
  Os  Os0  1  0.43058617  0.56941383  0.25000000  1
  Os  Os1  1  0.56941383  0.43058617  0.75000000  1
  C  C2  1  0.20891865  0.60562579  0.34801236  1
  C  C3  1  0.39437421  0.79108135  0.15198764  1
  C  C4  1  0.79108135  0.39437421  0.65198764  1
  C  C5  1  0.70247585  0.83158222  0.34253655  1
  C  C6  1  0.29752415  0.16841778  0.65746345  1
  C  C7  1  0.83158222  0.70247585  0.84253655  1
  C  C8  1  0.60562579  0.20891865  0.84801236  1
  C  C9  1  0.16841778  0.29752415  0.15746345  1
  Cl  Cl10  1  0.72993358  0.52697367  0.13387982  1
  Cl  Cl11  1  0.52697367  0.72993358  0.63387982  1
  Cl  Cl12  1  0.27006642  0.47302633  0.86612018  1
  Cl  Cl13  1  0.47302633  0.27006642  0.36612018  1
  O  O14  1  0.01046567  0.14026076  0.10803803  1
  O  O15  1  0.98953433  0.85973924  0.89196197  1
  O  O16  1  0.14026076  0.01046567  0.60803803  1
  O  O17  1  0.92166123  0.36594347  0.59330706  1
  O  O18  1  0.63405653  0.07833877  0.90669294  1
  O  O19  1  0.85973924  0.98953433  0.39196197  1
  O  O20  1  0.07833877  0.63405653  0.40669294  1
  O  O21  1  0.36594347  0.92166123  0.09330706  1
