# generated using pymatgen
data_Li2CoCl4
_symmetry_space_group_name_H-M   'P 1'
_cell_length_a   7.45744847
_cell_length_b   7.30610046
_cell_length_c   21.86200420
_cell_angle_alpha   59.89816414
_cell_angle_beta   59.04564292
_cell_angle_gamma   58.57082088
_symmetry_Int_Tables_number   1
_chemical_formula_structural   Li2CoCl4
_chemical_formula_sum   'Li12 Co6 Cl24'
_cell_volume   826.13391864
_cell_formula_units_Z   6
loop_
 _symmetry_equiv_pos_site_id
 _symmetry_equiv_pos_as_xyz
  1  'x, y, z'
loop_
 _atom_site_type_symbol
 _atom_site_label
 _atom_site_symmetry_multiplicity
 _atom_site_fract_x
 _atom_site_fract_y
 _atom_site_fract_z
 _atom_site_occupancy
  Li  Li0  1  0.37186327  0.04678675  0.18152174  1
  Li  Li1  1  0.49915097  0.49498928  0.99796543  1
  Li  Li2  1  0.50111675  0.49381571  0.16838126  1
  Li  Li3  1  0.37353309  0.04620221  0.51434199  1
  Li  Li4  1  0.50418895  0.49930684  0.50027783  1
  Li  Li5  1  0.50519732  0.00012857  0.33317754  1
  Li  Li6  1  0.37750512  0.03431110  0.84706244  1
  Li  Li7  1  0.96214674  0.96824737  0.15258801  1
  Li  Li8  1  0.50424805  0.99987746  0.66662440  1
  Li  Li9  1  0.50677536  0.50439283  0.83230642  1
  Li  Li10  1  0.96366889  0.95656000  0.48498414  1
  Li  Li11  1  0.96598198  0.96244198  0.82120546  1
  Co  Co12  1  0.98660428  0.50456701  0.00198571  1
  Co  Co13  1  0.50240666  0.00022569  0.00001626  1
  Co  Co14  1  0.98314315  0.50825045  0.33587334  1
  Co  Co15  1  0.98342193  0.50599623  0.66910278  1
  Co  Co16  1  0.49704692  0.49466839  0.33139106  1
  Co  Co17  1  0.49874423  0.49235370  0.66452436  1
  Cl  Cl18  1  0.24468079  0.25012761  0.07742830  1
  Cl  Cl19  1  0.24923532  0.26750320  0.25473403  1
  Cl  Cl20  1  0.28267729  0.76247856  0.07727390  1
  Cl  Cl21  1  0.24661749  0.26960886  0.40936795  1
  Cl  Cl22  1  0.25074970  0.72720766  0.25705931  1
  Cl  Cl23  1  0.75174477  0.27294423  0.07902519  1
  Cl  Cl24  1  0.24966596  0.26533759  0.58916414  1
  Cl  Cl25  1  0.28248248  0.73262609  0.41110814  1
  Cl  Cl26  1  0.72028913  0.26775871  0.25426171  1
  Cl  Cl27  1  0.73839516  0.75625703  0.07492550  1
  Cl  Cl28  1  0.24818353  0.72891426  0.58960617  1
  Cl  Cl29  1  0.24602392  0.26997991  0.74331593  1
  Cl  Cl30  1  0.74670879  0.27043050  0.41034775  1
  Cl  Cl31  1  0.74996217  0.73011028  0.25692961  1
  Cl  Cl32  1  0.25792421  0.24473926  0.92566530  1
  Cl  Cl33  1  0.28129544  0.73055697  0.74494869  1
  Cl  Cl34  1  0.72091922  0.26476753  0.58775732  1
  Cl  Cl35  1  0.74718987  0.73710886  0.41166297  1
  Cl  Cl36  1  0.23798621  0.72944937  0.91926299  1
  Cl  Cl37  1  0.74689353  0.27206541  0.74275887  1
  Cl  Cl38  1  0.74919687  0.73049567  0.59055341  1
  Cl  Cl39  1  0.72574001  0.22721645  0.91937935  1
  Cl  Cl40  1  0.74731252  0.73559782  0.74611839  1
  Cl  Cl41  1  0.74538195  0.74359660  0.92401491  1
