# generated using pymatgen
data_Cs3Fe2Cl9
_symmetry_space_group_name_H-M   'P 1'
_cell_length_a   7.36206652
_cell_length_b   7.36206658
_cell_length_c   8.96430348
_cell_angle_alpha   90.00000000
_cell_angle_beta   90.00000000
_cell_angle_gamma   119.99999973
_symmetry_Int_Tables_number   1
_chemical_formula_structural   Cs3Fe2Cl9
_chemical_formula_sum   'Cs3 Fe2 Cl9'
_cell_volume   420.77183470
_cell_formula_units_Z   1
loop_
 _symmetry_equiv_pos_site_id
 _symmetry_equiv_pos_as_xyz
  1  'x, y, z'
loop_
 _atom_site_type_symbol
 _atom_site_label
 _atom_site_symmetry_multiplicity
 _atom_site_fract_x
 _atom_site_fract_y
 _atom_site_fract_z
 _atom_site_occupancy
  Cs  Cs0  1  0.66666700  0.33333300  0.66944493  1
  Cs  Cs1  1  0.00000000  0.00000000  0.00000000  1
  Cs  Cs2  1  0.33333300  0.66666700  0.33055507  1
  Fe  Fe3  1  0.66666700  0.33333300  0.18565122  1
  Fe  Fe4  1  0.33333300  0.66666700  0.81434878  1
  Cl  Cl5  1  0.17875451  0.82124549  0.68466014  1
  Cl  Cl6  1  0.17875451  0.35750903  0.68466014  1
  Cl  Cl7  1  0.50000000  0.50000000  0.00000000  1
  Cl  Cl8  1  0.82124549  0.64249097  0.31533986  1
  Cl  Cl9  1  0.35750903  0.17875451  0.31533986  1
  Cl  Cl10  1  0.64249097  0.82124549  0.68466014  1
  Cl  Cl11  1  0.82124549  0.17875451  0.31533986  1
  Cl  Cl12  1  0.00000000  0.50000000  0.00000000  1
  Cl  Cl13  1  0.50000000  0.00000000  0.00000000  1
