# generated using pymatgen
data_SO4
_symmetry_space_group_name_H-M   'P 1'
_cell_length_a   4.98540070
_cell_length_b   4.98540070
_cell_length_c   8.85208023
_cell_angle_alpha   91.86825006
_cell_angle_beta   103.73584368
_cell_angle_gamma   121.36606437
_symmetry_Int_Tables_number   1
_chemical_formula_structural   SO4
_chemical_formula_sum   'S2 O8'
_cell_volume   179.22148153
_cell_formula_units_Z   2
loop_
 _symmetry_equiv_pos_site_id
 _symmetry_equiv_pos_as_xyz
  1  'x, y, z'
loop_
 _atom_site_type_symbol
 _atom_site_label
 _atom_site_symmetry_multiplicity
 _atom_site_fract_x
 _atom_site_fract_y
 _atom_site_fract_z
 _atom_site_occupancy
  S  S0  1  0.31076298  0.07505535  0.56576593  1
  S  S1  1  0.99071058  0.25500295  0.06576593  1
  O  O2  1  0.91334666  0.93923854  0.99602526  1
  O  O3  1  0.55678673  0.08267860  0.49602526  1
  O  O4  1  0.01212177  0.92314340  0.42620854  1
  O  O5  1  0.00306515  0.41408678  0.92620854  1
  O  O6  1  0.74791621  0.23456083  0.14157632  1
  O  O7  1  0.40701549  0.39366011  0.64157632  1
  O  O8  1  0.30271419  0.43586369  0.19742394  1
  O  O9  1  0.26156025  0.89470975  0.69742394  1
