# generated using pymatgen
data_Co(Mo3Se4)4
_symmetry_space_group_name_H-M   'P 1'
_cell_length_a   13.57173378
_cell_length_b   9.40719275
_cell_length_c   9.40878100
_cell_angle_alpha   62.22141133
_cell_angle_beta   45.74679194
_cell_angle_gamma   45.66401924
_symmetry_Int_Tables_number   1
_chemical_formula_structural   Co(Mo3Se4)4
_chemical_formula_sum   'Co1 Mo12 Se16'
_cell_volume   614.85673489
_cell_formula_units_Z   1
loop_
 _symmetry_equiv_pos_site_id
 _symmetry_equiv_pos_as_xyz
  1  'x, y, z'
loop_
 _atom_site_type_symbol
 _atom_site_label
 _atom_site_symmetry_multiplicity
 _atom_site_fract_x
 _atom_site_fract_y
 _atom_site_fract_z
 _atom_site_occupancy
  Co  Co0  1  0.29815961  0.49593349  0.85106092  1
  Mo  Mo1  1  0.13118800  0.41507596  0.54402982  1
  Mo  Mo2  1  0.32088530  0.54566015  0.23200597  1
  Mo  Mo3  1  0.04945242  0.76419454  0.58604515  1
  Mo  Mo4  1  0.44753714  0.22929708  0.41792400  1
  Mo  Mo5  1  0.17419887  0.45175308  0.77338260  1
  Mo  Mo6  1  0.36986568  0.58136955  0.45949667  1
  Mo  Mo7  1  0.63248708  0.41494605  0.54681625  1
  Mo  Mo8  1  0.81991160  0.54737178  0.22918413  1
  Mo  Mo9  1  0.54876941  0.77208950  0.58282550  1
  Mo  Mo10  1  0.95081205  0.22755119  0.41798515  1
  Mo  Mo11  1  0.68116867  0.45076843  0.77243508  1
  Mo  Mo12  1  0.86675387  0.58425918  0.45381380  1
  Se  Se13  1  0.12152726  0.38120402  0.12295911  1
  Se  Se14  1  0.00578374  0.74020134  0.37591128  1
  Se  Se15  1  0.39115494  0.21651644  0.21618212  1
  Se  Se16  1  0.24841917  0.13005200  0.74215898  1
  Se  Se17  1  0.24729668  0.86894595  0.26356715  1
  Se  Se18  1  0.61609552  0.37887258  0.12831667  1
  Se  Se19  1  0.10501321  0.79669519  0.78097529  1
  Se  Se20  1  0.51215585  0.24432408  0.60979944  1
  Se  Se21  1  0.50672851  0.74159871  0.37483560  1
  Se  Se22  1  0.89408322  0.21626410  0.21684721  1
  Se  Se23  1  0.37756514  0.63309038  0.88047781  1
  Se  Se24  1  0.75653589  0.12598054  0.73867738  1
  Se  Se25  1  0.74481486  0.87330072  0.26044118  1
  Se  Se26  1  0.60725832  0.78398147  0.78286979  1
  Se  Se27  1  0.99450498  0.25944844  0.62296969  1
  Se  Se28  1  0.87937303  0.62225408  0.87400628  1
