# generated using pymatgen
data_Fe4H14O13
_symmetry_space_group_name_H-M   'P 1'
_cell_length_a   6.76098300
_cell_length_b   6.73278343
_cell_length_c   6.69491234
_cell_angle_alpha   109.57336762
_cell_angle_beta   109.24524677
_cell_angle_gamma   109.63867409
_symmetry_Int_Tables_number   1
_chemical_formula_structural   Fe4H14O13
_chemical_formula_sum   'Fe4 H14 O13'
_cell_volume   234.47094725
_cell_formula_units_Z   1
loop_
 _symmetry_equiv_pos_site_id
 _symmetry_equiv_pos_as_xyz
  1  'x, y, z'
loop_
 _atom_site_type_symbol
 _atom_site_label
 _atom_site_symmetry_multiplicity
 _atom_site_fract_x
 _atom_site_fract_y
 _atom_site_fract_z
 _atom_site_occupancy
  Fe  Fe0  1  0.00857734  0.00602208  0.50854580  1
  Fe  Fe1  1  0.99871591  0.50242724  0.00465718  1
  Fe  Fe2  1  0.49369784  0.99949344  0.99824387  1
  Fe  Fe3  1  0.49960045  0.49883715  0.50723640  1
  H  H4  1  0.73650285  0.18334363  0.54715122  1
  H  H5  1  0.25851516  0.81073832  0.45848178  1
  H  H6  1  0.63305902  0.94597939  0.68669817  1
  H  H7  1  0.36433592  0.04603365  0.31854395  1
  H  H8  1  0.57815209  0.66447518  0.23815550  1
  H  H9  1  0.57655891  0.35205753  0.92829217  1
  H  H10  1  0.31219334  0.45394841  0.76522695  1
  H  H11  1  0.19231741  0.14948150  0.95170017  1
  H  H12  1  0.94417753  0.76775644  0.82452576  1
  H  H13  1  0.81162894  0.86853937  0.05777091  1
  H  H14  1  0.06294663  0.24185416  0.18007910  1
  H  H15  1  0.93280245  0.33350484  0.39021673  1
  H  H16  1  0.87054882  0.54168452  0.41011708  1
  H  H17  1  0.15026860  0.60556448  0.75971665  1
  O  O18  1  0.86745482  0.18735460  0.67718016  1
  O  O19  1  0.14384431  0.82302754  0.32812900  1
  O  O20  1  0.49761912  0.81865067  0.68027411  1
  O  O21  1  0.49751287  0.17522707  0.32326619  1
  O  O22  1  0.69782648  0.68459715  0.38730446  1
  O  O23  1  0.27032801  0.66897498  0.94055998  1
  O  O24  1  0.69485904  0.30966099  0.00686293  1
  O  O25  1  0.31139462  0.32607063  0.63385388  1
  O  O26  1  0.18308807  0.01009121  0.82285651  1
  O  O27  1  0.81655983  0.64431388  0.82949546  1
  O  O28  1  0.81070469  0.99718480  0.18832761  1
  O  O29  1  0.18933980  0.36854053  0.17723209  1
  O  O30  1  0.99574514  0.50769561  0.49218325  1
