# generated using pymatgen
data_TiPb9O11
_symmetry_space_group_name_H-M   'P 1'
_cell_length_a   20.51855927
_cell_length_b   9.17636439
_cell_length_c   4.73438854
_cell_angle_alpha   90.00018294
_cell_angle_beta   90.00073019
_cell_angle_gamma   26.56635477
_symmetry_Int_Tables_number   1
_chemical_formula_structural   TiPb9O11
_chemical_formula_sum   'Ti1 Pb9 O11'
_cell_volume   398.67239952
_cell_formula_units_Z   1
loop_
 _symmetry_equiv_pos_site_id
 _symmetry_equiv_pos_as_xyz
  1  'x, y, z'
loop_
 _atom_site_type_symbol
 _atom_site_label
 _atom_site_symmetry_multiplicity
 _atom_site_fract_x
 _atom_site_fract_y
 _atom_site_fract_z
 _atom_site_occupancy
  Ti  Ti0  1  0.90002002  -0.00004158  0.00763597  1
  Pb  Pb1  1  0.09797610  0.00554103  0.75846628  1
  Pb  Pb2  1  -0.00013516  0.50189060  0.25462262  1
  Pb  Pb3  1  0.30144024  -0.00087173  0.75844811  1
  Pb  Pb4  1  0.19840753  0.50310545  0.25451125  1
  Pb  Pb5  1  0.49858005  0.00083736  0.75844271  1
  Pb  Pb6  1  0.39998760  0.50002728  0.24244019  1
  Pb  Pb7  1  0.70199966  -0.00548348  0.75848945  1
  Pb  Pb8  1  0.60163928  0.49682069  0.25452804  1
  Pb  Pb9  1  0.80011534  0.49814783  0.25462992  1
  O  O10  1  0.99540369  0.00421791  0.97855969  1
  O  O11  1  0.20235830  0.00203209  0.00285135  1
  O  O12  1  0.09499470  0.51461824  0.97850418  1
  O  O13  1  0.40001004  -0.00002724  0.01153163  1
  O  O14  1  0.29328467  0.51582050  0.00264767  1
  O  O15  1  0.59761629  -0.00197602  0.00286159  1
  O  O16  1  0.50672130  0.48415280  0.00272577  1
  O  O17  1  0.80458541  -0.00419158  0.97855573  1
  O  O18  1  0.89999596  -0.00000290  0.37932567  1
  O  O19  1  0.70500787  0.48537783  0.97854918  1
  O  O20  1  0.89999111  0.50000493  0.01167299  1
