# generated using pymatgen
data_Hg(Mo3S4)2
_symmetry_space_group_name_H-M   'P 1'
_cell_length_a   6.58901318
_cell_length_b   6.58901318
_cell_length_c   6.58901280
_cell_angle_alpha   92.93030791
_cell_angle_beta   92.93030798
_cell_angle_gamma   92.93030549
_symmetry_Int_Tables_number   1
_chemical_formula_structural   Hg(Mo3S4)2
_chemical_formula_sum   'Hg1 Mo6 S8'
_cell_volume   284.90065204
_cell_formula_units_Z   1
loop_
 _symmetry_equiv_pos_site_id
 _symmetry_equiv_pos_as_xyz
  1  'x, y, z'
loop_
 _atom_site_type_symbol
 _atom_site_label
 _atom_site_symmetry_multiplicity
 _atom_site_fract_x
 _atom_site_fract_y
 _atom_site_fract_z
 _atom_site_occupancy
  Hg  Hg0  1  0.00000000  -0.00000000  0.00000000  1
  Mo  Mo1  1  0.59238071  0.78053576  0.44633351  1
  Mo  Mo2  1  0.78053576  0.44633351  0.59238071  1
  Mo  Mo3  1  0.44633351  0.59238071  0.78053576  1
  Mo  Mo4  1  0.40761929  0.21946424  0.55366649  1
  Mo  Mo5  1  0.21946424  0.55366649  0.40761929  1
  Mo  Mo6  1  0.55366649  0.40761929  0.21946424  1
  S  S7  1  0.77307221  0.77307221  0.77307221  1
  S  S8  1  0.22692779  0.22692779  0.22692779  1
  S  S9  1  0.61837767  0.27803193  0.86778623  1
  S  S10  1  0.27803193  0.86778623  0.61837767  1
  S  S11  1  0.86778623  0.61837767  0.27803193  1
  S  S12  1  0.38162233  0.72196807  0.13221377  1
  S  S13  1  0.72196807  0.13221377  0.38162233  1
  S  S14  1  0.13221377  0.38162233  0.72196807  1
