# generated using pymatgen
data_Yb3Sm3S8
_symmetry_space_group_name_H-M   'P 1'
_cell_length_a   7.30713759
_cell_length_b   7.32057411
_cell_length_c   7.32057438
_cell_angle_alpha   109.74795782
_cell_angle_beta   108.66095059
_cell_angle_gamma   110.08214366
_symmetry_Int_Tables_number   1
_chemical_formula_structural   Yb3Sm3S8
_chemical_formula_sum   'Yb3 Sm3 S8'
_cell_volume   301.12414646
_cell_formula_units_Z   1
loop_
 _symmetry_equiv_pos_site_id
 _symmetry_equiv_pos_as_xyz
  1  'x, y, z'
loop_
 _atom_site_type_symbol
 _atom_site_label
 _atom_site_symmetry_multiplicity
 _atom_site_fract_x
 _atom_site_fract_y
 _atom_site_fract_z
 _atom_site_occupancy
  Yb  Yb0  1  0.12547758  0.74789837  0.87537067  1
  Yb  Yb1  1  0.25000000  0.62525188  0.37525188  1
  Yb  Yb2  1  0.37452242  0.24989309  0.62242079  1
  Sm  Sm3  1  0.75000000  0.87405313  0.12405313  1
  Sm  Sm4  1  0.62494088  0.37608315  0.25210409  1
  Sm  Sm5  1  0.87505912  0.12716321  0.75114226  1
  S  S6  1  0.99429162  0.85309833  0.49553584  1
  S  S7  1  0.50570838  0.00124422  0.85880670  1
  S  S8  1  0.14519487  0.14235736  0.14005170  1
  S  S9  1  0.35480513  0.49485683  0.99716249  1
  S  S10  1  0.64280682  0.65093865  0.64650413  1
  S  S11  1  0.50594601  0.00316471  0.35624579  1
  S  S12  1  0.85719318  0.50369731  0.00813183  1
  S  S13  1  0.99405399  0.35029978  0.49721870  1
