# generated using pymatgen
data_Ce3NF6
_symmetry_space_group_name_H-M   'P 1'
_cell_length_a   4.02409879
_cell_length_b   12.58596239
_cell_length_c   7.17020948
_cell_angle_alpha   29.89060008
_cell_angle_beta   55.80335339
_cell_angle_gamma   60.16135692
_symmetry_Int_Tables_number   1
_chemical_formula_structural   Ce3NF6
_chemical_formula_sum   'Ce3 N1 F6'
_cell_volume   149.63984934
_cell_formula_units_Z   1
loop_
 _symmetry_equiv_pos_site_id
 _symmetry_equiv_pos_as_xyz
  1  'x, y, z'
loop_
 _atom_site_type_symbol
 _atom_site_label
 _atom_site_symmetry_multiplicity
 _atom_site_fract_x
 _atom_site_fract_y
 _atom_site_fract_z
 _atom_site_occupancy
  Ce  Ce0  1  0.99097687  0.02521303  0.95852875  1
  Ce  Ce1  1  0.92332733  0.33606869  0.03730474  1
  Ce  Ce2  1  0.03292805  0.63796984  0.03214627  1
  N  N3  1  0.16363199  0.32786561  0.28983748  1
  F  F4  1  0.28433115  0.62626219  0.30424273  1
  F  F5  1  0.73223642  0.34079113  0.75597503  1
  F  F6  1  0.28162550  0.08681827  0.08516991  1
  F  F7  1  0.58558540  0.68981791  0.55660960  1
  F  F8  1  0.65040262  0.84662649  0.61852860  1
  F  F9  1  0.74200867  0.98027285  0.77189289  1
