# generated using pymatgen
data_LiMg7N5
_symmetry_space_group_name_H-M   'P 1'
_cell_length_a   8.69065255
_cell_length_b   8.70993744
_cell_length_c   17.41589602
_cell_angle_alpha   109.43393113
_cell_angle_beta   109.37702473
_cell_angle_gamma   109.74780562
_symmetry_Int_Tables_number   1
_chemical_formula_structural   LiMg7N5
_chemical_formula_sum   'Li6 Mg42 N30'
_cell_volume   1012.99488650
_cell_formula_units_Z   6
loop_
 _symmetry_equiv_pos_site_id
 _symmetry_equiv_pos_as_xyz
  1  'x, y, z'
loop_
 _atom_site_type_symbol
 _atom_site_label
 _atom_site_symmetry_multiplicity
 _atom_site_fract_x
 _atom_site_fract_y
 _atom_site_fract_z
 _atom_site_occupancy
  Li  Li0  1  0.28414210  0.97163083  0.25792640  1
  Li  Li1  1  0.77360498  0.72254068  0.63598107  1
  Li  Li2  1  0.95927795  0.51165371  0.62267902  1
  Li  Li3  1  0.73575514  0.51071176  0.25100149  1
  Li  Li4  1  0.97970503  0.98142506  0.38109626  1
  Li  Li5  1  0.96433404  0.50981107  0.11888818  1
  Mg  Mg6  1  0.03466771  0.49028681  0.87951984  1
  Mg  Mg7  1  0.23176312  0.96290585  0.75468757  1
  Mg  Mg8  1  0.26264147  0.77125730  0.86343805  1
  Mg  Mg9  1  0.23045284  0.27411830  0.86933552  1
  Mg  Mg10  1  0.99914016  0.03940369  0.63720544  1
  Mg  Mg11  1  0.22103517  0.46106143  0.72851016  1
  Mg  Mg12  1  0.04110478  0.27869095  0.50678541  1
  Mg  Mg13  1  0.02586057  0.46206769  0.37520442  1
  Mg  Mg14  1  0.26722822  0.73066936  0.61655725  1
  Mg  Mg15  1  0.72519254  0.99615087  0.97872842  1
  Mg  Mg16  1  0.53386074  0.77355796  0.77135913  1
  Mg  Mg17  1  0.30291999  0.78130598  0.36548735  1
  Mg  Mg18  1  0.50849544  0.23747510  0.98242126  1
  Mg  Mg19  1  0.53748679  0.53620225  0.88320683  1
  Mg  Mg20  1  0.46989537  0.47658740  0.61609890  1
  Mg  Mg21  1  0.50219632  0.76407549  0.52304032  1
  Mg  Mg22  1  0.26198927  0.29603709  0.38437483  1
  Mg  Mg23  1  0.46852877  0.23176993  0.73291215  1
  Mg  Mg24  1  0.01914125  0.03881530  0.11895653  1
  Mg  Mg25  1  0.21879866  0.45723449  0.22730654  1
  Mg  Mg26  1  0.29979645  0.04165423  0.53668774  1
  Mg  Mg27  1  0.04118963  0.27673577  0.00504852  1
  Mg  Mg28  1  0.26025370  0.72917803  0.11698600  1
  Mg  Mg29  1  0.95774804  0.71817599  0.99259704  1
  Mg  Mg30  1  0.73128431  0.26217184  0.88478316  1
  Mg  Mg31  1  0.73478875  0.99527371  0.47950628  1
  Mg  Mg32  1  0.77160001  0.54163529  0.76489821  1
  Mg  Mg33  1  0.99204689  0.96009933  0.86495474  1
  Mg  Mg34  1  0.53978345  0.76373053  0.27094756  1
  Mg  Mg35  1  0.51870426  0.24103806  0.48518092  1
  Mg  Mg36  1  0.54543666  0.54204522  0.38220288  1
  Mg  Mg37  1  0.45708517  0.45754588  0.11630256  1
  Mg  Mg38  1  0.48735542  0.76712810  0.01701363  1
  Mg  Mg39  1  0.46106405  0.23091604  0.22972414  1
  Mg  Mg40  1  0.74960150  0.24100528  0.63807216  1
  Mg  Mg41  1  0.27104647  0.00705134  0.01979778  1
  Mg  Mg42  1  0.76265919  0.02741277  0.74309056  1
  Mg  Mg43  1  0.95048650  0.71943005  0.51586735  1
  Mg  Mg44  1  0.72700634  0.27132132  0.38805720  1
  Mg  Mg45  1  0.74144013  0.68864164  0.11016667  1
  Mg  Mg46  1  0.74777909  0.24543903  0.13782664  1
  Mg  Mg47  1  0.72055037  0.02787783  0.24131357  1
  N  N48  1  0.00489584  0.00714761  0.75285215  1
  N  N49  1  0.03063206  0.75032616  0.88976757  1
  N  N50  1  0.21379014  0.96533925  0.62174655  1
  N  N51  1  0.50150819  0.00289922  0.00171937  1
  N  N52  1  0.25487640  0.72500533  0.73700542  1
  N  N53  1  0.28390509  0.53486956  0.87544072  1
  N  N54  1  0.24933545  0.21991543  0.98563244  1
  N  N55  1  0.22236812  0.96720113  0.12473646  1
  N  N56  1  0.47126202  0.25273374  0.86008417  1
  N  N57  1  0.49724784  0.49876062  0.74887767  1
  N  N58  1  0.49601692  0.99670356  0.49966430  1
  N  N59  1  0.26469851  0.72254057  0.23727998  1
  N  N60  1  0.24181145  0.20988987  0.48008347  1
  N  N61  1  0.27433290  0.53161194  0.37404168  1
  N  N62  1  0.52363806  0.74902550  0.64068292  1
  N  N63  1  0.74939281  0.27718132  0.76401768  1
  N  N64  1  0.70869772  0.45785330  0.62359917  1
  N  N65  1  0.74579490  0.78281350  0.50990192  1
  N  N66  1  0.47030455  0.26041676  0.36209045  1
  N  N67  1  0.49107078  0.49447005  0.24804589  1
  N  N68  1  0.78102709  0.03108738  0.87594351  1
  N  N69  1  0.53658732  0.74881437  0.14008118  1
  N  N70  1  0.96740467  0.24243007  0.60659023  1
  N  N71  1  0.74883110  0.28327828  0.26545023  1
  N  N72  1  0.71242070  0.46370528  0.12360092  1
  N  N73  1  0.75560084  0.78332642  0.01693716  1
  N  N74  1  0.00188502  0.50195434  0.49400733  1
  N  N75  1  0.77546640  0.03648460  0.37202997  1
  N  N76  1  0.96778057  0.24224906  0.10916936  1
  N  N77  1  0.00349170  0.49901212  0.99718649  1
