# generated using pymatgen
data_V2Bi4O11
_symmetry_space_group_name_H-M   'P 1'
_cell_length_a   7.27020133
_cell_length_b   8.57013732
_cell_length_c   9.44497730
_cell_angle_alpha   90.00000000
_cell_angle_beta   90.00000000
_cell_angle_gamma   102.94574731
_symmetry_Int_Tables_number   1
_chemical_formula_structural   V2Bi4O11
_chemical_formula_sum   'V4 Bi8 O22'
_cell_volume   573.52691595
_cell_formula_units_Z   2
loop_
 _symmetry_equiv_pos_site_id
 _symmetry_equiv_pos_as_xyz
  1  'x, y, z'
loop_
 _atom_site_type_symbol
 _atom_site_label
 _atom_site_symmetry_multiplicity
 _atom_site_fract_x
 _atom_site_fract_y
 _atom_site_fract_z
 _atom_site_occupancy
  V  V0  1  0.61214025  0.42709046  0.17571937  1
  V  V1  1  0.11577685  0.95063660  0.67821342  1
  V  V2  1  0.88422315  0.04936340  0.17821342  1
  V  V3  1  0.38785975  0.57290954  0.67571937  1
  Bi  Bi4  1  0.16639001  0.30886664  0.45507536  1
  Bi  Bi5  1  0.22754875  0.50308155  0.07124357  1
  Bi  Bi6  1  0.34942439  0.01726714  0.05157157  1
  Bi  Bi7  1  0.12765931  0.78018012  0.33015083  1
  Bi  Bi8  1  0.87234069  0.21981988  0.83015083  1
  Bi  Bi9  1  0.65057561  0.98273286  0.55157157  1
  Bi  Bi10  1  0.83360999  0.69113336  0.95507536  1
  Bi  Bi11  1  0.77245125  0.49691845  0.57124357  1
  O  O12  1  0.15878482  0.73658731  0.09746891  1
  O  O13  1  0.15966778  0.52361036  0.59756526  1
  O  O14  1  0.87784313  0.85211550  0.23275764  1
  O  O15  1  0.81545818  0.50601961  0.80111026  1
  O  O16  1  0.47389862  0.39946363  0.63889733  1
  O  O17  1  0.67990592  0.00437485  0.77429958  1
  O  O18  1  0.32002015  0.94248190  0.58849531  1
  O  O19  1  0.93365194  0.89154411  0.55433210  1
  O  O20  1  0.92163829  0.17227319  0.32608594  1
  O  O21  1  0.55430182  0.71429744  0.58173872  1
  O  O22  1  0.39431359  0.61474279  0.85227482  1
  O  O23  1  0.44569818  0.28570256  0.08173872  1
  O  O24  1  0.60568641  0.38525721  0.35227482  1
  O  O25  1  0.06634806  0.10845589  0.05433210  1
  O  O26  1  0.07836171  0.82772681  0.82608594  1
  O  O27  1  0.67997985  0.05751810  0.08849531  1
  O  O28  1  0.52610138  0.60053637  0.13889733  1
  O  O29  1  0.18454182  0.49398039  0.30111026  1
  O  O30  1  0.12215687  0.14788450  0.73275764  1
  O  O31  1  0.32009408  0.99562515  0.27429958  1
  O  O32  1  0.84121518  0.26341269  0.59746891  1
  O  O33  1  0.84033222  0.47638964  0.09756526  1
