# generated using pymatgen
data_Sr22Nb10O47
_symmetry_space_group_name_H-M   'P 1'
_cell_length_a   6.01978905
_cell_length_b   5.96108849
_cell_length_c   50.55245542
_cell_angle_alpha   58.55996012
_cell_angle_beta   58.24527096
_cell_angle_gamma   61.68514173
_symmetry_Int_Tables_number   1
_chemical_formula_structural   Sr22Nb10O47
_chemical_formula_sum   'Sr22 Nb10 O47'
_cell_volume   1265.14578566
_cell_formula_units_Z   1
loop_
 _symmetry_equiv_pos_site_id
 _symmetry_equiv_pos_as_xyz
  1  'x, y, z'
loop_
 _atom_site_type_symbol
 _atom_site_label
 _atom_site_symmetry_multiplicity
 _atom_site_fract_x
 _atom_site_fract_y
 _atom_site_fract_z
 _atom_site_occupancy
  Sr  Sr0  1  0.11637248  0.32490566  0.03657604  1
  Sr  Sr1  1  0.17195654  0.33545505  0.13752981  1
  Sr  Sr2  1  0.44848585  0.60413970  0.05093360  1
  Sr  Sr3  1  0.63292074  0.77893372  0.09773912  1
  Sr  Sr4  1  0.23470335  0.25601030  0.27560011  1
  Sr  Sr5  1  0.39013689  0.52477856  0.18459875  1
  Sr  Sr6  1  0.64620059  0.81269225  0.20620611  1
  Sr  Sr7  1  0.19160029  0.27534883  0.41318094  1
  Sr  Sr8  1  0.77043732  0.76190485  0.34818677  1
  Sr  Sr9  1  0.17906561  0.32525387  0.51839148  1
  Sr  Sr10  1  0.46790964  0.55379219  0.43425076  1
  Sr  Sr11  1  0.65727885  0.77472770  0.47630655  1
  Sr  Sr12  1  0.22840267  0.25778371  0.65321334  1
  Sr  Sr13  1  0.40351058  0.52119657  0.56282813  1
  Sr  Sr14  1  0.20934607  0.29035548  0.79045531  1
  Sr  Sr15  1  0.64881274  0.81455598  0.58462842  1
  Sr  Sr16  1  0.76862365  0.75676458  0.72554278  1
  Sr  Sr17  1  0.19587666  0.31584710  0.89918316  1
  Sr  Sr18  1  0.47701379  0.54996875  0.81260263  1
  Sr  Sr19  1  0.66603376  0.76825501  0.85643664  1
  Sr  Sr20  1  0.43379733  0.49298139  0.94410254  1
  Sr  Sr21  1  0.71711609  0.77262360  0.95917598  1
  Nb  Nb22  1  0.00311576  0.05263433  0.99648619  1
  Nb  Nb23  1  0.90468235  0.05512420  0.11896446  1
  Nb  Nb24  1  0.92811436  0.04161392  0.23669458  1
  Nb  Nb25  1  0.50814363  0.50684755  0.31640615  1
  Nb  Nb26  1  0.01593354  0.04091334  0.37209269  1
  Nb  Nb27  1  0.92357763  0.04872336  0.49765295  1
  Nb  Nb28  1  0.92586404  0.04072386  0.61513030  1
  Nb  Nb29  1  0.50024569  0.50673001  0.69418081  1
  Nb  Nb30  1  0.01652639  0.03591432  0.74895406  1
  Nb  Nb31  1  0.94203469  0.04662362  0.87514547  1
  O  O32  1  0.07771360  0.38013506  0.08838058  1
  O  O33  1  0.82455473  0.39131774  0.00804373  1
  O  O34  1  0.22001734  0.85411655  0.08755986  1
  O  O35  1  0.22792966  0.12550037  0.23132949  1
  O  O36  1  0.79690306  0.82578155  0.03622379  1
  O  O37  1  0.69776874  0.21900966  0.08695072  1
  O  O38  1  0.58399651  0.27979831  0.14614804  1
  O  O39  1  0.12028147  0.88708698  0.14793289  1
  O  O40  1  0.19851304  0.69747812  0.22875693  1
  O  O41  1  0.18204056  0.42020859  0.33021789  1
  O  O42  1  0.85749684  0.17347895  0.19794655  1
  O  O43  1  0.74619515  0.74275778  0.14535538  1
  O  O44  1  0.66972417  0.35672893  0.24798378  1
  O  O45  1  0.75810503  0.21612358  0.30372825  1
  O  O46  1  0.17091320  0.91924011  0.33437527  1
  O  O47  1  0.07521526  0.38180546  0.46904107  1
  O  O48  1  0.59322807  0.39388840  0.35302956  1
  O  O49  1  0.65851322  0.80854629  0.27722769  1
  O  O50  1  0.76700385  0.27634107  0.39796149  1
  O  O51  1  0.26085605  0.85293405  0.46548337  1
  O  O52  1  0.29796148  0.89819707  0.38773062  1
  O  O53  1  0.22340460  0.13043772  0.60950355  1
  O  O54  1  0.73715324  0.19117167  0.46601628  1
  O  O55  1  0.84958244  0.75092796  0.39957413  1
  O  O56  1  0.59607828  0.26241987  0.52590077  1
  O  O57  1  0.14128706  0.88044584  0.52661973  1
  O  O58  1  0.20128951  0.70112613  0.60652168  1
  O  O59  1  0.17759586  0.40748229  0.70818813  1
  O  O60  1  0.85335244  0.16854120  0.57667966  1
  O  O61  1  0.76947988  0.73056545  0.52384274  1
  O  O62  1  0.66408762  0.35520879  0.62623082  1
  O  O63  1  0.75168953  0.21510828  0.68166519  1
  O  O64  1  0.17676238  0.90628223  0.71100609  1
  O  O65  1  0.08580501  0.38064852  0.84632763  1
  O  O66  1  0.66034056  0.80238213  0.65491436  1
  O  O67  1  0.58805083  0.38963377  0.73069850  1
  O  O68  1  0.76117996  0.25997519  0.77623764  1
  O  O69  1  0.29384295  0.86804440  0.76595252  1
  O  O70  1  0.27565932  0.84518221  0.84455013  1
  O  O71  1  0.33393430  0.04956261  0.99707762  1
  O  O72  1  0.75106688  0.19081569  0.84415394  1
  O  O73  1  0.84700330  0.74836206  0.77454863  1
  O  O74  1  0.61956293  0.25706196  0.90495222  1
  O  O75  1  0.15448082  0.87801966  0.90598142  1
  O  O76  1  0.25747039  0.73734330  0.98031513  1
  O  O77  1  0.77948808  0.73217358  0.90158041  1
  O  O78  1  0.89277924  0.26527855  0.95838048  1
