# generated using pymatgen
data_Nb20(O13F7)3
_symmetry_space_group_name_H-M   'P 1'
_cell_length_a   4.13265011
_cell_length_b   3.88634511
_cell_length_c   80.30905148
_cell_angle_alpha   90.00000000
_cell_angle_beta   90.00000000
_cell_angle_gamma   90.00000000
_symmetry_Int_Tables_number   1
_chemical_formula_structural   Nb20(O13F7)3
_chemical_formula_sum   'Nb20 O39 F21'
_cell_volume   1289.83601003
_cell_formula_units_Z   1
loop_
 _symmetry_equiv_pos_site_id
 _symmetry_equiv_pos_as_xyz
  1  'x, y, z'
loop_
 _atom_site_type_symbol
 _atom_site_label
 _atom_site_symmetry_multiplicity
 _atom_site_fract_x
 _atom_site_fract_y
 _atom_site_fract_z
 _atom_site_occupancy
  Nb  Nb0  1  0.00000000  0.00000000  0.00000000  1
  Nb  Nb1  1  0.00000000  0.00000000  0.05257295  1
  Nb  Nb2  1  0.00000000  0.00000000  0.10248929  1
  Nb  Nb3  1  0.00000000  0.00000000  0.15243230  1
  Nb  Nb4  1  0.00000000  0.00000000  0.20245533  1
  Nb  Nb5  1  0.00000000  0.00000000  0.25229954  1
  Nb  Nb6  1  0.00000000  0.00000000  0.30217113  1
  Nb  Nb7  1  0.00000000  0.00000000  0.35205621  1
  Nb  Nb8  1  0.00000000  0.00000000  0.40186136  1
  Nb  Nb9  1  0.00000000  0.00000000  0.45132496  1
  Nb  Nb10  1  0.00000000  0.00000000  0.50000000  1
  Nb  Nb11  1  0.00000000  0.00000000  0.54867504  1
  Nb  Nb12  1  0.00000000  0.00000000  0.59813864  1
  Nb  Nb13  1  0.00000000  0.00000000  0.64794379  1
  Nb  Nb14  1  0.00000000  0.00000000  0.69782887  1
  Nb  Nb15  1  0.00000000  0.00000000  0.74770046  1
  Nb  Nb16  1  0.00000000  0.00000000  0.79754467  1
  Nb  Nb17  1  0.00000000  0.00000000  0.84756770  1
  Nb  Nb18  1  0.00000000  0.00000000  0.89751071  1
  Nb  Nb19  1  0.00000000  0.00000000  0.94742705  1
  O  O20  1  0.00000000  0.00000000  0.07491212  1
  O  O21  1  0.00000000  0.00000000  0.12500024  1
  O  O22  1  0.00000000  0.00000000  0.17489098  1
  O  O23  1  0.00000000  0.50000000  0.14921904  1
  O  O24  1  0.00000000  0.00000000  0.22476259  1
  O  O25  1  0.00000000  0.50000000  0.24907142  1
  O  O26  1  0.00000000  0.00000000  0.27471813  1
  O  O27  1  0.00000000  0.50000000  0.29908826  1
  O  O28  1  0.00000000  0.00000000  0.32466917  1
  O  O29  1  0.00000000  0.50000000  0.34915748  1
  O  O30  1  0.00000000  0.00000000  0.37463462  1
  O  O31  1  0.00000000  0.50000000  0.39930547  1
  O  O32  1  0.00000000  0.00000000  0.42471506  1
  O  O33  1  0.00000000  0.50000000  0.44956785  1
  O  O34  1  0.00000000  0.00000000  0.47490044  1
  O  O35  1  0.00000000  0.50000000  0.50000000  1
  O  O36  1  0.00000000  0.00000000  0.52509956  1
  O  O37  1  0.00000000  0.00000000  0.57528494  1
  O  O38  1  0.00000000  0.50000000  0.55043215  1
  O  O39  1  0.00000000  0.50000000  0.60069453  1
  O  O40  1  0.00000000  0.00000000  0.62536538  1
  O  O41  1  0.00000000  0.00000000  0.67533083  1
  O  O42  1  0.00000000  0.50000000  0.65084252  1
  O  O43  1  0.00000000  0.00000000  0.72528187  1
  O  O44  1  0.00000000  0.50000000  0.70091174  1
  O  O45  1  0.00000000  0.50000000  0.75092858  1
  O  O46  1  0.00000000  0.00000000  0.77523741  1
  O  O47  1  0.00000000  0.00000000  0.82510902  1
  O  O48  1  0.00000000  0.50000000  0.85078096  1
  O  O49  1  0.00000000  0.00000000  0.87499976  1
  O  O50  1  0.00000000  0.00000000  0.92508788  1
  O  O51  1  0.00000000  0.50000000  0.95078161  1
  O  O52  1  0.50000000  0.00000000  0.00000000  1
  O  O53  1  0.00000000  0.50000000  0.00000000  1
  O  O54  1  0.00000000  0.50000000  0.04921839  1
  O  O55  1  0.00000000  0.50000000  0.09931023  1
  O  O56  1  0.00000000  0.50000000  0.19907854  1
  O  O57  1  0.00000000  0.50000000  0.80092146  1
  O  O58  1  0.00000000  0.50000000  0.90068977  1
  F  F59  1  0.00000000  0.00000000  0.97463384  1
  F  F60  1  0.50000000  0.00000000  0.05013125  1
  F  F61  1  0.50000000  0.00000000  0.10006864  1
  F  F62  1  0.50000000  0.00000000  0.14992837  1
  F  F63  1  0.50000000  0.00000000  0.19982762  1
  F  F64  1  0.50000000  0.00000000  0.24979265  1
  F  F65  1  0.50000000  0.00000000  0.29975795  1
  F  F66  1  0.50000000  0.00000000  0.34975869  1
  F  F67  1  0.50000000  0.00000000  0.44998205  1
  F  F68  1  0.50000000  0.00000000  0.39983946  1
  F  F69  1  0.50000000  0.00000000  0.50000000  1
  F  F70  1  0.50000000  0.00000000  0.55001795  1
  F  F71  1  0.50000000  0.00000000  0.60016054  1
  F  F72  1  0.50000000  0.00000000  0.65024131  1
  F  F73  1  0.50000000  0.00000000  0.70024205  1
  F  F74  1  0.50000000  0.00000000  0.75020735  1
  F  F75  1  0.50000000  0.00000000  0.80017238  1
  F  F76  1  0.50000000  0.00000000  0.85007163  1
  F  F77  1  0.50000000  0.00000000  0.89993136  1
  F  F78  1  0.50000000  0.00000000  0.94986875  1
  F  F79  1  0.00000000  0.00000000  0.02536616  1
