# generated using pymatgen
data_Li2Fe(PO4)2
_symmetry_space_group_name_H-M   'P 1'
_cell_length_a   4.96785387
_cell_length_b   8.64610936
_cell_length_c   6.77786342
_cell_angle_alpha   90.00000000
_cell_angle_beta   94.96031517
_cell_angle_gamma   90.00000000
_symmetry_Int_Tables_number   1
_chemical_formula_structural   Li2Fe(PO4)2
_chemical_formula_sum   'Li4 Fe2 P4 O16'
_cell_volume   290.03658855
_cell_formula_units_Z   2
loop_
 _symmetry_equiv_pos_site_id
 _symmetry_equiv_pos_as_xyz
  1  'x, y, z'
loop_
 _atom_site_type_symbol
 _atom_site_label
 _atom_site_symmetry_multiplicity
 _atom_site_fract_x
 _atom_site_fract_y
 _atom_site_fract_z
 _atom_site_occupancy
  Li  Li0  1  0.50854472  0.35566587  0.17437467  1
  Li  Li1  1  0.00762530  0.50154239  0.98796662  1
  Li  Li2  1  0.99145528  0.85566587  0.32562533  1
  Li  Li3  1  0.49237470  0.00154239  0.51203338  1
  Fe  Fe4  1  0.49454222  0.00181075  0.99021122  1
  Fe  Fe5  1  0.00545778  0.50181075  0.50978878  1
  P  P6  1  0.02577351  0.17853686  0.22605912  1
  P  P7  1  0.53448487  0.32228775  0.72321912  1
  P  P8  1  0.96551513  0.82228775  0.77678088  1
  P  P9  1  0.47422649  0.67853686  0.27394088  1
  O  O10  1  0.18888361  0.14449416  0.04584690  1
  O  O11  1  0.67817526  0.37183629  0.53962885  1
  O  O12  1  0.36100172  0.57302512  0.10423566  1
  O  O13  1  0.43074548  0.85507498  0.22873516  1
  O  O14  1  0.95002287  0.64311505  0.75307004  1
  O  O15  1  0.23612525  0.37486949  0.70030170  1
  O  O16  1  0.26387475  0.87486949  0.79969830  1
  O  O17  1  0.13899828  0.07302512  0.39576434  1
  O  O18  1  0.78111417  0.64455411  0.31594676  1
  O  O19  1  0.06925452  0.35507498  0.27126484  1
  O  O20  1  0.82182474  0.87183629  0.96037115  1
  O  O21  1  0.31111639  0.64449416  0.45415310  1
  O  O22  1  0.54997713  0.14311505  0.74692996  1
  O  O23  1  0.66998769  0.39050218  0.91782989  1
  O  O24  1  0.83001231  0.89050218  0.58217011  1
  O  O25  1  0.71888583  0.14455411  0.18405324  1
