# generated using pymatgen
data_Li3V2P5O18
_symmetry_space_group_name_H-M   'P 1'
_cell_length_a   9.33155341
_cell_length_b   10.57703920
_cell_length_c   6.43949568
_cell_angle_alpha   93.06072333
_cell_angle_beta   91.90268177
_cell_angle_gamma   95.75780413
_symmetry_Int_Tables_number   1
_chemical_formula_structural   Li3V2P5O18
_chemical_formula_sum   'Li6 V4 P10 O36'
_cell_volume   630.99515581
_cell_formula_units_Z   2
loop_
 _symmetry_equiv_pos_site_id
 _symmetry_equiv_pos_as_xyz
  1  'x, y, z'
loop_
 _atom_site_type_symbol
 _atom_site_label
 _atom_site_symmetry_multiplicity
 _atom_site_fract_x
 _atom_site_fract_y
 _atom_site_fract_z
 _atom_site_occupancy
  Li  Li0  1  0.20859386  0.66706584  0.12611975  1
  Li  Li1  1  0.73107419  0.40132802  0.44693829  1
  Li  Li2  1  0.06087954  0.86854182  0.99419947  1
  Li  Li3  1  0.79140614  0.33293416  0.87388025  1
  Li  Li4  1  0.26892581  0.59867198  0.55306171  1
  Li  Li5  1  0.93912046  0.13145818  0.00580053  1
  V  V6  1  0.34564660  0.40937534  0.22737546  1
  V  V7  1  0.22808071  0.04766972  0.66951723  1
  V  V8  1  0.77191929  0.95233028  0.33048277  1
  V  V9  1  0.65435340  0.59062466  0.77262454  1
  P  P10  1  0.72749502  0.89690947  0.82966706  1
  P  P11  1  0.41474510  0.35146027  0.72187184  1
  P  P12  1  0.95548652  0.20237416  0.51509447  1
  P  P13  1  0.99092208  0.60244309  0.77999418  1
  P  P14  1  0.41651913  0.82584469  0.83018622  1
  P  P15  1  0.00907792  0.39755691  0.22000582  1
  P  P16  1  0.27250498  0.10309053  0.17033294  1
  P  P17  1  0.58348087  0.17415531  0.16981378  1
  P  P18  1  0.04451348  0.79762584  0.48490553  1
  P  P19  1  0.58525490  0.64853973  0.27812816  1
  O  O20  1  0.95320842  0.68390879  0.58141970  1
  O  O21  1  0.83661752  0.51976659  0.78193443  1
  O  O22  1  0.56960689  0.90361850  0.90988580  1
  O  O23  1  0.91857971  0.10038549  0.33160548  1
  O  O24  1  0.82539988  0.24963848  0.60972577  1
  O  O25  1  0.08142029  0.89961451  0.66839452  1
  O  O26  1  0.11235962  0.52638365  0.72460367  1
  O  O27  1  0.68243920  0.19035330  0.99438069  1
  O  O28  1  0.64044381  0.59785787  0.06313869  1
  O  O29  1  0.82361761  0.95521162  0.01642922  1
  O  O30  1  0.63545487  0.06897493  0.31344322  1
  O  O31  1  0.42189921  0.59904281  0.26247777  1
  O  O32  1  0.36454513  0.93102507  0.68655678  1
  O  O33  1  0.17638239  0.04478838  0.98357078  1
  O  O34  1  0.88764038  0.47361635  0.27539633  1
  O  O35  1  0.16338248  0.48023341  0.21806557  1
  O  O36  1  0.45303548  0.70113582  0.71881529  1
  O  O37  1  0.98219828  0.31046154  0.02692270  1
  O  O38  1  0.62478196  0.79253613  0.30688112  1
  O  O39  1  0.37521804  0.20746387  0.69311888  1
  O  O40  1  0.43039311  0.09638150  0.09011420  1
  O  O41  1  0.25142385  0.24250808  0.21461121  1
  O  O42  1  0.24025158  0.03046780  0.36441356  1
  O  O43  1  0.74857615  0.75749192  0.78538879  1
  O  O44  1  0.54696452  0.29886418  0.28118471  1
  O  O45  1  0.93297028  0.85023763  0.33458548  1
  O  O46  1  0.06702972  0.14976237  0.66541452  1
  O  O47  1  0.17460012  0.75036152  0.39027423  1
  O  O48  1  0.01780172  0.68953846  0.97307730  1
  O  O49  1  0.64981028  0.58088125  0.46509925  1
  O  O50  1  0.31756080  0.80964670  0.00561931  1
  O  O51  1  0.75974842  0.96953220  0.63558644  1
  O  O52  1  0.57810079  0.40095719  0.73752223  1
  O  O53  1  0.04679158  0.31609121  0.41858030  1
  O  O54  1  0.35018972  0.41911875  0.53490075  1
  O  O55  1  0.35955619  0.40214213  0.93686131  1
