# generated using pymatgen
data_Ca2H2S2O9
_symmetry_space_group_name_H-M   'P 1'
_cell_length_a   9.55282519
_cell_length_b   9.56131099
_cell_length_c   9.55282519
_cell_angle_alpha   99.14430096
_cell_angle_beta   136.04366171
_cell_angle_gamma   96.94756465
_symmetry_Int_Tables_number   1
_chemical_formula_structural   Ca2H2S2O9
_chemical_formula_sum   'Ca6 H6 S6 O27'
_cell_volume   561.56373104
_cell_formula_units_Z   3
loop_
 _symmetry_equiv_pos_site_id
 _symmetry_equiv_pos_as_xyz
  1  'x, y, z'
loop_
 _atom_site_type_symbol
 _atom_site_label
 _atom_site_symmetry_multiplicity
 _atom_site_fract_x
 _atom_site_fract_y
 _atom_site_fract_z
 _atom_site_occupancy
  Ca  Ca0  1  0.46397676  0.00000000  0.46397676  1
  Ca  Ca1  1  0.00421573  0.50000000  0.50421573  1
  Ca  Ca2  1  0.09613444  0.56787110  0.00156271  1
  Ca  Ca3  1  0.43369161  0.43212890  0.52826334  1
  Ca  Ca4  1  0.91718971  0.91709469  0.50447956  1
  Ca  Ca5  1  0.58738487  0.08290531  0.00009502  1
  H  H6  1  0.64689381  0.56250780  0.21180811  1
  H  H7  1  0.64930030  0.43749220  0.08438601  1
  H  H8  1  0.99661213  0.12500980  0.78900054  1
  H  H9  1  0.66399074  0.87499020  0.87160232  1
  H  H10  1  0.18829405  0.06059239  0.91624013  1
  H  H11  1  0.85564774  0.93940761  0.12770166  1
  S  S12  1  0.19129063  0.18907142  0.54497817  1
  S  S13  1  0.35590675  0.81092858  0.00221920  1
  S  S14  1  0.20637355  0.74995116  0.45433115  1
  S  S15  1  0.70437999  0.25004884  0.45642239  1
  S  S16  1  0.85519355  0.31084771  0.99756282  1
  S  S17  1  0.68671511  0.68915229  0.54434584  1
  O  O18  1  0.70001703  0.84844918  0.58554518  1
  O  O19  1  0.73709601  0.15155082  0.85156786  1
  O  O20  1  0.21286687  0.35099506  0.59062276  1
  O  O21  1  0.23962769  0.64900494  0.86187181  1
  O  O22  1  0.58757374  0.85431519  0.14447849  1
  O  O23  1  0.29016329  0.14568481  0.73325855  1
  O  O24  1  0.08894597  0.35852390  0.14276981  1
  O  O25  1  0.78424591  0.64147610  0.73042207  1
  O  O26  1  0.15862752  0.74453834  0.26707898  1
  O  O27  1  0.52254064  0.25546166  0.41408918  1
  O  O28  1  0.65594428  0.24624750  0.26918633  1
  O  O29  1  0.02293883  0.75375250  0.40969678  1
  O  O30  1  0.45794661  0.58537708  0.35740789  1
  O  O31  1  0.77203081  0.41462292  0.87256953  1
  O  O32  1  0.95925938  0.08976486  0.36472633  1
  O  O33  1  0.27496148  0.91023514  0.86949453  1
  O  O34  1  0.31582739  0.83167693  0.12755935  1
  O  O35  1  0.29588242  0.16832307  0.48415047  1
  O  O36  1  0.82093707  0.32606499  0.12996468  1
  O  O37  1  0.80389969  0.67393501  0.49487207  1
  O  O38  1  0.74471079  0.10901203  0.50604386  1
  O  O39  1  0.39703183  0.89098797  0.63569876  1
  O  O40  1  0.25607332  0.61400197  0.51435304  1
  O  O41  1  0.90035106  0.38599803  0.64207135  1
  O  O42  1  0.56788662  0.50000000  0.06788662  1
  O  O43  1  0.13361677  0.13343403  0.93233953  1
  O  O44  1  0.79890549  0.86656597  0.00018274  1
