# generated using pymatgen
data_H8C2NCl
_symmetry_space_group_name_H-M   'P 1'
_cell_length_a   9.63485104
_cell_length_b   9.63485104
_cell_length_c   9.63485104
_cell_angle_alpha   80.94120289
_cell_angle_beta   135.20682741
_cell_angle_gamma   116.60218940
_symmetry_Int_Tables_number   1
_chemical_formula_structural   H8C2NCl
_chemical_formula_sum   'H32 C8 N4 Cl4'
_cell_volume   544.89020733
_cell_formula_units_Z   4
loop_
 _symmetry_equiv_pos_site_id
 _symmetry_equiv_pos_as_xyz
  1  'x, y, z'
loop_
 _atom_site_type_symbol
 _atom_site_label
 _atom_site_symmetry_multiplicity
 _atom_site_fract_x
 _atom_site_fract_y
 _atom_site_fract_z
 _atom_site_occupancy
  H  H0  1  0.92463863  0.85594786  0.78058649  1
  H  H1  1  0.07536137  0.14405214  0.21941351  1
  H  H2  1  0.42463863  0.64405214  0.06869077  1
  H  H3  1  0.57536137  0.35594786  0.93130923  1
  H  H4  1  0.75064253  0.78081998  0.53146252  1
  H  H5  1  0.24935747  0.21918002  0.46853748  1
  H  H6  1  0.25064253  0.71918002  0.96982255  1
  H  H7  1  0.74935747  0.28081998  0.03017745  1
  H  H8  1  0.56854779  0.65270482  0.63858240  1
  H  H9  1  0.01412242  0.92996539  0.36141760  1
  H  H10  1  0.48587758  0.84729518  0.91584298  1
  H  H11  1  0.93145221  0.57003461  0.08415702  1
  H  H12  1  0.43145221  0.34729518  0.36141760  1
  H  H13  1  0.98587758  0.07003461  0.63858240  1
  H  H14  1  0.51412242  0.15270482  0.08415702  1
  H  H15  1  0.06854779  0.42996539  0.91584298  1
  H  H16  1  0.43396186  0.75383819  0.44440724  1
  H  H17  1  0.30943095  0.98955462  0.55559276  1
  H  H18  1  0.19056905  0.74616181  0.68012367  1
  H  H19  1  0.06603814  0.51044538  0.31987633  1
  H  H20  1  0.56603814  0.24616181  0.55559276  1
  H  H21  1  0.69056905  0.01044538  0.44440724  1
  H  H22  1  0.80943095  0.25383819  0.31987633  1
  H  H23  1  0.93396186  0.48955462  0.68012367  1
  H  H24  1  0.61800010  0.84481802  0.70597586  1
  H  H25  1  0.13884216  0.91202424  0.29402414  1
  H  H26  1  0.36115784  0.65518198  0.77318208  1
  H  H27  1  0.88199990  0.58797576  0.22681792  1
  H  H28  1  0.38199990  0.15518198  0.29402414  1
  H  H29  1  0.86115784  0.08797576  0.70597586  1
  H  H30  1  0.63884216  0.34481802  0.22681792  1
  H  H31  1  0.11800010  0.41202424  0.77318208  1
  C  C32  1  0.58657344  0.76978381  0.60310773  1
  C  C33  1  0.16667608  0.98346571  0.39689227  1
  C  C34  1  0.33332392  0.73021619  0.81678963  1
  C  C35  1  0.91342656  0.51653429  0.18321037  1
  C  C36  1  0.41342656  0.23021619  0.39689227  1
  C  C37  1  0.83332392  0.01653429  0.60310773  1
  C  C38  1  0.66667608  0.26978381  0.18321037  1
  C  C39  1  0.08657344  0.48346571  0.81678963  1
  N  N40  1  0.78094841  0.85148050  0.63242890  1
  N  N41  1  0.21905159  0.14851950  0.36757110  1
  N  N42  1  0.28094841  0.64851950  0.92946791  1
  N  N43  1  0.71905159  0.35148050  0.07053209  1
  Cl  Cl44  1  0.20319557  0.85564417  0.05883973  1
  Cl  Cl45  1  0.79680443  0.14435583  0.94116027  1
  Cl  Cl46  1  0.70319557  0.64435583  0.34755140  1
  Cl  Cl47  1  0.29680443  0.35564417  0.65244860  1
