# generated using pymatgen
data_LiCr(PO4)2
_symmetry_space_group_name_H-M   'P 1'
_cell_length_a   4.70947801
_cell_length_b   9.02358385
_cell_length_c   14.01955762
_cell_angle_alpha   90.00000000
_cell_angle_beta   85.20982931
_cell_angle_gamma   90.00000000
_symmetry_Int_Tables_number   1
_chemical_formula_structural   LiCr(PO4)2
_chemical_formula_sum   'Li4 Cr4 P8 O32'
_cell_volume   593.69936204
_cell_formula_units_Z   4
loop_
 _symmetry_equiv_pos_site_id
 _symmetry_equiv_pos_as_xyz
  1  'x, y, z'
loop_
 _atom_site_type_symbol
 _atom_site_label
 _atom_site_symmetry_multiplicity
 _atom_site_fract_x
 _atom_site_fract_y
 _atom_site_fract_z
 _atom_site_occupancy
  Li  Li0  1  0.54268369  0.15610234  0.37244246  1
  Li  Li1  1  0.45731631  0.65610234  0.12755754  1
  Li  Li2  1  0.54268369  0.34389766  0.87244246  1
  Li  Li3  1  0.45731631  0.84389766  0.62755754  1
  Cr  Cr4  1  0.35864161  0.93285134  0.84912525  1
  Cr  Cr5  1  0.35864161  0.56714866  0.34912525  1
  Cr  Cr6  1  0.64135839  0.06714866  0.15087475  1
  Cr  Cr7  1  0.64135839  0.43285134  0.65087475  1
  P  P8  1  0.84479661  0.40112184  0.23678764  1
  P  P9  1  0.15520339  0.90112184  0.26321236  1
  P  P10  1  0.85677583  0.77563368  0.43148222  1
  P  P11  1  0.15520339  0.59887816  0.76321236  1
  P  P12  1  0.14322417  0.22436632  0.56851778  1
  P  P13  1  0.84479661  0.09887816  0.73678764  1
  P  P14  1  0.14322417  0.27563368  0.06851778  1
  P  P15  1  0.85677583  0.72436632  0.93148222  1
  O  O16  1  0.76487189  0.26045226  0.75743826  1
  O  O17  1  0.99142489  0.91524409  0.36803274  1
  O  O18  1  0.11387849  0.82951213  0.94123365  1
  O  O19  1  0.47772355  0.06129923  0.91261524  1
  O  O20  1  0.00857511  0.08475591  0.63196726  1
  O  O21  1  0.64676473  0.70989222  0.36450105  1
  O  O22  1  0.88612151  0.17048787  0.05876635  1
  O  O23  1  0.03803861  0.04125513  0.81053358  1
  O  O24  1  0.96196139  0.54125513  0.68946642  1
  O  O25  1  0.52227645  0.93870077  0.08738476  1
  O  O26  1  0.64676473  0.79010778  0.86450105  1
  O  O27  1  0.99142489  0.58475591  0.86803274  1
  O  O28  1  0.11387849  0.67048787  0.44123365  1
  O  O29  1  0.88612151  0.32951213  0.55876635  1
  O  O30  1  0.35323527  0.20989222  0.13549895  1
  O  O31  1  0.58280839  0.50492734  0.22956493  1
  O  O32  1  0.41719161  0.49507266  0.77043507  1
  O  O33  1  0.41719161  0.00492734  0.27043507  1
  O  O34  1  0.76487189  0.23954774  0.25743826  1
  O  O35  1  0.00857511  0.41524409  0.13196726  1
  O  O36  1  0.58280839  0.99507266  0.72956493  1
  O  O37  1  0.35323527  0.29010778  0.63549895  1
  O  O38  1  0.52227645  0.56129923  0.58738476  1
  O  O39  1  0.73791470  0.83656848  0.52470666  1
  O  O40  1  0.47772355  0.43870077  0.41261524  1
  O  O41  1  0.96196139  0.95874487  0.18946642  1
  O  O42  1  0.73791470  0.66343152  0.02470666  1
  O  O43  1  0.23512811  0.73954774  0.24256174  1
  O  O44  1  0.26208530  0.33656848  0.97529334  1
  O  O45  1  0.23512811  0.76045226  0.74256174  1
  O  O46  1  0.03803861  0.45874487  0.31053358  1
  O  O47  1  0.26208530  0.16343152  0.47529334  1
