# generated using pymatgen
data_Li3Mn10O20
_symmetry_space_group_name_H-M   'P 1'
_cell_length_a   5.89207043
_cell_length_b   5.85816985
_cell_length_c   29.77496903
_cell_angle_alpha   60.53641292
_cell_angle_beta   60.08477802
_cell_angle_gamma   60.19014957
_symmetry_Int_Tables_number   1
_chemical_formula_structural   Li3Mn10O20
_chemical_formula_sum   'Li6 Mn20 O40'
_cell_volume   731.14213125
_cell_formula_units_Z   2
loop_
 _symmetry_equiv_pos_site_id
 _symmetry_equiv_pos_as_xyz
  1  'x, y, z'
loop_
 _atom_site_type_symbol
 _atom_site_label
 _atom_site_symmetry_multiplicity
 _atom_site_fract_x
 _atom_site_fract_y
 _atom_site_fract_z
 _atom_site_occupancy
  Li  Li0  1  0.13403424  0.14447117  0.61540468  1
  Li  Li1  1  0.87487611  0.85768481  0.18195085  1
  Li  Li2  1  0.85002317  0.87674138  0.37929881  1
  Li  Li3  1  0.86379812  0.89020135  0.57115984  1
  Li  Li4  1  0.89954359  0.89090427  0.76372958  1
  Li  Li5  1  0.88818084  0.89399403  0.96476622  1
  Mn  Mn6  1  0.13913244  0.09695564  0.23339126  1
  Mn  Mn7  1  0.01398688  0.47901404  0.10559701  1
  Mn  Mn8  1  0.51510783  0.48013818  0.10388590  1
  Mn  Mn9  1  0.50441897  0.48398650  0.20552161  1
  Mn  Mn10  1  0.15168242  0.11373176  0.42417081  1
  Mn  Mn11  1  0.51510783  0.98532448  0.10388590  1
  Mn  Mn12  1  0.50850425  0.48937195  0.30433597  1
  Mn  Mn13  1  0.50793497  0.49670790  0.39972984  1
  Mn  Mn14  1  0.50850425  0.98044395  0.30433597  1
  Mn  Mn15  1  0.50194394  0.50293354  0.49887131  1
  Mn  Mn16  1  0.01367070  0.51267047  0.69219767  1
  Mn  Mn17  1  0.50566957  0.51632528  0.59233597  1
  Mn  Mn18  1  0.50194394  0.00076599  0.49887131  1
  Mn  Mn19  1  0.51047011  0.51461175  0.69155477  1
  Mn  Mn20  1  0.02256912  0.52203577  0.88667187  1
  Mn  Mn21  1  0.51047011  0.01714429  0.69155477  1
  Mn  Mn22  1  0.52232276  0.01860291  0.88760560  1
  Mn  Mn23  1  0.52352070  0.51267958  0.79022403  1
  Mn  Mn24  1  0.52232276  0.52104632  0.88760560  1
  Mn  Mn25  1  0.51556284  0.50057038  0.99665928  1
  O  O26  1  0.26218900  0.23038982  0.06451104  1
  O  O27  1  0.27404841  0.24310478  0.14794841  1
  O  O28  1  0.26218900  0.68486600  0.06451104  1
  O  O29  1  0.71168297  0.24230522  0.06074132  1
  O  O30  1  0.30197571  0.23881678  0.25304312  1
  O  O31  1  0.30700079  0.71403241  0.15298688  1
  O  O32  1  0.74845064  0.27500471  0.15196530  1
  O  O33  1  0.75724672  0.71479121  0.06263417  1
  O  O34  1  0.28841776  0.24438347  0.34456306  1
  O  O35  1  0.30197571  0.69399189  0.25304312  1
  O  O36  1  0.72075683  0.24630316  0.25732737  1
  O  O37  1  0.74845064  0.71671814  0.15196530  1
  O  O38  1  0.28749565  0.25226233  0.45023371  1
  O  O39  1  0.28803188  0.73065194  0.35013285  1
  O  O40  1  0.70616460  0.74242275  0.26179798  1
  O  O41  1  0.70590579  0.28015477  0.35323132  1
  O  O42  1  0.29900273  0.25509488  0.53816150  1
  O  O43  1  0.28749565  0.70907347  0.45023371  1
  O  O44  1  0.72310949  0.26040536  0.45121596  1
  O  O45  1  0.70590579  0.74778283  0.35323132  1
  O  O46  1  0.28452055  0.74707097  0.54426750  1
  O  O47  1  0.25244542  0.28675573  0.64610139  1
  O  O48  1  0.69594881  0.29162526  0.54990399  1
  O  O49  1  0.70228089  0.75419764  0.45786476  1
  O  O50  1  0.25244542  0.73029190  0.64610139  1
  O  O51  1  0.27614001  0.28421264  0.73108694  1
  O  O52  1  0.69594881  0.76290598  0.54990399  1
  O  O53  1  0.71401397  0.28349985  0.64379727  1
  O  O54  1  0.29075578  0.28420989  0.84043404  1
  O  O55  1  0.31003546  0.74582503  0.73966289  1
  O  O56  1  0.76055911  0.29910707  0.73983977  1
  O  O57  1  0.74987841  0.74463484  0.65217038  1
  O  O58  1  0.28678659  0.29052340  0.92643332  1
  O  O59  1  0.29075578  0.72286411  0.84043404  1
  O  O60  1  0.72422785  0.28594197  0.84077764  1
  O  O61  1  0.76055911  0.74113498  0.73983977  1
  O  O62  1  0.31420081  0.76335551  0.93181763  1
  O  O63  1  0.77119609  0.30987804  0.92990053  1
  O  O64  1  0.75830686  0.75592836  0.84596728  1
  O  O65  1  0.77119609  0.76942319  0.92990053  1
