# generated using pymatgen
data_MoP4O13
_symmetry_space_group_name_H-M   'P 1'
_cell_length_a   5.13017543
_cell_length_b   7.97206077
_cell_length_c   13.85948842
_cell_angle_alpha   80.34303607
_cell_angle_beta   82.97154464
_cell_angle_gamma   81.87813186
_symmetry_Int_Tables_number   1
_chemical_formula_structural   MoP4O13
_chemical_formula_sum   'Mo2 P8 O26'
_cell_volume   550.35533067
_cell_formula_units_Z   2
loop_
 _symmetry_equiv_pos_site_id
 _symmetry_equiv_pos_as_xyz
  1  'x, y, z'
loop_
 _atom_site_type_symbol
 _atom_site_label
 _atom_site_symmetry_multiplicity
 _atom_site_fract_x
 _atom_site_fract_y
 _atom_site_fract_z
 _atom_site_occupancy
  Mo  Mo0  1  0.43344823  0.05715687  0.25853098  1
  Mo  Mo1  1  0.56655177  0.94284313  0.74146902  1
  P  P2  1  0.86225527  0.22412208  0.36412349  1
  P  P3  1  0.33521154  0.56930117  0.82088622  1
  P  P4  1  0.71633449  0.34051331  0.69977669  1
  P  P5  1  0.13774473  0.77587792  0.63587651  1
  P  P6  1  0.66478846  0.43069883  0.17911378  1
  P  P7  1  0.99150359  0.10583662  0.85420015  1
  P  P8  1  0.00849641  0.89416338  0.14579985  1
  P  P9  1  0.28366551  0.65948669  0.30022331  1
  O  O10  1  0.28971743  0.02977794  0.83923420  1
  O  O11  1  0.79899189  0.46465568  0.08051716  1
  O  O12  1  0.74655239  0.28491293  0.45530922  1
  O  O13  1  0.50146560  0.40018219  0.78660632  1
  O  O14  1  0.49853440  0.59981781  0.21339368  1
  O  O15  1  0.83208121  0.96674818  0.82280903  1
  O  O16  1  0.29691244  0.92005995  0.66283128  1
  O  O17  1  0.10920773  0.83578098  0.05244745  1
  O  O18  1  0.53560070  0.70923295  0.80217609  1
  O  O19  1  0.84173795  0.86047603  0.64232667  1
  O  O20  1  0.40175676  0.82271705  0.32012416  1
  O  O21  1  0.96787188  0.25560925  0.75816572  1
  O  O22  1  0.71028257  0.97022206  0.16076580  1
  O  O23  1  0.59824324  0.17728295  0.67987584  1
  O  O24  1  0.25344761  0.71508707  0.54469078  1
  O  O25  1  0.16791879  0.03325182  0.17719097  1
  O  O26  1  0.70308756  0.07994005  0.33716872  1
  O  O27  1  0.77942130  0.47359522  0.61831631  1
  O  O28  1  0.15826205  0.13952397  0.35767333  1
  O  O29  1  0.20100811  0.53534432  0.91948284  1
  O  O30  1  0.22057870  0.52640478  0.38168369  1
  O  O31  1  0.03212812  0.74439075  0.24183428  1
  O  O32  1  0.13806570  0.63802191  0.73639540  1
  O  O33  1  0.86193430  0.36197809  0.26360460  1
  O  O34  1  0.46439930  0.29076705  0.19782391  1
  O  O35  1  0.89079227  0.16421902  0.94755255  1
