# generated using pymatgen
data_NaFe2O3
_symmetry_space_group_name_H-M   'P 1'
_cell_length_a   10.26570938
_cell_length_b   31.20798166
_cell_length_c   20.56393586
_cell_angle_alpha   8.73628696
_cell_angle_beta   15.17264477
_cell_angle_gamma   17.45670838
_symmetry_Int_Tables_number   1
_chemical_formula_structural   NaFe2O3
_chemical_formula_sum   'Na4 Fe8 O12'
_cell_volume   261.89781571
_cell_formula_units_Z   4
loop_
 _symmetry_equiv_pos_site_id
 _symmetry_equiv_pos_as_xyz
  1  'x, y, z'
loop_
 _atom_site_type_symbol
 _atom_site_label
 _atom_site_symmetry_multiplicity
 _atom_site_fract_x
 _atom_site_fract_y
 _atom_site_fract_z
 _atom_site_occupancy
  Na  Na0  1  0.11762463  0.31844661  0.14906854  1
  Na  Na1  1  0.11762463  0.01488639  0.10440936  1
  Na  Na2  1  0.88236877  0.31841730  0.89563520  1
  Na  Na3  1  0.88236877  0.01491570  0.85088809  1
  Fe  Fe4  1  0.62078574  0.99741639  0.62992506  1
  Fe  Fe5  1  0.37908740  0.33564412  0.37050226  1
  Fe  Fe6  1  0.06533095  0.66666700  0.16514762  1
  Fe  Fe7  1  0.62078574  0.33591661  0.62217423  1
  Fe  Fe8  1  0.38663719  0.66666700  0.37011983  1
  Fe  Fe9  1  0.61306608  0.66666700  0.63008892  1
  Fe  Fe10  1  0.37908740  0.99768888  0.37743564  1
  Fe  Fe11  1  0.93477141  0.66666700  0.83479804  1
  O  O12  1  0.00053022  0.99152774  0.01244292  1
  O  O13  1  0.00053022  0.34180526  0.98702614  1
  O  O14  1  0.23206722  0.37624105  0.19911943  1
  O  O15  1  0.00046762  0.66666700  0.99972492  1
  O  O16  1  0.76775446  0.95697711  0.80117415  1
  O  O17  1  0.50007838  0.39054920  0.41414568  1
  O  O18  1  0.22112404  0.66666700  0.27959884  1
  O  O19  1  0.76775446  0.37635589  0.67210548  1
  O  O20  1  0.49998709  0.66666700  0.50002111  1
  O  O21  1  0.23206722  0.95709195  0.32784357  1
  O  O22  1  0.77802196  0.66666700  0.72081068  1
  O  O23  1  0.50007838  0.94278380  0.58579427  1
