# generated using pymatgen
data_Li3Mo2P3O14
_symmetry_space_group_name_H-M   'P 1'
_cell_length_a   8.21922278
_cell_length_b   15.36403207
_cell_length_c   18.24780462
_cell_angle_alpha   102.98718025
_cell_angle_beta   90.00000000
_cell_angle_gamma   90.00000000
_symmetry_Int_Tables_number   1
_chemical_formula_structural   Li3Mo2P3O14
_chemical_formula_sum   'Li24 Mo16 P24 O112'
_cell_volume   2245.39594878
_cell_formula_units_Z   8
loop_
 _symmetry_equiv_pos_site_id
 _symmetry_equiv_pos_as_xyz
  1  'x, y, z'
loop_
 _atom_site_type_symbol
 _atom_site_label
 _atom_site_symmetry_multiplicity
 _atom_site_fract_x
 _atom_site_fract_y
 _atom_site_fract_z
 _atom_site_occupancy
  Li  Li0  1  0.23066468  0.11638368  0.28675755  1
  Li  Li1  1  0.02507760  0.37086795  0.65832811  1
  Li  Li2  1  0.13113326  0.76203706  0.08030211  1
  Li  Li3  1  0.63113326  0.23796294  0.41969789  1
  Li  Li4  1  0.36886674  0.76203706  0.58030211  1
  Li  Li5  1  0.05501447  0.43212589  0.85675024  1
  Li  Li6  1  0.52507760  0.62913205  0.84167189  1
  Li  Li7  1  0.97492240  0.62913205  0.34167189  1
  Li  Li8  1  0.73066468  0.88361632  0.21324245  1
  Li  Li9  1  0.56823609  0.27156640  0.26786828  1
  Li  Li10  1  0.82841284  0.16607441  0.64619919  1
  Li  Li11  1  0.55501447  0.56787411  0.64324976  1
  Li  Li12  1  0.86886674  0.23796294  0.91969789  1
  Li  Li13  1  0.47492240  0.37086795  0.15832811  1
  Li  Li14  1  0.93176391  0.27156640  0.76786828  1
  Li  Li15  1  0.32841284  0.83392559  0.85380081  1
  Li  Li16  1  0.67158716  0.16607441  0.14619919  1
  Li  Li17  1  0.94498553  0.56787411  0.14324976  1
  Li  Li18  1  0.06823609  0.72843360  0.23213172  1
  Li  Li19  1  0.26933532  0.11638368  0.78675755  1
  Li  Li20  1  0.17158716  0.83392559  0.35380081  1
  Li  Li21  1  0.76933532  0.88361632  0.71324245  1
  Li  Li22  1  0.43176391  0.72843360  0.73213172  1
  Li  Li23  1  0.44498553  0.43212589  0.35675024  1
  Mo  Mo24  1  0.98763534  0.32501913  0.08271698  1
  Mo  Mo25  1  0.51684686  0.84477107  0.04309725  1
  Mo  Mo26  1  0.51415347  0.57753508  0.14481373  1
  Mo  Mo27  1  0.51236466  0.32501913  0.58271698  1
  Mo  Mo28  1  0.48584653  0.42246492  0.85518627  1
  Mo  Mo29  1  0.01415347  0.42246492  0.35518627  1
  Mo  Mo30  1  0.95339705  0.97720511  0.84969618  1
  Mo  Mo31  1  0.54660295  0.97720511  0.34969618  1
  Mo  Mo32  1  0.01684686  0.15522893  0.45690275  1
  Mo  Mo33  1  0.01236466  0.67498087  0.91728302  1
  Mo  Mo34  1  0.48763534  0.67498087  0.41728302  1
  Mo  Mo35  1  0.48315314  0.15522893  0.95690275  1
  Mo  Mo36  1  0.98584653  0.57753508  0.64481373  1
  Mo  Mo37  1  0.98315314  0.84477107  0.54309725  1
  Mo  Mo38  1  0.04660295  0.02279489  0.15030382  1
  Mo  Mo39  1  0.45339705  0.02279489  0.65030382  1
  P  P40  1  0.30373602  0.29357062  0.41236205  1
  P  P41  1  0.72904265  0.46739204  0.25007672  1
  P  P42  1  0.69626398  0.70642938  0.58763795  1
  P  P43  1  0.15284427  0.89067905  0.98113115  1
  P  P44  1  0.13938030  0.62264075  0.48749009  1
  P  P45  1  0.84715573  0.10932095  0.01886885  1
  P  P46  1  0.70135819  0.79746982  0.87168940  1
  P  P47  1  0.80373602  0.70642938  0.08763795  1
  P  P48  1  0.36061970  0.62264075  0.98749009  1
  P  P49  1  0.31055781  0.88523940  0.20582248  1
  P  P50  1  0.63938030  0.37735925  0.01250991  1
  P  P51  1  0.81055781  0.11476060  0.29417752  1
  P  P52  1  0.22904265  0.53260796  0.24992328  1
  P  P53  1  0.65284427  0.10932095  0.51886885  1
  P  P54  1  0.19626398  0.29357062  0.91236205  1
  P  P55  1  0.27095735  0.53260796  0.74992328  1
  P  P56  1  0.77095735  0.46739204  0.75007672  1
  P  P57  1  0.29864181  0.20253018  0.12831060  1
  P  P58  1  0.68944219  0.11476060  0.79417752  1
  P  P59  1  0.86061970  0.37735925  0.51250991  1
  P  P60  1  0.34715573  0.89067905  0.48113115  1
  P  P61  1  0.79864181  0.79746982  0.37168940  1
  P  P62  1  0.18944219  0.88523940  0.70582248  1
  P  P63  1  0.20135819  0.20253018  0.62831060  1
  O  O64  1  0.45481164  0.24344595  0.16772328  1
  O  O65  1  0.95775666  0.71891854  0.13658480  1
  O  O66  1  0.66956242  0.55329073  0.22660485  1
  O  O67  1  0.11030804  0.56878502  0.54839883  1
  O  O68  1  0.46562325  0.70721639  0.99889495  1
  O  O69  1  0.58204106  0.93785750  0.66016217  1
  O  O70  1  0.67240758  0.83967380  0.95574023  1
  O  O71  1  0.00125238  0.55966856  0.88076583  1
  O  O72  1  0.61030804  0.43121498  0.95160117  1
  O  O73  1  0.98303517  0.09802436  0.25742413  1
  O  O74  1  0.95056467  0.95315035  0.58794413  1
  O  O75  1  0.33708800  0.86558556  0.96999946  1
  O  O76  1  0.83043758  0.55329073  0.72660485  1
  O  O77  1  0.36392487  0.97389099  0.54549223  1
  O  O78  1  0.54224334  0.71891854  0.63658480  1
  O  O79  1  0.63607513  0.02610901  0.45450777  1
  O  O80  1  0.32284501  0.65154744  0.49790551  1
  O  O81  1  0.01696483  0.90197564  0.74257587  1
  O  O82  1  0.42743146  0.67211630  0.19617157  1
  O  O83  1  0.86392487  0.02610901  0.95450777  1
  O  O84  1  0.84551250  0.50436388  0.31804148  1
  O  O85  1  0.27856055  0.13406886  0.66797312  1
  O  O86  1  0.92743146  0.32788370  0.30382843  1
  O  O87  1  0.13607513  0.97389099  0.04549223  1
  O  O88  1  0.71951192  0.62209812  0.10527263  1
  O  O89  1  0.15427489  0.31929012  0.99639370  1
  O  O90  1  0.82759242  0.83967380  0.45574023  1
  O  O91  1  0.19166459  0.20981311  0.39238630  1
  O  O92  1  0.19813498  0.83523183  0.24782141  1
  O  O93  1  0.45775666  0.28108146  0.36341520  1
  O  O94  1  0.50125238  0.44033144  0.61923417  1
  O  O95  1  0.32561456  0.28200016  0.63265582  1
  O  O96  1  0.16618685  0.70797188  0.86360986  1
  O  O97  1  0.83381315  0.29202812  0.13639014  1
  O  O98  1  0.88969196  0.43121498  0.45160117  1
  O  O99  1  0.83158981  0.16884572  0.37776370  1
  O  O100  1  0.54518836  0.75655405  0.83227672  1
  O  O101  1  0.34572511  0.31929012  0.49639370  1
  O  O102  1  0.80833541  0.79018689  0.60761370  1
  O  O103  1  0.17438544  0.28200016  0.13265582  1
  O  O104  1  0.45056467  0.04684965  0.91205587  1
  O  O105  1  0.32759242  0.16032620  0.04425977  1
  O  O106  1  0.59345169  0.40427341  0.26492626  1
  O  O107  1  0.04943533  0.04684965  0.41205587  1
  O  O108  1  0.67715499  0.34845256  0.50209449  1
  O  O109  1  0.21951192  0.37790188  0.39472737  1
  O  O110  1  0.04518836  0.24344595  0.66772328  1
  O  O111  1  0.65427489  0.68070988  0.50360630  1
  O  O112  1  0.23833066  0.97937688  0.20495513  1
  O  O113  1  0.10413031  0.56369544  0.40880451  1
  O  O114  1  0.11026621  0.90734860  0.90205705  1
  O  O115  1  0.57256854  0.32788370  0.80382843  1
  O  O116  1  0.91795894  0.93785750  0.16016217  1
  O  O117  1  0.82284501  0.34845256  0.00209449  1
  O  O118  1  0.30833541  0.20981311  0.89238630  1
  O  O119  1  0.60413031  0.43630456  0.09119549  1
  O  O120  1  0.83708800  0.13441444  0.53000054  1
  O  O121  1  0.03437675  0.70721639  0.49889495  1
  O  O122  1  0.41795894  0.06214250  0.33983783  1
  O  O123  1  0.48303517  0.90197564  0.24257587  1
  O  O124  1  0.94968404  0.18647597  0.00300450  1
  O  O125  1  0.73833066  0.02062312  0.29504487  1
  O  O126  1  0.99874762  0.44033144  0.11923417  1
  O  O127  1  0.67438544  0.71799984  0.36734418  1
  O  O128  1  0.61026621  0.09265140  0.59794295  1
  O  O129  1  0.30186502  0.83523183  0.74782141  1
  O  O130  1  0.51696483  0.09802436  0.75742413  1
  O  O131  1  0.54943533  0.95315035  0.08794413  1
  O  O132  1  0.09345169  0.59572659  0.23507374  1
  O  O133  1  0.69166459  0.79018689  0.10761370  1
  O  O134  1  0.90654831  0.40427341  0.76492626  1
  O  O135  1  0.69813498  0.16476817  0.25217859  1
  O  O136  1  0.33381315  0.70797188  0.36360986  1
  O  O137  1  0.89586969  0.43630456  0.59119549  1
  O  O138  1  0.16291200  0.86558556  0.46999946  1
  O  O139  1  0.39586969  0.56369544  0.90880451  1
  O  O140  1  0.53437675  0.29278361  0.00110505  1
  O  O141  1  0.66291200  0.13441444  0.03000054  1
  O  O142  1  0.04224334  0.28108146  0.86341520  1
  O  O143  1  0.66618685  0.29202812  0.63639014  1
  O  O144  1  0.17240758  0.16032620  0.54425977  1
  O  O145  1  0.33158981  0.83115428  0.12223630  1
  O  O146  1  0.55031596  0.18647597  0.50300450  1
  O  O147  1  0.65448750  0.50436388  0.81804148  1
  O  O148  1  0.22143945  0.13406886  0.16797312  1
  O  O149  1  0.82561456  0.71799984  0.86734418  1
  O  O150  1  0.72143945  0.86593114  0.33202688  1
  O  O151  1  0.17715499  0.65154744  0.99790551  1
  O  O152  1  0.80186502  0.16476817  0.75217859  1
  O  O153  1  0.07256854  0.67211630  0.69617157  1
  O  O154  1  0.38973379  0.90734860  0.40205705  1
  O  O155  1  0.44968404  0.81352403  0.49699550  1
  O  O156  1  0.34551250  0.49563612  0.18195852  1
  O  O157  1  0.96562325  0.29278361  0.50110505  1
  O  O158  1  0.08204106  0.06214250  0.83983783  1
  O  O159  1  0.49874762  0.55966856  0.38076583  1
  O  O160  1  0.40654831  0.59572659  0.73507374  1
  O  O161  1  0.78048808  0.62209812  0.60527263  1
  O  O162  1  0.88973379  0.09265140  0.09794295  1
  O  O163  1  0.66841019  0.16884572  0.87776370  1
  O  O164  1  0.84572511  0.68070988  0.00360630  1
  O  O165  1  0.33043758  0.44670927  0.77339515  1
  O  O166  1  0.77856055  0.86593114  0.83202688  1
  O  O167  1  0.16841019  0.83115428  0.62223630  1
  O  O168  1  0.38969196  0.56878502  0.04839883  1
  O  O169  1  0.16956242  0.44670927  0.27339515  1
  O  O170  1  0.05031596  0.81352403  0.99699550  1
  O  O171  1  0.26166934  0.97937688  0.70495513  1
  O  O172  1  0.28048808  0.37790188  0.89472737  1
  O  O173  1  0.15448750  0.49563612  0.68195852  1
  O  O174  1  0.95481164  0.75655405  0.33227672  1
  O  O175  1  0.76166934  0.02062312  0.79504487  1
