# generated using pymatgen
data_CeLuS3
_symmetry_space_group_name_H-M   'P 1'
_cell_length_a   3.76764688
_cell_length_b   6.68493280
_cell_length_c   9.91859963
_cell_angle_alpha   90.00000000
_cell_angle_beta   90.00000000
_cell_angle_gamma   106.36774330
_symmetry_Int_Tables_number   1
_chemical_formula_structural   CeLuS3
_chemical_formula_sum   'Ce2 Lu2 S6'
_cell_volume   239.69018758
_cell_formula_units_Z   2
loop_
 _symmetry_equiv_pos_site_id
 _symmetry_equiv_pos_as_xyz
  1  'x, y, z'
loop_
 _atom_site_type_symbol
 _atom_site_label
 _atom_site_symmetry_multiplicity
 _atom_site_fract_x
 _atom_site_fract_y
 _atom_site_fract_z
 _atom_site_occupancy
  Ce  Ce0  1  0.00260776  1.00000000  0.00000000  1
  Ce  Ce1  1  0.99739224  0.00000000  0.50000000  1
  Lu  Lu2  1  0.75622643  0.51245285  0.25000000  1
  Lu  Lu3  1  0.24377357  0.48754715  0.75000000  1
  S  S4  1  0.35399881  0.70436909  0.08413582  1
  S  S5  1  0.64600119  0.29563091  0.58413582  1
  S  S6  1  0.35037028  0.70436909  0.41586418  1
  S  S7  1  0.64962972  0.29563091  0.91586418  1
  S  S8  1  0.10566415  0.21132829  0.25000000  1
  S  S9  1  0.89433585  0.78867171  0.75000000  1
