# generated using pymatgen
data_VTe4Cl4O
_symmetry_space_group_name_H-M   'P 1'
_cell_length_a   13.98503517
_cell_length_b   13.98503522
_cell_length_c   13.98503457
_cell_angle_alpha   106.11764586
_cell_angle_beta   106.11764595
_cell_angle_gamma   116.40919308
_symmetry_Int_Tables_number   1
_chemical_formula_structural   VTe4Cl4O
_chemical_formula_sum   'V8 Te32 Cl32 O8'
_cell_volume   2082.14061206
_cell_formula_units_Z   8
loop_
 _symmetry_equiv_pos_site_id
 _symmetry_equiv_pos_as_xyz
  1  'x, y, z'
loop_
 _atom_site_type_symbol
 _atom_site_label
 _atom_site_symmetry_multiplicity
 _atom_site_fract_x
 _atom_site_fract_y
 _atom_site_fract_z
 _atom_site_occupancy
  V  V0  1  0.89178184  0.64915877  0.74857659  1
  V  V1  1  0.35679475  0.60821816  0.25737693  1
  V  V2  1  0.85084123  0.09941782  0.24262307  1
  V  V3  1  0.10821816  0.35084123  0.25142341  1
  V  V4  1  0.14915877  0.90058218  0.75737693  1
  V  V5  1  0.59941782  0.85679475  0.24857659  1
  V  V6  1  0.64320525  0.39178184  0.74262307  1
  V  V7  1  0.40058218  0.14320525  0.75142341  1
  Te  Te8  1  0.42846762  0.60643999  0.60258391  1
  Te  Te9  1  0.97366288  0.15858919  0.59504470  1
  Te  Te10  1  0.10643999  0.00385608  0.17797236  1
  Te  Te11  1  0.78641546  0.60166600  0.40067477  1
  Te  Te12  1  0.20290953  0.88152109  0.10232199  1
  Te  Te13  1  0.38152109  0.77919910  0.67861156  1
  Te  Te14  1  0.27919910  0.10058754  0.39767801  1
  Te  Te15  1  0.70099123  0.38574070  0.09932523  1
  Te  Te16  1  0.57153238  0.39356001  0.39741609  1
  Te  Te17  1  0.72080090  0.89941246  0.60232199  1
  Te  Te18  1  0.89356001  0.99614392  0.82202764  1
  Te  Te19  1  0.79709047  0.11847891  0.89767801  1
  Te  Te20  1  0.61847891  0.22080090  0.32138844  1
  Te  Te21  1  0.06354449  0.37861818  0.90495530  1
  Te  Te22  1  0.49614392  0.17411629  0.10258391  1
  Te  Te23  1  0.11425930  0.71358454  0.31525054  1
  Te  Te24  1  0.50385608  0.82588371  0.89741609  1
  Te  Te25  1  0.21358454  0.39833400  0.59932523  1
  Te  Te26  1  0.60058754  0.70290953  0.82138844  1
  Te  Te27  1  0.87861818  0.47366288  0.31507368  1
  Te  Te28  1  0.29900877  0.61425930  0.90067477  1
  Te  Te29  1  0.39941246  0.29709047  0.17861156  1
  Te  Te30  1  0.34141081  0.43645551  0.81507368  1
  Te  Te31  1  0.93645551  0.62138182  0.09504470  1
  Te  Te32  1  0.67411629  0.07153238  0.67797236  1
  Te  Te33  1  0.02633712  0.84141081  0.40495530  1
  Te  Te34  1  0.10166600  0.20099123  0.81525054  1
  Te  Te35  1  0.88574070  0.28641546  0.68474946  1
  Te  Te36  1  0.12138182  0.52633712  0.68492632  1
  Te  Te37  1  0.89833400  0.79900877  0.18474946  1
  Te  Te38  1  0.65858919  0.56354449  0.18492632  1
  Te  Te39  1  0.32588371  0.92846762  0.32202764  1
  Cl  Cl40  1  0.48880060  0.40946175  0.63575248  1
  Cl  Cl41  1  0.59956290  0.24176978  0.57204099  1
  Cl  Cl42  1  0.00043362  0.92779888  0.65227083  1
  Cl  Cl43  1  -0.00043362  0.07220112  0.34772917  1
  Cl  Cl44  1  0.22447195  0.65183722  0.15227083  1
  Cl  Cl45  1  0.02115014  0.59693770  0.84654706  1
  Cl  Cl46  1  0.77552805  0.34816278  0.84772917  1
  Cl  Cl47  1  0.57220112  0.72447195  0.07263473  1
  Cl  Cl48  1  0.16972879  0.02752191  0.92795901  1
  Cl  Cl49  1  0.15183722  0.49956638  0.42736527  1
  Cl  Cl50  1  0.25823022  0.33027121  0.35779312  1
  Cl  Cl51  1  0.32539691  0.47884986  0.07578756  1
  Cl  Cl52  1  0.74960935  0.82539691  0.34654706  1
  Cl  Cl53  1  0.52752191  0.09956290  0.85779312  1
  Cl  Cl54  1  0.09053825  0.22629074  0.07933885  1
  Cl  Cl55  1  0.90306230  0.24960935  0.42421244  1
  Cl  Cl56  1  0.47247809  0.90043710  0.14220688  1
  Cl  Cl57  1  0.72629074  0.14695189  0.13575248  1
  Cl  Cl58  1  0.67460309  0.52115014  0.92421244  1
  Cl  Cl59  1  0.64695189  0.01119940  0.42066115  1
  Cl  Cl60  1  0.97884986  0.40306230  0.15345294  1
  Cl  Cl61  1  0.27370926  0.85304811  0.86424752  1
  Cl  Cl62  1  0.40043710  0.75823022  0.42795901  1
  Cl  Cl63  1  0.09693770  0.75039065  0.57578756  1
  Cl  Cl64  1  0.35304811  0.98880060  0.57933885  1
  Cl  Cl65  1  0.84816278  0.50043362  0.57263473  1
  Cl  Cl66  1  0.83027121  0.97247809  0.07204099  1
  Cl  Cl67  1  0.42779888  0.27552805  0.92736527  1
  Cl  Cl68  1  0.90946175  0.77370926  0.92066115  1
  Cl  Cl69  1  0.51119940  0.59053825  0.36424752  1
  Cl  Cl70  1  0.25039065  0.17460309  0.65345294  1
  Cl  Cl71  1  0.74176978  0.66972879  0.64220688  1
  O  O72  1  0.24182727  0.48974461  0.25465120  1
  O  O73  1  0.75817273  0.51025539  0.74534880  1
  O  O74  1  0.26490659  0.01282393  0.75465120  1
  O  O75  1  0.73509341  0.98717607  0.24534880  1
  O  O76  1  0.48717607  0.74182727  0.25208266  1
  O  O77  1  0.98974461  0.23509341  0.24791734  1
  O  O78  1  0.51282393  0.25817273  0.74791734  1
  O  O79  1  0.01025539  0.76490659  0.75208266  1
