# generated using pymatgen
data_UP2H6O7
_symmetry_space_group_name_H-M   'P 1'
_cell_length_a   7.77425489
_cell_length_b   9.39336427
_cell_length_c   11.15277319
_cell_angle_alpha   90.00000000
_cell_angle_beta   92.19198321
_cell_angle_gamma   90.00000000
_symmetry_Int_Tables_number   1
_chemical_formula_structural   UP2H6O7
_chemical_formula_sum   'U4 P8 H24 O28'
_cell_volume   813.85101801
_cell_formula_units_Z   4
loop_
 _symmetry_equiv_pos_site_id
 _symmetry_equiv_pos_as_xyz
  1  'x, y, z'
loop_
 _atom_site_type_symbol
 _atom_site_label
 _atom_site_symmetry_multiplicity
 _atom_site_fract_x
 _atom_site_fract_y
 _atom_site_fract_z
 _atom_site_occupancy
  U  U0  1  0.21910088  0.73420590  0.94375880  1
  U  U1  1  0.71910088  0.76579410  0.44375880  1
  U  U2  1  0.78089912  0.26579410  0.05624120  1
  U  U3  1  0.28089912  0.23420590  0.55624120  1
  P  P4  1  0.65210611  0.64330826  0.04782041  1
  P  P5  1  0.15210611  0.85669174  0.54782041  1
  P  P6  1  0.34789389  0.35669174  0.95217959  1
  P  P7  1  0.84789389  0.14330826  0.45217959  1
  P  P8  1  0.13276579  0.01428718  0.15912195  1
  P  P9  1  0.63276579  0.48571282  0.65912195  1
  P  P10  1  0.86723421  0.98571282  0.84087805  1
  P  P11  1  0.36723421  0.51428718  0.34087805  1
  H  H12  1  0.68633509  0.64369145  0.92396733  1
  H  H13  1  0.18633509  0.85630855  0.42396733  1
  H  H14  1  0.31366491  0.35630855  0.07603267  1
  H  H15  1  0.81366491  0.14369145  0.57603267  1
  H  H16  1  0.78361226  0.72481068  0.10479364  1
  H  H17  1  0.28361226  0.77518932  0.60479364  1
  H  H18  1  0.21638774  0.27518932  0.89520636  1
  H  H19  1  0.71638774  0.22481068  0.39520636  1
  H  H20  1  0.24915877  0.06053481  0.25181343  1
  H  H21  1  0.74915877  0.43946519  0.75181343  1
  H  H22  1  0.75084123  0.93946519  0.74818657  1
  H  H23  1  0.25084123  0.56053481  0.24818657  1
  H  H24  1  0.02014161  0.91612636  0.21233724  1
  H  H25  1  0.52014161  0.58387364  0.71233724  1
  H  H26  1  0.97985839  0.08387364  0.78766276  1
  H  H27  1  0.47985839  0.41612636  0.28766276  1
  H  H28  1  0.08823760  0.51155183  0.74291176  1
  H  H29  1  0.58823760  0.98844817  0.24291176  1
  H  H30  1  0.91176240  0.48844817  0.25708824  1
  H  H31  1  0.41176240  0.01155183  0.75708824  1
  H  H32  1  0.02005396  0.66557272  0.70225531  1
  H  H33  1  0.52005396  0.83442728  0.20225531  1
  H  H34  1  0.97994604  0.33442728  0.29774469  1
  H  H35  1  0.47994604  0.16557272  0.79774469  1
  O  O36  1  0.34334115  0.82231357  0.82955902  1
  O  O37  1  0.84334115  0.67768643  0.32955902  1
  O  O38  1  0.65665885  0.17768643  0.17044098  1
  O  O39  1  0.15665885  0.32231357  0.67044098  1
  O  O40  1  0.09568738  0.64848422  0.05735519  1
  O  O41  1  0.59568738  0.85151578  0.55735519  1
  O  O42  1  0.90431262  0.35151578  0.94264481  1
  O  O43  1  0.40431262  0.14848422  0.44264481  1
  O  O44  1  0.65997591  0.49031941  0.09537111  1
  O  O45  1  0.15997591  0.00968059  0.59537111  1
  O  O46  1  0.34002409  0.50968059  0.90462889  1
  O  O47  1  0.84002409  0.99031941  0.40462889  1
  O  O48  1  0.48221554  0.72083671  0.06839873  1
  O  O49  1  0.98221554  0.77916329  0.56839873  1
  O  O50  1  0.51778446  0.27916329  0.93160127  1
  O  O51  1  0.01778446  0.22083671  0.43160127  1
  O  O52  1  0.23462950  0.93854388  0.06368542  1
  O  O53  1  0.73462950  0.56145612  0.56368542  1
  O  O54  1  0.76537050  0.06145612  0.93631458  1
  O  O55  1  0.26537050  0.43854388  0.43631458  1
  O  O56  1  0.02824810  0.14315332  0.11557137  1
  O  O57  1  0.52824810  0.35684668  0.61557137  1
  O  O58  1  0.97175190  0.85684668  0.88442863  1
  O  O59  1  0.47175190  0.64315332  0.38442863  1
  O  O60  1  0.05317553  0.60553154  0.77256313  1
  O  O61  1  0.55317553  0.89446846  0.27256313  1
  O  O62  1  0.94682447  0.39446846  0.22743687  1
  O  O63  1  0.44682447  0.10553154  0.72743687  1
