# generated using pymatgen
data_CoP2H17N4O9
_symmetry_space_group_name_H-M   'P 1'
_cell_length_a   7.63771623
_cell_length_b   14.28027218
_cell_length_c   11.54677832
_cell_angle_alpha   90.00000000
_cell_angle_beta   92.29534409
_cell_angle_gamma   90.00000000
_symmetry_Int_Tables_number   1
_chemical_formula_structural   CoP2H17N4O9
_chemical_formula_sum   'Co4 P8 H68 N16 O36'
_cell_volume   1258.38124595
_cell_formula_units_Z   4
loop_
 _symmetry_equiv_pos_site_id
 _symmetry_equiv_pos_as_xyz
  1  'x, y, z'
loop_
 _atom_site_type_symbol
 _atom_site_label
 _atom_site_symmetry_multiplicity
 _atom_site_fract_x
 _atom_site_fract_y
 _atom_site_fract_z
 _atom_site_occupancy
  Co  Co0  1  0.09707034  0.04018888  0.72150977  1
  Co  Co1  1  0.90292966  0.54018888  0.77849023  1
  Co  Co2  1  0.90292966  0.95981112  0.27849023  1
  Co  Co3  1  0.09707034  0.45981112  0.22150977  1
  P  P4  1  0.83876793  0.18585942  0.60053362  1
  P  P5  1  0.16123207  0.68585942  0.89946638  1
  P  P6  1  0.16123207  0.81414058  0.39946638  1
  P  P7  1  0.83876793  0.31414058  0.10053362  1
  P  P8  1  0.71910067  0.08467931  0.80945038  1
  P  P9  1  0.28089933  0.58467931  0.69054962  1
  P  P10  1  0.28089933  0.91532069  0.19054962  1
  P  P11  1  0.71910067  0.41532069  0.30945038  1
  H  H12  1  0.19830775  0.00951780  0.93578731  1
  H  H13  1  0.80169225  0.50951780  0.56421269  1
  H  H14  1  0.80169225  0.99048220  0.06421269  1
  H  H15  1  0.19830775  0.49048220  0.43578731  1
  H  H16  1  0.19698293  0.90442319  0.87284917  1
  H  H17  1  0.80301707  0.40442319  0.62715083  1
  H  H18  1  0.80301707  0.09557681  0.12715083  1
  H  H19  1  0.19698293  0.59557681  0.37284917  1
  H  H20  1  0.36557657  0.97750723  0.85709747  1
  H  H21  1  0.63442343  0.47750723  0.64290253  1
  H  H22  1  0.63442343  0.02249277  0.14290253  1
  H  H23  1  0.36557657  0.52249277  0.35709747  1
  H  H24  1  0.41976310  0.99934107  0.66637267  1
  H  H25  1  0.58023690  0.49934107  0.83362733  1
  H  H26  1  0.58023690  0.00065893  0.33362733  1
  H  H27  1  0.41976310  0.50065893  0.16637267  1
  H  H28  1  0.31894572  0.05975058  0.55947432  1
  H  H29  1  0.68105428  0.55975058  0.94052568  1
  H  H30  1  0.68105428  0.94024942  0.44052568  1
  H  H31  1  0.31894572  0.44024942  0.05947432  1
  H  H32  1  0.28473156  0.94321088  0.57413122  1
  H  H33  1  0.71526844  0.44321088  0.92586878  1
  H  H34  1  0.71526844  0.05678912  0.42586878  1
  H  H35  1  0.28473156  0.55678912  0.07413122  1
  H  H36  1  0.96794661  0.91130520  0.58485907  1
  H  H37  1  0.03205339  0.41130520  0.91514093  1
  H  H38  1  0.03205339  0.08869480  0.41514093  1
  H  H39  1  0.96794661  0.58869480  0.08485907  1
  H  H40  1  0.02001854  0.85792219  0.70936795  1
  H  H41  1  0.97998146  0.35792219  0.79063205  1
  H  H42  1  0.97998146  0.14207781  0.29063205  1
  H  H43  1  0.02001854  0.64207781  0.20936795  1
  H  H44  1  0.83466603  0.91900508  0.69376281  1
  H  H45  1  0.16533397  0.41900508  0.80623719  1
  H  H46  1  0.16533397  0.08099492  0.30623719  1
  H  H47  1  0.83466603  0.58099492  0.19376281  1
  H  H48  1  0.24976568  0.16916230  0.85760558  1
  H  H49  1  0.75023432  0.66916230  0.64239442  1
  H  H50  1  0.75023432  0.83083770  0.14239442  1
  H  H51  1  0.24976568  0.33083770  0.35760558  1
  H  H52  1  0.15980064  0.21729795  0.73776169  1
  H  H53  1  0.84019936  0.71729795  0.76223831  1
  H  H54  1  0.84019936  0.78270205  0.26223831  1
  H  H55  1  0.15980064  0.28270205  0.23776169  1
  H  H56  1  0.35666354  0.16783093  0.73593308  1
  H  H57  1  0.64333646  0.66783093  0.76406692  1
  H  H58  1  0.64333646  0.83216907  0.26406692  1
  H  H59  1  0.35666354  0.33216907  0.23593308  1
  H  H60  1  0.29629665  0.10978871  0.10056080  1
  H  H61  1  0.70370335  0.60978871  0.39943920  1
  H  H62  1  0.70370335  0.89021129  0.89943920  1
  H  H63  1  0.29629665  0.39021129  0.60056080  1
  H  H64  1  0.12454632  0.17030294  0.07826713  1
  H  H65  1  0.87545368  0.67030294  0.42173287  1
  H  H66  1  0.87545368  0.82969706  0.92173287  1
  H  H67  1  0.12454632  0.32969706  0.57826713  1
  H  H68  1  0.49172421  0.17359607  0.46958974  1
  H  H69  1  0.50827579  0.67359607  0.03041026  1
  H  H70  1  0.50827579  0.82640393  0.53041026  1
  H  H71  1  0.49172421  0.32640393  0.96958974  1
  H  H72  1  0.32534513  0.22920243  0.50025755  1
  H  H73  1  0.67465487  0.72920243  0.99974245  1
  H  H74  1  0.67465487  0.77079757  0.49974245  1
  H  H75  1  0.32534513  0.27079757  0.00025755  1
  H  H76  1  0.68400365  0.20521286  0.93325969  1
  H  H77  1  0.31599635  0.70521286  0.56674031  1
  H  H78  1  0.31599635  0.79478714  0.06674031  1
  H  H79  1  0.68400365  0.29478714  0.43325969  1
  N  N80  1  0.23123948  0.97370489  0.86311219  1
  N  N81  1  0.76876052  0.47370489  0.63688781  1
  N  N82  1  0.76876052  0.02629511  0.13688781  1
  N  N83  1  0.23123948  0.52629511  0.36311219  1
  N  N84  1  0.30448403  0.00524329  0.61767349  1
  N  N85  1  0.69551597  0.50524329  0.88232651  1
  N  N86  1  0.69551597  0.99475671  0.38232651  1
  N  N87  1  0.30448403  0.49475671  0.11767349  1
  N  N88  1  0.96404306  0.91699835  0.67326726  1
  N  N89  1  0.03595694  0.41699835  0.82673274  1
  N  N90  1  0.03595694  0.08300165  0.32673274  1
  N  N91  1  0.96404306  0.58300165  0.17326726  1
  N  N92  1  0.23521310  0.16296804  0.76948300  1
  N  N93  1  0.76478690  0.66296804  0.73051700  1
  N  N94  1  0.76478690  0.83703196  0.23051700  1
  N  N95  1  0.23521310  0.33703196  0.26948300  1
  O  O96  1  0.97463982  0.10441926  0.59180392  1
  O  O97  1  0.02536018  0.60441926  0.90819608  1
  O  O98  1  0.02536018  0.89558074  0.40819608  1
  O  O99  1  0.97463982  0.39558074  0.09180392  1
  O  O100  1  0.73514256  0.19723248  0.48599290  1
  O  O101  1  0.26485744  0.69723248  0.01400710  1
  O  O102  1  0.26485744  0.80276752  0.51400710  1
  O  O103  1  0.73514256  0.30276752  0.98599290  1
  O  O104  1  0.92301300  0.27454838  0.64987242  1
  O  O105  1  0.07698700  0.77454838  0.85012758  1
  O  O106  1  0.07698700  0.72545162  0.35012758  1
  O  O107  1  0.92301300  0.22545162  0.14987242  1
  O  O108  1  0.69325437  0.14633025  0.69063493  1
  O  O109  1  0.30674563  0.64633025  0.80936507  1
  O  O110  1  0.30674563  0.85366975  0.30936507  1
  O  O111  1  0.69325437  0.35366975  0.19063493  1
  O  O112  1  0.91603648  0.07656851  0.83765300  1
  O  O113  1  0.08396352  0.57656851  0.66234700  1
  O  O114  1  0.08396352  0.92343149  0.16234700  1
  O  O115  1  0.91603648  0.42343149  0.33765300  1
  O  O116  1  0.61917000  0.99422095  0.79329127  1
  O  O117  1  0.38083000  0.49422095  0.70670873  1
  O  O118  1  0.38083000  0.00577905  0.20670873  1
  O  O119  1  0.61917000  0.50577905  0.29329127  1
  O  O120  1  0.62659660  0.14419061  0.90373240  1
  O  O121  1  0.37340340  0.64419061  0.59626760  1
  O  O122  1  0.37340340  0.85580939  0.09626760  1
  O  O123  1  0.62659660  0.35580939  0.40373240  1
  O  O124  1  0.23679316  0.15286527  0.04464515  1
  O  O125  1  0.76320684  0.65286527  0.45535485  1
  O  O126  1  0.76320684  0.84713473  0.95535485  1
  O  O127  1  0.23679316  0.34713473  0.54464515  1
  O  O128  1  0.36282677  0.16767051  0.47086503  1
  O  O129  1  0.63717323  0.66767051  0.02913497  1
  O  O130  1  0.63717323  0.83232949  0.52913497  1
  O  O131  1  0.36282677  0.33232949  0.97086503  1
