# generated using pymatgen
data_RbP(HO2)2
_symmetry_space_group_name_H-M   'P 1'
_cell_length_a   9.42381514
_cell_length_b   6.53382711
_cell_length_c   8.36102104
_cell_angle_alpha   90.00000000
_cell_angle_beta   112.55758878
_cell_angle_gamma   90.00000000
_symmetry_Int_Tables_number   1
_chemical_formula_structural   RbP(HO2)2
_chemical_formula_sum   'Rb4 P4 H8 O16'
_cell_volume   475.43154230
_cell_formula_units_Z   4
loop_
 _symmetry_equiv_pos_site_id
 _symmetry_equiv_pos_as_xyz
  1  'x, y, z'
loop_
 _atom_site_type_symbol
 _atom_site_label
 _atom_site_symmetry_multiplicity
 _atom_site_fract_x
 _atom_site_fract_y
 _atom_site_fract_z
 _atom_site_occupancy
  Rb  Rb0  1  0.77914832  0.23702203  0.25721410  1
  Rb  Rb1  1  0.72085168  0.73702203  0.74278590  1
  Rb  Rb2  1  0.22085168  0.76297797  0.74278590  1
  Rb  Rb3  1  0.27914832  0.26297797  0.25721410  1
  P  P4  1  0.98633364  0.29110546  0.73201365  1
  P  P5  1  0.51366636  0.79110546  0.26798635  1
  P  P6  1  0.01366636  0.70889454  0.26798635  1
  P  P7  1  0.48633364  0.20889454  0.73201365  1
  H  H8  1  0.96237087  0.92258526  0.06137042  1
  H  H9  1  0.53762913  0.42258526  0.93862958  1
  H  H10  1  0.03762913  0.07741474  0.93862958  1
  H  H11  1  0.46237087  0.57741474  0.06137042  1
  H  H12  1  0.83970319  0.78359672  0.38425862  1
  H  H13  1  0.66029681  0.28359672  0.61574138  1
  H  H14  1  0.16029681  0.21640328  0.61574138  1
  H  H15  1  0.33970319  0.71640328  0.38425862  1
  O  O16  1  0.95474774  0.75261123  0.41923571  1
  O  O17  1  0.54525226  0.25261123  0.58076429  1
  O  O18  1  0.04525226  0.24738877  0.58076429  1
  O  O19  1  0.45474774  0.74738877  0.41923571  1
  O  O20  1  0.40449125  0.91823619  0.12353418  1
  O  O21  1  0.09550875  0.41823619  0.87646582  1
  O  O22  1  0.59550875  0.08176381  0.87646582  1
  O  O23  1  0.90449125  0.58176381  0.12353418  1
  O  O24  1  0.17955124  0.64233363  0.35886019  1
  O  O25  1  0.32044876  0.14233363  0.64113981  1
  O  O26  1  0.82044876  0.35766637  0.64113981  1
  O  O27  1  0.67955124  0.85766637  0.35886019  1
  O  O28  1  0.51435057  0.55800109  0.18599595  1
  O  O29  1  0.98564943  0.05800109  0.81400405  1
  O  O30  1  0.48564943  0.44199891  0.81400405  1
  O  O31  1  0.01435057  0.94199891  0.18599595  1
