# generated using pymatgen
data_H22C10O3
_symmetry_space_group_name_H-M   'P 1'
_cell_length_a   14.87340994
_cell_length_b   12.86942936
_cell_length_c   10.87598006
_cell_angle_alpha   77.05900124
_cell_angle_beta   57.48892121
_cell_angle_gamma   45.45207755
_symmetry_Int_Tables_number   1
_chemical_formula_structural   H22C10O3
_chemical_formula_sum   'H88 C40 O12'
_cell_volume   1209.84888533
_cell_formula_units_Z   4
loop_
 _symmetry_equiv_pos_site_id
 _symmetry_equiv_pos_as_xyz
  1  'x, y, z'
loop_
 _atom_site_type_symbol
 _atom_site_label
 _atom_site_symmetry_multiplicity
 _atom_site_fract_x
 _atom_site_fract_y
 _atom_site_fract_z
 _atom_site_occupancy
  H  H0  1  0.99760679  0.89565689  0.50355287  1
  H  H1  1  0.60318345  0.50355287  0.89565689  1
  H  H2  1  0.74644713  0.64681655  0.25239321  1
  H  H3  1  0.35434311  0.25239321  0.64681655  1
  H  H4  1  0.04815702  0.03698716  0.34066909  1
  H  H5  1  0.57418673  0.34066909  0.03698716  1
  H  H6  1  0.90933091  0.67581327  0.20184298  1
  H  H7  1  0.21301284  0.20184298  0.67581327  1
  H  H8  1  0.90501319  0.19676655  0.49434490  1
  H  H9  1  0.40387535  0.49434490  0.19676655  1
  H  H10  1  0.75565510  0.84612465  0.34498681  1
  H  H11  1  0.05323345  0.34498681  0.84612465  1
  H  H12  1  0.15507919  0.04813501  0.44699712  1
  H  H13  1  0.34978868  0.44699712  0.04813501  1
  H  H14  1  0.80300288  0.90021132  0.09492081  1
  H  H15  1  0.20186499  0.09492081  0.90021132  1
  H  H16  1  0.19034958  0.88413363  0.46246316  1
  H  H17  1  0.46305363  0.46246316  0.88413363  1
  H  H18  1  0.78753684  0.78694637  0.05965042  1
  H  H19  1  0.36586637  0.05965042  0.78694637  1
  H  H20  1  0.89036099  0.02798679  0.87682220  1
  H  H21  1  0.20483002  0.87682220  0.02798679  1
  H  H22  1  0.37317780  0.04516998  0.35963901  1
  H  H23  1  0.22201321  0.35963901  0.04516998  1
  H  H24  1  0.03406098  0.87079448  0.71993133  1
  H  H25  1  0.37521321  0.71993133  0.87079448  1
  H  H26  1  0.53006867  0.87478679  0.21593902  1
  H  H27  1  0.37920552  0.21593902  0.87478679  1
  H  H28  1  0.78426102  0.01462432  0.77175220  1
  H  H29  1  0.42936246  0.77175220  0.01462432  1
  H  H30  1  0.47824780  0.82063754  0.46573898  1
  H  H31  1  0.23537568  0.46573898  0.82063754  1
  H  H32  1  0.74208983  0.18224979  0.76107294  1
  H  H33  1  0.31458744  0.76107294  0.18224979  1
  H  H34  1  0.48892706  0.93541256  0.50791017  1
  H  H35  1  0.06775021  0.50791017  0.93541256  1
  H  H36  1  0.68263806  0.01935455  0.67983017  1
  H  H37  1  0.61817722  0.67983017  0.01935455  1
  H  H38  1  0.57016983  0.63182278  0.56736194  1
  H  H39  1  0.23064545  0.56736194  0.63182278  1
  H  H40  1  0.84681856  0.87222212  0.51097723  1
  H  H41  1  0.76998209  0.51097723  0.87222212  1
  H  H42  1  0.73902277  0.48001791  0.40318144  1
  H  H43  1  0.37777788  0.40318144  0.48001791  1
  H  H44  1  0.67792406  0.03091664  0.51684696  1
  H  H45  1  0.77431234  0.51684696  0.03091664  1
  H  H46  1  0.73315304  0.47568766  0.57207594  1
  H  H47  1  0.21908336  0.57207594  0.47568766  1
  H  H48  1  0.70002250  0.30432123  0.51291711  1
  H  H49  1  0.48273917  0.51291711  0.30432123  1
  H  H50  1  0.73708289  0.76726083  0.54997750  1
  H  H51  1  0.94567877  0.54997750  0.76726083  1
  H  H52  1  0.58712694  0.28739760  0.67705023  1
  H  H53  1  0.44842523  0.67705023  0.28739760  1
  H  H54  1  0.57294977  0.80157477  0.66287306  1
  H  H55  1  0.96260240  0.66287306  0.80157477  1
  H  H56  1  0.59889873  0.27924706  0.50742457  1
  H  H57  1  0.61442963  0.50742457  0.27924706  1
  H  H58  1  0.74257543  0.63557037  0.65110127  1
  H  H59  1  0.97075294  0.65110127  0.63557037  1
  H  H60  1  0.96561377  0.93285483  0.29187277  1
  H  H61  1  0.80965863  0.29187277  0.93285483  1
  H  H62  1  0.95812723  0.44034137  0.28438623  1
  H  H63  1  0.31714517  0.28438623  0.44034137  1
  H  H64  1  0.23779832  0.84987391  0.66253357  1
  H  H65  1  0.24979420  0.66253357  0.84987391  1
  H  H66  1  0.58746643  0.00020580  0.01220168  1
  H  H67  1  0.40012609  0.01220168  0.00020580  1
  H  H68  1  0.19766488  0.01710839  0.65447558  1
  H  H69  1  0.13075115  0.65447558  0.01710839  1
  H  H70  1  0.59552442  0.11924885  0.05233512  1
  H  H71  1  0.23289161  0.05233512  0.11924885  1
  H  H72  1  0.09518173  0.99948806  0.82954458  1
  H  H73  1  0.07578562  0.82954458  0.99948806  1
  H  H74  1  0.42045542  0.17421438  0.15481827  1
  H  H75  1  0.25051194  0.15481827  0.17421438  1
  H  H76  1  0.95729868  0.24796570  0.67302332  1
  H  H77  1  0.12171231  0.67302332  0.24796570  1
  H  H78  1  0.57697668  0.12828769  0.29270132  1
  H  H79  1  0.00203430  0.29270132  0.12828769  1
  H  H80  1  0.08839639  0.33404611  0.54743114  1
  H  H81  1  0.03012637  0.54743114  0.33404611  1
  H  H82  1  0.70256886  0.21987363  0.16160361  1
  H  H83  1  0.91595389  0.16160361  0.21987363  1
  H  H84  1  0.98843980  0.38051984  0.49145711  1
  H  H85  1  0.13958325  0.49145711  0.38051984  1
  H  H86  1  0.75854289  0.11041675  0.26156020  1
  H  H87  1  0.86948016  0.26156020  0.11041675  1
  C  C88  1  0.90870009  0.02010293  0.54360397  1
  C  C89  1  0.52759302  0.54360397  0.02010293  1
  C  C90  1  0.70639603  0.72240698  0.34129991  1
  C  C91  1  0.22989707  0.34129991  0.72240698  1
  C  C92  1  0.98806243  0.07280742  0.46354698  1
  C  C93  1  0.47558317  0.46354698  0.07280742  1
  C  C94  1  0.78645302  0.77441683  0.26193757  1
  C  C95  1  0.17719258  0.26193757  0.77441683  1
  C  C96  1  0.10027945  0.00821400  0.50358566  1
  C  C97  1  0.38792089  0.50358566  0.00821400  1
  C  C98  1  0.74641434  0.86207911  0.14972055  1
  C  C99  1  0.24178600  0.14972055  0.86207911  1
  C  C100  1  0.02840080  0.04581483  0.67458683  1
  C  C101  1  0.25119754  0.67458683  0.04581483  1
  C  C102  1  0.57541317  0.99880246  0.22159920  1
  C  C103  1  0.20418517  0.22159920  0.99880246  1
  C  C104  1  0.94748089  0.99502626  0.75383514  1
  C  C105  1  0.30365771  0.75383514  0.99502626  1
  C  C106  1  0.49616486  0.94634229  0.30251911  1
  C  C107  1  0.25497374  0.30251911  0.94634229  1
  C  C108  1  0.83443154  0.05904966  0.71500818  1
  C  C109  1  0.39151061  0.71500818  0.05904966  1
  C  C110  1  0.53499182  0.85848939  0.41556846  1
  C  C111  1  0.19095034  0.41556846  0.85848939  1
  C  C112  1  0.79844427  0.07637455  0.50104552  1
  C  C113  1  0.62413566  0.50104552  0.07637455  1
  C  C114  1  0.74895448  0.62586434  0.45155573  1
  C  C115  1  0.17362545  0.45155573  0.62586434  1
  C  C116  1  0.74838244  0.99484282  0.55629432  1
  C  C117  1  0.70048042  0.55629432  0.99484282  1
  C  C118  1  0.69370568  0.54951958  0.50161756  1
  C  C119  1  0.25515718  0.50161756  0.54951958  1
  C  C120  1  0.66291181  0.24704292  0.55405756  1
  C  C121  1  0.53598771  0.55405756  0.24704292  1
  C  C122  1  0.69594244  0.71401229  0.58708819  1
  C  C123  1  0.00295708  0.58708819  0.71401229  1
  C  C124  1  0.14712894  0.97299595  0.70744073  1
  C  C125  1  0.17243438  0.70744073  0.97299595  1
  C  C126  1  0.54255927  0.07756562  0.10287106  1
  C  C127  1  0.27700405  0.10287106  0.07756562  1
  O  O128  1  0.87524652  0.04355024  0.33630700  1
  O  O129  1  0.74489624  0.33630700  0.04355024  1
  O  O130  1  0.91369300  0.50510376  0.37475348  1
  O  O131  1  0.20644976  0.37475348  0.50510376  1
  O  O132  1  0.91321908  0.20837077  0.73593966  1
  O  O133  1  0.14247049  0.73593966  0.20837077  1
  O  O134  1  0.51406034  0.10752951  0.33678092  1
  O  O135  1  0.04162923  0.33678092  0.10752951  1
  O  O136  1  0.03358686  0.31532380  0.54959148  1
  O  O137  1  0.10149786  0.54959148  0.31532380  1
  O  O138  1  0.70040852  0.14850214  0.21641314  1
  O  O139  1  0.93467620  0.21641314  0.14850214  1
