# generated using pymatgen
data_SrCaI4
_symmetry_space_group_name_H-M   'P 1'
_cell_length_a   10.10833390
_cell_length_b   10.90240812
_cell_length_c   9.83182778
_cell_angle_alpha   90.00000000
_cell_angle_beta   110.54489378
_cell_angle_gamma   90.00000000
_symmetry_Int_Tables_number   1
_chemical_formula_structural   SrCaI4
_chemical_formula_sum   'Sr4 Ca4 I16'
_cell_volume   1014.60388770
_cell_formula_units_Z   4
loop_
 _symmetry_equiv_pos_site_id
 _symmetry_equiv_pos_as_xyz
  1  'x, y, z'
loop_
 _atom_site_type_symbol
 _atom_site_label
 _atom_site_symmetry_multiplicity
 _atom_site_fract_x
 _atom_site_fract_y
 _atom_site_fract_z
 _atom_site_occupancy
  Sr  Sr0  1  0.15441435  0.21588761  0.14666124  1
  Sr  Sr1  1  0.34558565  0.71588761  0.35333876  1
  Sr  Sr2  1  0.65441435  0.28411239  0.64666124  1
  Sr  Sr3  1  0.84558565  0.78411239  0.85333876  1
  Ca  Ca4  1  0.21265968  0.54645980  0.71216255  1
  Ca  Ca5  1  0.28734032  0.04645980  0.78783745  1
  Ca  Ca6  1  0.71265968  0.95354020  0.21216255  1
  Ca  Ca7  1  0.78734032  0.45354020  0.28783745  1
  I  I8  1  0.88577915  0.50766627  0.63520739  1
  I  I9  1  0.98742271  0.05972556  0.80653436  1
  I  I10  1  0.19538720  0.81353368  0.59667663  1
  I  I11  1  0.16990018  0.66513015  0.99106276  1
  I  I12  1  0.33009982  0.16513015  0.50893724  1
  I  I13  1  0.30461280  0.31353368  0.90332337  1
  I  I14  1  0.51257729  0.55972556  0.69346564  1
  I  I15  1  0.61422085  0.00766627  0.86479261  1
  I  I16  1  0.38577915  0.99233373  0.13520739  1
  I  I17  1  0.48742271  0.44027444  0.30653436  1
  I  I18  1  0.69538720  0.68646632  0.09667663  1
  I  I19  1  0.66990018  0.83486985  0.49106276  1
  I  I20  1  0.83009982  0.33486985  0.00893724  1
  I  I21  1  0.80461280  0.18646632  0.40332337  1
  I  I22  1  0.01257729  0.94027444  0.19346564  1
  I  I23  1  0.11422085  0.49233373  0.36479261  1
