# generated using pymatgen
data_Cs2CuH12(SO7)2
_symmetry_space_group_name_H-M   'P 1'
_cell_length_a   10.71663176
_cell_length_b   12.02994767
_cell_length_c   7.04483718
_cell_angle_alpha   90.00000000
_cell_angle_beta   110.12613717
_cell_angle_gamma   90.00000000
_symmetry_Int_Tables_number   1
_chemical_formula_structural   Cs2CuH12(SO7)2
_chemical_formula_sum   'Cs4 Cu2 H24 S4 O28'
_cell_volume   852.76552992
_cell_formula_units_Z   2
loop_
 _symmetry_equiv_pos_site_id
 _symmetry_equiv_pos_as_xyz
  1  'x, y, z'
loop_
 _atom_site_type_symbol
 _atom_site_label
 _atom_site_symmetry_multiplicity
 _atom_site_fract_x
 _atom_site_fract_y
 _atom_site_fract_z
 _atom_site_occupancy
  Cs  Cs0  1  0.60678003  0.14784451  0.32441797  1
  Cs  Cs1  1  0.89321997  0.64784451  0.67558203  1
  Cs  Cs2  1  0.39321997  0.85215549  0.67558203  1
  Cs  Cs3  1  0.10678003  0.35215549  0.32441797  1
  Cu  Cu4  1  0.50000000  0.50000000  0.00000000  1
  Cu  Cu5  1  -0.00000000  -0.00000000  0.00000000  1
  H  H6  1  0.63862793  0.41017617  0.30206633  1
  H  H7  1  0.86137207  0.91017617  0.69793367  1
  H  H8  1  0.36137207  0.58982383  0.69793367  1
  H  H9  1  0.13862793  0.08982383  0.30206633  1
  H  H10  1  0.71965298  0.37589853  0.11061700  1
  H  H11  1  0.78034702  0.87589853  0.88938300  1
  H  H12  1  0.28034702  0.62410147  0.88938300  1
  H  H13  1  0.21965298  0.12410147  0.11061700  1
  H  H14  1  0.17934995  0.56258930  -0.01022268  1
  H  H15  1  0.32065005  0.06258930  0.01022268  1
  H  H16  1  0.82065005  0.43741070  0.01022268  1
  H  H17  1  0.67934995  0.93741070  -0.01022268  1
  H  H18  1  0.31572106  0.21239484  0.92986201  1
  H  H19  1  0.18427894  0.71239484  0.07013799  1
  H  H20  1  0.68427894  0.78760516  0.07013799  1
  H  H21  1  0.81572106  0.28760516  0.92986201  1
  H  H22  1  0.39770256  0.56639998  0.29981423  1
  H  H23  1  0.10229744  0.06639998  0.70018577  1
  H  H24  1  0.60229744  0.43360002  0.70018577  1
  H  H25  1  0.89770256  0.93360002  0.29981423  1
  H  H26  1  0.52740077  0.63313290  0.32618327  1
  H  H27  1  0.97259923  0.13313290  0.67381673  1
  H  H28  1  0.47259923  0.36686710  0.67381673  1
  H  H29  1  0.02740077  0.86686710  0.32618327  1
  S  S30  1  0.87398226  0.32784343  0.67724328  1
  S  S31  1  0.62601774  0.82784343  0.32275672  1
  S  S32  1  0.12601774  0.67215657  0.32275672  1
  S  S33  1  0.37398226  0.17215657  0.67724328  1
  O  O34  1  0.90047594  0.25766370  0.52366710  1
  O  O35  1  0.59952406  0.75766370  0.47633290  1
  O  O36  1  0.09952406  0.74233630  0.47633290  1
  O  O37  1  0.40047594  0.24233630  0.52366710  1
  O  O38  1  0.99124564  0.38892120  0.80554640  1
  O  O39  1  0.50875436  0.88892120  0.19445360  1
  O  O40  1  0.00875436  0.61107880  0.19445360  1
  O  O41  1  0.49124564  0.11107880  0.80554640  1
  O  O42  1  0.75780976  0.40300754  0.59043462  1
  O  O43  1  0.74219024  0.90300754  0.40956538  1
  O  O44  1  0.24219024  0.59699246  0.40956538  1
  O  O45  1  0.25780976  0.09699246  0.59043462  1
  O  O46  1  0.80968548  0.36747452  0.07182835  1
  O  O47  1  0.69031452  0.86747452  0.92817165  1
  O  O48  1  0.19031452  0.63252548  0.92817165  1
  O  O49  1  0.30968548  0.13252548  0.07182835  1
  O  O50  1  0.60775604  0.38837176  0.15904438  1
  O  O51  1  0.89224396  0.88837176  0.84095562  1
  O  O52  1  0.39224396  0.61162824  0.84095562  1
  O  O53  1  0.10775604  0.11162824  0.15904438  1
  O  O54  1  0.33213982  0.25996576  0.81053351  1
  O  O55  1  0.16786018  0.75996576  0.18946649  1
  O  O56  1  0.66786018  0.74003424  0.18946649  1
  O  O57  1  0.83213982  0.24003424  0.81053351  1
  O  O58  1  0.48222297  0.56157023  0.27420974  1
  O  O59  1  0.01777703  0.06157023  0.72579026  1
  O  O60  1  0.51777703  0.43842977  0.72579026  1
  O  O61  1  0.98222297  0.93842977  0.27420974  1
