# generated using pymatgen
data_FeH16C4S4(N4Cl)2
_symmetry_space_group_name_H-M   'P 1'
_cell_length_a   13.78453923
_cell_length_b   13.78453923
_cell_length_c   9.17549279
_cell_angle_alpha   90.00000000
_cell_angle_beta   90.00000000
_cell_angle_gamma   90.00000000
_symmetry_Int_Tables_number   1
_chemical_formula_structural   FeH16C4S4(N4Cl)2
_chemical_formula_sum   'Fe4 H64 C16 S16 N32 Cl8'
_cell_volume   1743.46769913
_cell_formula_units_Z   4
loop_
 _symmetry_equiv_pos_site_id
 _symmetry_equiv_pos_as_xyz
  1  'x, y, z'
loop_
 _atom_site_type_symbol
 _atom_site_label
 _atom_site_symmetry_multiplicity
 _atom_site_fract_x
 _atom_site_fract_y
 _atom_site_fract_z
 _atom_site_occupancy
  Fe  Fe0  1  0.50000000  0.50000000  0.00000000  1
  Fe  Fe1  1  0.00000000  0.00000000  0.00000000  1
  Fe  Fe2  1  0.00000000  0.50000000  0.50000000  1
  Fe  Fe3  1  0.50000000  0.00000000  0.50000000  1
  H  H4  1  0.30674202  0.16878374  0.98782405  1
  H  H5  1  0.19325798  0.33121626  0.98782405  1
  H  H6  1  0.66878374  0.69325798  0.48782405  1
  H  H7  1  0.83121626  0.80674202  0.48782405  1
  H  H8  1  0.69325798  0.83121626  0.01217595  1
  H  H9  1  0.80674202  0.66878374  0.01217595  1
  H  H10  1  0.33121626  0.30674202  0.51217595  1
  H  H11  1  0.16878374  0.19325798  0.51217595  1
  H  H12  1  0.38730028  0.10779273  0.87002945  1
  H  H13  1  0.11269972  0.39220727  0.87002945  1
  H  H14  1  0.60779273  0.61269972  0.37002945  1
  H  H15  1  0.89220727  0.88730028  0.37002945  1
  H  H16  1  0.61269972  0.89220727  0.12997055  1
  H  H17  1  0.88730028  0.60779273  0.12997055  1
  H  H18  1  0.39220727  0.38730028  0.62997055  1
  H  H19  1  0.10779273  0.11269972  0.62997055  1
  H  H20  1  0.50123954  0.19335052  0.73910836  1
  H  H21  1  0.99876046  0.30664948  0.73910836  1
  H  H22  1  0.69335052  0.49876046  0.23910836  1
  H  H23  1  0.80664948  0.00123954  0.23910836  1
  H  H24  1  0.49876046  0.80664948  0.26089164  1
  H  H25  1  0.00123954  0.69335052  0.26089164  1
  H  H26  1  0.30664948  0.50123954  0.76089164  1
  H  H27  1  0.19335052  0.99876046  0.76089164  1
  H  H28  1  0.52121585  0.31580767  0.78246539  1
  H  H29  1  0.97878415  0.18419233  0.78246539  1
  H  H30  1  0.81580767  0.47878415  0.28246539  1
  H  H31  1  0.68419233  0.02121585  0.28246539  1
  H  H32  1  0.47878415  0.68419233  0.21753461  1
  H  H33  1  0.02121585  0.81580767  0.21753461  1
  H  H34  1  0.18419233  0.52121585  0.71753461  1
  H  H35  1  0.31580767  0.97878415  0.71753461  1
  H  H36  1  0.10797231  0.57892760  0.07456426  1
  H  H37  1  0.39202769  0.92107240  0.07456426  1
  H  H38  1  0.07892760  0.89202769  0.57456426  1
  H  H39  1  0.42107240  0.60797231  0.57456426  1
  H  H40  1  0.89202769  0.42107240  0.92543574  1
  H  H41  1  0.60797231  0.07892760  0.92543574  1
  H  H42  1  0.92107240  0.10797231  0.42543574  1
  H  H43  1  0.57892760  0.39202769  0.42543574  1
  H  H44  1  0.16513020  0.65568996  0.94809450  1
  H  H45  1  0.33486980  0.84431004  0.94809450  1
  H  H46  1  0.15568996  0.83486980  0.44809450  1
  H  H47  1  0.34431004  0.66513020  0.44809450  1
  H  H48  1  0.83486980  0.34431004  0.05190550  1
  H  H49  1  0.66513020  0.15568996  0.05190550  1
  H  H50  1  0.84431004  0.16513020  0.55190550  1
  H  H51  1  0.65568996  0.33486980  0.55190550  1
  H  H52  1  0.32966057  0.49777738  0.22423930  1
  H  H53  1  0.17033943  0.00222262  0.22423930  1
  H  H54  1  0.99777738  0.67033943  0.72423930  1
  H  H55  1  0.50222262  0.82966057  0.72423930  1
  H  H56  1  0.67033943  0.50222262  0.77576070  1
  H  H57  1  0.82966057  0.99777738  0.77576070  1
  H  H58  1  0.00222262  0.32966057  0.27576070  1
  H  H59  1  0.49777738  0.17033943  0.27576070  1
  H  H60  1  0.20230175  0.49455654  0.24399277  1
  H  H61  1  0.29769825  0.00544346  0.24399277  1
  H  H62  1  0.99455654  0.79769825  0.74399277  1
  H  H63  1  0.50544346  0.70230175  0.74399277  1
  H  H64  1  0.79769825  0.50544346  0.75600723  1
  H  H65  1  0.70230175  0.99455654  0.75600723  1
  H  H66  1  0.00544346  0.20230175  0.25600723  1
  H  H67  1  0.49455654  0.29769825  0.25600723  1
  C  C68  1  0.41454448  0.25243202  0.90117779  1
  C  C69  1  0.08545552  0.24756798  0.90117779  1
  C  C70  1  0.75243202  0.58545552  0.40117779  1
  C  C71  1  0.74756798  0.91454448  0.40117779  1
  C  C72  1  0.58545552  0.74756798  0.09882221  1
  C  C73  1  0.91454448  0.75243202  0.09882221  1
  C  C74  1  0.24756798  0.41454448  0.59882221  1
  C  C75  1  0.25243202  0.08545552  0.59882221  1
  C  C76  1  0.25722872  0.57547511  0.07223218  1
  C  C77  1  0.24277128  0.92452489  0.07223218  1
  C  C78  1  0.07547511  0.74277128  0.57223218  1
  C  C79  1  0.42452489  0.75722872  0.57223218  1
  C  C80  1  0.74277128  0.42452489  0.92776782  1
  C  C81  1  0.75722872  0.07547511  0.92776782  1
  C  C82  1  0.92452489  0.25722872  0.42776782  1
  C  C83  1  0.57547511  0.24277128  0.42776782  1
  S  S84  1  0.38263252  0.35448429  0.99829959  1
  S  S85  1  0.11736748  0.14551571  0.99829959  1
  S  S86  1  0.85448429  0.61736748  0.49829959  1
  S  S87  1  0.64551571  0.88263252  0.49829959  1
  S  S88  1  0.61736748  0.64551571  0.00170041  1
  S  S89  1  0.88263252  0.85448429  0.00170041  1
  S  S90  1  0.14551571  0.38263252  0.50170041  1
  S  S91  1  0.35448429  0.11736748  0.50170041  1
  S  S92  1  0.36007381  0.61525156  0.98347673  1
  S  S93  1  0.13992619  0.88474844  0.98347673  1
  S  S94  1  0.11525156  0.63992619  0.48347673  1
  S  S95  1  0.38474844  0.86007381  0.48347673  1
  S  S96  1  0.63992619  0.38474844  0.01652327  1
  S  S97  1  0.86007381  0.11525156  0.01652327  1
  S  S98  1  0.88474844  0.36007381  0.51652327  1
  S  S99  1  0.61525156  0.13992619  0.51652327  1
  N  N100  1  0.36835919  0.16887208  0.92679408  1
  N  N101  1  0.13164081  0.33112792  0.92679408  1
  N  N102  1  0.66887208  0.63164081  0.42679408  1
  N  N103  1  0.83112792  0.86835919  0.42679408  1
  N  N104  1  0.63164081  0.83112792  0.07320592  1
  N  N105  1  0.86835919  0.66887208  0.07320592  1
  N  N106  1  0.33112792  0.36835919  0.57320592  1
  N  N107  1  0.16887208  0.13164081  0.57320592  1
  N  N108  1  0.48412463  0.25324764  0.79961161  1
  N  N109  1  0.01587537  0.24675236  0.79961161  1
  N  N110  1  0.75324764  0.51587537  0.29961161  1
  N  N111  1  0.74675236  0.98412463  0.29961161  1
  N  N112  1  0.51587537  0.74675236  0.20038839  1
  N  N113  1  0.98412463  0.75324764  0.20038839  1
  N  N114  1  0.24675236  0.48412463  0.70038839  1
  N  N115  1  0.25324764  0.01587537  0.70038839  1
  N  N116  1  0.16960749  0.60209907  0.02301586  1
  N  N117  1  0.33039251  0.89790093  0.02301586  1
  N  N118  1  0.10209907  0.83039251  0.52301586  1
  N  N119  1  0.39790093  0.66960749  0.52301586  1
  N  N120  1  0.83039251  0.39790093  0.97698414  1
  N  N121  1  0.66960749  0.10209907  0.97698414  1
  N  N122  1  0.89790093  0.16960749  0.47698414  1
  N  N123  1  0.60209907  0.33039251  0.47698414  1
  N  N124  1  0.26236920  0.51766059  0.18842853  1
  N  N125  1  0.23763080  0.98233941  0.18842853  1
  N  N126  1  0.01766059  0.73763080  0.68842853  1
  N  N127  1  0.48233941  0.76236920  0.68842853  1
  N  N128  1  0.73763080  0.48233941  0.81157147  1
  N  N129  1  0.76236920  0.01766059  0.81157147  1
  N  N130  1  0.98233941  0.26236920  0.31157147  1
  N  N131  1  0.51766059  0.23763080  0.31157147  1
  Cl  Cl132  1  0.49067923  0.49959012  0.27765856  1
  Cl  Cl133  1  0.00932077  0.00040988  0.27765856  1
  Cl  Cl134  1  0.99959012  0.50932077  0.77765856  1
  Cl  Cl135  1  0.50040988  0.99067923  0.77765856  1
  Cl  Cl136  1  0.50932077  0.50040988  0.72234144  1
  Cl  Cl137  1  0.99067923  0.99959012  0.72234144  1
  Cl  Cl138  1  0.00040988  0.49067923  0.22234144  1
  Cl  Cl139  1  0.49959012  0.00932077  0.22234144  1
