# generated using pymatgen
data_MnH6SO6
_symmetry_space_group_name_H-M   'P 1'
_cell_length_a   9.95610753
_cell_length_b   5.84438899
_cell_length_c   9.82196615
_cell_angle_alpha   90.00000000
_cell_angle_beta   90.00000000
_cell_angle_gamma   90.00000000
_symmetry_Int_Tables_number   1
_chemical_formula_structural   MnH6SO6
_chemical_formula_sum   'Mn4 H24 S4 O24'
_cell_volume   571.51433166
_cell_formula_units_Z   4
loop_
 _symmetry_equiv_pos_site_id
 _symmetry_equiv_pos_as_xyz
  1  'x, y, z'
loop_
 _atom_site_type_symbol
 _atom_site_label
 _atom_site_symmetry_multiplicity
 _atom_site_fract_x
 _atom_site_fract_y
 _atom_site_fract_z
 _atom_site_occupancy
  Mn  Mn0  1  0.79399535  0.76797508  0.17594476  1
  Mn  Mn1  1  0.70600465  0.23202492  0.67594476  1
  Mn  Mn2  1  0.29399535  0.73202492  0.82405524  1
  Mn  Mn3  1  0.20600465  0.26797508  0.32405524  1
  H  H4  1  0.63564634  0.47947551  0.39419838  1
  H  H5  1  0.86435366  0.52052449  0.89419838  1
  H  H6  1  0.13564634  0.02052449  0.60580162  1
  H  H7  1  0.36435366  0.97947551  0.10580162  1
  H  H8  1  0.60772016  0.69231037  0.30848832  1
  H  H9  1  0.89227984  0.30768963  0.80848832  1
  H  H10  1  0.10772016  0.80768963  0.69151168  1
  H  H11  1  0.39227984  0.19231037  0.19151168  1
  H  H12  1  0.63045587  0.98428773  0.39630648  1
  H  H13  1  0.86954413  0.01571227  0.89630648  1
  H  H14  1  0.13045587  0.51571227  0.60369352  1
  H  H15  1  0.36954413  0.48428773  0.10369352  1
  H  H16  1  0.53904851  0.99977623  0.26027998  1
  H  H17  1  0.96095149  0.00022377  0.76027998  1
  H  H18  1  0.03904851  0.50022377  0.73972002  1
  H  H19  1  0.46095149  0.49977623  0.23972002  1
  H  H20  1  0.59962116  0.88878066  0.97124901  1
  H  H21  1  0.90037884  0.11121934  0.47124901  1
  H  H22  1  0.09962116  0.61121934  0.02875099  1
  H  H23  1  0.40037884  0.38878066  0.52875099  1
  H  H24  1  0.60118656  0.61899902  0.97355721  1
  H  H25  1  0.89881344  0.38100098  0.47355721  1
  H  H26  1  0.10118656  0.88100098  0.02644279  1
  H  H27  1  0.39881344  0.11899902  0.52644279  1
  S  S28  1  0.93425702  0.26350032  0.16016751  1
  S  S29  1  0.56574298  0.73649968  0.66016751  1
  S  S30  1  0.43425702  0.23649968  0.83983249  1
  S  S31  1  0.06574298  0.76350032  0.33983249  1
  O  O32  1  0.91122659  0.76430599  0.35870661  1
  O  O33  1  0.58877341  0.23569401  0.85870661  1
  O  O34  1  0.41122659  0.73569401  0.64129339  1
  O  O35  1  0.08877341  0.26430599  0.14129339  1
  O  O36  1  0.88698107  0.05409554  0.07329786  1
  O  O37  1  0.61301893  0.94590446  0.57329786  1
  O  O38  1  0.38698107  0.44590446  0.92670214  1
  O  O39  1  0.11301893  0.55409554  0.42670214  1
  O  O40  1  0.88841574  0.48019736  0.08109350  1
  O  O41  1  0.61158426  0.51980264  0.58109350  1
  O  O42  1  0.38841574  0.01980264  0.91890650  1
  O  O43  1  0.11158426  0.98019736  0.41890650  1
  O  O44  1  0.62290992  0.52407762  0.29777922  1
  O  O45  1  0.87709008  0.47592238  0.79777922  1
  O  O46  1  0.12290992  0.97592238  0.70222078  1
  O  O47  1  0.37709008  0.02407762  0.20222078  1
  O  O48  1  0.63239302  0.97133380  0.29507175  1
  O  O49  1  0.86760698  0.02866620  0.79507175  1
  O  O50  1  0.13239302  0.52866620  0.70492825  1
  O  O51  1  0.36760698  0.47133380  0.20492825  1
  O  O52  1  0.63766421  0.75588951  0.01822667  1
  O  O53  1  0.86233579  0.24411049  0.51822667  1
  O  O54  1  0.13766421  0.74411049  0.98177333  1
  O  O55  1  0.36233579  0.25588951  0.48177333  1
