# generated using pymatgen
data_SrMoAsH3O8
_symmetry_space_group_name_H-M   'P 1'
_cell_length_a   9.39048286
_cell_length_b   9.39048286
_cell_length_c   9.91700664
_cell_angle_alpha   64.78643609
_cell_angle_beta   115.21356391
_cell_angle_gamma   112.70490629
_symmetry_Int_Tables_number   1
_chemical_formula_structural   SrMoAsH3O8
_chemical_formula_sum   'Sr4 Mo4 As4 H12 O32'
_cell_volume   693.09555855
_cell_formula_units_Z   4
loop_
 _symmetry_equiv_pos_site_id
 _symmetry_equiv_pos_as_xyz
  1  'x, y, z'
loop_
 _atom_site_type_symbol
 _atom_site_label
 _atom_site_symmetry_multiplicity
 _atom_site_fract_x
 _atom_site_fract_y
 _atom_site_fract_z
 _atom_site_occupancy
  Sr  Sr0  1  0.36020906  0.18042487  0.62525984  1
  Sr  Sr1  1  0.18042487  0.36020906  0.87474016  1
  Sr  Sr2  1  0.63979094  0.81957513  0.37474016  1
  Sr  Sr3  1  0.81957513  0.63979094  0.12525984  1
  Mo  Mo4  1  0.93990509  0.24406827  0.22804973  1
  Mo  Mo5  1  0.24406827  0.93990509  0.27195027  1
  Mo  Mo6  1  0.06009491  0.75593173  0.77195027  1
  Mo  Mo7  1  0.75593173  0.06009491  0.72804973  1
  As  As8  1  0.77047928  0.39441611  0.82282010  1
  As  As9  1  0.39441611  0.77047928  0.67717990  1
  As  As10  1  0.22952072  0.60558389  0.17717990  1
  As  As11  1  0.60558389  0.22952072  0.32282010  1
  H  H12  1  0.63196003  0.59941754  0.67898279  1
  H  H13  1  0.59941754  0.63196003  0.82101721  1
  H  H14  1  0.36803997  0.40058246  0.32101721  1
  H  H15  1  0.40058246  0.36803997  0.17898279  1
  H  H16  1  0.25049245  0.52152201  0.53574661  1
  H  H17  1  0.52152201  0.25049245  0.96425339  1
  H  H18  1  0.74950755  0.47847799  0.46425339  1
  H  H19  1  0.47847799  0.74950755  0.03574661  1
  H  H20  1  0.11175251  0.36136073  0.52747765  1
  H  H21  1  0.36136073  0.11175251  0.97252235  1
  H  H22  1  0.88824749  0.63863927  0.47252235  1
  H  H23  1  0.63863927  0.88824749  0.02747765  1
  O  O24  1  0.75633138  0.38742927  0.99161913  1
  O  O25  1  0.38742927  0.75633138  0.50838087  1
  O  O26  1  0.24366862  0.61257073  0.00838087  1
  O  O27  1  0.61257073  0.24366862  0.49161913  1
  O  O28  1  0.94829718  0.49151377  0.78011259  1
  O  O29  1  0.49151377  0.94829718  0.71988741  1
  O  O30  1  0.05170282  0.50848623  0.21988741  1
  O  O31  1  0.50848623  0.05170282  0.28011259  1
  O  O32  1  0.67927351  0.20943123  0.79239797  1
  O  O33  1  0.20943123  0.67927351  0.70760203  1
  O  O34  1  0.32072649  0.79056877  0.20760203  1
  O  O35  1  0.79056877  0.32072649  0.29239797  1
  O  O36  1  0.62169706  0.50065201  0.66234909  1
  O  O37  1  0.50065201  0.62169706  0.83765091  1
  O  O38  1  0.37830294  0.49934799  0.33765091  1
  O  O39  1  0.49934799  0.37830294  0.16234909  1
  O  O40  1  0.05389978  0.27972827  0.10737356  1
  O  O41  1  0.27972827  0.05389978  0.39262644  1
  O  O42  1  0.94610022  0.72027173  0.89262644  1
  O  O43  1  0.72027173  0.94610022  0.60737356  1
  O  O44  1  0.79176656  0.06029091  0.21349458  1
  O  O45  1  0.06029091  0.79176656  0.28650542  1
  O  O46  1  0.20823344  0.93970909  0.78650542  1
  O  O47  1  0.93970909  0.20823344  0.71349458  1
  O  O48  1  0.07401869  0.19221639  0.42123426  1
  O  O49  1  0.19221639  0.07401869  0.07876574  1
  O  O50  1  0.92598131  0.80778361  0.57876574  1
  O  O51  1  0.80778361  0.92598131  0.92123426  1
  O  O52  1  0.21401094  0.40806485  0.59741359  1
  O  O53  1  0.40806485  0.21401094  0.90258641  1
  O  O54  1  0.78598906  0.59193515  0.40258641  1
  O  O55  1  0.59193515  0.78598906  0.09741359  1
