# generated using pymatgen
data_Sr10Fe4Co(MoO6)5
_symmetry_space_group_name_H-M   'P 1'
_cell_length_a   28.06378786
_cell_length_b   7.97763143
_cell_length_c   9.73684396
_cell_angle_alpha   65.88230107
_cell_angle_beta   30.40347681
_cell_angle_gamma   44.78866132
_symmetry_Int_Tables_number   1
_chemical_formula_structural   Sr10Fe4Co(MoO6)5
_chemical_formula_sum   'Sr10 Fe4 Co1 Mo5 O30'
_cell_volume   638.17534717
_cell_formula_units_Z   1
loop_
 _symmetry_equiv_pos_site_id
 _symmetry_equiv_pos_as_xyz
  1  'x, y, z'
loop_
 _atom_site_type_symbol
 _atom_site_label
 _atom_site_symmetry_multiplicity
 _atom_site_fract_x
 _atom_site_fract_y
 _atom_site_fract_z
 _atom_site_occupancy
  Sr  Sr0  1  0.10062001  0.25073293  0.50138459  1
  Sr  Sr1  1  0.10026124  0.74556485  0.50251126  1
  Sr  Sr2  1  0.30071637  0.24347172  0.49924203  1
  Sr  Sr3  1  0.29928363  0.75652828  0.50075797  1
  Sr  Sr4  1  0.49973876  0.25443515  0.49748874  1
  Sr  Sr5  1  0.49937999  0.74926707  0.49861541  1
  Sr  Sr6  1  0.70177728  0.24564049  0.50054582  1
  Sr  Sr7  1  0.70110518  0.74545528  0.50263350  1
  Sr  Sr8  1  0.89889482  0.25454472  0.49736650  1
  Sr  Sr9  1  0.89822272  0.75435951  0.49945418  1
  Fe  Fe10  1  -0.00134144  0.00102484  0.00531839  1
  Fe  Fe11  1  0.19716118  0.00362784  0.00612660  1
  Fe  Fe12  1  0.40283882  -0.00362784  -0.00612660  1
  Fe  Fe13  1  0.60134144  -0.00102484  -0.00531839  1
  Co  Co14  1  0.80000000  0.00000000  0.00000000  1
  Mo  Mo15  1  0.00237546  0.49771169  -0.00567915  1
  Mo  Mo16  1  0.20082700  0.49832508  0.00067615  1
  Mo  Mo17  1  0.39917300  0.50167492  -0.00067615  1
  Mo  Mo18  1  0.59762454  0.50228831  0.00567915  1
  Mo  Mo19  1  0.80000000  0.50000000  0.00000000  1
  O  O20  1  0.01544551  0.21050905  -0.00414690  1
  O  O21  1  0.09396543  0.29446397  0.00626727  1
  O  O22  1  0.10468407  0.70652420  0.99364229  1
  O  O23  1  0.21314763  0.22643324  0.00055794  1
  O  O24  1  0.00805314  0.73996932  0.47918007  1
  O  O25  1  0.18617631  0.77488875  0.00032307  1
  O  O26  1  0.29885829  0.28934943  0.99506303  1
  O  O27  1  0.19877439  0.25019230  0.50273933  1
  O  O28  1  0.30114171  0.71065057  0.00493697  1
  O  O29  1  0.41382369  0.22511125  -0.00032307  1
  O  O30  1  0.20412070  0.74487002  0.48976429  1
  O  O31  1  0.38685237  0.77356676  -0.00055794  1
  O  O32  1  0.49531593  0.29347580  0.00635771  1
  O  O33  1  0.39587930  0.25512998  0.51023571  1
  O  O34  1  0.50603457  0.70553603  0.99373273  1
  O  O35  1  0.61267831  0.21286178  0.00421188  1
  O  O36  1  0.40122561  0.74980770  0.49726067  1
  O  O37  1  0.58455449  0.78949095  0.00414690  1
  O  O38  1  0.69756577  0.29028168  0.99765171  1
  O  O39  1  0.59194686  0.26003068  0.52081993  1
  O  O40  1  0.70035046  0.71263525  0.00365963  1
  O  O41  1  0.81341872  0.22419598  0.00008314  1
  O  O42  1  0.60884659  0.73872638  0.47848250  1
  O  O43  1  0.78658128  0.77580402  0.99991686  1
  O  O44  1  0.89964954  0.28736475  0.99634037  1
  O  O45  1  0.80177466  0.24753352  0.49603163  1
  O  O46  1  0.90243423  0.70971832  0.00234829  1
  O  O47  1  0.79822534  0.75246648  0.50396837  1
  O  O48  1  0.98732169  0.78713822  -0.00421188  1
  O  O49  1  -0.00884659  0.26127362  0.52151750  1
