# generated using pymatgen
data_H8S2N2O5
_symmetry_space_group_name_H-M   'P 1'
_cell_length_a   7.29078574
_cell_length_b   6.11110742
_cell_length_c   15.37497739
_cell_angle_alpha   89.99988673
_cell_angle_beta   89.99999908
_cell_angle_gamma   89.99994144
_symmetry_Int_Tables_number   1
_chemical_formula_structural   H8S2N2O5
_chemical_formula_sum   'H32 S8 N8 O20'
_cell_volume   685.02865568
_cell_formula_units_Z   4
loop_
 _symmetry_equiv_pos_site_id
 _symmetry_equiv_pos_as_xyz
  1  'x, y, z'
loop_
 _atom_site_type_symbol
 _atom_site_label
 _atom_site_symmetry_multiplicity
 _atom_site_fract_x
 _atom_site_fract_y
 _atom_site_fract_z
 _atom_site_occupancy
  H  H0  1  0.66663702  0.24999988  0.01487716  1
  H  H1  1  0.16663590  0.24999960  0.48512267  1
  H  H2  1  0.33336361  0.74999977  0.98512281  1
  H  H3  1  0.83336319  0.74999990  0.51487726  1
  H  H4  1  0.88021777  0.24999960  0.05390447  1
  H  H5  1  0.38021784  0.25000008  0.44609549  1
  H  H6  1  0.11978194  0.74999982  0.94609535  1
  H  H7  1  0.61978227  0.75000017  0.55390449  1
  H  H8  1  0.83334329  0.38738255  0.96190451  1
  H  H9  1  0.33334319  0.11261735  0.53809546  1
  H  H10  1  0.16665718  0.88738201  0.03809543  1
  H  H11  1  0.66665697  0.61261754  0.46190438  1
  H  H12  1  0.16665691  0.61261665  0.03809558  1
  H  H13  1  0.66665713  0.88738260  0.46190442  1
  H  H14  1  0.83334302  0.11261744  0.96190461  1
  H  H15  1  0.33334300  0.38738225  0.53809533  1
  H  H16  1  0.87932724  0.24999974  0.37150052  1
  H  H17  1  0.37932699  0.24999987  0.12849932  1
  H  H18  1  0.12067286  0.75000038  0.62849935  1
  H  H19  1  0.62067282  0.74999993  0.87150058  1
  H  H20  1  0.66334950  0.24999999  0.33262015  1
  H  H21  1  0.16334825  0.24999951  0.16737974  1
  H  H22  1  0.33665027  0.75000001  0.66737974  1
  H  H23  1  0.83665076  0.74999978  0.83262026  1
  H  H24  1  0.83002622  0.38715457  0.28016536  1
  H  H25  1  0.33002595  0.11284560  0.21983439  1
  H  H26  1  0.16997330  0.88715501  0.71983437  1
  H  H27  1  0.66997333  0.61284484  0.78016564  1
  H  H28  1  0.16997332  0.61284475  0.71983438  1
  H  H29  1  0.66997357  0.88715485  0.78016546  1
  H  H30  1  0.83002651  0.11284510  0.28016528  1
  H  H31  1  0.33002608  0.38715411  0.21983433  1
  S  S32  1  0.66622955  0.74999976  0.09229547  1
  S  S33  1  0.16623088  0.74999916  0.40770420  1
  S  S34  1  0.33376861  0.25000111  0.90770635  1
  S  S35  1  0.83376852  0.25000138  0.59229384  1
  S  S36  1  0.89618748  0.75000252  0.19076796  1
  S  S37  1  0.39618793  0.74999946  0.30923147  1
  S  S38  1  0.10380791  0.25000485  0.80923239  1
  S  S39  1  0.60381144  0.24999880  0.69076800  1
  N  N40  1  0.80344935  0.24999932  0.99802837  1
  N  N41  1  0.30344858  0.25000126  0.50197145  1
  N  N42  1  0.19655005  0.74999992  0.00197167  1
  N  N43  1  0.69655111  0.74999961  0.49802864  1
  N  N44  1  0.79957822  0.25000067  0.31617377  1
  N  N45  1  0.29957626  0.24999982  0.18382616  1
  N  N46  1  0.20042316  0.74999724  0.68382420  1
  N  N47  1  0.70042352  0.75000038  0.81617587  1
  O  O48  1  0.99513738  0.54436002  0.16187343  1
  O  O49  1  0.49514038  0.95564002  0.33812673  1
  O  O50  1  0.00486263  0.04435644  0.83812946  1
  O  O51  1  0.50486267  0.45563934  0.66187058  1
  O  O52  1  0.00485984  0.45564779  0.83812837  1
  O  O53  1  0.50485946  0.04435190  0.66187246  1
  O  O54  1  0.99514109  0.95565231  0.16187029  1
  O  O55  1  0.49513719  0.54435539  0.33812872  1
  O  O56  1  0.55877046  0.54795853  0.10748264  1
  O  O57  1  0.05876810  0.95204347  0.39251707  1
  O  O58  1  0.44123130  0.04795940  0.89251614  1
  O  O59  1  0.94123176  0.45203809  0.60748485  1
  O  O60  1  0.44123329  0.45204360  0.89251703  1
  O  O61  1  0.94123362  0.04795382  0.60748359  1
  O  O62  1  0.55876999  0.95203973  0.10748263  1
  O  O63  1  0.05877024  0.54796179  0.39251751  1
  O  O64  1  0.76291747  0.74999833  0.00675632  1
  O  O65  1  0.26291882  0.74999847  0.49324355  1
  O  O66  1  0.23708362  0.25000076  0.99324392  1
  O  O67  1  0.73708093  0.25000028  0.50675661  1
