# generated using pymatgen
data_NdLuS3
_symmetry_space_group_name_H-M   'P 1'
_cell_length_a   3.78972441
_cell_length_b   6.65305375
_cell_length_c   9.86643388
_cell_angle_alpha   90.00000000
_cell_angle_beta   90.00000000
_cell_angle_gamma   106.54754915
_symmetry_Int_Tables_number   1
_chemical_formula_structural   NdLuS3
_chemical_formula_sum   'Nd2 Lu2 S6'
_cell_volume   238.46185201
_cell_formula_units_Z   2
loop_
 _symmetry_equiv_pos_site_id
 _symmetry_equiv_pos_as_xyz
  1  'x, y, z'
loop_
 _atom_site_type_symbol
 _atom_site_label
 _atom_site_symmetry_multiplicity
 _atom_site_fract_x
 _atom_site_fract_y
 _atom_site_fract_z
 _atom_site_occupancy
  Nd  Nd0  1  0.00440246  0.00000000  -0.00000000  1
  Nd  Nd1  1  0.99559754  1.00000000  0.50000000  1
  Lu  Lu2  1  0.75433274  0.50866549  0.25000000  1
  Lu  Lu3  1  0.24566726  0.49133451  0.75000000  1
  S  S4  1  0.10768046  0.21536092  0.25000000  1
  S  S5  1  0.89231954  0.78463908  0.75000000  1
  S  S6  1  0.35385043  0.70167554  0.08125848  1
  S  S7  1  0.64614957  0.29832446  0.58125848  1
  S  S8  1  0.34782511  0.70167554  0.41874152  1
  S  S9  1  0.65217489  0.29832446  0.91874152  1
