# generated using pymatgen
data_Bi3O4F
_symmetry_space_group_name_H-M   'P 1'
_cell_length_a   4.06674818
_cell_length_b   11.57310121
_cell_length_c   6.62028925
_cell_angle_alpha   90.00000000
_cell_angle_beta   72.11287436
_cell_angle_gamma   90.00000000
_symmetry_Int_Tables_number   1
_chemical_formula_structural   Bi3O4F
_chemical_formula_sum   'Bi6 O8 F2'
_cell_volume   296.52231604
_cell_formula_units_Z   2
loop_
 _symmetry_equiv_pos_site_id
 _symmetry_equiv_pos_as_xyz
  1  'x, y, z'
loop_
 _atom_site_type_symbol
 _atom_site_label
 _atom_site_symmetry_multiplicity
 _atom_site_fract_x
 _atom_site_fract_y
 _atom_site_fract_z
 _atom_site_occupancy
  Bi  Bi0  1  0.66915270  0.75000000  0.66169461  1
  Bi  Bi1  1  0.63331757  0.40693517  0.73336485  1
  Bi  Bi2  1  0.63331757  0.09306483  0.73336485  1
  Bi  Bi3  1  0.36668243  0.90693517  0.26663515  1
  Bi  Bi4  1  0.36668243  0.59306483  0.26663515  1
  Bi  Bi5  1  0.33084730  0.25000000  0.33830539  1
  O  O6  1  0.53855794  0.25000000  0.92288412  1
  O  O7  1  0.24682281  0.75000000  0.50635339  1
  O  O8  1  0.77556161  0.59833123  0.44887679  1
  O  O9  1  0.77556161  0.90166877  0.44887679  1
  O  O10  1  0.22443839  0.09833123  0.55112321  1
  O  O11  1  0.22443839  0.40166877  0.55112321  1
  O  O12  1  0.75317719  0.25000000  0.49364661  1
  O  O13  1  0.46144206  0.75000000  0.07711588  1
  F  F14  1  0.00000000  0.00000000  0.00000000  1
  F  F15  1  0.00000000  0.50000000  0.00000000  1
