# generated using pymatgen
data_BaYI5
_symmetry_space_group_name_H-M   'P 1'
_cell_length_a   8.62070327
_cell_length_b   8.62070327
_cell_length_c   11.89194001
_cell_angle_alpha   69.63154914
_cell_angle_beta   110.36845086
_cell_angle_gamma   109.62178779
_symmetry_Int_Tables_number   1
_chemical_formula_structural   BaYI5
_chemical_formula_sum   'Ba2 Y2 I10'
_cell_volume   753.17950789
_cell_formula_units_Z   2
loop_
 _symmetry_equiv_pos_site_id
 _symmetry_equiv_pos_as_xyz
  1  'x, y, z'
loop_
 _atom_site_type_symbol
 _atom_site_label
 _atom_site_symmetry_multiplicity
 _atom_site_fract_x
 _atom_site_fract_y
 _atom_site_fract_z
 _atom_site_occupancy
  Ba  Ba0  1  0.44128315  0.44128315  0.75000000  1
  Ba  Ba1  1  0.55871685  0.55871685  0.25000000  1
  Y  Y2  1  0.00000000  0.00000000  0.50000000  1
  Y  Y3  1  0.00000000  0.00000000  0.00000000  1
  I  I4  1  0.21238984  0.74592543  0.62173124  1
  I  I5  1  0.71053910  0.68316560  0.97049538  1
  I  I6  1  0.25407457  0.78761016  0.12173124  1
  I  I7  1  0.07916484  0.07916484  0.75000000  1
  I  I8  1  0.68316560  0.71053910  0.52950462  1
  I  I9  1  0.31683440  0.28946090  0.47049538  1
  I  I10  1  0.92083516  0.92083516  0.25000000  1
  I  I11  1  0.74592543  0.21238984  0.87826876  1
  I  I12  1  0.28946090  0.31683440  0.02950462  1
  I  I13  1  0.78761016  0.25407457  0.37826876  1
