# generated using pymatgen
data_LiTiSiO4
_symmetry_space_group_name_H-M   'P 1'
_cell_length_a   5.72459382
_cell_length_b   5.72459382
_cell_length_c   5.72459382
_cell_angle_alpha   59.42813314
_cell_angle_beta   89.76348818
_cell_angle_gamma   119.16021387
_symmetry_Int_Tables_number   1
_chemical_formula_structural   LiTiSiO4
_chemical_formula_sum   'Li2 Ti2 Si2 O8'
_cell_volume   132.89588039
_cell_formula_units_Z   2
loop_
 _symmetry_equiv_pos_site_id
 _symmetry_equiv_pos_as_xyz
  1  'x, y, z'
loop_
 _atom_site_type_symbol
 _atom_site_label
 _atom_site_symmetry_multiplicity
 _atom_site_fract_x
 _atom_site_fract_y
 _atom_site_fract_z
 _atom_site_occupancy
  Li  Li0  1  0.50000000  0.00000000  0.50000000  1
  Li  Li1  1  0.00000000  0.50000000  0.50000000  1
  Ti  Ti2  1  0.50000000  0.00000000  0.00000000  1
  Ti  Ti3  1  0.50000000  0.50000000  0.50000000  1
  Si  Si4  1  0.13381500  0.25000000  0.11618500  1
  Si  Si5  1  0.86618500  0.75000000  0.88381500  1
  O  O6  1  0.74673721  0.51303791  0.24022488  1
  O  O7  1  0.74673721  0.98696209  0.76630171  1
  O  O8  1  0.75382128  0.51566312  0.76184184  1
  O  O9  1  0.22249503  0.98433688  0.76184184  1
  O  O10  1  0.24617872  0.48433688  0.23815816  1
  O  O11  1  0.77750497  0.01566312  0.23815816  1
  O  O12  1  0.25326279  0.01303791  0.23369829  1
  O  O13  1  0.25326279  0.48696209  0.75977512  1
