# generated using pymatgen
data_ScGaO3
_symmetry_space_group_name_H-M   'P 1'
_cell_length_a   5.06465393
_cell_length_b   5.38396748
_cell_length_c   7.58976049
_cell_angle_alpha   90.00000000
_cell_angle_beta   90.00000000
_cell_angle_gamma   90.00000000
_symmetry_Int_Tables_number   1
_chemical_formula_structural   ScGaO3
_chemical_formula_sum   'Sc4 Ga4 O12'
_cell_volume   206.95707337
_cell_formula_units_Z   4
loop_
 _symmetry_equiv_pos_site_id
 _symmetry_equiv_pos_as_xyz
  1  'x, y, z'
loop_
 _atom_site_type_symbol
 _atom_site_label
 _atom_site_symmetry_multiplicity
 _atom_site_fract_x
 _atom_site_fract_y
 _atom_site_fract_z
 _atom_site_occupancy
  Sc  Sc0  1  0.02415812  0.93043151  0.75000000  1
  Sc  Sc1  1  0.47584188  0.43043151  0.75000000  1
  Sc  Sc2  1  0.52415812  0.56956849  0.25000000  1
  Sc  Sc3  1  0.97584188  0.06956849  0.25000000  1
  Ga  Ga4  1  0.00000000  0.50000000  0.00000000  1
  Ga  Ga5  1  0.00000000  0.50000000  0.50000000  1
  Ga  Ga6  1  0.50000000  0.00000000  0.00000000  1
  Ga  Ga7  1  0.50000000  0.00000000  0.50000000  1
  O  O8  1  0.14106244  0.43750848  0.25000000  1
  O  O9  1  0.18591680  0.18899202  0.57163766  1
  O  O10  1  0.18591680  0.18899202  0.92836234  1
  O  O11  1  0.31408320  0.68899202  0.57163766  1
  O  O12  1  0.31408320  0.68899202  0.92836234  1
  O  O13  1  0.35893756  0.93750848  0.25000000  1
  O  O14  1  0.64106244  0.06249152  0.75000000  1
  O  O15  1  0.68591680  0.31100798  0.07163766  1
  O  O16  1  0.68591680  0.31100798  0.42836234  1
  O  O17  1  0.81408320  0.81100798  0.07163766  1
  O  O18  1  0.81408320  0.81100798  0.42836234  1
  O  O19  1  0.85893756  0.56249152  0.75000000  1
