# generated using pymatgen
data_Ga2CuO4
_symmetry_space_group_name_H-M   'P 1'
_cell_length_a   5.91614840
_cell_length_b   5.97781080
_cell_length_c   5.91614840
_cell_angle_alpha   119.65935807
_cell_angle_beta   90.00000000
_cell_angle_gamma   60.34064193
_symmetry_Int_Tables_number   1
_chemical_formula_structural   Ga2CuO4
_chemical_formula_sum   'Ga4 Cu2 O8'
_cell_volume   149.45722081
_cell_formula_units_Z   2
loop_
 _symmetry_equiv_pos_site_id
 _symmetry_equiv_pos_as_xyz
  1  'x, y, z'
loop_
 _atom_site_type_symbol
 _atom_site_label
 _atom_site_symmetry_multiplicity
 _atom_site_fract_x
 _atom_site_fract_y
 _atom_site_fract_z
 _atom_site_occupancy
  Ga  Ga0  1  0.87500000  0.75000000  0.37500000  1
  Ga  Ga1  1  0.37500000  0.75000000  0.37500000  1
  Ga  Ga2  1  0.37500000  0.25000000  0.87500000  1
  Ga  Ga3  1  0.37500000  0.25000000  0.37500000  1
  Cu  Cu4  1  0.75000000  0.50000000  0.75000000  1
  Cu  Cu5  1  0.00000000  0.00000000  0.00000000  1
  O  O6  1  0.61036949  0.77926103  0.62025529  1
  O  O7  1  0.61036949  0.77926103  0.15900574  1
  O  O8  1  0.13963051  0.72073897  0.59099426  1
  O  O9  1  0.13963051  0.72073897  0.12974471  1
  O  O10  1  0.12974471  0.27926103  0.13963051  1
  O  O11  1  0.59099426  0.27926103  0.13963051  1
  O  O12  1  0.62025529  0.22073897  0.61036949  1
  O  O13  1  0.15900574  0.22073897  0.61036949  1
