# generated using pymatgen
data_SmIO
_symmetry_space_group_name_H-M   'P 1'
_cell_length_a   4.02526532
_cell_length_b   11.21875096
_cell_length_c   4.02526497
_cell_angle_alpha   100.33475621
_cell_angle_beta   59.99999712
_cell_angle_gamma   100.33475499
_symmetry_Int_Tables_number   1
_chemical_formula_structural   SmIO
_chemical_formula_sum   'Sm2 I2 O2'
_cell_volume   154.00685308
_cell_formula_units_Z   2
loop_
 _symmetry_equiv_pos_site_id
 _symmetry_equiv_pos_as_xyz
  1  'x, y, z'
loop_
 _atom_site_type_symbol
 _atom_site_label
 _atom_site_symmetry_multiplicity
 _atom_site_fract_x
 _atom_site_fract_y
 _atom_site_fract_z
 _atom_site_occupancy
  Sm  Sm0  1  0.21062071  0.63186314  0.21062071  1
  Sm  Sm1  1  0.78937929  0.36813686  0.78937929  1
  I  I2  1  0.61123641  0.83370924  0.61123641  1
  I  I3  1  0.38876359  0.16629076  0.38876359  1
  O  O4  1  0.13993309  0.41980028  0.13993309  1
  O  O5  1  0.86006691  0.58019972  0.86006691  1
