# generated using pymatgen
data_Pr2Cu4Sn5
_symmetry_space_group_name_H-M   'P 1'
_cell_length_a   4.53104863
_cell_length_b   4.53104863
_cell_length_c   12.71135440
_cell_angle_alpha   100.26658588
_cell_angle_beta   100.26658588
_cell_angle_gamma   90.00000000
_symmetry_Int_Tables_number   1
_chemical_formula_structural   Pr2Cu4Sn5
_chemical_formula_sum   'Pr2 Cu4 Sn5'
_cell_volume   252.54341035
_cell_formula_units_Z   1
loop_
 _symmetry_equiv_pos_site_id
 _symmetry_equiv_pos_as_xyz
  1  'x, y, z'
loop_
 _atom_site_type_symbol
 _atom_site_label
 _atom_site_symmetry_multiplicity
 _atom_site_fract_x
 _atom_site_fract_y
 _atom_site_fract_z
 _atom_site_occupancy
  Pr  Pr0  1  0.99838093  0.99838093  0.99676186  1
  Pr  Pr1  1  0.68148735  0.68148735  0.36297469  1
  Cu  Cu2  1  0.09112223  0.59112223  0.18224446  1
  Cu  Cu3  1  0.59112223  0.09112223  0.18224446  1
  Cu  Cu4  1  0.13038680  0.13038680  0.26077361  1
  Cu  Cu5  1  0.22713849  0.22713849  0.45427698  1
  Sn  Sn6  1  0.28509030  0.78509030  0.57018059  1
  Sn  Sn7  1  0.78509030  0.28509030  0.57018059  1
  Sn  Sn8  1  0.40194881  0.90194881  0.80389763  1
  Sn  Sn9  1  0.90194881  0.40194881  0.80389763  1
  Sn  Sn10  1  0.53228375  0.53228375  0.06456749  1
