# generated using pymatgen
data_BaNb3NO7
_symmetry_space_group_name_H-M   'P 1'
_cell_length_a   9.16246946
_cell_length_b   10.77678820
_cell_length_c   3.89565479
_cell_angle_alpha   79.58697055
_cell_angle_beta   90.00000000
_cell_angle_gamma   90.33303142
_symmetry_Int_Tables_number   1
_chemical_formula_structural   BaNb3NO7
_chemical_formula_sum   'Ba2 Nb6 N2 O14'
_cell_volume   378.32283391
_cell_formula_units_Z   2
loop_
 _symmetry_equiv_pos_site_id
 _symmetry_equiv_pos_as_xyz
  1  'x, y, z'
loop_
 _atom_site_type_symbol
 _atom_site_label
 _atom_site_symmetry_multiplicity
 _atom_site_fract_x
 _atom_site_fract_y
 _atom_site_fract_z
 _atom_site_occupancy
  Ba  Ba0  1  0.24565052  0.97261085  0.01369458  1
  Ba  Ba1  1  0.75498333  0.03538193  0.98230903  1
  Nb  Nb2  1  0.05379734  0.25979233  0.37010383  1
  Nb  Nb3  1  0.22887937  0.46834832  0.76582634  1
  Nb  Nb4  1  0.43944772  0.26573966  0.36713017  1
  Nb  Nb5  1  0.54547970  0.72423377  0.63788312  1
  Nb  Nb6  1  0.74993289  0.51926346  0.24036877  1
  Nb  Nb7  1  0.93638516  0.73751916  0.63124042  1
  N  N8  1  0.09909198  0.31728238  0.84135831  1
  N  N9  1  0.93191873  0.12590150  0.43704925  1
  O  O10  1  0.07119756  0.86537762  0.56731119  1
  O  O11  1  0.08993825  0.59432372  0.70283814  1
  O  O12  1  0.27009043  0.43697703  0.28151148  1
  O  O13  1  0.25778733  0.16198770  0.41900615  1
  O  O14  1  0.40818042  0.59410222  0.70294839  1
  O  O15  1  0.41418931  0.30573477  0.84713211  1
  O  O16  1  0.43020406  0.86616858  0.56691571  1
  O  O17  1  0.56812732  0.13545913  0.43226994  1
  O  O18  1  0.59704448  0.69583662  0.15208219  1
  O  O19  1  0.59368839  0.40943071  0.29528464  1
  O  O20  1  0.74853651  0.57487265  0.71256317  1
  O  O21  1  0.75617800  0.83489671  0.58255215  1
  O  O22  1  0.89945262  0.40769734  0.29615083  1
  O  O23  1  0.90981860  0.69106184  0.15446908  1
