# generated using pymatgen
data_CaY2O4
_symmetry_space_group_name_H-M   'P 1'
_cell_length_a   5.78553541
_cell_length_b   5.78553541
_cell_length_c   10.99972313
_cell_angle_alpha   90.00000000
_cell_angle_beta   90.00000000
_cell_angle_gamma   33.45887686
_symmetry_Int_Tables_number   1
_chemical_formula_structural   CaY2O4
_chemical_formula_sum   'Ca2 Y4 O8'
_cell_volume   202.99580152
_cell_formula_units_Z   2
loop_
 _symmetry_equiv_pos_site_id
 _symmetry_equiv_pos_as_xyz
  1  'x, y, z'
loop_
 _atom_site_type_symbol
 _atom_site_label
 _atom_site_symmetry_multiplicity
 _atom_site_fract_x
 _atom_site_fract_y
 _atom_site_fract_z
 _atom_site_occupancy
  Ca  Ca0  1  0.11060176  0.11060176  0.25000000  1
  Ca  Ca1  1  0.88939824  0.88939824  0.75000000  1
  Y  Y2  1  0.36740314  0.36740314  0.42555927  1
  Y  Y3  1  0.63259686  0.63259686  0.57444073  1
  Y  Y4  1  0.36740314  0.36740314  0.07444073  1
  Y  Y5  1  0.63259686  0.63259686  0.92555927  1
  O  O6  1  0.00000000  0.00000000  0.00000000  1
  O  O7  1  0.00000000  0.00000000  0.50000000  1
  O  O8  1  0.26699574  0.26699574  0.61331164  1
  O  O9  1  0.46711851  0.46711851  0.25000000  1
  O  O10  1  0.53288149  0.53288149  0.75000000  1
  O  O11  1  0.73300426  0.73300426  0.38668836  1
  O  O12  1  0.26699574  0.26699574  0.88668836  1
  O  O13  1  0.73300426  0.73300426  0.11331164  1
