# generated using pymatgen
data_Li4Sn(BO3)2
_symmetry_space_group_name_H-M   'P 1'
_cell_length_a   9.46257377
_cell_length_b   8.50192122
_cell_length_c   3.55526511
_cell_angle_alpha   90.00000000
_cell_angle_beta   90.00000000
_cell_angle_gamma   90.00000000
_symmetry_Int_Tables_number   1
_chemical_formula_structural   Li4Sn(BO3)2
_chemical_formula_sum   'Li8 Sn2 B4 O12'
_cell_volume   286.02127979
_cell_formula_units_Z   2
loop_
 _symmetry_equiv_pos_site_id
 _symmetry_equiv_pos_as_xyz
  1  'x, y, z'
loop_
 _atom_site_type_symbol
 _atom_site_label
 _atom_site_symmetry_multiplicity
 _atom_site_fract_x
 _atom_site_fract_y
 _atom_site_fract_z
 _atom_site_occupancy
  Li  Li0  1  0.04497578  0.17304978  0.50000000  1
  Li  Li1  1  0.20108011  0.01564260  0.00000000  1
  Li  Li2  1  0.29891989  0.51564260  0.50000000  1
  Li  Li3  1  0.45502422  0.67304978  0.00000000  1
  Li  Li4  1  0.54497578  0.32695022  0.00000000  1
  Li  Li5  1  0.70108011  0.48435740  0.50000000  1
  Li  Li6  1  0.79891989  0.98435740  0.00000000  1
  Li  Li7  1  0.95502422  0.82695022  0.50000000  1
  Sn  Sn8  1  0.00000000  0.50000000  0.00000000  1
  Sn  Sn9  1  0.50000000  0.00000000  0.50000000  1
  B  B10  1  0.21217462  0.77322926  0.50000000  1
  B  B11  1  0.28782538  0.27322926  0.00000000  1
  B  B12  1  0.71217462  0.72677074  0.00000000  1
  B  B13  1  0.78782538  0.22677074  0.50000000  1
  O  O14  1  0.12051967  0.64308042  0.50000000  1
  O  O15  1  0.14279501  0.23981373  0.00000000  1
  O  O16  1  0.15499454  0.92287456  0.50000000  1
  O  O17  1  0.34500546  0.42287456  0.00000000  1
  O  O18  1  0.35720499  0.73981373  0.50000000  1
  O  O19  1  0.37948033  0.14308042  0.00000000  1
  O  O20  1  0.62051967  0.85691958  0.00000000  1
  O  O21  1  0.64279501  0.26018627  0.50000000  1
  O  O22  1  0.65499454  0.57712544  0.00000000  1
  O  O23  1  0.84500546  0.07712544  0.50000000  1
  O  O24  1  0.85720499  0.76018627  0.00000000  1
  O  O25  1  0.87948033  0.35691958  0.50000000  1
