# generated using pymatgen
data_Hf2N2O
_symmetry_space_group_name_H-M   'P 1'
_cell_length_a   5.49479387
_cell_length_b   5.49302186
_cell_length_c   10.25951447
_cell_angle_alpha   90.29925841
_cell_angle_beta   75.09654241
_cell_angle_gamma   59.29350149
_symmetry_Int_Tables_number   1
_chemical_formula_structural   Hf2N2O
_chemical_formula_sum   'Hf8 N8 O4'
_cell_volume   253.79156280
_cell_formula_units_Z   4
loop_
 _symmetry_equiv_pos_site_id
 _symmetry_equiv_pos_as_xyz
  1  'x, y, z'
loop_
 _atom_site_type_symbol
 _atom_site_label
 _atom_site_symmetry_multiplicity
 _atom_site_fract_x
 _atom_site_fract_y
 _atom_site_fract_z
 _atom_site_occupancy
  Hf  Hf0  1  0.13201001  0.42952964  0.28575586  1
  Hf  Hf1  1  0.11807855  0.92447183  0.78822075  1
  Hf  Hf2  1  0.36259771  0.34419334  0.96414780  1
  Hf  Hf3  1  0.63427468  0.20129631  0.53532334  1
  Hf  Hf4  1  0.35446178  0.83335702  0.46660711  1
  Hf  Hf5  1  0.83384354  0.08031408  0.21551815  1
  Hf  Hf6  1  0.64231615  0.68552410  0.03655302  1
  Hf  Hf7  1  0.84857196  0.57261614  0.71562928  1
  N  N8  1  0.46553986  0.11211642  0.37050048  1
  N  N9  1  0.55646305  0.36639417  0.11856814  1
  N  N10  1  0.25043275  0.57535361  0.63359597  1
  N  N11  1  0.75635539  0.41454863  0.38036863  1
  N  N12  1  0.45596774  0.62767578  0.87361108  1
  N  N13  1  0.95592065  0.66251747  0.12673375  1
  N  N14  1  0.96192297  0.16860998  0.62549624  1
  N  N15  1  0.74519689  0.92024824  0.87889181  1
  O  O16  1  0.24704585  0.06288893  0.13430700  1
  O  O17  1  0.07167810  0.80414604  0.37538755  1
  O  O18  1  0.05680615  0.31671999  0.87679744  1
  O  O19  1  0.57190023  0.86881228  0.61700659  1
