# generated using pymatgen
data_Te2P4H3O16
_symmetry_space_group_name_H-M   'P 1'
_cell_length_a   5.13990521
_cell_length_b   8.23908675
_cell_length_c   7.70120424
_cell_angle_alpha   89.23727620
_cell_angle_beta   103.10562512
_cell_angle_gamma   88.75576608
_symmetry_Int_Tables_number   1
_chemical_formula_structural   Te2P4H3O16
_chemical_formula_sum   'Te2 P4 H3 O16'
_cell_volume   317.50645726
_cell_formula_units_Z   1
loop_
 _symmetry_equiv_pos_site_id
 _symmetry_equiv_pos_as_xyz
  1  'x, y, z'
loop_
 _atom_site_type_symbol
 _atom_site_label
 _atom_site_symmetry_multiplicity
 _atom_site_fract_x
 _atom_site_fract_y
 _atom_site_fract_z
 _atom_site_occupancy
  Te  Te0  1  0.99681225  0.99716821  0.49626413  1
  Te  Te1  1  0.49841827  0.50261250  0.00262745  1
  P  P2  1  0.10883360  0.33710506  0.25931403  1
  P  P3  1  0.37311545  0.85739540  0.22947126  1
  P  P4  1  0.62038510  0.14549833  0.76317655  1
  P  P5  1  0.88976829  0.66338940  0.74182214  1
  H  H6  1  0.95121678  0.01333041  0.98088613  1
  H  H7  1  0.38830742  0.45407181  0.44672431  1
  H  H8  1  0.60930030  0.54831010  0.55251881  1
  O  O9  1  0.11451003  0.55350617  0.84832557  1
  O  O10  1  0.00469936  0.16861904  0.29434727  1
  O  O11  1  0.18509737  0.82717930  0.36773497  1
  O  O12  1  0.21245772  0.41461096  0.45016065  1
  O  O13  1  0.38538326  0.04284301  0.66193659  1
  O  O14  1  0.53040194  0.31989619  0.79840845  1
  O  O15  1  0.22998632  0.94353145  0.06202838  1
  O  O16  1  0.34793118  0.32653668  0.16921563  1
  O  O17  1  0.65105864  0.67548462  0.83162689  1
  O  O18  1  0.75532015  0.05860733  0.94067644  1
  O  O19  1  0.46759858  0.67879380  0.20225404  1
  O  O20  1  0.61741494  0.95729020  0.33318206  1
  O  O21  1  0.78840726  0.58388215  0.55169992  1
  O  O22  1  0.82539138  0.17018028  0.63934858  1
  O  O23  1  0.99198804  0.83219775  0.70491159  1
  O  O24  1  0.88507740  0.44785888  0.15323715  1
