# generated using pymatgen
data_SmDyO3
_symmetry_space_group_name_H-M   'P 1'
_cell_length_a   6.05917332
_cell_length_b   8.47748716
_cell_length_c   5.80191209
_cell_angle_alpha   90.00000000
_cell_angle_beta   90.00000000
_cell_angle_gamma   90.00000000
_symmetry_Int_Tables_number   1
_chemical_formula_structural   SmDyO3
_chemical_formula_sum   'Sm4 Dy4 O12'
_cell_volume   298.02428881
_cell_formula_units_Z   4
loop_
 _symmetry_equiv_pos_site_id
 _symmetry_equiv_pos_as_xyz
  1  'x, y, z'
loop_
 _atom_site_type_symbol
 _atom_site_label
 _atom_site_symmetry_multiplicity
 _atom_site_fract_x
 _atom_site_fract_y
 _atom_site_fract_z
 _atom_site_occupancy
  Sm  Sm0  1  0.05145642  0.25000000  0.98694600  1
  Sm  Sm1  1  0.44854358  0.75000000  0.48694600  1
  Sm  Sm2  1  0.55145642  0.25000000  0.51305400  1
  Sm  Sm3  1  0.94854358  0.75000000  0.01305400  1
  Dy  Dy4  1  0.00000000  0.00000000  0.50000000  1
  Dy  Dy5  1  0.00000000  0.50000000  0.50000000  1
  Dy  Dy6  1  0.50000000  0.00000000  0.00000000  1
  Dy  Dy7  1  0.50000000  0.50000000  0.00000000  1
  O  O8  1  0.07359599  0.75000000  0.64068623  1
  O  O9  1  0.18387940  0.57257947  0.18060739  1
  O  O10  1  0.18387940  0.92742053  0.18060739  1
  O  O11  1  0.31612060  0.42742053  0.68060739  1
  O  O12  1  0.31612060  0.07257947  0.68060739  1
  O  O13  1  0.42640401  0.25000000  0.14068623  1
  O  O14  1  0.57359599  0.75000000  0.85931377  1
  O  O15  1  0.68387940  0.92742053  0.31939261  1
  O  O16  1  0.68387940  0.57257947  0.31939261  1
  O  O17  1  0.81612060  0.07257947  0.81939261  1
  O  O18  1  0.81612060  0.42742053  0.81939261  1
  O  O19  1  0.92640401  0.25000000  0.35931377  1
