# generated using pymatgen
data_La2HfO5
_symmetry_space_group_name_H-M   'P 1'
_cell_length_a   5.66051723
_cell_length_b   6.89988563
_cell_length_c   7.89887910
_cell_angle_alpha   68.29170178
_cell_angle_beta   90.01246638
_cell_angle_gamma   65.83860416
_symmetry_Int_Tables_number   1
_chemical_formula_structural   La2HfO5
_chemical_formula_sum   'La4 Hf2 O10'
_cell_volume   257.29993756
_cell_formula_units_Z   2
loop_
 _symmetry_equiv_pos_site_id
 _symmetry_equiv_pos_as_xyz
  1  'x, y, z'
loop_
 _atom_site_type_symbol
 _atom_site_label
 _atom_site_symmetry_multiplicity
 _atom_site_fract_x
 _atom_site_fract_y
 _atom_site_fract_z
 _atom_site_occupancy
  La  La0  1  0.63061835  0.71220975  0.76877677  1
  La  La1  1  0.66111986  0.70990768  0.27067277  1
  La  La2  1  0.34278160  0.28836913  0.73035822  1
  La  La3  1  0.36984150  0.28633360  0.23223887  1
  Hf  Hf4  1  0.00053869  0.99857701  0.50003373  1
  Hf  Hf5  1  0.00182288  0.99881947  0.00047968  1
  O  O6  1  0.76006243  0.85066339  0.96732917  1
  O  O7  1  0.38934281  0.85526093  0.46397057  1
  O  O8  1  0.01049215  0.66778928  0.63467164  1
  O  O9  1  0.68040649  0.33047035  0.86173293  1
  O  O10  1  0.32137115  0.66672454  0.14197463  1
  O  O11  1  0.99049636  0.33051607  0.36554927  1
  O  O12  1  0.61330871  0.14147557  0.53677759  1
  O  O13  1  0.15935434  0.99548263  0.75181992  1
  O  O14  1  0.24193958  0.14983212  0.03221051  1
  O  O15  1  0.84408111  0.00161249  0.24983073  1
