# generated using pymatgen
data_LiSbPHO5
_symmetry_space_group_name_H-M   'P 1'
_cell_length_a   5.84247364
_cell_length_b   7.95753857
_cell_length_c   5.30083821
_cell_angle_alpha   107.51360683
_cell_angle_beta   97.68609281
_cell_angle_gamma   106.05173056
_symmetry_Int_Tables_number   1
_chemical_formula_structural   LiSbPHO5
_chemical_formula_sum   'Li2 Sb2 P2 H2 O10'
_cell_volume   219.43836941
_cell_formula_units_Z   2
loop_
 _symmetry_equiv_pos_site_id
 _symmetry_equiv_pos_as_xyz
  1  'x, y, z'
loop_
 _atom_site_type_symbol
 _atom_site_label
 _atom_site_symmetry_multiplicity
 _atom_site_fract_x
 _atom_site_fract_y
 _atom_site_fract_z
 _atom_site_occupancy
  Li  Li0  1  0.40290300  0.81908740  0.73716746  1
  Li  Li1  1  0.59709700  0.18091260  0.26283254  1
  Sb  Sb2  1  0.00000000  0.50000000  0.00000000  1
  Sb  Sb3  1  0.00000000  0.00000000  0.00000000  1
  P  P4  1  0.37615061  0.22930251  0.67576561  1
  P  P5  1  0.62384939  0.77069749  0.32423439  1
  H  H6  1  0.04819969  0.32834596  0.38773151  1
  H  H7  1  0.95180031  0.67165404  0.61226849  1
  O  O8  1  0.06942419  0.72328467  0.79518334  1
  O  O9  1  0.21438910  0.35620019  0.71001300  1
  O  O10  1  0.35848712  0.66253546  0.32809777  1
  O  O11  1  0.27591384  0.06836132  0.39059472  1
  O  O12  1  0.37741613  0.14125926  0.90312272  1
  O  O13  1  0.62258387  0.85874074  0.09687728  1
  O  O14  1  0.72408616  0.93163868  0.60940528  1
  O  O15  1  0.64151288  0.33746454  0.67190223  1
  O  O16  1  0.78561090  0.64379981  0.28998700  1
  O  O17  1  0.93057581  0.27671433  0.20481666  1
