# generated using pymatgen
data_LiSnPO4
_symmetry_space_group_name_H-M   'P 1'
_cell_length_a   6.28231973
_cell_length_b   12.55718490
_cell_length_c   9.79096172
_cell_angle_alpha   90.00000000
_cell_angle_beta   99.43469328
_cell_angle_gamma   90.00000000
_symmetry_Int_Tables_number   1
_chemical_formula_structural   LiSnPO4
_chemical_formula_sum   'Li8 Sn8 P8 O32'
_cell_volume   761.94376245
_cell_formula_units_Z   8
loop_
 _symmetry_equiv_pos_site_id
 _symmetry_equiv_pos_as_xyz
  1  'x, y, z'
loop_
 _atom_site_type_symbol
 _atom_site_label
 _atom_site_symmetry_multiplicity
 _atom_site_fract_x
 _atom_site_fract_y
 _atom_site_fract_z
 _atom_site_occupancy
  Li  Li0  1  0.96250801  0.13478979  0.95158422  1
  Li  Li1  1  0.96250801  0.36521021  0.45158422  1
  Li  Li2  1  0.50360152  0.62683575  0.65769815  1
  Li  Li3  1  0.50360152  0.87316425  0.15769815  1
  Li  Li4  1  0.49639848  0.12683575  0.84230185  1
  Li  Li5  1  0.49639848  0.37316425  0.34230185  1
  Li  Li6  1  0.03749199  0.63478979  0.54841578  1
  Li  Li7  1  0.03749199  0.86521021  0.04841578  1
  Sn  Sn8  1  0.10395503  0.91120320  0.73276458  1
  Sn  Sn9  1  0.10395503  0.58879680  0.23276458  1
  Sn  Sn10  1  0.35349656  0.35622796  0.98189453  1
  Sn  Sn11  1  0.35349656  0.14377204  0.48189453  1
  Sn  Sn12  1  0.64650344  0.85622796  0.51810547  1
  Sn  Sn13  1  0.64650344  0.64377204  0.01810547  1
  Sn  Sn14  1  0.89604497  0.41120320  0.76723542  1
  Sn  Sn15  1  0.89604497  0.08879680  0.26723542  1
  P  P16  1  0.14143907  0.65528955  0.84660804  1
  P  P17  1  0.14143907  0.84471045  0.34660804  1
  P  P18  1  0.37299167  0.38949332  0.63687403  1
  P  P19  1  0.37299167  0.11050668  0.13687403  1
  P  P20  1  0.62700833  0.88949332  0.86312597  1
  P  P21  1  0.62700833  0.61050668  0.36312597  1
  P  P22  1  0.85856093  0.15528955  0.65339196  1
  P  P23  1  0.85856093  0.34471045  0.15339196  1
  O  O24  1  0.08422757  0.73700696  0.40797920  1
  O  O25  1  0.06718549  0.08592835  0.69228560  1
  O  O26  1  0.08422757  0.76299304  0.90797920  1
  O  O27  1  0.06718549  0.41407165  0.19228560  1
  O  O28  1  0.24066748  0.67175251  0.71436913  1
  O  O29  1  0.15592919  0.45112069  0.60776827  1
  O  O30  1  0.24066748  0.82824749  0.21436913  1
  O  O31  1  0.15592919  0.04887931  0.10776827  1
  O  O32  1  0.30633443  0.59486620  0.96058167  1
  O  O33  1  0.38617153  0.31552294  0.76558574  1
  O  O34  1  0.30633443  0.90513380  0.46058167  1
  O  O35  1  0.39418856  0.31973525  0.50638313  1
  O  O36  1  0.43322902  0.96976376  0.83926237  1
  O  O37  1  0.38617153  0.18447706  0.26558574  1
  O  O38  1  0.39418856  0.18026475  0.00638313  1
  O  O39  1  0.43322902  0.53023624  0.33926237  1
  O  O40  1  0.56677098  0.46976376  0.66073763  1
  O  O41  1  0.60581144  0.81973525  0.99361687  1
  O  O42  1  0.61382847  0.81552294  0.73441426  1
  O  O43  1  0.56677098  0.03023624  0.16073763  1
  O  O44  1  0.60581144  0.68026475  0.49361687  1
  O  O45  1  0.69366557  0.09486620  0.53941833  1
  O  O46  1  0.61382847  0.68447706  0.23441426  1
  O  O47  1  0.69366557  0.40513380  0.03941833  1
  O  O48  1  0.84407081  0.95112069  0.89223173  1
  O  O49  1  0.75933252  0.17175251  0.78563087  1
  O  O50  1  0.84407081  0.54887931  0.39223173  1
  O  O51  1  0.75933252  0.32824749  0.28563087  1
  O  O52  1  0.93281451  0.58592835  0.80771440  1
  O  O53  1  0.91577243  0.23700696  0.09202080  1
  O  O54  1  0.93281451  0.91407165  0.30771440  1
  O  O55  1  0.91577243  0.26299304  0.59202080  1
