# generated using pymatgen
data_Li3Ti(PO4)2
_symmetry_space_group_name_H-M   'P 1'
_cell_length_a   4.98025510
_cell_length_b   8.92642885
_cell_length_c   6.44454189
_cell_angle_alpha   90.00000000
_cell_angle_beta   94.71533693
_cell_angle_gamma   90.00000000
_symmetry_Int_Tables_number   1
_chemical_formula_structural   Li3Ti(PO4)2
_chemical_formula_sum   'Li6 Ti2 P4 O16'
_cell_volume   285.52818803
_cell_formula_units_Z   2
loop_
 _symmetry_equiv_pos_site_id
 _symmetry_equiv_pos_as_xyz
  1  'x, y, z'
loop_
 _atom_site_type_symbol
 _atom_site_label
 _atom_site_symmetry_multiplicity
 _atom_site_fract_x
 _atom_site_fract_y
 _atom_site_fract_z
 _atom_site_occupancy
  Li  Li0  1  0.01567423  0.14242850  0.69646343  1
  Li  Li1  1  0.00000000  0.50000000  0.00000000  1
  Li  Li2  1  0.48432577  0.64242850  0.80353657  1
  Li  Li3  1  0.50000000  0.00000000  0.50000000  1
  Li  Li4  1  0.51567423  0.35757150  0.19646343  1
  Li  Li5  1  0.98432577  0.85757150  0.30353657  1
  Ti  Ti6  1  0.00000000  0.50000000  0.50000000  1
  Ti  Ti7  1  0.50000000  0.00000000  0.00000000  1
  P  P8  1  0.02741377  0.18094091  0.22259093  1
  P  P9  1  0.47258623  0.68094091  0.27740907  1
  P  P10  1  0.52741377  0.31905909  0.72259093  1
  P  P11  1  0.97258623  0.81905909  0.77740907  1
  O  O12  1  0.06918473  0.35468659  0.24900029  1
  O  O13  1  0.15374766  0.09877440  0.41267861  1
  O  O14  1  0.21817241  0.35668011  0.69286849  1
  O  O15  1  0.16240284  0.13407305  0.02224935  1
  O  O16  1  0.28182759  0.85668011  0.80713151  1
  O  O17  1  0.33759716  0.63407305  0.47775065  1
  O  O18  1  0.34625234  0.59877440  0.08732139  1
  O  O19  1  0.43081527  0.85468659  0.25099971  1
  O  O20  1  0.56918473  0.14531341  0.74900029  1
  O  O21  1  0.65374766  0.40122560  0.91267861  1
  O  O22  1  0.66240284  0.36592695  0.52224935  1
  O  O23  1  0.71817241  0.14331989  0.19286849  1
  O  O24  1  0.83759716  0.86592695  0.97775065  1
  O  O25  1  0.78182759  0.64331989  0.30713151  1
  O  O26  1  0.84625234  0.90122560  0.58732139  1
  O  O27  1  0.93081527  0.64531341  0.75099971  1
