# generated using pymatgen
data_LiSn(PO3)4
_symmetry_space_group_name_H-M   'P 1'
_cell_length_a   7.75158722
_cell_length_b   7.75158722
_cell_length_c   17.76934841
_cell_angle_alpha   90.00000000
_cell_angle_beta   90.00000000
_cell_angle_gamma   98.95253795
_symmetry_Int_Tables_number   1
_chemical_formula_structural   LiSn(PO3)4
_chemical_formula_sum   'Li4 Sn4 P16 O48'
_cell_volume   1054.70142564
_cell_formula_units_Z   4
loop_
 _symmetry_equiv_pos_site_id
 _symmetry_equiv_pos_as_xyz
  1  'x, y, z'
loop_
 _atom_site_type_symbol
 _atom_site_label
 _atom_site_symmetry_multiplicity
 _atom_site_fract_x
 _atom_site_fract_y
 _atom_site_fract_z
 _atom_site_occupancy
  Li  Li0  1  0.19260158  0.09923613  0.39597314  1
  Li  Li1  1  0.90076387  0.80739842  0.60402686  1
  Li  Li2  1  0.80739842  0.90076387  0.89597314  1
  Li  Li3  1  0.09923613  0.19260158  0.10402686  1
  Sn  Sn4  1  0.57114703  0.97810990  0.61993490  1
  Sn  Sn5  1  0.02189010  0.42885297  0.38006510  1
  Sn  Sn6  1  0.42885297  0.02189010  0.11993490  1
  Sn  Sn7  1  0.97810990  0.57114703  0.88006510  1
  P  P8  1  0.03633623  0.75293776  0.09565533  1
  P  P9  1  0.24706224  0.96366377  0.90434467  1
  P  P10  1  0.30317617  0.78263760  0.76045846  1
  P  P11  1  0.21736240  0.69682383  0.23954154  1
  P  P12  1  0.36169381  0.63830619  0.50000000  1
  P  P13  1  0.27429880  0.32791927  0.94026639  1
  P  P14  1  0.67208073  0.72570120  0.05973361  1
  P  P15  1  0.35085047  0.35085047  0.25000000  1
  P  P16  1  0.64914953  0.64914953  0.75000000  1
  P  P17  1  0.32791927  0.27429880  0.55973361  1
  P  P18  1  0.72570120  0.67208073  0.44026639  1
  P  P19  1  0.63830619  0.36169381  0.00000000  1
  P  P20  1  0.78263760  0.30317617  0.73954154  1
  P  P21  1  0.69682383  0.21736240  0.26045846  1
  P  P22  1  0.75293776  0.03633623  0.40434467  1
  P  P23  1  0.96366377  0.24706224  0.59565533  1
  O  O24  1  0.05684554  0.87758043  0.89604623  1
  O  O25  1  0.12241957  0.94315446  0.10395377  1
  O  O26  1  0.05182998  0.64898691  0.02702404  1
  O  O27  1  0.35101309  0.94817002  0.97297596  1
  O  O28  1  0.12335911  0.67804531  0.76802384  1
  O  O29  1  0.32195469  0.87664089  0.23197616  1
  O  O30  1  0.09876107  0.64423189  0.16642871  1
  O  O31  1  0.35576811  0.90123893  0.83357129  1
  O  O32  1  0.10279742  0.66416539  0.30844910  1
  O  O33  1  0.33583461  0.89720258  0.69155090  1
  O  O34  1  0.38874922  0.80680284  0.54388419  1
  O  O35  1  0.19319716  0.61125078  0.45611581  1
  O  O36  1  0.21937276  0.48000335  0.89784110  1
  O  O37  1  0.51999665  0.78062724  0.10215890  1
  O  O38  1  0.44389158  0.64808523  0.76236400  1
  O  O39  1  0.35191477  0.55610842  0.23763600  1
  O  O40  1  0.75796866  0.83350438  0.38188770  1
  O  O41  1  0.16649562  0.24203134  0.61811230  1
  O  O42  1  0.51463738  0.62544388  0.44061883  1
  O  O43  1  0.37455612  0.48536262  0.55938117  1
  O  O44  1  0.70886390  0.74591008  0.67835015  1
  O  O45  1  0.25408992  0.29113610  0.32164985  1
  O  O46  1  0.71983120  0.79800335  0.98421704  1
  O  O47  1  0.20199665  0.28016880  0.01578296  1
  O  O48  1  0.28016880  0.20199665  0.48421704  1
  O  O49  1  0.79800335  0.71983120  0.51578296  1
  O  O50  1  0.29113610  0.25408992  0.17835015  1
  O  O51  1  0.74591008  0.70886390  0.82164985  1
  O  O52  1  0.62544388  0.51463738  0.05938117  1
  O  O53  1  0.48536262  0.37455612  0.94061883  1
  O  O54  1  0.24203134  0.16649562  0.88188770  1
  O  O55  1  0.83350438  0.75796866  0.11811230  1
  O  O56  1  0.64808523  0.44389158  0.73763600  1
  O  O57  1  0.55610842  0.35191477  0.26236400  1
  O  O58  1  0.78062724  0.51999665  0.39784110  1
  O  O59  1  0.48000335  0.21937276  0.60215890  1
  O  O60  1  0.80680284  0.38874922  0.95611581  1
  O  O61  1  0.61125078  0.19319716  0.04388419  1
  O  O62  1  0.66416539  0.10279742  0.19155090  1
  O  O63  1  0.89720258  0.33583461  0.80844910  1
  O  O64  1  0.64423189  0.09876107  0.33357129  1
  O  O65  1  0.90123893  0.35576811  0.66642871  1
  O  O66  1  0.87664089  0.32195469  0.26802384  1
  O  O67  1  0.67804531  0.12335911  0.73197616  1
  O  O68  1  0.64898691  0.05182998  0.47297596  1
  O  O69  1  0.94817002  0.35101309  0.52702404  1
  O  O70  1  0.94315446  0.12241957  0.39604623  1
  O  O71  1  0.87758043  0.05684554  0.60395377  1
