# generated using pymatgen
data_Ba3(ClO)2
_symmetry_space_group_name_H-M   'P 1'
_cell_length_a   19.21390461
_cell_length_b   6.27849570
_cell_length_c   7.39168328
_cell_angle_alpha   90.00000000
_cell_angle_beta   90.00000000
_cell_angle_gamma   90.00000000
_symmetry_Int_Tables_number   1
_chemical_formula_structural   Ba3(ClO)2
_chemical_formula_sum   'Ba12 Cl8 O8'
_cell_volume   891.69140664
_cell_formula_units_Z   4
loop_
 _symmetry_equiv_pos_site_id
 _symmetry_equiv_pos_as_xyz
  1  'x, y, z'
loop_
 _atom_site_type_symbol
 _atom_site_label
 _atom_site_symmetry_multiplicity
 _atom_site_fract_x
 _atom_site_fract_y
 _atom_site_fract_z
 _atom_site_occupancy
  Ba  Ba0  1  0.02337263  0.25000000  0.15714733  1
  Ba  Ba1  1  0.10653215  0.25000000  0.68063418  1
  Ba  Ba2  1  0.16394222  0.75000000  0.04470242  1
  Ba  Ba3  1  0.33605778  0.25000000  0.54470242  1
  Ba  Ba4  1  0.39346785  0.75000000  0.18063418  1
  Ba  Ba5  1  0.47662737  0.75000000  0.65714733  1
  Ba  Ba6  1  0.52337263  0.25000000  0.34285267  1
  Ba  Ba7  1  0.60653215  0.25000000  0.81936582  1
  Ba  Ba8  1  0.66394222  0.75000000  0.45529758  1
  Ba  Ba9  1  0.83605778  0.25000000  0.95529758  1
  Ba  Ba10  1  0.89346785  0.75000000  0.31936582  1
  Ba  Ba11  1  0.97662737  0.75000000  0.84285267  1
  Cl  Cl12  1  0.05840315  0.75000000  0.40792142  1
  Cl  Cl13  1  0.23185074  0.25000000  0.21063270  1
  Cl  Cl14  1  0.26814926  0.75000000  0.71063270  1
  Cl  Cl15  1  0.44159685  0.25000000  0.90792142  1
  Cl  Cl16  1  0.55840315  0.75000000  0.09207858  1
  Cl  Cl17  1  0.73185074  0.25000000  0.28936730  1
  Cl  Cl18  1  0.76814926  0.75000000  0.78936730  1
  Cl  Cl19  1  0.94159685  0.25000000  0.59207858  1
  O  O20  1  0.08065233  0.49972331  0.91579407  1
  O  O21  1  0.08065233  0.00027669  0.91579407  1
  O  O22  1  0.41934767  0.99972331  0.41579407  1
  O  O23  1  0.41934767  0.50027669  0.41579407  1
  O  O24  1  0.58065233  0.49972331  0.58420593  1
  O  O25  1  0.58065233  0.00027669  0.58420593  1
  O  O26  1  0.91934767  0.99972331  0.08420593  1
  O  O27  1  0.91934767  0.50027669  0.08420593  1
