# generated using pymatgen
data_DyLuO3
_symmetry_space_group_name_H-M   'P 1'
_cell_length_a   5.87614260
_cell_length_b   8.23374995
_cell_length_c   5.61251046
_cell_angle_alpha   90.00000000
_cell_angle_beta   90.00000000
_cell_angle_gamma   90.00000000
_symmetry_Int_Tables_number   1
_chemical_formula_structural   DyLuO3
_chemical_formula_sum   'Dy4 Lu4 O12'
_cell_volume   271.54834719
_cell_formula_units_Z   4
loop_
 _symmetry_equiv_pos_site_id
 _symmetry_equiv_pos_as_xyz
  1  'x, y, z'
loop_
 _atom_site_type_symbol
 _atom_site_label
 _atom_site_symmetry_multiplicity
 _atom_site_fract_x
 _atom_site_fract_y
 _atom_site_fract_z
 _atom_site_occupancy
  Dy  Dy0  1  0.05313779  0.25000000  0.98695224  1
  Dy  Dy1  1  0.44686221  0.75000000  0.48695224  1
  Dy  Dy2  1  0.55313779  0.25000000  0.51304776  1
  Dy  Dy3  1  0.94686221  0.75000000  0.01304776  1
  Lu  Lu4  1  0.00000000  0.00000000  0.50000000  1
  Lu  Lu5  1  0.00000000  0.50000000  0.50000000  1
  Lu  Lu6  1  0.50000000  0.00000000  0.00000000  1
  Lu  Lu7  1  0.50000000  0.50000000  0.00000000  1
  O  O8  1  0.07140048  0.75000000  0.63929446  1
  O  O9  1  0.18368626  0.57228842  0.17995162  1
  O  O10  1  0.18368626  0.92771158  0.17995162  1
  O  O11  1  0.31631374  0.42771158  0.67995162  1
  O  O12  1  0.31631374  0.07228842  0.67995162  1
  O  O13  1  0.42859952  0.25000000  0.13929446  1
  O  O14  1  0.57140048  0.75000000  0.86070554  1
  O  O15  1  0.68368626  0.57228842  0.32004838  1
  O  O16  1  0.68368626  0.92771158  0.32004838  1
  O  O17  1  0.81631374  0.07228842  0.82004838  1
  O  O18  1  0.81631374  0.42771158  0.82004838  1
  O  O19  1  0.92859952  0.25000000  0.36070554  1
