# generated using pymatgen
data_La2HfO5
_symmetry_space_group_name_H-M   'P 1'
_cell_length_a   4.22827077
_cell_length_b   6.37043535
_cell_length_c   11.19526971
_cell_angle_alpha   90.00000000
_cell_angle_beta   90.00000000
_cell_angle_gamma   109.38211611
_symmetry_Int_Tables_number   1
_chemical_formula_structural   La2HfO5
_chemical_formula_sum   'La4 Hf2 O10'
_cell_volume   284.46471416
_cell_formula_units_Z   2
loop_
 _symmetry_equiv_pos_site_id
 _symmetry_equiv_pos_as_xyz
  1  'x, y, z'
loop_
 _atom_site_type_symbol
 _atom_site_label
 _atom_site_symmetry_multiplicity
 _atom_site_fract_x
 _atom_site_fract_y
 _atom_site_fract_z
 _atom_site_occupancy
  La  La0  1  0.13840982  0.27682064  0.57146540  1
  La  La1  1  0.13840982  0.27682064  0.92853460  1
  La  La2  1  0.86159018  0.72317936  0.07146540  1
  La  La3  1  0.86159018  0.72317936  0.42853460  1
  Hf  Hf4  1  0.17042018  0.34084036  0.25000000  1
  Hf  Hf5  1  0.82957982  0.65915964  0.75000000  1
  O  O6  1  0.05090826  0.10181651  0.12044178  1
  O  O7  1  0.28280951  0.56562003  0.40280241  1
  O  O8  1  0.05090826  0.10181651  0.37955822  1
  O  O9  1  0.28280951  0.56562003  0.09719759  1
  O  O10  1  0.28300922  0.56601844  0.75000000  1
  O  O11  1  0.71699078  0.43398156  0.25000000  1
  O  O12  1  0.94909174  0.89818349  0.62044178  1
  O  O13  1  0.94909174  0.89818349  0.87955822  1
  O  O14  1  0.71719049  0.43437997  0.59719759  1
  O  O15  1  0.71719049  0.43437997  0.90280241  1
