# generated using pymatgen
data_LiSnPO4
_symmetry_space_group_name_H-M   'P 1'
_cell_length_a   5.59284479
_cell_length_b   8.15354653
_cell_length_c   9.44062199
_cell_angle_alpha   76.68432515
_cell_angle_beta   89.17579828
_cell_angle_gamma   79.57582461
_symmetry_Int_Tables_number   1
_chemical_formula_structural   LiSnPO4
_chemical_formula_sum   'Li4 Sn4 P4 O16'
_cell_volume   411.85102558
_cell_formula_units_Z   4
loop_
 _symmetry_equiv_pos_site_id
 _symmetry_equiv_pos_as_xyz
  1  'x, y, z'
loop_
 _atom_site_type_symbol
 _atom_site_label
 _atom_site_symmetry_multiplicity
 _atom_site_fract_x
 _atom_site_fract_y
 _atom_site_fract_z
 _atom_site_occupancy
  Li  Li0  1  0.13238597  0.99080235  0.37000624  1
  Li  Li1  1  0.25059526  0.46176007  0.18408037  1
  Li  Li2  1  0.74940474  0.53823993  0.81591963  1
  Li  Li3  1  0.86761403  0.00919765  0.62999376  1
  Sn  Sn4  1  0.23294975  0.15441202  0.90826918  1
  Sn  Sn5  1  0.24846532  0.62720818  0.60961683  1
  Sn  Sn6  1  0.75153468  0.37279182  0.39038317  1
  Sn  Sn7  1  0.76705025  0.84558798  0.09173082  1
  P  P8  1  0.28881075  0.24979377  0.54734611  1
  P  P9  1  0.18354941  0.74655172  0.89415049  1
  P  P10  1  0.81645059  0.25344828  0.10584951  1
  P  P11  1  0.71118925  0.75020623  0.45265389  1
  O  O12  1  0.10316142  0.14619160  0.50814858  1
  O  O13  1  0.00827129  0.32740612  0.17523310  1
  O  O14  1  0.19838275  0.30963481  0.69120136  1
  O  O15  1  0.27692508  0.41984997  0.42719868  1
  O  O16  1  0.11939225  0.94805700  0.82895236  1
  O  O17  1  0.43650303  0.66820635  0.85363328  1
  O  O18  1  0.15092028  0.71667125  0.06456270  1
  O  O19  1  0.55288489  0.15411687  0.57102945  1
  O  O20  1  0.44711511  0.84588313  0.42897055  1
  O  O21  1  0.84907972  0.28332875  0.93543730  1
  O  O22  1  0.56349697  0.33179365  0.14636672  1
  O  O23  1  0.88060775  0.05194300  0.17104764  1
  O  O24  1  0.72307492  0.58015003  0.57280132  1
  O  O25  1  0.80161725  0.69036519  0.30879864  1
  O  O26  1  0.99172871  0.67259388  0.82476690  1
  O  O27  1  0.89683858  0.85380840  0.49185142  1
