# generated using pymatgen
data_LiNdTi2O6
_symmetry_space_group_name_H-M   'P 1'
_cell_length_a   5.38743332
_cell_length_b   5.38743332
_cell_length_c   7.91891742
_cell_angle_alpha   90.00000000
_cell_angle_beta   90.00000000
_cell_angle_gamma   90.00000000
_symmetry_Int_Tables_number   1
_chemical_formula_structural   LiNdTi2O6
_chemical_formula_sum   'Li2 Nd2 Ti4 O12'
_cell_volume   229.84212592
_cell_formula_units_Z   2
loop_
 _symmetry_equiv_pos_site_id
 _symmetry_equiv_pos_as_xyz
  1  'x, y, z'
loop_
 _atom_site_type_symbol
 _atom_site_label
 _atom_site_symmetry_multiplicity
 _atom_site_fract_x
 _atom_site_fract_y
 _atom_site_fract_z
 _atom_site_occupancy
  Li  Li0  1  0.00000000  0.00000000  0.00000000  1
  Li  Li1  1  0.50000000  0.50000000  0.00000000  1
  Nd  Nd2  1  0.00000000  0.00000000  0.50000000  1
  Nd  Nd3  1  0.50000000  0.50000000  0.50000000  1
  Ti  Ti4  1  0.00000000  0.50000000  0.23611785  1
  Ti  Ti5  1  0.00000000  0.50000000  0.76388215  1
  Ti  Ti6  1  0.50000000  0.00000000  0.23611785  1
  Ti  Ti7  1  0.50000000  0.00000000  0.76388215  1
  O  O8  1  0.00000000  0.50000000  0.00000000  1
  O  O9  1  0.00000000  0.50000000  0.50000000  1
  O  O10  1  0.19390709  0.19386685  0.74166288  1
  O  O11  1  0.19386685  0.80609291  0.25833712  1
  O  O12  1  0.30613315  0.30609291  0.25833712  1
  O  O13  1  0.30609291  0.69386685  0.74166288  1
  O  O14  1  0.50000000  0.00000000  0.00000000  1
  O  O15  1  0.50000000  0.00000000  0.50000000  1
  O  O16  1  0.69390709  0.30613315  0.74166288  1
  O  O17  1  0.69386685  0.69390709  0.25833712  1
  O  O18  1  0.80613315  0.19390709  0.25833712  1
  O  O19  1  0.80609291  0.80613315  0.74166288  1
