# generated using pymatgen
data_Li2Sn3(P2O7)2
_symmetry_space_group_name_H-M   'P 1'
_cell_length_a   8.00334054
_cell_length_b   8.20058451
_cell_length_c   11.19986234
_cell_angle_alpha   90.00000000
_cell_angle_beta   108.98298347
_cell_angle_gamma   90.00000000
_symmetry_Int_Tables_number   1
_chemical_formula_structural   Li2Sn3(P2O7)2
_chemical_formula_sum   'Li4 Sn6 P8 O28'
_cell_volume   695.09353000
_cell_formula_units_Z   2
loop_
 _symmetry_equiv_pos_site_id
 _symmetry_equiv_pos_as_xyz
  1  'x, y, z'
loop_
 _atom_site_type_symbol
 _atom_site_label
 _atom_site_symmetry_multiplicity
 _atom_site_fract_x
 _atom_site_fract_y
 _atom_site_fract_z
 _atom_site_occupancy
  Li  Li0  1  0.29391084  0.56556744  0.82137329  1
  Li  Li1  1  0.29391084  0.93443256  0.32137329  1
  Li  Li2  1  0.70608916  0.06556744  0.67862671  1
  Li  Li3  1  0.70608916  0.43443256  0.17862671  1
  Sn  Sn4  1  0.00000000  0.00000000  0.50000000  1
  Sn  Sn5  1  0.21207890  0.62246847  0.50403446  1
  Sn  Sn6  1  0.00000000  0.50000000  0.00000000  1
  Sn  Sn7  1  0.21207890  0.87753153  0.00403446  1
  Sn  Sn8  1  0.78792110  0.12246847  0.99596554  1
  Sn  Sn9  1  0.78792110  0.37753153  0.49596554  1
  P  P10  1  0.13651985  0.20752991  0.80949563  1
  P  P11  1  0.13651985  0.29247009  0.30949563  1
  P  P12  1  0.39542634  0.95828699  0.77422912  1
  P  P13  1  0.60457366  0.45828699  0.72577088  1
  P  P14  1  0.39542634  0.54171301  0.27422912  1
  P  P15  1  0.60457366  0.04171301  0.22577088  1
  P  P16  1  0.86348015  0.70752991  0.69050437  1
  P  P17  1  0.86348015  0.79247009  0.19050437  1
  O  O18  1  0.99350238  0.70008756  0.82610400  1
  O  O19  1  0.07455423  0.09562474  0.89941791  1
  O  O20  1  0.17546851  0.37956787  0.86312021  1
  O  O21  1  0.99350238  0.79991244  0.32610400  1
  O  O22  1  0.07455423  0.40437526  0.39941791  1
  O  O23  1  0.32530290  0.13349952  0.81039376  1
  O  O24  1  0.36502256  0.83053855  0.86793455  1
  O  O25  1  0.17546851  0.12043213  0.36312021  1
  O  O26  1  0.29121639  0.91824346  0.63681154  1
  O  O27  1  0.40872864  0.49093961  0.70295797  1
  O  O28  1  0.32530290  0.36650048  0.31039376  1
  O  O29  1  0.36502256  0.66946145  0.36793455  1
  O  O30  1  0.29121639  0.58175654  0.13681154  1
  O  O31  1  0.59127136  0.99093961  0.79704203  1
  O  O32  1  0.40872864  0.00906039  0.20295797  1
  O  O33  1  0.70878361  0.41824346  0.86318846  1
  O  O34  1  0.63497744  0.33053855  0.63206545  1
  O  O35  1  0.67469710  0.63349952  0.68960624  1
  O  O36  1  0.59127136  0.50906039  0.29704203  1
  O  O37  1  0.70878361  0.08175654  0.36318846  1
  O  O38  1  0.82453149  0.87956787  0.63687979  1
  O  O39  1  0.63497744  0.16946145  0.13206545  1
  O  O40  1  0.67469710  0.86650048  0.18960624  1
  O  O41  1  0.92544577  0.59562474  0.60058209  1
  O  O42  1  0.00649762  0.20008756  0.67389600  1
  O  O43  1  0.82453149  0.62043213  0.13687979  1
  O  O44  1  0.92544577  0.90437526  0.10058209  1
  O  O45  1  0.00649762  0.29991244  0.17389600  1
