# generated using pymatgen
data_ZnAs2C4(NF9)2
_symmetry_space_group_name_H-M   'P 1'
_cell_length_a   6.88383613
_cell_length_b   11.41889758
_cell_length_c   11.01354773
_cell_angle_alpha   105.31338523
_cell_angle_beta   90.00000000
_cell_angle_gamma   90.00000000
_symmetry_Int_Tables_number   1
_chemical_formula_structural   ZnAs2C4(NF9)2
_chemical_formula_sum   'Zn2 As4 C8 N4 F36'
_cell_volume   834.99188767
_cell_formula_units_Z   2
loop_
 _symmetry_equiv_pos_site_id
 _symmetry_equiv_pos_as_xyz
  1  'x, y, z'
loop_
 _atom_site_type_symbol
 _atom_site_label
 _atom_site_symmetry_multiplicity
 _atom_site_fract_x
 _atom_site_fract_y
 _atom_site_fract_z
 _atom_site_occupancy
  Zn  Zn0  1  -0.00000000  -0.00000000  -0.00000000  1
  Zn  Zn1  1  0.50000000  -0.00000000  0.50000000  1
  As  As2  1  0.75116864  0.81776582  0.70012109  1
  As  As3  1  0.24883136  0.18223418  0.29987891  1
  As  As4  1  0.25116864  0.18223418  0.79987891  1
  As  As5  1  0.74883136  0.81776582  0.20012109  1
  C  C6  1  0.20644425  0.74505086  0.92690513  1
  C  C7  1  0.79355575  0.25494914  0.07309487  1
  C  C8  1  0.70644425  0.25494914  0.57309487  1
  C  C9  1  0.29355575  0.74505086  0.42690513  1
  C  C10  1  0.76724725  0.38512925  0.62182722  1
  C  C11  1  0.23275275  0.61487075  0.37817278  1
  C  C12  1  0.26724725  0.61487075  0.87817278  1
  C  C13  1  0.73275275  0.38512925  0.12182722  1
  N  N14  1  0.14746396  0.84280189  0.95946892  1
  N  N15  1  0.85253604  0.15719811  0.04053108  1
  N  N16  1  0.64746396  0.15719811  0.54053108  1
  N  N17  1  0.35253604  0.84280189  0.45946892  1
  F  F18  1  0.70025109  0.71224333  0.55696428  1
  F  F19  1  0.29974891  0.28775667  0.44303572  1
  F  F20  1  0.20025109  0.28775667  0.94303572  1
  F  F21  1  0.79974891  0.71224333  0.05696428  1
  F  F22  1  0.50871279  0.81781352  0.74967922  1
  F  F23  1  0.49128721  0.18218648  0.25032078  1
  F  F24  1  0.00871279  0.18218648  0.75032078  1
  F  F25  1  0.99128721  0.81781352  0.24967922  1
  F  F26  1  0.79986112  0.93448067  0.84664771  1
  F  F27  1  0.20013888  0.06551933  0.15335229  1
  F  F28  1  0.29986112  0.06551933  0.65335229  1
  F  F29  1  0.70013888  0.93448067  0.34664771  1
  F  F30  1  0.68745523  0.94159641  0.63027559  1
  F  F31  1  0.31254477  0.05840359  0.36972441  1
  F  F32  1  0.18745523  0.05840359  0.86972441  1
  F  F33  1  0.81254477  0.94159641  0.13027559  1
  F  F34  1  0.44701883  0.59858574  0.91787197  1
  F  F35  1  0.55298117  0.40141426  0.08212803  1
  F  F36  1  0.94701883  0.40141426  0.58212803  1
  F  F37  1  0.05298117  0.59858574  0.41787197  1
  F  F38  1  0.81474662  0.70455801  0.77373534  1
  F  F39  1  0.18525338  0.29544199  0.22626466  1
  F  F40  1  0.31474662  0.29544199  0.72626466  1
  F  F41  1  0.68525338  0.70455801  0.27373534  1
  F  F42  1  0.99292429  0.83316337  0.65652711  1
  F  F43  1  0.00707571  0.16683663  0.34347289  1
  F  F44  1  0.49292429  0.16683663  0.84347289  1
  F  F45  1  0.50707571  0.83316337  0.15652711  1
  F  F46  1  0.76326539  0.41515291  0.74858021  1
  F  F47  1  0.23673461  0.58484709  0.25141979  1
  F  F48  1  0.26326539  0.58484709  0.75141979  1
  F  F49  1  0.73673461  0.41515291  0.24858021  1
  F  F50  1  0.64027696  0.45469674  0.57930981  1
  F  F51  1  0.35972304  0.54530326  0.42069019  1
  F  F52  1  0.14027696  0.54530326  0.92069019  1
  F  F53  1  0.85972304  0.45469674  0.07930981  1
