# generated using pymatgen
data_Li3Sn3(PO4)4
_symmetry_space_group_name_H-M   'P 1'
_cell_length_a   7.72843350
_cell_length_b   8.60596265
_cell_length_c   10.64701081
_cell_angle_alpha   90.00000000
_cell_angle_beta   92.65181913
_cell_angle_gamma   90.00000000
_symmetry_Int_Tables_number   1
_chemical_formula_structural   Li3Sn3(PO4)4
_chemical_formula_sum   'Li6 Sn6 P8 O32'
_cell_volume   707.38086255
_cell_formula_units_Z   2
loop_
 _symmetry_equiv_pos_site_id
 _symmetry_equiv_pos_as_xyz
  1  'x, y, z'
loop_
 _atom_site_type_symbol
 _atom_site_label
 _atom_site_symmetry_multiplicity
 _atom_site_fract_x
 _atom_site_fract_y
 _atom_site_fract_z
 _atom_site_occupancy
  Li  Li0  1  0.10319707  0.37368698  0.28832065  1
  Li  Li1  1  0.39680293  0.87368698  0.96167935  1
  Li  Li2  1  0.62227089  0.14345818  0.54942105  1
  Li  Li3  1  0.60197565  0.12147025  0.04236141  1
  Li  Li4  1  0.87772911  0.64345818  0.70057895  1
  Li  Li5  1  0.89802435  0.62147025  0.20763859  1
  Sn  Sn6  1  0.99585632  0.98829824  0.76074365  1
  Sn  Sn7  1  0.99562672  0.99417667  0.24054865  1
  Sn  Sn8  1  0.13344323  0.37377063  0.78432414  1
  Sn  Sn9  1  0.36655677  0.87377063  0.46567586  1
  Sn  Sn10  1  0.50414368  0.48829824  0.48925635  1
  Sn  Sn11  1  0.50437328  0.49417667  0.00945135  1
  P  P12  1  0.19402991  0.20027864  0.50575894  1
  P  P13  1  0.21315406  0.18756562  0.03315086  1
  P  P14  1  0.30597009  0.70027864  0.74424106  1
  P  P15  1  0.28684594  0.68756562  0.21684914  1
  P  P16  1  0.69705817  0.31302708  0.76743826  1
  P  P17  1  0.71517416  0.30085015  0.26240091  1
  P  P18  1  0.78482584  0.80085015  0.98759909  1
  P  P19  1  0.80294183  0.81302708  0.48256174  1
  O  O20  1  0.06709316  0.15680109  0.92809136  1
  O  O21  1  0.08096013  0.11564183  0.40198940  1
  O  O22  1  0.08593754  0.19344499  0.62643308  1
  O  O23  1  0.13000925  0.62025018  0.71869371  1
  O  O24  1  0.12373246  0.18152699  0.16270973  1
  O  O25  1  0.14021887  0.57362446  0.22127316  1
  O  O26  1  0.27403637  0.87177193  0.78337378  1
  O  O27  1  0.27250712  0.36139579  0.01613316  1
  O  O28  1  0.22749288  0.86139579  0.23386684  1
  O  O29  1  0.22596363  0.37177193  0.46662622  1
  O  O30  1  0.36999075  0.12025018  0.53130629  1
  O  O31  1  0.41406246  0.69344499  0.62356692  1
  O  O32  1  0.35978113  0.07362446  0.02872684  1
  O  O33  1  0.41903987  0.61564183  0.84801060  1
  O  O34  1  0.37626754  0.68152699  0.08729027  1
  O  O35  1  0.43290684  0.65680109  0.32190864  1
  O  O36  1  0.55861959  0.35489004  0.66196351  1
  O  O37  1  0.61611273  0.32043515  0.90089506  1
  O  O38  1  0.57154781  0.34724855  0.15952190  1
  O  O39  1  0.63813152  0.91517755  0.98194064  1
  O  O40  1  0.62818564  0.28897286  0.39214595  1
  O  O41  1  0.64913281  0.92847926  0.48684012  1
  O  O42  1  0.74852045  0.64281169  0.50947594  1
  O  O43  1  0.75147955  0.14281169  0.74052406  1
  O  O44  1  0.73108656  0.63094619  0.02924739  1
  O  O45  1  0.76891344  0.13094619  0.22075261  1
  O  O46  1  0.85086719  0.42847926  0.76315988  1
  O  O47  1  0.87181436  0.78897286  0.85785405  1
  O  O48  1  0.86186848  0.41517755  0.26805936  1
  O  O49  1  0.88388727  0.82043515  0.34910494  1
  O  O50  1  0.94138041  0.85489004  0.58803649  1
  O  O51  1  0.92845219  0.84724855  0.09047810  1
