# generated using pymatgen
data_Li3Bi(PO4)2
_symmetry_space_group_name_H-M   'P 1'
_cell_length_a   5.09676412
_cell_length_b   19.03047192
_cell_length_c   6.61572229
_cell_angle_alpha   90.00000000
_cell_angle_beta   90.96843342
_cell_angle_gamma   90.00000000
_symmetry_Int_Tables_number   1
_chemical_formula_structural   Li3Bi(PO4)2
_chemical_formula_sum   'Li12 Bi4 P8 O32'
_cell_volume   641.59256067
_cell_formula_units_Z   4
loop_
 _symmetry_equiv_pos_site_id
 _symmetry_equiv_pos_as_xyz
  1  'x, y, z'
loop_
 _atom_site_type_symbol
 _atom_site_label
 _atom_site_symmetry_multiplicity
 _atom_site_fract_x
 _atom_site_fract_y
 _atom_site_fract_z
 _atom_site_occupancy
  Li  Li0  1  0.20159660  0.70164018  0.82650419  1
  Li  Li1  1  0.22904504  0.87963586  0.49758637  1
  Li  Li2  1  0.26979678  0.04599645  0.31558582  1
  Li  Li3  1  0.27095496  0.37963586  0.00241363  1
  Li  Li4  1  0.23020322  0.54599645  0.18441418  1
  Li  Li5  1  0.29840340  0.20164018  0.67349581  1
  Li  Li6  1  0.70159660  0.79835982  0.32650419  1
  Li  Li7  1  0.76979678  0.45400355  0.81558582  1
  Li  Li8  1  0.72904504  0.62036414  0.99758637  1
  Li  Li9  1  0.73020322  0.95400355  0.68441418  1
  Li  Li10  1  0.77095496  0.12036414  0.50241363  1
  Li  Li11  1  0.79840340  0.29835982  0.17349581  1
  Bi  Bi12  1  0.19835343  0.87836528  0.01428590  1
  Bi  Bi13  1  0.30164657  0.37836528  0.48571410  1
  Bi  Bi14  1  0.69835343  0.62163472  0.51428590  1
  Bi  Bi15  1  0.80164657  0.12163472  0.98571410  1
  P  P16  1  0.18968127  0.71560466  0.28949686  1
  P  P17  1  0.21302976  0.53437878  0.74841805  1
  P  P18  1  0.28697024  0.03437878  0.75158195  1
  P  P19  1  0.31031873  0.21560466  0.21050314  1
  P  P20  1  0.68968127  0.78439534  0.78949686  1
  P  P21  1  0.71302976  0.96562122  0.24841805  1
  P  P22  1  0.78697024  0.46562122  0.25158195  1
  P  P23  1  0.81031873  0.28439534  0.71050314  1
  O  O24  1  0.00438038  0.20480899  0.20125477  1
  O  O25  1  0.07344177  0.68900054  0.49311317  1
  O  O26  1  0.08415654  0.44603621  0.22031516  1
  O  O27  1  0.06965690  0.67671688  0.10802567  1
  O  O28  1  0.20494551  0.05374712  0.97002021  1
  O  O29  1  0.12121722  0.07210733  0.59092392  1
  O  O30  1  0.12409104  0.79665976  0.28143500  1
  O  O31  1  0.22846421  0.45213538  0.77390283  1
  O  O32  1  0.27153579  0.95213538  0.72609717  1
  O  O33  1  0.37590896  0.29665976  0.21856500  1
  O  O34  1  0.37878278  0.57210733  0.90907608  1
  O  O35  1  0.29505449  0.55374712  0.52997979  1
  O  O36  1  0.43034310  0.17671688  0.39197433  1
  O  O37  1  0.41584346  0.94603621  0.27968484  1
  O  O38  1  0.42655823  0.18900054  0.00688683  1
  O  O39  1  0.49561962  0.70480899  0.29874523  1
  O  O40  1  0.50438038  0.29519101  0.70125477  1
  O  O41  1  0.57344177  0.81099946  0.99311317  1
  O  O42  1  0.58415654  0.05396379  0.72031516  1
  O  O43  1  0.56965690  0.82328312  0.60802567  1
  O  O44  1  0.70494551  0.44625288  0.47002021  1
  O  O45  1  0.62121722  0.42789267  0.09092392  1
  O  O46  1  0.62409104  0.70334024  0.78143500  1
  O  O47  1  0.72846421  0.04786462  0.27390283  1
  O  O48  1  0.77153579  0.54786462  0.22609717  1
  O  O49  1  0.87590896  0.20334024  0.71856500  1
  O  O50  1  0.87878278  0.92789267  0.40907608  1
  O  O51  1  0.79505449  0.94625288  0.02997979  1
  O  O52  1  0.93034310  0.32328312  0.89197433  1
  O  O53  1  0.91584346  0.55396379  0.77968484  1
  O  O54  1  0.92655823  0.31099946  0.50688683  1
  O  O55  1  0.99561962  0.79519101  0.79874523  1
