# generated using pymatgen
data_Bi5O7F
_symmetry_space_group_name_H-M   'P 1'
_cell_length_a   6.92169273
_cell_length_b   12.52540542
_cell_length_c   11.91478295
_cell_angle_alpha   90.00000000
_cell_angle_beta   87.30337870
_cell_angle_gamma   90.00000000
_symmetry_Int_Tables_number   1
_chemical_formula_structural   Bi5O7F
_chemical_formula_sum   'Bi20 O28 F4'
_cell_volume   1031.83216357
_cell_formula_units_Z   4
loop_
 _symmetry_equiv_pos_site_id
 _symmetry_equiv_pos_as_xyz
  1  'x, y, z'
loop_
 _atom_site_type_symbol
 _atom_site_label
 _atom_site_symmetry_multiplicity
 _atom_site_fract_x
 _atom_site_fract_y
 _atom_site_fract_z
 _atom_site_occupancy
  Bi  Bi0  1  0.07903815  0.25064982  0.92984749  1
  Bi  Bi1  1  0.08403438  0.22256683  0.26659359  1
  Bi  Bi2  1  0.09178715  0.26516046  0.58063054  1
  Bi  Bi3  1  0.26851938  0.97804970  0.41685369  1
  Bi  Bi4  1  0.26736612  0.00963882  0.10848691  1
  Bi  Bi5  1  0.23263388  0.50963882  0.39151309  1
  Bi  Bi6  1  0.23148062  0.47804970  0.08314631  1
  Bi  Bi7  1  0.40821285  0.76516046  0.91936946  1
  Bi  Bi8  1  0.41596562  0.72256783  0.23340641  1
  Bi  Bi9  1  0.42096185  0.75064982  0.57015251  1
  Bi  Bi10  1  0.57903815  0.24935018  0.42984749  1
  Bi  Bi11  1  0.58403438  0.27743217  0.76659359  1
  Bi  Bi12  1  0.59178715  0.23483954  0.08063054  1
  Bi  Bi13  1  0.76851938  0.52195030  0.91685369  1
  Bi  Bi14  1  0.76736612  0.49036118  0.60848691  1
  Bi  Bi15  1  0.73263388  0.99036118  0.89151309  1
  Bi  Bi16  1  0.73148062  0.02195030  0.58314631  1
  Bi  Bi17  1  0.90821285  0.73483954  0.41936946  1
  Bi  Bi18  1  0.91596562  0.77743217  0.73340641  1
  Bi  Bi19  1  0.92096185  0.74935018  0.07015251  1
  O  O20  1  0.99280936  0.39509011  0.00717143  1
  O  O21  1  0.01981813  0.60186352  0.50164249  1
  O  O22  1  0.03977161  0.15611998  0.07618833  1
  O  O23  1  0.12100050  0.83350754  0.49327202  1
  O  O24  1  0.14272201  0.64249314  0.27836025  1
  O  O25  1  0.14562339  0.39639960  0.23649810  1
  O  O26  1  0.24059708  0.75824604  0.08187598  1
  O  O27  1  0.25940292  0.25824604  0.41812402  1
  O  O28  1  0.35437661  0.89639960  0.26350190  1
  O  O29  1  0.35727799  0.14249314  0.22163975  1
  O  O30  1  0.37899950  0.33350754  0.00672798  1
  O  O31  1  0.46022839  0.65611998  0.42381167  1
  O  O32  1  0.48018187  0.10186352  0.99835751  1
  O  O33  1  0.50719064  0.89509011  0.49282857  1
  O  O34  1  0.49280936  0.10490989  0.50717143  1
  O  O35  1  0.51981813  0.89813648  0.00164249  1
  O  O36  1  0.53977161  0.34388002  0.57618833  1
  O  O37  1  0.62100050  0.66649246  0.99327202  1
  O  O38  1  0.64272201  0.85750686  0.77836025  1
  O  O39  1  0.64562339  0.10360040  0.73649810  1
  O  O40  1  0.74059708  0.74175396  0.58187598  1
  O  O41  1  0.75940292  0.24175396  0.91812402  1
  O  O42  1  0.85437661  0.60360040  0.76350190  1
  O  O43  1  0.85727799  0.35750686  0.72163975  1
  O  O44  1  0.87899950  0.16649246  0.50672798  1
  O  O45  1  0.96022839  0.84388002  0.92381167  1
  O  O46  1  0.98018187  0.39813648  0.49835751  1
  O  O47  1  0.00719064  0.60490989  0.99282857  1
  F  F48  1  0.98638199  0.97801512  0.72694551  1
  F  F49  1  0.51361801  0.47801512  0.77305449  1
  F  F50  1  0.48638199  0.52198488  0.22694551  1
  F  F51  1  0.01361801  0.02198488  0.27305449  1
