# generated using pymatgen
data_CaH12S2(NO5)2
_symmetry_space_group_name_H-M   'P 1'
_cell_length_a   7.02620560
_cell_length_b   7.02620560
_cell_length_c   11.79250865
_cell_angle_alpha   82.28537667
_cell_angle_beta   97.71462333
_cell_angle_gamma   113.93097372
_symmetry_Int_Tables_number   1
_chemical_formula_structural   CaH12S2(NO5)2
_chemical_formula_sum   'Ca2 H24 S4 N4 O20'
_cell_volume   525.25525223
_cell_formula_units_Z   2
loop_
 _symmetry_equiv_pos_site_id
 _symmetry_equiv_pos_as_xyz
  1  'x, y, z'
loop_
 _atom_site_type_symbol
 _atom_site_label
 _atom_site_symmetry_multiplicity
 _atom_site_fract_x
 _atom_site_fract_y
 _atom_site_fract_z
 _atom_site_occupancy
  Ca  Ca0  1  0.92574047  0.92574047  0.75000000  1
  Ca  Ca1  1  0.07425953  0.07425953  0.25000000  1
  H  H2  1  0.19299806  0.01593838  0.98864019  1
  H  H3  1  0.98406162  0.80700194  0.48864019  1
  H  H4  1  0.20038703  0.81467593  0.94341152  1
  H  H5  1  0.18532407  0.79961297  0.44341152  1
  H  H6  1  0.34347829  0.68585276  0.69259975  1
  H  H7  1  0.17235056  0.44460782  0.64300962  1
  H  H8  1  0.55720482  0.70117347  0.89879213  1
  H  H9  1  0.31414724  0.65652171  0.19259975  1
  H  H10  1  0.55539218  0.82764944  0.14300962  1
  H  H11  1  0.29882653  0.44279518  0.39879213  1
  H  H12  1  0.64420909  0.73757725  0.53535223  1
  H  H13  1  0.73757725  0.64420909  0.96464777  1
  H  H14  1  0.26242275  0.35579091  0.03535223  1
  H  H15  1  0.35579091  0.26242275  0.46464777  1
  H  H16  1  0.70117347  0.55720482  0.60120787  1
  H  H17  1  0.44460782  0.17235056  0.85699038  1
  H  H18  1  0.68585276  0.34347829  0.80740025  1
  H  H19  1  0.44279518  0.29882653  0.10120787  1
  H  H20  1  0.82764944  0.55539218  0.35699038  1
  H  H21  1  0.65652171  0.31414724  0.30740025  1
  H  H22  1  0.81467593  0.20038703  0.55658848  1
  H  H23  1  0.79961297  0.18532407  0.05658848  1
  H  H24  1  0.01593838  0.19299806  0.51135981  1
  H  H25  1  0.80700194  0.98406162  0.01135981  1
  S  S26  1  0.11249331  0.48213026  0.81657901  1
  S  S27  1  0.51786974  0.88750669  0.31657901  1
  S  S28  1  0.48213026  0.11249331  0.68342099  1
  S  S29  1  0.88750669  0.51786974  0.18342099  1
  N  N30  1  0.25528574  0.52969307  0.71071692  1
  N  N31  1  0.47030693  0.74471426  0.21071692  1
  N  N32  1  0.52969307  0.25528574  0.78928308  1
  N  N33  1  0.74471426  0.47030693  0.28928308  1
  O  O34  1  0.18643244  0.94814346  0.91941998  1
  O  O35  1  0.05185654  0.81356756  0.41941998  1
  O  O36  1  0.57754089  0.95639316  0.70839373  1
  O  O37  1  0.26072463  0.57458039  0.91622560  1
  O  O38  1  0.00847702  0.25323242  0.83322319  1
  O  O39  1  0.04360684  0.42245911  0.20839373  1
  O  O40  1  0.42541961  0.73927537  0.41622560  1
  O  O41  1  0.74676758  0.99152298  0.33322319  1
  O  O42  1  0.71066076  0.75630809  0.91429615  1
  O  O43  1  0.24369191  0.28933924  0.41429615  1
  O  O44  1  0.75630809  0.71066076  0.58570385  1
  O  O45  1  0.28933924  0.24369191  0.08570385  1
  O  O46  1  0.25323242  0.00847702  0.66677681  1
  O  O47  1  0.57458039  0.26072463  0.58377440  1
  O  O48  1  0.95639316  0.57754089  0.79160627  1
  O  O49  1  0.99152298  0.74676758  0.16677681  1
  O  O50  1  0.73927537  0.42541961  0.08377440  1
  O  O51  1  0.42245911  0.04360684  0.29160627  1
  O  O52  1  0.94814346  0.18643244  0.58058002  1
  O  O53  1  0.81356756  0.05185654  0.08058002  1
