# generated using pymatgen
data_Li3Ti2(PO4)3
_symmetry_space_group_name_H-M   'P 1'
_cell_length_a   9.84293424
_cell_length_b   9.84293424
_cell_length_c   9.82348186
_cell_angle_alpha   85.73049929
_cell_angle_beta   94.26950071
_cell_angle_gamma   94.76083563
_symmetry_Int_Tables_number   1
_chemical_formula_structural   Li3Ti2(PO4)3
_chemical_formula_sum   'Li12 Ti8 P12 O48'
_cell_volume   943.58184113
_cell_formula_units_Z   4
loop_
 _symmetry_equiv_pos_site_id
 _symmetry_equiv_pos_as_xyz
  1  'x, y, z'
loop_
 _atom_site_type_symbol
 _atom_site_label
 _atom_site_symmetry_multiplicity
 _atom_site_fract_x
 _atom_site_fract_y
 _atom_site_fract_z
 _atom_site_occupancy
  Li  Li0  1  0.01093915  0.50503125  0.22880293  1
  Li  Li1  1  0.37491376  0.74921872  0.79750029  1
  Li  Li2  1  0.21275557  0.55555085  0.46749958  1
  Li  Li3  1  0.23679157  0.73627720  0.18246781  1
  Li  Li4  1  0.70713938  0.93478771  0.97554659  1
  Li  Li5  1  0.99943418  0.25865347  0.39540051  1
  Li  Li6  1  0.25865347  0.99943418  0.60459949  1
  Li  Li7  1  0.93478771  0.70713938  0.02445341  1
  Li  Li8  1  0.73627720  0.23679157  0.81753219  1
  Li  Li9  1  0.55555085  0.21275557  0.53250042  1
  Li  Li10  1  0.74921872  0.37491376  0.20249971  1
  Li  Li11  1  0.50503125  0.01093915  0.77119707  1
  Ti  Ti12  1  0.03528821  0.25100971  0.78765422  1
  Ti  Ti13  1  0.74847739  0.95954465  0.28876250  1
  Ti  Ti14  1  0.53565234  0.53565234  0.50000000  1
  Ti  Ti15  1  0.74839235  0.74839235  0.50000000  1
  Ti  Ti16  1  0.24846762  0.24846762  0.00000000  1
  Ti  Ti17  1  0.46214042  0.46214042  0.00000000  1
  Ti  Ti18  1  0.95954465  0.74847739  0.71123750  1
  Ti  Ti19  1  0.25100971  0.03528821  0.21234578  1
  P  P20  1  0.17256339  0.94261905  0.90132360  1
  P  P21  1  0.05458405  0.82059271  0.40284257  1
  P  P22  1  0.15508196  0.55535774  0.92717624  1
  P  P23  1  0.44005882  0.83877082  0.42781154  1
  P  P24  1  0.65111706  0.68137407  0.80621082  1
  P  P25  1  0.34189944  0.31824285  0.69503719  1
  P  P26  1  0.31824285  0.34189944  0.30496281  1
  P  P27  1  0.68137407  0.65111706  0.19378918  1
  P  P28  1  0.83877082  0.44005882  0.57218846  1
  P  P29  1  0.55535774  0.15508196  0.07282376  1
  P  P30  1  0.82059271  0.05458405  0.59715743  1
  P  P31  1  0.94261905  0.17256339  0.09867640  1
  O  O32  1  0.03168331  0.86953610  0.86376963  1
  O  O33  1  0.11782918  0.95957461  0.34549610  1
  O  O34  1  0.08318822  0.81563065  0.56180352  1
  O  O35  1  0.20344634  0.90838042  0.05787404  1
  O  O36  1  0.28633782  0.90960346  0.81317824  1
  O  O37  1  0.10719351  0.69708573  0.34123280  1
  O  O38  1  0.09054589  0.61764147  0.79244134  1
  O  O39  1  0.39938541  0.90503176  0.55205150  1
  O  O40  1  0.37027401  0.88642972  0.28829970  1
  O  O41  1  0.10122422  0.60576845  0.05674712  1
  O  O42  1  0.12277350  0.39622772  0.92573551  1
  O  O43  1  0.31346967  0.58859927  0.92614263  1
  O  O44  1  0.58222257  0.80676412  0.84496594  1
  O  O45  1  0.40748536  0.67945452  0.44169459  1
  O  O46  1  0.59952898  0.87096440  0.41750211  1
  O  O47  1  0.19127104  0.40031212  0.35318291  1
  O  O48  1  0.18344728  0.31103453  0.66937962  1
  O  O49  1  0.69706512  0.80842753  0.15681363  1
  O  O50  1  0.39535182  0.45620160  0.62662361  1
  O  O51  1  0.62197138  0.67045434  0.64626569  1
  O  O52  1  0.82329662  0.89529936  0.63018236  1
  O  O53  1  0.16108274  0.10175937  0.87501945  1
  O  O54  1  0.54399559  0.59152323  0.13115124  1
  O  O55  1  0.37980912  0.32449237  0.85421321  1
  O  O56  1  0.32449237  0.37980912  0.14578679  1
  O  O57  1  0.59152323  0.54399559  0.86884876  1
  O  O58  1  0.10175937  0.16108274  0.12498055  1
  O  O59  1  0.89529936  0.82329662  0.36981764  1
  O  O60  1  0.67045434  0.62197138  0.35373431  1
  O  O61  1  0.45620160  0.39535182  0.37337639  1
  O  O62  1  0.80842753  0.69706512  0.84318637  1
  O  O63  1  0.31103453  0.18344728  0.33062038  1
  O  O64  1  0.40031212  0.19127104  0.64681709  1
  O  O65  1  0.87096440  0.59952898  0.58249789  1
  O  O66  1  0.67945452  0.40748536  0.55830541  1
  O  O67  1  0.80676412  0.58222257  0.15503406  1
  O  O68  1  0.58859927  0.31346967  0.07385737  1
  O  O69  1  0.39622772  0.12277350  0.07426449  1
  O  O70  1  0.60576845  0.10122422  0.94325288  1
  O  O71  1  0.88642972  0.37027401  0.71170030  1
  O  O72  1  0.90503176  0.39938541  0.44794850  1
  O  O73  1  0.61764147  0.09054589  0.20755866  1
  O  O74  1  0.69708573  0.10719351  0.65876720  1
  O  O75  1  0.90960346  0.28633782  0.18682176  1
  O  O76  1  0.90838042  0.20344634  0.94212596  1
  O  O77  1  0.81563065  0.08318822  0.43819648  1
  O  O78  1  0.95957461  0.11782918  0.65450390  1
  O  O79  1  0.86953610  0.03168331  0.13623037  1
