# generated using pymatgen
data_Li3CuF5
_symmetry_space_group_name_H-M   'P 1'
_cell_length_a   6.19212029
_cell_length_b   6.19212037
_cell_length_c   6.81891387
_cell_angle_alpha   105.48862225
_cell_angle_beta   105.48862429
_cell_angle_gamma   57.68496532
_symmetry_Int_Tables_number   1
_chemical_formula_structural   Li3CuF5
_chemical_formula_sum   'Li6 Cu2 F10'
_cell_volume   210.44102872
_cell_formula_units_Z   2
loop_
 _symmetry_equiv_pos_site_id
 _symmetry_equiv_pos_as_xyz
  1  'x, y, z'
loop_
 _atom_site_type_symbol
 _atom_site_label
 _atom_site_symmetry_multiplicity
 _atom_site_fract_x
 _atom_site_fract_y
 _atom_site_fract_z
 _atom_site_occupancy
  Li  Li0  1  0.05126311  0.44862765  0.17241754  1
  Li  Li1  1  0.44866339  0.05140111  0.67231211  1
  Li  Li2  1  0.51110877  0.48889123  0.25000000  1
  Li  Li3  1  0.48886944  0.51113056  0.75000000  1
  Li  Li4  1  0.55137235  0.94873689  0.32758246  1
  Li  Li5  1  0.94859889  0.55133661  0.82768789  1
  Cu  Cu6  1  -0.00000644  -0.00022904  0.49989100  1
  Cu  Cu7  1  0.00022904  0.00000644  0.00010900  1
  F  F8  1  0.91536954  0.73851495  0.36856342  1
  F  F9  1  0.22922639  0.54083894  0.04313880  1
  F  F10  1  0.16938161  0.83061839  0.75000000  1
  F  F11  1  0.54085021  0.22939124  0.54305307  1
  F  F12  1  0.73826556  0.91523454  0.86831930  1
  F  F13  1  0.26148505  0.08463046  0.13143658  1
  F  F14  1  0.45916106  0.77077361  0.45686120  1
  F  F15  1  0.83068880  0.16931120  0.25000000  1
  F  F16  1  0.77060876  0.45914979  0.95694693  1
  F  F17  1  0.08476546  0.26173444  0.63168070  1
