# generated using pymatgen
data_Li3Sb2(PO4)3
_symmetry_space_group_name_H-M   'P 1'
_cell_length_a   8.49529728
_cell_length_b   9.37977278
_cell_length_c   12.83660545
_cell_angle_alpha   90.00000336
_cell_angle_beta   80.76599301
_cell_angle_gamma   90.00000229
_symmetry_Int_Tables_number   1
_chemical_formula_structural   Li3Sb2(PO4)3
_chemical_formula_sum   'Li12 Sb8 P12 O48'
_cell_volume   1009.61634054
_cell_formula_units_Z   4
loop_
 _symmetry_equiv_pos_site_id
 _symmetry_equiv_pos_as_xyz
  1  'x, y, z'
loop_
 _atom_site_type_symbol
 _atom_site_label
 _atom_site_symmetry_multiplicity
 _atom_site_fract_x
 _atom_site_fract_y
 _atom_site_fract_z
 _atom_site_occupancy
  Li  Li0  1  0.70543435  0.18336186  0.94541210  1
  Li  Li1  1  0.50000000  0.61145543  0.75000000  1
  Li  Li2  1  0.29456565  0.18336186  0.55458790  1
  Li  Li3  1  0.50000000  0.50000000  0.50000000  1
  Li  Li4  1  0.00000000  0.00000000  0.50000000  1
  Li  Li5  1  0.70543435  0.81663814  0.44541210  1
  Li  Li6  1  0.00000000  0.88263365  0.75000000  1
  Li  Li7  1  0.50000000  0.38854457  0.25000000  1
  Li  Li8  1  1.00000000  0.11736635  0.25000000  1
  Li  Li9  1  0.00000000  0.00000000  0.00000000  1
  Li  Li10  1  0.50000000  0.50000000  0.00000000  1
  Li  Li11  1  0.29456565  0.81663814  0.05458790  1
  Sb  Sb12  1  0.81615984  0.50332201  0.84800711  1
  Sb  Sb13  1  0.68824188  0.01034908  0.65607803  1
  Sb  Sb14  1  0.31175812  0.01034908  0.84392197  1
  Sb  Sb15  1  0.18384016  0.50332201  0.65199289  1
  Sb  Sb16  1  0.68824188  0.98965092  0.15607803  1
  Sb  Sb17  1  0.31175812  0.98965092  0.34392197  1
  Sb  Sb18  1  0.81615984  0.49667799  0.34800711  1
  Sb  Sb19  1  0.18384016  0.49667799  0.15199289  1
  P  P20  1  0.50000000  0.32989936  0.75000000  1
  P  P21  1  0.67436377  0.82996983  0.92239558  1
  P  P22  1  0.82258773  0.66665198  0.58665528  1
  P  P23  1  0.00000000  0.16052844  0.75000000  1
  P  P24  1  0.67436377  0.17003017  0.42239558  1
  P  P25  1  0.17741227  0.66665198  0.91334472  1
  P  P26  1  0.32563623  0.82996983  0.57760442  1
  P  P27  1  0.82258773  0.33334802  0.08665528  1
  P  P28  1  0.17741227  0.33334802  0.41334472  1
  P  P29  1  0.32563623  0.17003017  0.07760442  1
  P  P30  1  0.50000000  0.67010064  0.25000000  1
  P  P31  1  1.00000000  0.83947156  0.25000000  1
  O  O32  1  0.86861282  0.24331108  0.81895204  1
  O  O33  1  0.00810757  0.60985018  0.91802122  1
  O  O34  1  0.92824249  0.05646526  0.67109545  1
  O  O35  1  0.56830426  0.43062124  0.83083900  1
  O  O36  1  0.36958106  0.23873790  0.81535019  1
  O  O37  1  0.67739236  0.66195103  0.93421889  1
  O  O38  1  0.76563075  0.90703626  0.00602457  1
  O  O39  1  0.63041894  0.23873790  0.68464981  1
  O  O40  1  0.07175751  0.05646526  0.82890455  1
  O  O41  1  0.26013011  0.60422336  0.00726555  1
  O  O42  1  0.76563075  0.09296374  0.50602457  1
  O  O43  1  0.71327051  0.63570571  0.68932904  1
  O  O44  1  0.49717515  0.86990074  0.94319038  1
  O  O45  1  0.00810757  0.39014982  0.41802122  1
  O  O46  1  0.76908927  0.87661306  0.81626558  1
  O  O47  1  0.43169574  0.43062124  0.66916100  1
  O  O48  1  0.76908927  0.12338694  0.31626558  1
  O  O49  1  0.28672949  0.63570571  0.81067096  1
  O  O50  1  0.83407316  0.83287368  0.56436247  1
  O  O51  1  0.73986989  0.60422336  0.49273445  1
  O  O52  1  0.13138718  0.24331108  0.68104796  1
  O  O53  1  0.49717515  0.13009926  0.44319038  1
  O  O54  1  0.67739236  0.33804897  0.43421889  1
  O  O55  1  0.16592684  0.83287368  0.93563753  1
  O  O56  1  0.32260764  0.66195103  0.56578111  1
  O  O57  1  0.83407316  0.16712632  0.06436247  1
  O  O58  1  0.86861282  0.75668892  0.31895204  1
  O  O59  1  0.50282485  0.86990074  0.55680962  1
  O  O60  1  0.16592684  0.16712632  0.43563753  1
  O  O61  1  0.26013011  0.39577664  0.50726555  1
  O  O62  1  0.23091073  0.87661306  0.68373442  1
  O  O63  1  0.71327051  0.36429429  0.18932904  1
  O  O64  1  0.56830426  0.56937876  0.33083900  1
  O  O65  1  0.23091073  0.12338694  0.18373442  1
  O  O66  1  0.99189243  0.60985018  0.58197878  1
  O  O67  1  0.50282485  0.13009926  0.05680962  1
  O  O68  1  0.28672949  0.36429429  0.31067096  1
  O  O69  1  0.73986989  0.39577664  0.99273445  1
  O  O70  1  0.92824249  0.94353474  0.17109545  1
  O  O71  1  0.23436925  0.90703626  0.49397543  1
  O  O72  1  0.36958106  0.76126210  0.31535019  1
  O  O73  1  0.32260764  0.33804897  0.06578111  1
  O  O74  1  0.23436925  0.09296374  0.99397543  1
  O  O75  1  0.63041894  0.76126210  0.18464981  1
  O  O76  1  0.43169574  0.56937876  0.16916100  1
  O  O77  1  0.07175751  0.94353474  0.32890455  1
  O  O78  1  0.99189243  0.39014982  0.08197878  1
  O  O79  1  0.13138718  0.75668892  0.18104796  1
