# generated using pymatgen
data_Na3Bi(P2O7)2
_symmetry_space_group_name_H-M   'P 1'
_cell_length_a   9.65342057
_cell_length_b   9.71354818
_cell_length_c   7.40719581
_cell_angle_alpha   77.32513998
_cell_angle_beta   110.18726979
_cell_angle_gamma   99.32312551
_symmetry_Int_Tables_number   1
_chemical_formula_structural   Na3Bi(P2O7)2
_chemical_formula_sum   'Na6 Bi2 P8 O28'
_cell_volume   633.18184369
_cell_formula_units_Z   2
loop_
 _symmetry_equiv_pos_site_id
 _symmetry_equiv_pos_as_xyz
  1  'x, y, z'
loop_
 _atom_site_type_symbol
 _atom_site_label
 _atom_site_symmetry_multiplicity
 _atom_site_fract_x
 _atom_site_fract_y
 _atom_site_fract_z
 _atom_site_occupancy
  Na  Na0  1  0.14859710  0.72634600  0.64519156  1
  Na  Na1  1  0.50077468  0.83826042  0.94755477  1
  Na  Na2  1  0.45859857  0.66815566  0.55746643  1
  Na  Na3  1  0.54140143  0.33184434  0.44253357  1
  Na  Na4  1  0.49922532  0.16173958  0.05244523  1
  Na  Na5  1  0.85140290  0.27365400  0.35480844  1
  Bi  Bi6  1  0.12228943  0.21850656  0.11950239  1
  Bi  Bi7  1  0.87771057  0.78149344  0.88049761  1
  P  P8  1  0.13541931  0.02545728  0.81505641  1
  P  P9  1  0.10770626  0.54892146  0.27137805  1
  P  P10  1  0.33375731  0.05529909  0.58624695  1
  P  P11  1  0.34153235  0.54726781  0.09790057  1
  P  P12  1  0.65846765  0.45273219  0.90209943  1
  P  P13  1  0.66624269  0.94470091  0.41375305  1
  P  P14  1  0.89229374  0.45107854  0.72862195  1
  P  P15  1  0.86458069  0.97454272  0.18494359  1
  O  O16  1  0.03494507  0.37607029  0.82103533  1
  O  O17  1  0.16301214  0.86926770  0.87765198  1
  O  O18  1  0.02847051  0.95613810  0.23143286  1
  O  O19  1  0.07786882  0.38568678  0.30849882  1
  O  O20  1  0.23659226  0.12118913  0.96349498  1
  O  O21  1  0.20865926  0.60287526  0.45553861  1
  O  O22  1  0.18115387  0.08477968  0.61683968  1
  O  O23  1  0.35653760  0.62662112  0.90522719  1
  O  O24  1  0.33422776  0.89736205  0.58977367  1
  O  O25  1  0.18656872  0.58867431  0.10379806  1
  O  O26  1  0.32988891  0.15266225  0.39181682  1
  O  O27  1  0.32474705  0.38352433  0.11747222  1
  O  O28  1  0.46737112  0.09556259  0.75812098  1
  O  O29  1  0.53260636  0.41439446  0.72202822  1
  O  O30  1  0.46739364  0.58560554  0.27797178  1
  O  O31  1  0.53262888  0.90443741  0.24187902  1
  O  O32  1  0.67525295  0.61647567  0.88252778  1
  O  O33  1  0.67011109  0.84733775  0.60818318  1
  O  O34  1  0.81343128  0.41132569  0.89620194  1
  O  O35  1  0.66577224  0.10263795  0.41022633  1
  O  O36  1  0.64346240  0.37337888  0.09477281  1
  O  O37  1  0.81884613  0.91522032  0.38316032  1
  O  O38  1  0.79134074  0.39712474  0.54446139  1
  O  O39  1  0.76340774  0.87881087  0.03650502  1
  O  O40  1  0.92213118  0.61431322  0.69150118  1
  O  O41  1  0.97152949  0.04386190  0.76856714  1
  O  O42  1  0.83698786  0.13073230  0.12234802  1
  O  O43  1  0.96505493  0.62392971  0.17896467  1
