# generated using pymatgen
data_LiBi2P3O11
_symmetry_space_group_name_H-M   'P 1'
_cell_length_a   7.89124449
_cell_length_b   7.89124449
_cell_length_c   9.63482444
_cell_angle_alpha   67.25731864
_cell_angle_beta   112.74268136
_cell_angle_gamma   106.15708691
_symmetry_Int_Tables_number   1
_chemical_formula_structural   LiBi2P3O11
_chemical_formula_sum   'Li2 Bi4 P6 O22'
_cell_volume   504.42144870
_cell_formula_units_Z   2
loop_
 _symmetry_equiv_pos_site_id
 _symmetry_equiv_pos_as_xyz
  1  'x, y, z'
loop_
 _atom_site_type_symbol
 _atom_site_label
 _atom_site_symmetry_multiplicity
 _atom_site_fract_x
 _atom_site_fract_y
 _atom_site_fract_z
 _atom_site_occupancy
  Li  Li0  1  0.48603047  0.98147741  0.01874549  1
  Li  Li1  1  0.98147741  0.48603047  0.48125451  1
  Bi  Bi2  1  0.12034722  0.34365205  0.94454822  1
  Bi  Bi3  1  0.65525025  0.87942517  0.44678186  1
  Bi  Bi4  1  0.34365205  0.12034722  0.55545178  1
  Bi  Bi5  1  0.87942517  0.65525025  0.05321814  1
  P  P6  1  0.44665422  0.67600040  0.76873067  1
  P  P7  1  0.05092557  0.05092557  0.75000000  1
  P  P8  1  0.32293558  0.55482721  0.26474318  1
  P  P9  1  0.67600040  0.44665422  0.73126933  1
  P  P10  1  0.94768330  0.94768330  0.25000000  1
  P  P11  1  0.55482721  0.32293558  0.23525682  1
  O  O12  1  0.00488239  0.92111136  0.90078309  1
  O  O13  1  0.07849194  0.99221368  0.40056224  1
  O  O14  1  0.24630112  0.61232224  0.76646909  1
  O  O15  1  0.46881399  0.84382947  0.62125194  1
  O  O16  1  0.57712567  0.71988339  0.92162157  1
  O  O17  1  0.03938776  0.25972934  0.71995905  1
  O  O18  1  0.38719038  0.75931101  0.25427993  1
  O  O19  1  0.50845519  0.50845519  0.75000000  1
  O  O20  1  0.15656239  0.52905801  0.11787919  1
  O  O21  1  0.27922426  0.42973077  0.41820540  1
  O  O22  1  0.73888821  0.95699166  0.22377295  1
  O  O23  1  0.25972934  0.03938776  0.78004095  1
  O  O24  1  0.71988339  0.57712567  0.57837843  1
  O  O25  1  0.84382947  0.46881399  0.87874806  1
  O  O26  1  0.49231491  0.49231491  0.25000000  1
  O  O27  1  0.61232224  0.24630112  0.73353091  1
  O  O28  1  0.95699166  0.73888821  0.27622705  1
  O  O29  1  0.42973077  0.27922426  0.08179460  1
  O  O30  1  0.52905801  0.15656239  0.38212081  1
  O  O31  1  0.75931101  0.38719038  0.24572007  1
  O  O32  1  0.92111136  0.00488239  0.59921691  1
  O  O33  1  0.99221368  0.07849194  0.09943776  1
