# generated using pymatgen
data_Sb8O11F2
_symmetry_space_group_name_H-M   'P 1'
_cell_length_a   20.83169980
_cell_length_b   4.24416126
_cell_length_c   10.51513788
_cell_angle_alpha   90.00000000
_cell_angle_beta   60.70379622
_cell_angle_gamma   90.00000000
_symmetry_Int_Tables_number   1
_chemical_formula_structural   Sb8O11F2
_chemical_formula_sum   'Sb16 O22 F4'
_cell_volume   810.77189882
_cell_formula_units_Z   2
loop_
 _symmetry_equiv_pos_site_id
 _symmetry_equiv_pos_as_xyz
  1  'x, y, z'
loop_
 _atom_site_type_symbol
 _atom_site_label
 _atom_site_symmetry_multiplicity
 _atom_site_fract_x
 _atom_site_fract_y
 _atom_site_fract_z
 _atom_site_occupancy
  Sb  Sb0  1  0.99310104  0.72102244  0.67146372  1
  Sb  Sb1  1  0.07304964  0.18728882  0.86260291  1
  Sb  Sb2  1  0.25497648  0.98437820  0.88795511  1
  Sb  Sb3  1  0.24502352  0.48437820  0.61204489  1
  Sb  Sb4  1  0.19311582  0.44837062  0.17154478  1
  Sb  Sb5  1  0.30688418  0.94837062  0.32845522  1
  Sb  Sb6  1  0.42695036  0.68728882  0.63739709  1
  Sb  Sb7  1  0.50689896  0.22102244  0.82853628  1
  Sb  Sb8  1  0.49310104  0.77897756  0.17146372  1
  Sb  Sb9  1  0.57304964  0.31271118  0.36260291  1
  Sb  Sb10  1  0.69311582  0.05162938  0.67154478  1
  Sb  Sb11  1  0.80688418  0.55162938  0.82845522  1
  Sb  Sb12  1  0.75497648  0.51562180  0.38795511  1
  Sb  Sb13  1  0.74502352  0.01562180  0.11204489  1
  Sb  Sb14  1  0.92695036  0.81271118  0.13739709  1
  Sb  Sb15  1  0.00689896  0.27897756  0.32853628  1
  O  O16  1  0.01449051  0.08838171  0.76378499  1
  O  O17  1  0.13448081  0.50381062  0.70884178  1
  O  O18  1  0.25487612  0.46465759  0.94870100  1
  O  O19  1  0.00000000  0.50000000  0.00000000  1
  O  O20  1  0.10159999  0.40879127  0.15664914  1
  O  O21  1  0.28037314  0.46113084  0.39754156  1
  O  O22  1  0.24512388  0.96465759  0.55129900  1
  O  O23  1  0.36551919  0.00381062  0.79115822  1
  O  O24  1  0.48550949  0.58838171  0.73621501  1
  O  O25  1  0.21962686  0.96113084  0.10245844  1
  O  O26  1  0.39840001  0.90879127  0.34335086  1
  O  O27  1  0.50000000  0.00000000  0.50000000  1
  O  O28  1  0.60159999  0.09120873  0.65664914  1
  O  O29  1  0.78037314  0.03886916  0.89754156  1
  O  O30  1  0.51449051  0.41161829  0.26378499  1
  O  O31  1  0.63448081  0.99618938  0.20884178  1
  O  O32  1  0.75487612  0.03534241  0.44870100  1
  O  O33  1  0.71962686  0.53886916  0.60245844  1
  O  O34  1  0.89840001  0.59120873  0.84335086  1
  O  O35  1  0.74512388  0.53534241  0.05129900  1
  O  O36  1  0.86551919  0.49618938  0.29115822  1
  O  O37  1  0.98550949  0.91161829  0.23621501  1
  F  F38  1  0.06977330  0.01729489  0.38837046  1
  F  F39  1  0.43022670  0.51729489  0.11162954  1
  F  F40  1  0.56977330  0.48270511  0.88837046  1
  F  F41  1  0.93022670  0.98270511  0.61162954  1
