# generated using pymatgen
data_NaFe3O4
_symmetry_space_group_name_H-M   'P 1'
_cell_length_a   3.12167994
_cell_length_b   3.12167994
_cell_length_c   10.45477794
_cell_angle_alpha   81.41396337
_cell_angle_beta   81.41396337
_cell_angle_gamma   60.00000461
_symmetry_Int_Tables_number   1
_chemical_formula_structural   NaFe3O4
_chemical_formula_sum   'Na1 Fe3 O4'
_cell_volume   86.91027163
_cell_formula_units_Z   1
loop_
 _symmetry_equiv_pos_site_id
 _symmetry_equiv_pos_as_xyz
  1  'x, y, z'
loop_
 _atom_site_type_symbol
 _atom_site_label
 _atom_site_symmetry_multiplicity
 _atom_site_fract_x
 _atom_site_fract_y
 _atom_site_fract_z
 _atom_site_occupancy
  Na  Na0  1  0.12304557  0.12304557  0.63086330  1
  Fe  Fe1  1  0.37685372  0.37685372  0.86943883  1
  Fe  Fe2  1  0.62575125  0.62575125  0.12274624  1
  Fe  Fe3  1  0.87705517  0.87705517  0.36883449  1
  O  O4  1  0.25132291  0.25132291  0.24603126  1
  O  O5  1  0.74119696  0.74119696  0.77640913  1
  O  O6  1  0.99284566  0.99284566  0.02146301  1
  O  O7  1  0.51192875  0.51192875  0.46421375  1
