# generated using pymatgen
data_Li3(FeO3)2
_symmetry_space_group_name_H-M   'P 1'
_cell_length_a   6.53348958
_cell_length_b   5.86245606
_cell_length_c   6.00101011
_cell_angle_alpha   90.74733581
_cell_angle_beta   104.28639194
_cell_angle_gamma   76.98791493
_symmetry_Int_Tables_number   1
_chemical_formula_structural   Li3(FeO3)2
_chemical_formula_sum   'Li6 Fe4 O12'
_cell_volume   216.80448019
_cell_formula_units_Z   2
loop_
 _symmetry_equiv_pos_site_id
 _symmetry_equiv_pos_as_xyz
  1  'x, y, z'
loop_
 _atom_site_type_symbol
 _atom_site_label
 _atom_site_symmetry_multiplicity
 _atom_site_fract_x
 _atom_site_fract_y
 _atom_site_fract_z
 _atom_site_occupancy
  Li  Li0  1  0.00177798  0.49074577  0.48459637  1
  Li  Li1  1  0.33333300  0.16666700  0.83333300  1
  Li  Li2  1  0.33333300  0.66666700  0.83333300  1
  Li  Li3  1  0.33333300  0.16666700  0.33333300  1
  Li  Li4  1  0.33333300  0.66666700  0.33333300  1
  Li  Li5  1  0.66488802  0.84258723  0.18206963  1
  Fe  Fe6  1  0.00713444  0.49835795  0.00573854  1
  Fe  Fe7  1  0.00950399  0.99764961  0.01519039  1
  Fe  Fe8  1  0.65716301  0.33568339  0.65147561  1
  Fe  Fe9  1  0.65953256  0.83497505  0.66092746  1
  O  O10  1  0.36754541  0.40583557  0.59300881  1
  O  O11  1  0.37482116  0.90671697  0.60162848  1
  O  O12  1  0.69133452  0.06322607  0.89962854  1
  O  O13  1  0.67888741  0.59158968  0.88722501  1
  O  O14  1  0.29184484  0.42661603  0.06503852  1
  O  O15  1  0.29912159  0.92749743  0.07365819  1
  O  O16  1  0.66811471  0.06685463  0.45732893  1
  O  O17  1  0.67103196  0.60266381  0.44738145  1
  O  O18  1  0.97533248  0.27010693  0.76703846  1
  O  O19  1  0.98777959  0.74174432  0.77944199  1
  O  O20  1  0.99855229  0.26647837  0.20933807  1
  O  O21  1  0.99563404  0.73066919  0.21928455  1
