# generated using pymatgen
data_Li7Cr3(SiO6)2
_symmetry_space_group_name_H-M   'P 1'
_cell_length_a   4.96225375
_cell_length_b   4.96225346
_cell_length_c   9.77025377
_cell_angle_alpha   94.85198583
_cell_angle_beta   94.85198848
_cell_angle_gamma   119.99802196
_symmetry_Int_Tables_number   1
_chemical_formula_structural   Li7Cr3(SiO6)2
_chemical_formula_sum   'Li7 Cr3 Si2 O12'
_cell_volume   205.35193561
_cell_formula_units_Z   1
loop_
 _symmetry_equiv_pos_site_id
 _symmetry_equiv_pos_as_xyz
  1  'x, y, z'
loop_
 _atom_site_type_symbol
 _atom_site_label
 _atom_site_symmetry_multiplicity
 _atom_site_fract_x
 _atom_site_fract_y
 _atom_site_fract_z
 _atom_site_occupancy
  Li  Li0  1  0.33483759  0.67311829  0.00452410  1
  Li  Li1  1  0.17007458  0.83674158  0.49543656  1
  Li  Li2  1  0.49849541  0.49354871  0.49547590  1
  Li  Li3  1  0.66325842  0.32992542  0.00456344  1
  Li  Li4  1  0.82688171  0.16516241  0.49547590  1
  Li  Li5  1  0.00645129  0.00150459  0.00452410  1
  Li  Li6  1  0.41666700  0.08333300  0.25000000  1
  Cr  Cr7  1  0.58348232  0.91651768  0.75000000  1
  Cr  Cr8  1  0.91666700  0.58333300  0.75000000  1
  Cr  Cr9  1  0.24985068  0.25014932  0.75000000  1
  Si  Si10  1  0.74999447  0.75000553  0.25000000  1
  Si  Si11  1  0.08333853  0.41666147  0.25000000  1
  O  O12  1  0.45110330  0.74381117  0.35347235  1
  O  O13  1  0.87780876  0.87783784  0.63340015  1
  O  O14  1  0.28951376  0.95618076  0.86878863  1
  O  O15  1  0.00827104  0.67493704  0.14653459  1
  O  O16  1  0.38223070  0.42285483  0.14652665  1
  O  O17  1  0.62216216  0.62219124  0.86659985  1
  O  O18  1  0.21117184  0.54447576  0.63340015  1
  O  O19  1  0.82506296  0.49172896  0.35346541  1
  O  O20  1  0.75618883  0.04889670  0.14652665  1
  O  O21  1  0.95552424  0.28882816  0.86659985  1
  O  O22  1  0.07714517  0.11776930  0.35347235  1
  O  O23  1  0.54381924  0.21048624  0.63121137  1
