# generated using pymatgen
data_LiFe(PO3)4
_symmetry_space_group_name_H-M   'P 1'
_cell_length_a   7.26403609
_cell_length_b   7.68813370
_cell_length_c   8.46221935
_cell_angle_alpha   90.00000000
_cell_angle_beta   90.00000000
_cell_angle_gamma   92.06361068
_symmetry_Int_Tables_number   1
_chemical_formula_structural   LiFe(PO3)4
_chemical_formula_sum   'Li2 Fe2 P8 O24'
_cell_volume   472.28206426
_cell_formula_units_Z   2
loop_
 _symmetry_equiv_pos_site_id
 _symmetry_equiv_pos_as_xyz
  1  'x, y, z'
loop_
 _atom_site_type_symbol
 _atom_site_label
 _atom_site_symmetry_multiplicity
 _atom_site_fract_x
 _atom_site_fract_y
 _atom_site_fract_z
 _atom_site_occupancy
  Li  Li0  1  0.26481187  0.85187337  0.69691721  1
  Li  Li1  1  0.73518813  0.14812563  0.19691721  1
  Fe  Fe2  1  0.25517360  0.32990603  0.49398442  1
  Fe  Fe3  1  0.74482640  0.67009397  0.99398442  1
  P  P4  1  0.08183054  0.97634841  0.29022092  1
  P  P5  1  0.06778678  0.37292716  0.87901393  1
  P  P6  1  0.35144587  0.80550893  0.07061694  1
  P  P7  1  0.37387202  0.43841045  0.12480061  1
  P  P8  1  0.62612798  0.56158955  0.62480061  1
  P  P9  1  0.64855413  0.19449107  0.57061694  1
  P  P10  1  0.93221322  0.62707284  0.37901393  1
  P  P11  1  0.91816946  0.02365159  0.79022092  1
  O  O12  1  0.06217351  0.80079231  0.39853578  1
  O  O13  1  0.05069052  0.47910835  0.42474219  1
  O  O14  1  0.26921361  0.80453419  0.91111574  1
  O  O15  1  0.07994856  0.01136778  0.68626356  1
  O  O16  1  0.16312269  0.38045249  0.72235067  1
  O  O17  1  0.26811969  0.94334618  0.18982147  1
  O  O18  1  0.13014887  0.12433197  0.39890253  1
  O  O19  1  0.21625262  0.34233844  0.01816422  1
  O  O20  1  0.29289260  0.62541995  0.16196704  1
  O  O21  1  0.38258160  0.33914389  0.27684355  1
  O  O22  1  0.55941243  0.83280132  0.08406182  1
  O  O23  1  0.44653786  0.54346479  0.53534440  1
  O  O24  1  0.55346214  0.45653521  0.03534440  1
  O  O25  1  0.44058757  0.16719868  0.58406182  1
  O  O26  1  0.61741840  0.66085611  0.77684355  1
  O  O27  1  0.70710740  0.37458005  0.66196704  1
  O  O28  1  0.78374738  0.65766156  0.51816422  1
  O  O29  1  0.86985113  0.87566803  0.89890253  1
  O  O30  1  0.73188031  0.05665382  0.68982147  1
  O  O31  1  0.83687731  0.61954751  0.22235067  1
  O  O32  1  0.92005144  0.98863222  0.18626356  1
  O  O33  1  0.73078639  0.19546581  0.41111574  1
  O  O34  1  0.94930948  0.52089165  0.92474219  1
  O  O35  1  0.93782649  0.19920769  0.89853578  1
