# generated using pymatgen
data_Li3MnPO5
_symmetry_space_group_name_H-M   'P 1'
_cell_length_a   5.03864903
_cell_length_b   5.50723994
_cell_length_c   16.03113128
_cell_angle_alpha   90.00000000
_cell_angle_beta   90.00000000
_cell_angle_gamma   90.00000000
_symmetry_Int_Tables_number   1
_chemical_formula_structural   Li3MnPO5
_chemical_formula_sum   'Li12 Mn4 P4 O20'
_cell_volume   444.84865033
_cell_formula_units_Z   4
loop_
 _symmetry_equiv_pos_site_id
 _symmetry_equiv_pos_as_xyz
  1  'x, y, z'
loop_
 _atom_site_type_symbol
 _atom_site_label
 _atom_site_symmetry_multiplicity
 _atom_site_fract_x
 _atom_site_fract_y
 _atom_site_fract_z
 _atom_site_occupancy
  Li  Li0  1  0.00811511  0.66228353  0.59368195  1
  Li  Li1  1  0.00811511  0.16228353  0.90631805  1
  Li  Li2  1  0.00799716  0.67030343  0.00451963  1
  Li  Li3  1  0.00799716  0.17030343  0.49548037  1
  Li  Li4  1  0.48320471  0.32724664  0.80397687  1
  Li  Li5  1  0.48320471  0.82724664  0.69602313  1
  Li  Li6  1  0.50811511  0.33771647  0.40631805  1
  Li  Li7  1  0.50811511  0.83771647  0.09368195  1
  Li  Li8  1  0.50799716  0.32969657  0.99548037  1
  Li  Li9  1  0.50799716  0.82969657  0.50451963  1
  Li  Li10  1  0.98320471  0.17275336  0.30397687  1
  Li  Li11  1  0.98320471  0.67275336  0.19602313  1
  Mn  Mn12  1  0.00869440  0.17299877  0.70026550  1
  Mn  Mn13  1  0.00869440  0.67299877  0.79973450  1
  Mn  Mn14  1  0.50869440  0.32700123  0.20026550  1
  Mn  Mn15  1  0.50869440  0.82700123  0.29973450  1
  P  P16  1  0.00097202  0.16458407  0.09681066  1
  P  P17  1  0.00097202  0.66458407  0.40318934  1
  P  P18  1  0.50097202  0.33541593  0.59681066  1
  P  P19  1  0.50097202  0.83541593  0.90318934  1
  O  O20  1  0.10366688  0.32407360  0.80919353  1
  O  O21  1  0.10366688  0.82407360  0.69080647  1
  O  O22  1  0.11260145  0.31066957  0.02131714  1
  O  O23  1  0.11260145  0.81066957  0.47868286  1
  O  O24  1  0.10459598  0.39934486  0.40228272  1
  O  O25  1  0.10459598  0.89934486  0.09771728  1
  O  O26  1  0.08347664  0.29419166  0.18045076  1
  O  O27  1  0.08347664  0.79419166  0.31954924  1
  O  O28  1  0.19047565  0.33380863  0.59137574  1
  O  O29  1  0.19047565  0.83380863  0.90862426  1
  O  O30  1  0.60366688  0.67592640  0.19080647  1
  O  O31  1  0.60366688  0.17592640  0.30919353  1
  O  O32  1  0.61260145  0.18933043  0.52131714  1
  O  O33  1  0.61260145  0.68933043  0.97868286  1
  O  O34  1  0.60459598  0.10065514  0.90228272  1
  O  O35  1  0.60459598  0.60065514  0.59771728  1
  O  O36  1  0.58347664  0.20580834  0.68045076  1
  O  O37  1  0.58347664  0.70580834  0.81954924  1
  O  O38  1  0.69047565  0.16619137  0.09137574  1
  O  O39  1  0.69047565  0.66619137  0.40862426  1
