# generated using pymatgen
data_Li3Si6NiO15
_symmetry_space_group_name_H-M   'P 1'
_cell_length_a   10.98024521
_cell_length_b   10.98024521
_cell_length_c   10.00927545
_cell_angle_alpha   90.00000000
_cell_angle_beta   90.00000000
_cell_angle_gamma   79.84570567
_symmetry_Int_Tables_number   1
_chemical_formula_structural   Li3Si6NiO15
_chemical_formula_sum   'Li12 Si24 Ni4 O60'
_cell_volume   1187.87388143
_cell_formula_units_Z   4
loop_
 _symmetry_equiv_pos_site_id
 _symmetry_equiv_pos_as_xyz
  1  'x, y, z'
loop_
 _atom_site_type_symbol
 _atom_site_label
 _atom_site_symmetry_multiplicity
 _atom_site_fract_x
 _atom_site_fract_y
 _atom_site_fract_z
 _atom_site_occupancy
  Li  Li0  1  0.23451057  0.76548943  0.00000000  1
  Li  Li1  1  0.48186340  0.98186340  0.25000000  1
  Li  Li2  1  0.01813660  0.51813660  0.75000000  1
  Li  Li3  1  0.26548943  0.73451057  0.50000000  1
  Li  Li4  1  0.56637503  0.56637503  0.71499434  1
  Li  Li5  1  0.06637503  0.06637503  0.78500566  1
  Li  Li6  1  0.43362497  0.43362497  0.28500566  1
  Li  Li7  1  0.93362497  0.93362497  0.21499434  1
  Li  Li8  1  0.73451057  0.26548943  0.50000000  1
  Li  Li9  1  0.51813660  0.01813660  0.75000000  1
  Li  Li10  1  0.98186340  0.48186340  0.25000000  1
  Li  Li11  1  0.76548943  0.23451057  0.00000000  1
  Si  Si12  1  0.04421582  0.81342784  0.80243536  1
  Si  Si13  1  0.18657216  0.95578418  0.19756464  1
  Si  Si14  1  0.31342784  0.54421582  0.69756464  1
  Si  Si15  1  0.45578418  0.68657216  0.30243536  1
  Si  Si16  1  0.51866693  0.73882721  0.00728842  1
  Si  Si17  1  0.01866693  0.23882721  0.49271158  1
  Si  Si18  1  0.76117279  0.98133307  0.50728842  1
  Si  Si19  1  0.26117279  0.48133307  0.99271158  1
  Si  Si20  1  0.70296959  0.92383299  0.04496886  1
  Si  Si21  1  0.20296959  0.42383299  0.45503114  1
  Si  Si22  1  0.07616701  0.29703041  0.95503114  1
  Si  Si23  1  0.57616701  0.79703041  0.54496886  1
  Si  Si24  1  0.92383299  0.70296959  0.04496886  1
  Si  Si25  1  0.42383299  0.20296959  0.45503114  1
  Si  Si26  1  0.29703041  0.07616701  0.95503114  1
  Si  Si27  1  0.79703041  0.57616701  0.54496886  1
  Si  Si28  1  0.73882721  0.51866693  0.00728842  1
  Si  Si29  1  0.23882721  0.01866693  0.49271158  1
  Si  Si30  1  0.48133307  0.26117279  0.99271158  1
  Si  Si31  1  0.98133307  0.76117279  0.50728842  1
  Si  Si32  1  0.54421582  0.31342784  0.69756464  1
  Si  Si33  1  0.68657216  0.45578418  0.30243536  1
  Si  Si34  1  0.81342784  0.04421582  0.80243536  1
  Si  Si35  1  0.95578418  0.18657216  0.19756464  1
  Ni  Ni36  1  0.15733630  0.65733630  0.25000000  1
  Ni  Ni37  1  0.34266370  0.84266370  0.75000000  1
  Ni  Ni38  1  0.84266370  0.34266370  0.75000000  1
  Ni  Ni39  1  0.65733630  0.15733630  0.25000000  1
  O  O40  1  0.28091679  0.98284100  0.07934164  1
  O  O41  1  0.01715900  0.71908321  0.92065836  1
  O  O42  1  0.03093846  0.73793732  0.66311934  1
  O  O43  1  0.26206268  0.96906154  0.33688066  1
  O  O44  1  0.13868755  0.82915530  0.16809358  1
  O  O45  1  0.17084470  0.86131245  0.83190642  1
  O  O46  1  0.25949201  0.89936382  0.58860138  1
  O  O47  1  0.10063618  0.74050799  0.41139862  1
  O  O48  1  0.64331082  0.98958248  0.17683026  1
  O  O49  1  0.14331082  0.48958248  0.32316974  1
  O  O50  1  0.01041752  0.35668918  0.82316974  1
  O  O51  1  0.51041752  0.85668918  0.67683026  1
  O  O52  1  0.24050799  0.60063618  0.08860138  1
  O  O53  1  0.39936382  0.75949201  0.91139862  1
  O  O54  1  0.36131245  0.67084470  0.66809358  1
  O  O55  1  0.32915530  0.63868755  0.33190642  1
  O  O56  1  0.46906154  0.76206268  0.16311934  1
  O  O57  1  0.23793732  0.53093846  0.83688066  1
  O  O58  1  0.21908321  0.51715900  0.57934164  1
  O  O59  1  0.48284100  0.78091679  0.42065836  1
  O  O60  1  0.66709088  0.88496910  0.48184075  1
  O  O61  1  0.16709088  0.38496910  0.01815925  1
  O  O62  1  0.11503090  0.33290912  0.51815925  1
  O  O63  1  0.61503090  0.83290912  0.98184075  1
  O  O64  1  0.59641672  0.59641672  0.98809663  1
  O  O65  1  0.34282535  0.34282535  0.42011466  1
  O  O66  1  0.56194424  0.56194424  0.30051331  1
  O  O67  1  0.93805576  0.93805576  0.80051331  1
  O  O68  1  0.15717465  0.15717465  0.92011466  1
  O  O69  1  0.09641672  0.09641672  0.51190337  1
  O  O70  1  0.06194424  0.06194424  0.19948669  1
  O  O71  1  0.40358328  0.40358328  0.01190337  1
  O  O72  1  0.43805576  0.43805576  0.69948669  1
  O  O73  1  0.84282535  0.84282535  0.07988534  1
  O  O74  1  0.90358328  0.90358328  0.48809663  1
  O  O75  1  0.65717465  0.65717465  0.57988534  1
  O  O76  1  0.88496910  0.66709088  0.48184075  1
  O  O77  1  0.33290912  0.11503090  0.51815925  1
  O  O78  1  0.38496910  0.16709088  0.01815925  1
  O  O79  1  0.83290912  0.61503090  0.98184075  1
  O  O80  1  0.51715900  0.21908321  0.57934164  1
  O  O81  1  0.78091679  0.48284100  0.42065836  1
  O  O82  1  0.53093846  0.23793732  0.83688066  1
  O  O83  1  0.76206268  0.46906154  0.16311934  1
  O  O84  1  0.63868755  0.32915530  0.33190642  1
  O  O85  1  0.67084470  0.36131245  0.66809358  1
  O  O86  1  0.60063618  0.24050799  0.08860138  1
  O  O87  1  0.75949201  0.39936382  0.91139862  1
  O  O88  1  0.48958248  0.14331082  0.32316974  1
  O  O89  1  0.35668918  0.01041752  0.82316974  1
  O  O90  1  0.98958248  0.64331082  0.17683026  1
  O  O91  1  0.85668918  0.51041752  0.67683026  1
  O  O92  1  0.74050799  0.10063618  0.41139862  1
  O  O93  1  0.89936382  0.25949201  0.58860138  1
  O  O94  1  0.82915530  0.13868755  0.16809358  1
  O  O95  1  0.86131245  0.17084470  0.83190642  1
  O  O96  1  0.96906154  0.26206268  0.33688066  1
  O  O97  1  0.73793732  0.03093846  0.66311934  1
  O  O98  1  0.71908321  0.01715900  0.92065836  1
  O  O99  1  0.98284100  0.28091679  0.07934164  1
