# generated using pymatgen
data_LiCrPO5
_symmetry_space_group_name_H-M   'P 1'
_cell_length_a   5.56780404
_cell_length_b   11.85319108
_cell_length_c   5.77219093
_cell_angle_alpha   90.00000000
_cell_angle_beta   96.38172884
_cell_angle_gamma   90.00000000
_symmetry_Int_Tables_number   1
_chemical_formula_structural   LiCrPO5
_chemical_formula_sum   'Li4 Cr4 P4 O20'
_cell_volume   378.58238317
_cell_formula_units_Z   4
loop_
 _symmetry_equiv_pos_site_id
 _symmetry_equiv_pos_as_xyz
  1  'x, y, z'
loop_
 _atom_site_type_symbol
 _atom_site_label
 _atom_site_symmetry_multiplicity
 _atom_site_fract_x
 _atom_site_fract_y
 _atom_site_fract_z
 _atom_site_occupancy
  Li  Li0  1  0.17782379  0.74189184  0.65296323  1
  Li  Li1  1  0.17782379  0.75810816  0.15296323  1
  Li  Li2  1  0.82217621  0.24189184  0.84703677  1
  Li  Li3  1  0.82217621  0.25810816  0.34703677  1
  Cr  Cr4  1  0.18229890  0.41936938  0.57127414  1
  Cr  Cr5  1  0.18229890  0.08063062  0.07127414  1
  Cr  Cr6  1  0.81770110  0.91936938  0.92872586  1
  Cr  Cr7  1  0.81770110  0.58063062  0.42872586  1
  P  P8  1  0.35795265  0.15481534  0.59069710  1
  P  P9  1  0.35795265  0.34518466  0.09069710  1
  P  P10  1  0.64204735  0.65481534  0.90930290  1
  P  P11  1  0.64204735  0.84518466  0.40930290  1
  O  O12  1  0.26466417  0.43103509  0.89279986  1
  O  O13  1  0.16313159  0.24928935  0.59910873  1
  O  O14  1  0.12540279  0.58341953  0.52601380  1
  O  O15  1  0.26466417  0.06896491  0.39279986  1
  O  O16  1  0.16313159  0.25071065  0.09910873  1
  O  O17  1  0.12540279  0.91658047  0.02601380  1
  O  O18  1  0.39191388  0.69894680  0.93652453  1
  O  O19  1  0.36360865  0.08268136  0.82002288  1
  O  O20  1  0.63639135  0.58268136  0.67997712  1
  O  O21  1  0.39191388  0.80105320  0.43652453  1
  O  O22  1  0.60808612  0.19894680  0.56347547  1
  O  O23  1  0.36360865  0.41731864  0.32002288  1
  O  O24  1  0.63639135  0.91731864  0.17997712  1
  O  O25  1  0.60808612  0.30105320  0.06347547  1
  O  O26  1  0.87459721  0.08341953  0.97398620  1
  O  O27  1  0.83686841  0.74928935  0.90089127  1
  O  O28  1  0.73533683  0.93103509  0.60720014  1
  O  O29  1  0.87459721  0.41658047  0.47398620  1
  O  O30  1  0.83686841  0.75071065  0.40089127  1
  O  O31  1  0.73533683  0.56896491  0.10720014  1
