# generated using pymatgen
data_Li2VP2O7
_symmetry_space_group_name_H-M   'P 1'
_cell_length_a   5.09528679
_cell_length_b   5.29781177
_cell_length_c   12.44638306
_cell_angle_alpha   106.11685684
_cell_angle_beta   101.77760570
_cell_angle_gamma   61.24807876
_symmetry_Int_Tables_number   1
_chemical_formula_structural   Li2VP2O7
_chemical_formula_sum   'Li4 V2 P4 O14'
_cell_volume   281.98164451
_cell_formula_units_Z   2
loop_
 _symmetry_equiv_pos_site_id
 _symmetry_equiv_pos_as_xyz
  1  'x, y, z'
loop_
 _atom_site_type_symbol
 _atom_site_label
 _atom_site_symmetry_multiplicity
 _atom_site_fract_x
 _atom_site_fract_y
 _atom_site_fract_z
 _atom_site_occupancy
  Li  Li0  1  0.93705785  0.82678708  0.12080704  1
  Li  Li1  1  0.63818543  0.67931031  0.38045254  1
  Li  Li2  1  0.35820988  0.32479195  0.62104660  1
  Li  Li3  1  0.06180142  0.17504222  0.87972984  1
  V  V4  1  0.49909884  0.49955288  0.99970565  1
  V  V5  1  0.00002742  0.99955402  0.50006867  1
  P  P6  1  0.74605223  0.77940530  0.87049205  1
  P  P7  1  0.65581621  0.71947793  0.62936508  1
  P  P8  1  0.34494444  0.27902651  0.37047104  1
  P  P9  1  0.25269787  0.22036975  0.12929294  1
  O  O10  1  0.50877433  0.90837676  0.10129666  1
  O  O11  1  0.33309594  0.96300040  0.64597465  1
  O  O12  1  0.80398034  0.77123718  0.54847311  1
  O  O13  1  0.85629350  0.74902974  0.74989794  1
  O  O14  1  0.31521901  0.59142993  0.39841516  1
  O  O15  1  0.02649341  0.72844703  0.95140395  1
  O  O16  1  0.65138660  0.53527382  0.85405589  1
  O  O17  1  0.34763824  0.46388244  0.14567175  1
  O  O18  1  0.97134637  0.27241293  0.04841481  1
  O  O19  1  0.68384465  0.40764985  0.60169323  1
  O  O20  1  0.14371828  0.24942424  0.25001680  1
  O  O21  1  0.20003791  0.22426878  0.45169136  1
  O  O22  1  0.66790723  0.03648966  0.35363134  1
  O  O23  1  0.48925161  0.09124829  0.89778888  1
