# generated using pymatgen
data_YWO5
_symmetry_space_group_name_H-M   'P 1'
_cell_length_a   5.30339326
_cell_length_b   6.59824564
_cell_length_c   12.79358131
_cell_angle_alpha   90.00000000
_cell_angle_beta   90.00000000
_cell_angle_gamma   108.90106721
_symmetry_Int_Tables_number   1
_chemical_formula_structural   YWO5
_chemical_formula_sum   'Y4 W4 O20'
_cell_volume   423.54737746
_cell_formula_units_Z   4
loop_
 _symmetry_equiv_pos_site_id
 _symmetry_equiv_pos_as_xyz
  1  'x, y, z'
loop_
 _atom_site_type_symbol
 _atom_site_label
 _atom_site_symmetry_multiplicity
 _atom_site_fract_x
 _atom_site_fract_y
 _atom_site_fract_z
 _atom_site_occupancy
  Y  Y0  1  0.14463077  0.78328652  0.44372834  1
  Y  Y1  1  0.85536923  0.21671348  0.55627166  1
  Y  Y2  1  0.35536923  0.71671348  0.94372834  1
  Y  Y3  1  0.64463077  0.28328652  0.05627166  1
  W  W4  1  0.95611150  0.84564233  0.13882021  1
  W  W5  1  0.04388850  0.15435767  0.86117979  1
  W  W6  1  0.54388850  0.65435767  0.63882021  1
  W  W7  1  0.45611150  0.34564233  0.36117979  1
  O  O8  1  0.04376545  0.56518653  0.08807617  1
  O  O9  1  0.95623455  0.43481347  0.91192383  1
  O  O10  1  0.45623455  0.93481347  0.58807617  1
  O  O11  1  0.54376545  0.06518653  0.41192383  1
  O  O12  1  0.85334166  0.84280264  0.57113354  1
  O  O13  1  0.14665834  0.15719736  0.42886646  1
  O  O14  1  0.64665834  0.65719736  0.07113354  1
  O  O15  1  0.35334166  0.34280264  0.92886646  1
  O  O16  1  0.27289670  0.97184988  0.06559656  1
  O  O17  1  0.72710330  0.02815012  0.93440344  1
  O  O18  1  0.22710330  0.52815012  0.56559656  1
  O  O19  1  0.77289670  0.47184988  0.43440344  1
  O  O20  1  0.99884726  0.79231271  0.27418798  1
  O  O21  1  0.00115274  0.20768729  0.72581202  1
  O  O22  1  0.50115274  0.70768729  0.77418798  1
  O  O23  1  0.49884726  0.29231271  0.22581202  1
  O  O24  1  0.15650185  0.92308157  0.85286009  1
  O  O25  1  0.84349815  0.07691843  0.14713991  1
  O  O26  1  0.34349815  0.57691843  0.35286009  1
  O  O27  1  0.65650185  0.42308157  0.64713991  1
