# generated using pymatgen
data_Li4Mn2V5O12
_symmetry_space_group_name_H-M   'P 1'
_cell_length_a   5.32068984
_cell_length_b   9.02867880
_cell_length_c   9.90782574
_cell_angle_alpha   89.99999593
_cell_angle_beta   99.48799837
_cell_angle_gamma   89.99999945
_symmetry_Int_Tables_number   1
_chemical_formula_structural   Li4Mn2V5O12
_chemical_formula_sum   'Li8 Mn4 V10 O24'
_cell_volume   469.44899367
_cell_formula_units_Z   2
loop_
 _symmetry_equiv_pos_site_id
 _symmetry_equiv_pos_as_xyz
  1  'x, y, z'
loop_
 _atom_site_type_symbol
 _atom_site_label
 _atom_site_symmetry_multiplicity
 _atom_site_fract_x
 _atom_site_fract_y
 _atom_site_fract_z
 _atom_site_occupancy
  Li  Li0  1  0.23659123  0.08246599  0.98930876  1
  Li  Li1  1  0.76906838  0.08244546  0.50863673  1
  Li  Li2  1  0.49151890  0.41758870  0.75286494  1
  Li  Li3  1  0.26340877  0.58246599  0.51069124  1
  Li  Li4  1  0.74972090  0.41383258  0.50836143  1
  Li  Li5  1  0.73093162  0.58244546  0.99136327  1
  Li  Li6  1  0.00848110  0.91758870  0.74713506  1
  Li  Li7  1  0.75027910  0.91383258  0.99163857  1
  Mn  Mn8  1  0.00926157  0.24925904  0.75545371  1
  Mn  Mn9  1  0.48509895  0.25720394  0.23642086  1
  Mn  Mn10  1  0.01490105  0.75720394  0.26357914  1
  Mn  Mn11  1  0.49073843  0.74925904  0.74454629  1
  V  V12  1  0.99747344  0.08340930  0.25157347  1
  V  V13  1  0.50386448  0.07781200  0.74435780  1
  V  V14  1  0.25209216  0.24842062  0.50542430  1
  V  V15  1  0.00183408  0.42418123  0.25002051  1
  V  V16  1  0.74749125  0.25553463  0.99048113  1
  V  V17  1  0.99613552  0.57781200  0.75564220  1
  V  V18  1  0.50252656  0.58340930  0.24842653  1
  V  V19  1  0.24790784  0.74842062  0.99457570  1
  V  V20  1  0.75250875  0.75553463  0.50951887  1
  V  V21  1  0.49816592  0.92418123  0.24997949  1
  O  O22  1  0.12830110  0.10426974  0.63341684  1
  O  O23  1  0.34972112  0.08906002  0.35808517  1
  O  O24  1  0.08553954  0.24642971  0.12915047  1
  O  O25  1  0.40854880  0.22457491  0.87415538  1
  O  O26  1  0.64764530  0.08784268  0.12657824  1
  O  O27  1  0.87284342  0.09445303  0.86437438  1
  O  O28  1  0.59828166  0.23332212  0.61666849  1
  O  O29  1  0.11382612  0.40609135  0.63854286  1
  O  O30  1  0.35457932  0.41686182  0.37410017  1
  O  O31  1  0.90353940  0.25790167  0.37430281  1
  O  O32  1  0.15027888  0.58906002  0.14191483  1
  O  O33  1  0.37169890  0.60426974  0.86658316  1
  O  O34  1  0.66062666  0.42741637  0.13346451  1
  O  O35  1  0.86332480  0.40245707  0.86401003  1
  O  O36  1  0.09145120  0.72457491  0.62584462  1
  O  O37  1  0.62715658  0.59445303  0.63562562  1
  O  O38  1  0.85235470  0.58784268  0.37342176  1
  O  O39  1  0.41446046  0.74642971  0.37084953  1
  O  O40  1  0.59646060  0.75790167  0.12569719  1
  O  O41  1  0.14542068  0.91686182  0.12589983  1
  O  O42  1  0.38617388  0.90609135  0.86145714  1
  O  O43  1  0.90171834  0.73332212  0.88333151  1
  O  O44  1  0.63667520  0.90245707  0.63598997  1
  O  O45  1  0.83937334  0.92741637  0.36653549  1
