# generated using pymatgen
data_Li2Fe2Si2O7
_symmetry_space_group_name_H-M   'P 1'
_cell_length_a   5.02740734
_cell_length_b   5.40518203
_cell_length_c   13.33232279
_cell_angle_alpha   90.10211573
_cell_angle_beta   90.05440377
_cell_angle_gamma   117.63810447
_symmetry_Int_Tables_number   1
_chemical_formula_structural   Li2Fe2Si2O7
_chemical_formula_sum   'Li4 Fe4 Si4 O14'
_cell_volume   320.95270331
_cell_formula_units_Z   2
loop_
 _symmetry_equiv_pos_site_id
 _symmetry_equiv_pos_as_xyz
  1  'x, y, z'
loop_
 _atom_site_type_symbol
 _atom_site_label
 _atom_site_symmetry_multiplicity
 _atom_site_fract_x
 _atom_site_fract_y
 _atom_site_fract_z
 _atom_site_occupancy
  Li  Li0  1  0.01731788  0.00257335  0.00179394  1
  Li  Li1  1  0.01553321  0.99884075  0.50036576  1
  Li  Li2  1  0.00397402  0.02603033  0.24898505  1
  Li  Li3  1  0.97943858  0.97734038  0.75003570  1
  Fe  Fe4  1  0.34680246  0.57390340  0.58795545  1
  Fe  Fe5  1  0.34407209  0.56861753  0.91026170  1
  Fe  Fe6  1  0.77919675  0.42891125  0.41044458  1
  Fe  Fe7  1  0.77068310  0.43050412  0.08931267  1
  Si  Si8  1  0.43758640  0.77444970  0.36233982  1
  Si  Si9  1  0.43275052  0.77707252  0.13815130  1
  Si  Si10  1  0.66121207  0.22649906  0.63784798  1
  Si  Si11  1  0.65892639  0.22247540  0.86230800  1
  O  O12  1  0.13189458  0.81772559  0.12304344  1
  O  O13  1  0.13715958  0.81484572  0.37849205  1
  O  O14  1  0.43101202  0.63528789  0.24970984  1
  O  O15  1  0.67338093  0.92589178  0.86856380  1
  O  O16  1  0.67756388  0.93059057  0.63051319  1
  O  O17  1  0.44965220  0.54957686  0.06034389  1
  O  O18  1  0.45543220  0.54585304  0.43908194  1
  O  O19  1  0.31842786  0.18298824  0.87784179  1
  O  O20  1  0.32134727  0.18764545  0.62178047  1
  O  O21  1  0.79679144  0.36447246  0.75057594  1
  O  O22  1  0.74372124  0.07294850  0.13145709  1
  O  O23  1  0.74940165  0.06913179  0.36981188  1
  O  O24  1  0.90633155  0.45377694  0.56060368  1
  O  O25  1  0.90353914  0.44781940  0.94065605  1
