# generated using pymatgen
data_Li2Fe(Si2O5)2
_symmetry_space_group_name_H-M   'P 1'
_cell_length_a   9.54321154
_cell_length_b   14.33584177
_cell_length_c   7.14796446
_cell_angle_alpha   90.01029224
_cell_angle_beta   90.04211772
_cell_angle_gamma   89.97754409
_symmetry_Int_Tables_number   1
_chemical_formula_structural   Li2Fe(Si2O5)2
_chemical_formula_sum   'Li8 Fe4 Si16 O40'
_cell_volume   977.91245390
_cell_formula_units_Z   4
loop_
 _symmetry_equiv_pos_site_id
 _symmetry_equiv_pos_as_xyz
  1  'x, y, z'
loop_
 _atom_site_type_symbol
 _atom_site_label
 _atom_site_symmetry_multiplicity
 _atom_site_fract_x
 _atom_site_fract_y
 _atom_site_fract_z
 _atom_site_occupancy
  Li  Li0  1  0.08683817  0.82703923  0.68018717  1
  Li  Li1  1  0.16012777  0.53151025  0.07188518  1
  Li  Li2  1  0.33986904  0.46863530  0.57179752  1
  Li  Li3  1  0.41341979  0.17290526  0.18002937  1
  Li  Li4  1  0.58675609  0.67292346  0.31986432  1
  Li  Li5  1  0.66017407  0.96878360  0.92821922  1
  Li  Li6  1  0.83982831  0.03142592  0.42815229  1
  Li  Li7  1  0.91308051  0.32698879  0.81980882  1
  Fe  Fe8  1  0.19790788  0.34081945  0.00939388  1
  Fe  Fe9  1  0.30197233  0.65923725  0.50918385  1
  Fe  Fe10  1  0.69829303  0.15939691  0.99062396  1
  Fe  Fe11  1  0.80212556  0.84076536  0.49066993  1
  Si  Si12  1  0.02679411  0.56730456  0.46270198  1
  Si  Si13  1  0.06121337  0.89776618  0.24000429  1
  Si  Si14  1  0.09764832  0.21619038  0.31851443  1
  Si  Si15  1  0.13393159  0.17527704  0.73771185  1
  Si  Si16  1  0.36602198  0.82469591  0.23763759  1
  Si  Si17  1  0.40238465  0.78380121  0.81846973  1
  Si  Si18  1  0.43880326  0.10223261  0.74011403  1
  Si  Si19  1  0.47322129  0.43272972  0.96264748  1
  Si  Si20  1  0.52679854  0.93269524  0.53737674  1
  Si  Si21  1  0.56128709  0.60224810  0.76000970  1
  Si  Si22  1  0.59761460  0.28376717  0.68156569  1
  Si  Si23  1  0.63401881  0.32465341  0.26232889  1
  Si  Si24  1  0.86601843  0.67526704  0.76232565  1
  Si  Si25  1  0.90231118  0.71622386  0.18152532  1
  Si  Si26  1  0.93873002  0.39776901  0.26002675  1
  Si  Si27  1  0.97305569  0.06732406  0.03728236  1
  O  O28  1  0.98754226  0.81163168  0.12264020  1
  O  O29  1  0.98640843  0.15024354  0.19852564  1
  O  O30  1  0.03365971  0.42890230  0.08352316  1
  O  O31  1  0.01283102  0.10711260  0.82902122  1
  O  O32  1  0.08391713  0.98336856  0.08930105  1
  O  O33  1  0.12987657  0.15874515  0.51140198  1
  O  O34  1  0.10173482  0.28231735  0.79567261  1
  O  O35  1  0.19034560  0.53720638  0.46085572  1
  O  O36  1  0.21315641  0.86009688  0.31651302  1
  O  O37  1  0.23854033  0.23952273  0.20054648  1
  O  O38  1  0.26140203  0.76047783  0.70047685  1
  O  O39  1  0.28687309  0.13989478  0.81652996  1
  O  O40  1  0.30968177  0.46281463  0.96078396  1
  O  O41  1  0.39817204  0.71767044  0.29576450  1
  O  O42  1  0.37011594  0.84120361  0.01134117  1
  O  O43  1  0.41599555  0.01660806  0.58918369  1
  O  O44  1  0.48719476  0.89285001  0.32907589  1
  O  O45  1  0.46622721  0.57109448  0.58338882  1
  O  O46  1  0.51354930  0.84975639  0.69851812  1
  O  O47  1  0.51240254  0.18835233  0.62265205  1
  O  O48  1  0.48759647  0.68836769  0.87736681  1
  O  O49  1  0.48644331  0.34976614  0.80145803  1
  O  O50  1  0.53375822  0.07109521  0.91645492  1
  O  O51  1  0.51282659  0.39287250  0.17097624  1
  O  O52  1  0.58397943  0.51659765  0.91078151  1
  O  O53  1  0.62988299  0.34120217  0.48867665  1
  O  O54  1  0.60190696  0.21767420  0.20429590  1
  O  O55  1  0.69029991  0.96278526  0.53908723  1
  O  O56  1  0.71309504  0.63988077  0.68347718  1
  O  O57  1  0.73850497  0.26040735  0.79947491  1
  O  O58  1  0.76139952  0.73948249  0.29944813  1
  O  O59  1  0.78679313  0.36010059  0.18350156  1
  O  O60  1  0.80972144  0.03715956  0.03921935  1
  O  O61  1  0.89821028  0.78229590  0.70425020  1
  O  O62  1  0.87014212  0.65879523  0.98862732  1
  O  O63  1  0.91603620  0.48339938  0.41074083  1
  O  O64  1  0.98719884  0.60712329  0.67095839  1
  O  O65  1  0.96629990  0.92888716  0.41656686  1
  O  O66  1  0.01358110  0.65024083  0.30150714  1
  O  O67  1  0.01245162  0.31162060  0.37735674  1
