# generated using pymatgen
data_Li2Mn2NiO6
_symmetry_space_group_name_H-M   'P 1'
_cell_length_a   6.59523770
_cell_length_b   6.64504197
_cell_length_c   8.33768296
_cell_angle_alpha   70.03746611
_cell_angle_beta   109.19932480
_cell_angle_gamma   97.14731217
_symmetry_Int_Tables_number   1
_chemical_formula_structural   Li2Mn2NiO6
_chemical_formula_sum   'Li6 Mn6 Ni3 O18'
_cell_volume   324.31635644
_cell_formula_units_Z   3
loop_
 _symmetry_equiv_pos_site_id
 _symmetry_equiv_pos_as_xyz
  1  'x, y, z'
loop_
 _atom_site_type_symbol
 _atom_site_label
 _atom_site_symmetry_multiplicity
 _atom_site_fract_x
 _atom_site_fract_y
 _atom_site_fract_z
 _atom_site_occupancy
  Li  Li0  1  0.01334278  0.66683362  0.83412280  1
  Li  Li1  1  0.01268508  0.33026230  0.17071752  1
  Li  Li2  1  0.33340537  0.33160815  0.50170107  1
  Li  Li3  1  0.33326163  0.00172585  0.83163193  1
  Li  Li4  1  0.65332322  0.66649938  0.49921020  1
  Li  Li5  1  0.65398092  0.00307170  0.16261548  1
  Mn  Mn6  1  0.00618115  0.66959233  0.33572189  1
  Mn  Mn7  1  0.00239702  0.33196039  0.66791715  1
  Mn  Mn8  1  0.66426998  0.00137361  0.66541585  1
  Mn  Mn9  1  0.66048485  0.66374067  0.99761211  1
  Mn  Mn10  1  0.00793882  0.00153991  0.00187586  1
  Mn  Mn11  1  0.65872818  0.33179409  0.33145714  1
  Ni  Ni12  1  0.33333300  0.66666700  0.66666700  1
  Ni  Ni13  1  0.33697302  0.33631899  0.99893772  1
  Ni  Ni14  1  0.32969398  0.99701401  0.33439628  1
  O  O15  1  0.36942241  0.99816938  0.59292438  1
  O  O16  1  0.36061516  0.66318448  0.91428701  1
  O  O17  1  0.68347157  0.97374793  0.91403840  1
  O  O18  1  0.30605184  0.67014852  0.41904599  1
  O  O19  1  0.29724459  0.33516362  0.74040962  1
  O  O20  1  0.67467003  0.69582704  0.75980620  1
  O  O21  1  0.35963838  0.32176391  0.25731986  1
  O  O22  1  0.68757162  0.64865430  0.24504939  1
  O  O23  1  0.68078595  0.31563213  0.57279953  1
  O  O24  1  0.99436050  0.98053120  0.23223121  1
  O  O25  1  0.99199597  0.63750596  0.57352780  1
  O  O26  1  0.00390038  0.31154013  0.90611555  1
  O  O27  1  0.30702762  0.01156909  0.07601314  1
  O  O28  1  0.67230650  0.35280180  0.10110279  1
  O  O29  1  0.66276562  0.02179287  0.42721745  1
  O  O30  1  0.97909438  0.68467970  0.08828361  1
  O  O31  1  0.98319543  0.35958507  0.41929560  1
  O  O32  1  0.98588105  0.01770087  0.76053347  1
