# generated using pymatgen
data_LiMnP2O7
_symmetry_space_group_name_H-M   'P 1'
_cell_length_a   6.65761943
_cell_length_b   11.40752292
_cell_length_c   7.94901040
_cell_angle_alpha   90.00000000
_cell_angle_beta   119.09854972
_cell_angle_gamma   90.00000000
_symmetry_Int_Tables_number   1
_chemical_formula_structural   LiMnP2O7
_chemical_formula_sum   'Li4 Mn4 P8 O28'
_cell_volume   527.50640094
_cell_formula_units_Z   4
loop_
 _symmetry_equiv_pos_site_id
 _symmetry_equiv_pos_as_xyz
  1  'x, y, z'
loop_
 _atom_site_type_symbol
 _atom_site_label
 _atom_site_symmetry_multiplicity
 _atom_site_fract_x
 _atom_site_fract_y
 _atom_site_fract_z
 _atom_site_occupancy
  Li  Li0  1  0.26502266  0.91074725  0.73856402  1
  Li  Li1  1  0.26502266  0.58925275  0.23856402  1
  Li  Li2  1  0.73497734  0.41074725  0.76143598  1
  Li  Li3  1  0.73497734  0.08925275  0.26143598  1
  Mn  Mn4  1  0.44859022  0.29126114  0.90108350  1
  Mn  Mn5  1  0.44859022  0.20873886  0.40108350  1
  Mn  Mn6  1  0.55140978  0.79126114  0.59891650  1
  Mn  Mn7  1  0.55140978  0.70873886  0.09891650  1
  P  P8  1  0.01200735  0.64901944  0.78963415  1
  P  P9  1  0.01200735  0.85098056  0.28963415  1
  P  P10  1  0.36899982  0.58683381  0.69030707  1
  P  P11  1  0.36899982  0.91316619  0.19030707  1
  P  P12  1  0.63100018  0.08683381  0.80969293  1
  P  P13  1  0.63100018  0.41316619  0.30969293  1
  P  P14  1  0.98799265  0.14901944  0.71036585  1
  P  P15  1  0.98799265  0.35098056  0.21036585  1
  O  O16  1  0.88044807  0.76618724  0.71149917  1
  O  O17  1  0.22745745  0.66580264  0.99155790  1
  O  O18  1  0.13220633  0.05293106  0.70308917  1
  O  O19  1  0.10855288  0.61642443  0.64320391  1
  O  O20  1  0.88044807  0.73381276  0.21149917  1
  O  O21  1  0.22745745  0.83419736  0.49155790  1
  O  O22  1  0.39194792  0.88272524  0.01389661  1
  O  O23  1  0.13220633  0.44706894  0.20308917  1
  O  O24  1  0.10855288  0.88357557  0.14320391  1
  O  O25  1  0.51833930  0.68693701  0.83640547  1
  O  O26  1  0.39194792  0.61727476  0.51389661  1
  O  O27  1  0.42441904  0.46210055  0.76288067  1
  O  O28  1  0.57558096  0.96210055  0.73711933  1
  O  O29  1  0.48166070  0.18693701  0.66359453  1
  O  O30  1  0.51833930  0.81306299  0.33640547  1
  O  O31  1  0.42441904  0.03789945  0.26288067  1
  O  O32  1  0.57558096  0.53789945  0.23711933  1
  O  O33  1  0.60805208  0.38272524  0.48610339  1
  O  O34  1  0.48166070  0.31306299  0.16359553  1
  O  O35  1  0.89144712  0.11642443  0.85679609  1
  O  O36  1  0.86779367  0.55293106  0.79691083  1
  O  O37  1  0.60805208  0.11727476  0.98610339  1
  O  O38  1  0.77254255  0.16580264  0.50844210  1
  O  O39  1  0.11955193  0.26618724  0.78850083  1
  O  O40  1  0.89144712  0.38357557  0.35679609  1
  O  O41  1  0.86779367  0.94706894  0.29691083  1
  O  O42  1  0.77254255  0.33419736  0.00844210  1
  O  O43  1  0.11955193  0.23381276  0.28850083  1
