# generated using pymatgen
data_ThV2O6
_symmetry_space_group_name_H-M   'P 1'
_cell_length_a   4.81158716
_cell_length_b   4.81158716
_cell_length_c   9.71492206
_cell_angle_alpha   90.00000000
_cell_angle_beta   90.00000000
_cell_angle_gamma   90.00000000
_symmetry_Int_Tables_number   1
_chemical_formula_structural   ThV2O6
_chemical_formula_sum   'Th2 V4 O12'
_cell_volume   224.91376483
_cell_formula_units_Z   2
loop_
 _symmetry_equiv_pos_site_id
 _symmetry_equiv_pos_as_xyz
  1  'x, y, z'
loop_
 _atom_site_type_symbol
 _atom_site_label
 _atom_site_symmetry_multiplicity
 _atom_site_fract_x
 _atom_site_fract_y
 _atom_site_fract_z
 _atom_site_occupancy
  Th  Th0  1  0.00000000  -0.00000000  -0.00000000  1
  Th  Th1  1  0.50000000  0.50000000  0.50000000  1
  V  V2  1  -0.00000000  0.00000000  0.33828524  1
  V  V3  1  -0.00000000  0.00000000  0.66171476  1
  V  V4  1  0.50000000  0.50000000  0.83828524  1
  V  V5  1  0.50000000  0.50000000  0.16171476  1
  O  O6  1  0.32566745  0.32566745  -0.00000000  1
  O  O7  1  0.67433255  0.67433255  -0.00000000  1
  O  O8  1  0.17433255  0.82566745  0.50000000  1
  O  O9  1  0.82566745  0.17433255  0.50000000  1
  O  O10  1  0.27437844  0.27437844  0.31561122  1
  O  O11  1  0.72562156  0.72562156  0.68438878  1
  O  O12  1  0.72562156  0.72562156  0.31561122  1
  O  O13  1  0.22562156  0.77437844  0.81561122  1
  O  O14  1  0.22562156  0.77437844  0.18438878  1
  O  O15  1  0.27437844  0.27437844  0.68438878  1
  O  O16  1  0.77437844  0.22562156  0.18438878  1
  O  O17  1  0.77437844  0.22562156  0.81561122  1
