# generated using pymatgen
data_Li4Ti2Fe3Co3O16
_symmetry_space_group_name_H-M   'P 1'
_cell_length_a   5.86761566
_cell_length_b   5.89341213
_cell_length_c   9.52672154
_cell_angle_alpha   90.15371539
_cell_angle_beta   90.94656159
_cell_angle_gamma   120.01808524
_symmetry_Int_Tables_number   1
_chemical_formula_structural   Li4Ti2Fe3Co3O16
_chemical_formula_sum   'Li4 Ti2 Fe3 Co3 O16'
_cell_volume   285.18679191
_cell_formula_units_Z   1
loop_
 _symmetry_equiv_pos_site_id
 _symmetry_equiv_pos_as_xyz
  1  'x, y, z'
loop_
 _atom_site_type_symbol
 _atom_site_label
 _atom_site_symmetry_multiplicity
 _atom_site_fract_x
 _atom_site_fract_y
 _atom_site_fract_z
 _atom_site_occupancy
  Li  Li0  1  0.32412437  0.66486587  0.89668967  1
  Li  Li1  1  0.00929433  0.00395528  0.99420108  1
  Li  Li2  1  0.00722887  0.00081066  0.49334249  1
  Li  Li3  1  0.66151008  0.33014143  0.39692418  1
  Ti  Ti4  1  0.33277766  0.66392359  0.49665604  1
  Ti  Ti5  1  0.66876914  0.33400738  0.99496335  1
  Fe  Fe6  1  0.65945612  0.82962204  0.21239455  1
  Fe  Fe7  1  0.82824484  0.65908593  0.71500404  1
  Fe  Fe8  1  0.83272761  0.17358989  0.71518781  1
  Co  Co9  1  0.17797290  0.83387400  0.21706056  1
  Co  Co10  1  0.17735807  0.34406308  0.21660107  1
  Co  Co11  1  0.34353315  0.17124917  0.71395667  1
  O  O12  1  0.18145039  0.84617664  0.60001107  1
  O  O13  1  0.03873976  0.52023029  0.34567492  1
  O  O14  1  0.32108916  0.66366308  0.10604349  1
  O  O15  1  0.01000136  0.00262339  0.30352087  1
  O  O16  1  0.01559923  0.00758806  0.80656454  1
  O  O17  1  0.18004944  0.33319525  0.59889569  1
  O  O18  1  0.47510233  0.95796091  0.34337984  1
  O  O19  1  0.47602732  0.51739968  0.34331993  1
  O  O20  1  0.33966073  0.16901655  0.09718285  1
  O  O21  1  0.66704321  0.83383524  0.59136515  1
  O  O22  1  0.50132548  0.46477956  0.83513193  1
  O  O23  1  0.50197591  0.03880313  0.83481926  1
  O  O24  1  0.65384194  0.32663013  0.60608915  1
  O  O25  1  0.83041948  0.66537611  0.09276412  1
  O  O26  1  0.95482039  0.47801018  0.84750277  1
  O  O27  1  0.82985672  0.16582248  0.09258993  1
