# generated using pymatgen
data_Li3Fe5(NiO6)2
_symmetry_space_group_name_H-M   'P 1'
_cell_length_a   5.12378747
_cell_length_b   5.12378739
_cell_length_c   9.69906155
_cell_angle_alpha   85.61577179
_cell_angle_beta   94.38422416
_cell_angle_gamma   61.25362333
_symmetry_Int_Tables_number   1
_chemical_formula_structural   Li3Fe5(NiO6)2
_chemical_formula_sum   'Li3 Fe5 Ni2 O12'
_cell_volume   220.72218220
_cell_formula_units_Z   1
loop_
 _symmetry_equiv_pos_site_id
 _symmetry_equiv_pos_as_xyz
  1  'x, y, z'
loop_
 _atom_site_type_symbol
 _atom_site_label
 _atom_site_symmetry_multiplicity
 _atom_site_fract_x
 _atom_site_fract_y
 _atom_site_fract_z
 _atom_site_occupancy
  Li  Li0  1  0.32984683  0.85063000  0.99641275  1
  Li  Li1  1  0.85063000  0.32984683  0.50358725  1
  Li  Li2  1  0.91733260  0.91733260  0.75000000  1
  Fe  Fe3  1  0.07887616  0.07887616  0.25000000  1
  Fe  Fe4  1  0.42006021  0.42006021  0.25000000  1
  Fe  Fe5  1  0.57315527  0.57315527  0.75000000  1
  Fe  Fe6  1  0.50349729  0.99634052  0.50430974  1
  Fe  Fe7  1  0.99634052  0.50349729  0.99569026  1
  Ni  Ni8  1  0.25331489  0.25331489  0.75000000  1
  Ni  Ni9  1  0.75532436  0.75532436  0.25000000  1
  O  O10  1  0.14474452  0.34886958  0.37186236  1
  O  O11  1  0.34886958  0.14474452  0.12813764  1
  O  O12  1  0.06816338  0.76580760  0.13006391  1
  O  O13  1  0.27939523  0.53696011  0.85802249  1
  O  O14  1  0.53696011  0.27939523  0.64197751  1
  O  O15  1  0.22801380  0.98357864  0.63587550  1
  O  O16  1  0.45203639  0.73180761  0.36604014  1
  O  O17  1  0.76580760  0.06816338  0.36993609  1
  O  O18  1  0.63033168  0.82159033  0.87202963  1
  O  O19  1  0.73180761  0.45203639  0.13395986  1
  O  O20  1  0.98357864  0.22801380  0.86412450  1
  O  O21  1  0.82159033  0.63033168  0.62797037  1
