# generated using pymatgen
data_Li4V(PO3)6
_symmetry_space_group_name_H-M   'P 1'
_cell_length_a   7.41586524
_cell_length_b   7.37145573
_cell_length_c   7.53255765
_cell_angle_alpha   64.21809255
_cell_angle_beta   104.64785286
_cell_angle_gamma   82.16453310
_symmetry_Int_Tables_number   1
_chemical_formula_structural   Li4V(PO3)6
_chemical_formula_sum   'Li4 V1 P6 O18'
_cell_volume   344.09506658
_cell_formula_units_Z   1
loop_
 _symmetry_equiv_pos_site_id
 _symmetry_equiv_pos_as_xyz
  1  'x, y, z'
loop_
 _atom_site_type_symbol
 _atom_site_label
 _atom_site_symmetry_multiplicity
 _atom_site_fract_x
 _atom_site_fract_y
 _atom_site_fract_z
 _atom_site_occupancy
  Li  Li0  1  0.14551371  0.63749106  0.54237862  1
  Li  Li1  1  0.53165408  0.51967566  0.00846293  1
  Li  Li2  1  0.83988871  0.37032041  0.44007869  1
  Li  Li3  1  0.88476482  0.76675446  0.07585396  1
  V  V4  1  0.14352767  0.21000327  0.93904762  1
  P  P5  1  0.23189409  0.96757597  0.69717292  1
  P  P6  1  0.21331400  0.33607450  0.32377789  1
  P  P7  1  0.48736112  0.22178823  0.72922672  1
  P  P8  1  0.50373637  0.78531029  0.26822406  1
  P  P9  1  0.77896900  0.66217660  0.68016731  1
  P  P10  1  0.78158718  0.02238335  0.30372954  1
  O  O11  1  0.07368602  0.08211691  0.73650641  1
  O  O12  1  0.05897394  0.49194984  0.32403710  1
  O  O13  1  0.19481265  0.10074573  0.44804604  1
  O  O14  1  0.26237712  0.74210290  0.75649739  1
  O  O15  1  0.34297869  0.34672178  0.77648673  1
  O  O16  1  0.44057292  0.99573513  0.79654168  1
  O  O17  1  0.23141447  0.36070868  0.12162744  1
  O  O18  1  0.28648841  0.86783998  0.17159035  1
  O  O19  1  0.42165817  0.32165144  0.47325788  1
  O  O20  1  0.56856428  0.68685570  0.52284322  1
  O  O21  1  0.69879530  0.18784018  0.81396113  1
  O  O22  1  0.75722285  0.63832749  0.87952688  1
  O  O23  1  0.57499256  0.99576902  0.19912135  1
  O  O24  1  0.61477849  0.63272399  0.22444406  1
  O  O25  1  0.74835391  0.24801121  0.24765395  1
  O  O26  1  0.80975238  0.89057754  0.55312809  1
  O  O27  1  0.93436238  0.50152998  0.68282945  1
  O  O28  1  0.93800368  0.90923770  0.26377957  1
