# generated using pymatgen
data_LiNiPO4
_symmetry_space_group_name_H-M   'P 1'
_cell_length_a   5.64777045
_cell_length_b   5.64777353
_cell_length_c   7.97979303
_cell_angle_alpha   89.99997314
_cell_angle_beta   89.99997357
_cell_angle_gamma   90.00004535
_symmetry_Int_Tables_number   1
_chemical_formula_structural   LiNiPO4
_chemical_formula_sum   'Li4 Ni4 P4 O16'
_cell_volume   254.53407925
_cell_formula_units_Z   4
loop_
 _symmetry_equiv_pos_site_id
 _symmetry_equiv_pos_as_xyz
  1  'x, y, z'
loop_
 _atom_site_type_symbol
 _atom_site_label
 _atom_site_symmetry_multiplicity
 _atom_site_fract_x
 _atom_site_fract_y
 _atom_site_fract_z
 _atom_site_occupancy
  Li  Li0  1  0.00000040  0.22840819  0.00000045  1
  Li  Li1  1  0.99999911  0.77159172  0.50000036  1
  Li  Li2  1  0.22840732  0.00000035  0.25000003  1
  Li  Li3  1  0.77159111  0.00000002  0.75000003  1
  Ni  Ni4  1  0.23815628  0.50000161  0.25000103  1
  Ni  Ni5  1  0.50000209  0.23814813  -0.00000021  1
  Ni  Ni6  1  0.49999829  0.76185152  0.49999601  1
  Ni  Ni7  1  0.76184974  0.50000197  0.75000214  1
  P  P8  1  0.25381933  0.25381966  0.62499996  1
  P  P9  1  0.25381920  0.74617951  0.87500024  1
  P  P10  1  0.74618090  0.25382018  0.37500026  1
  P  P11  1  0.74618141  0.74617975  0.12499994  1
  O  O12  1  0.97178950  0.25423619  0.26300875  1
  O  O13  1  0.97178939  0.74576334  0.23699081  1
  O  O14  1  0.25423603  0.97178741  0.98699134  1
  O  O15  1  0.25423462  0.02821171  0.51300891  1
  O  O16  1  0.25442980  0.51772091  0.98989035  1
  O  O17  1  0.25442997  0.48227837  0.51010966  1
  O  O18  1  0.51772212  0.25442945  0.26011003  1
  O  O19  1  0.51772266  0.74556949  0.23988963  1
  O  O20  1  0.48227799  0.25443087  0.73989006  1
  O  O21  1  0.48227681  0.74557007  0.76010865  1
  O  O22  1  0.74556801  0.48227877  0.48989051  1
  O  O23  1  0.74556800  0.51772144  0.01011009  1
  O  O24  1  0.74576453  0.02821216  0.48699102  1
  O  O25  1  0.74576442  0.97178794  0.01300865  1
  O  O26  1  0.02821102  0.25423561  0.73699139  1
  O  O27  1  0.02820996  0.74576365  0.76300989  1
