# generated using pymatgen
data_LiMnF4
_symmetry_space_group_name_H-M   'P 1'
_cell_length_a   7.02374091
_cell_length_b   7.02374044
_cell_length_c   10.71111380
_cell_angle_alpha   90.00000000
_cell_angle_beta   90.00000000
_cell_angle_gamma   119.99999626
_symmetry_Int_Tables_number   1
_chemical_formula_structural   LiMnF4
_chemical_formula_sum   'Li6 Mn6 F24'
_cell_volume   457.61707262
_cell_formula_units_Z   6
loop_
 _symmetry_equiv_pos_site_id
 _symmetry_equiv_pos_as_xyz
  1  'x, y, z'
loop_
 _atom_site_type_symbol
 _atom_site_label
 _atom_site_symmetry_multiplicity
 _atom_site_fract_x
 _atom_site_fract_y
 _atom_site_fract_z
 _atom_site_occupancy
  Li  Li0  1  0.15789755  0.74650928  0.32318381  1
  Li  Li1  1  0.25349072  0.41138927  0.65651681  1
  Li  Li2  1  0.58861073  0.84210245  0.98985081  1
  Li  Li3  1  0.45762915  0.32842158  0.08706320  1
  Li  Li4  1  0.87079243  0.54237085  0.75373020  1
  Li  Li5  1  0.67157842  0.12920757  0.42039720  1
  Mn  Mn6  1  0.00978572  0.84263920  0.01158817  1
  Mn  Mn7  1  0.99206181  0.37007344  0.06769731  1
  Mn  Mn8  1  0.37801163  0.00793819  0.73436331  1
  Mn  Mn9  1  0.15736080  0.16714652  0.34492117  1
  Mn  Mn10  1  0.62992656  0.62198837  0.40103031  1
  Mn  Mn11  1  0.83285348  0.99021428  0.67825517  1
  F  F12  1  0.09517909  0.64337825  0.15464268  1
  F  F13  1  0.27724179  0.00479982  0.92991239  1
  F  F14  1  0.18136614  0.71615178  0.68703458  1
  F  F15  1  0.99520018  0.27244097  0.26324539  1
  F  F16  1  0.28384822  0.46521435  0.02036758  1
  F  F17  1  0.18524117  0.09551807  0.66580073  1
  F  F18  1  0.54819816  0.90482091  0.82130968  1
  F  F19  1  0.35662175  0.45180184  0.48797668  1
  F  F20  1  0.53478565  0.81863386  0.35370058  1
  F  F21  1  0.17169921  0.04190689  0.15241190  1
  F  F22  1  0.42751360  0.39685102  0.26122441  1
  F  F23  1  0.31222522  0.03475791  0.40501051  1
  F  F24  1  0.72755903  0.72275821  0.59657839  1
  F  F25  1  0.56708403  0.30740067  0.76366431  1
  F  F26  1  0.72253268  0.68777478  0.07167751  1
  F  F27  1  0.87020668  0.82830079  0.81907890  1
  F  F28  1  0.91027690  0.81475883  0.33246773  1
  F  F29  1  0.74031564  0.43291597  0.43033131  1
  F  F30  1  0.60314898  0.03066258  0.59455741  1
  F  F31  1  0.96933742  0.57248640  0.92789041  1
  F  F32  1  0.69259933  0.25968436  0.09699731  1
  F  F33  1  0.96524209  0.27746732  0.73834351  1
  F  F34  1  0.95809311  0.12979332  0.48574590  1
  F  F35  1  0.90448193  0.08972310  0.99913473  1
