# generated using pymatgen
data_LiFe(PO3)4
_symmetry_space_group_name_H-M   'P 1'
_cell_length_a   8.02257889
_cell_length_b   8.53786987
_cell_length_c   9.60596860
_cell_angle_alpha   119.67610918
_cell_angle_beta   114.68209097
_cell_angle_gamma   61.97717471
_symmetry_Int_Tables_number   1
_chemical_formula_structural   LiFe(PO3)4
_chemical_formula_sum   'Li2 Fe2 P8 O24'
_cell_volume   489.74921789
_cell_formula_units_Z   2
loop_
 _symmetry_equiv_pos_site_id
 _symmetry_equiv_pos_as_xyz
  1  'x, y, z'
loop_
 _atom_site_type_symbol
 _atom_site_label
 _atom_site_symmetry_multiplicity
 _atom_site_fract_x
 _atom_site_fract_y
 _atom_site_fract_z
 _atom_site_occupancy
  Li  Li0  1  0.00000000  0.50000000  0.50000000  1
  Li  Li1  1  0.00000000  0.00000000  0.00000000  1
  Fe  Fe2  1  0.66300407  0.75000000  0.75000000  1
  Fe  Fe3  1  0.33699593  0.25000000  0.25000000  1
  P  P4  1  0.70552266  0.85632716  0.13737081  1
  P  P5  1  0.35118843  0.80529838  0.10438120  1
  P  P6  1  0.05210561  0.69470162  0.39561880  1
  P  P7  1  0.42447901  0.64367284  0.36262919  1
  P  P8  1  0.57552099  0.35632716  0.63737081  1
  P  P9  1  0.94789439  0.30529838  0.60438120  1
  P  P10  1  0.64881157  0.19470162  0.89561880  1
  P  P11  1  0.29447734  0.14367284  0.86262919  1
  O  O12  1  0.27421595  0.02102623  0.19984605  1
  O  O13  1  0.79075662  0.78280468  0.99411034  1
  O  O14  1  0.87354551  0.80754997  0.28576221  1
  O  O15  1  0.56942097  0.73724405  0.08804181  1
  O  O16  1  0.40470334  0.93361951  0.79718435  1
  O  O17  1  0.21862320  0.76275595  0.41195819  1
  O  O18  1  0.39533427  0.69245003  0.21423779  1
  O  O19  1  0.01194309  0.76020559  0.55696264  1
  O  O20  1  0.57945196  0.71719532  0.50588966  1
  O  O21  1  0.21518503  0.73979441  0.94303736  1
  O  O22  1  0.09539513  0.47897377  0.30015395  1
  O  O23  1  0.54113950  0.56638049  0.70281565  1
  O  O24  1  0.45886050  0.43361951  0.29718435  1
  O  O25  1  0.90460487  0.52102623  0.69984605  1
  O  O26  1  0.78481497  0.26020559  0.05696264  1
  O  O27  1  0.42054804  0.28280468  0.49411034  1
  O  O28  1  0.98805691  0.23979441  0.44303736  1
  O  O29  1  0.60466573  0.30754997  0.78576221  1
  O  O30  1  0.78137680  0.23724405  0.58804181  1
  O  O31  1  0.59529666  0.06638049  0.20281565  1
  O  O32  1  0.43057903  0.26275595  0.91195819  1
  O  O33  1  0.12645449  0.19245003  0.71423779  1
  O  O34  1  0.20924338  0.21719532  0.00588966  1
  O  O35  1  0.72578405  0.97897377  0.80015395  1
