# generated using pymatgen
data_Li3Mn(PO4)2
_symmetry_space_group_name_H-M   'P 1'
_cell_length_a   8.66147720
_cell_length_b   9.37119223
_cell_length_c   8.55296945
_cell_angle_alpha   86.92760476
_cell_angle_beta   110.62831069
_cell_angle_gamma   92.89470128
_symmetry_Int_Tables_number   1
_chemical_formula_structural   Li3Mn(PO4)2
_chemical_formula_sum   'Li12 Mn4 P8 O32'
_cell_volume   648.41505179
_cell_formula_units_Z   4
loop_
 _symmetry_equiv_pos_site_id
 _symmetry_equiv_pos_as_xyz
  1  'x, y, z'
loop_
 _atom_site_type_symbol
 _atom_site_label
 _atom_site_symmetry_multiplicity
 _atom_site_fract_x
 _atom_site_fract_y
 _atom_site_fract_z
 _atom_site_occupancy
  Li  Li0  1  0.38514020  0.79336880  0.85256912  1
  Li  Li1  1  0.12825998  0.29852035  0.62137189  1
  Li  Li2  1  0.04130982  0.46071120  0.16055227  1
  Li  Li3  1  0.06259568  0.77218169  0.10934485  1
  Li  Li4  1  0.59810979  0.75995411  0.60896012  1
  Li  Li5  1  0.43094528  0.24765722  0.40536206  1
  Li  Li6  1  0.88912819  0.23052674  0.89468339  1
  Li  Li7  1  0.95772620  0.53868132  0.83196068  1
  Li  Li8  1  0.16164448  0.03496668  0.04603552  1
  Li  Li9  1  0.86633677  0.69702482  0.40628679  1
  Li  Li10  1  0.60847563  0.22556219  0.14617163  1
  Li  Li11  1  0.70982812  0.90126469  0.08419681  1
  Mn  Mn12  1  0.24495312  0.90554885  0.49547905  1
  Mn  Mn13  1  0.50269923  0.39644626  0.76745019  1
  Mn  Mn14  1  0.49903798  0.60545845  0.23270267  1
  Mn  Mn15  1  0.77144689  0.09791384  0.50645920  1
  P  P16  1  0.01235844  0.91459788  0.71395900  1
  P  P17  1  0.29187013  0.41361121  0.99586370  1
  P  P18  1  0.24964696  0.57586236  0.43563407  1
  P  P19  1  0.57198445  0.07504977  0.75815086  1
  P  P20  1  0.44406728  0.92770602  0.25261769  1
  P  P21  1  0.74863928  0.42865860  0.55874267  1
  P  P22  1  0.70874329  0.59093014  0.00087737  1
  P  P23  1  0.98204548  0.07109428  0.27196671  1
  O  O24  1  0.04000363  0.88692448  0.89970150  1
  O  O25  1  0.10728388  0.40086111  0.97336805  1
  O  O26  1  0.16952498  0.86422148  0.68367095  1
  O  O27  1  0.30971314  0.35841367  0.83278803  1
  O  O28  1  0.06182624  0.56282663  0.37520106  1
  O  O29  1  0.63222919  0.08078325  0.94906792  1
  O  O30  1  0.93887175  0.90903370  0.24679008  1
  O  O31  1  0.65327145  0.42766868  0.00239009  1
  O  O32  1  0.59542198  0.66728359  0.84230783  1
  O  O33  1  0.14559676  0.08974776  0.42849896  1
  O  O34  1  0.48537379  0.93219740  0.68788260  1
  O  O35  1  0.33501582  0.44174788  0.53652830  1
  O  O36  1  0.32373683  0.70969934  0.53772204  1
  O  O37  1  0.45749452  0.19755018  0.66633268  1
  O  O38  1  0.28871900  0.58570400  0.26901894  1
  O  O39  1  0.73538437  0.09435380  0.71680165  1
  O  O40  1  0.26856920  0.91548428  0.27253831  1
  O  O41  1  0.71256088  0.41462708  0.72843022  1
  O  O42  1  0.54697223  0.80118699  0.34446534  1
  O  O43  1  0.67108557  0.30172444  0.45041318  1
  O  O44  1  0.66748077  0.56686259  0.46398996  1
  O  O45  1  0.53404303  0.06525242  0.34192831  1
  O  O46  1  0.85693939  0.83979327  0.59382762  1
  O  O47  1  0.40177517  0.33202865  0.15210216  1
  O  O48  1  0.35304693  0.57657804  0.00214312  1
  O  O49  1  0.00052694  0.08160984  0.66601642  1
  O  O50  1  0.40679834  0.93421850  0.06469936  1
  O  O51  1  0.93674744  0.44022925  0.61848839  1
  O  O52  1  0.68944854  0.65757902  0.15923528  1
  O  O53  1  0.84146088  0.14289422  0.31306173  1
  O  O54  1  0.89262603  0.60647557  0.01941810  1
  O  O55  1  0.00608168  0.14991041  0.11959649  1
