# generated using pymatgen
data_Fe2O3F
_symmetry_space_group_name_H-M   'P 1'
_cell_length_a   5.58877172
_cell_length_b   5.58877172
_cell_length_c   5.58877172
_cell_angle_alpha   69.87852629
_cell_angle_beta   103.68987850
_cell_angle_gamma   65.20821927
_symmetry_Int_Tables_number   1
_chemical_formula_structural   Fe2O3F
_chemical_formula_sum   'Fe4 O6 F2'
_cell_volume   133.11809017
_cell_formula_units_Z   2
loop_
 _symmetry_equiv_pos_site_id
 _symmetry_equiv_pos_as_xyz
  1  'x, y, z'
loop_
 _atom_site_type_symbol
 _atom_site_label
 _atom_site_symmetry_multiplicity
 _atom_site_fract_x
 _atom_site_fract_y
 _atom_site_fract_z
 _atom_site_occupancy
  Fe  Fe0  1  0.78463866  0.75000000  0.53463866  1
  Fe  Fe1  1  0.21536134  0.25000000  0.46536134  1
  Fe  Fe2  1  0.50000000  0.50000000  0.00000000  1
  Fe  Fe3  1  0.00000000  0.00000000  0.00000000  1
  O  O4  1  0.07172830  0.75000000  0.82172830  1
  O  O5  1  0.50000000  0.80688987  0.69311013  1
  O  O6  1  0.00000000  0.30688987  0.69311013  1
  O  O7  1  0.50000000  0.19311013  0.30688987  1
  O  O8  1  0.00000000  0.69311013  0.30688987  1
  O  O9  1  0.92827170  0.25000000  0.17827170  1
  F  F10  1  0.54751123  0.25000000  0.79751123  1
  F  F11  1  0.45248877  0.75000000  0.20248877  1
