# generated using pymatgen
data_Co3O5F
_symmetry_space_group_name_H-M   'P 1'
_cell_length_a   4.51660621
_cell_length_b   13.53765731
_cell_length_c   2.88795874
_cell_angle_alpha   90.00001208
_cell_angle_beta   89.99999905
_cell_angle_gamma   90.07431823
_symmetry_Int_Tables_number   1
_chemical_formula_structural   Co3O5F
_chemical_formula_sum   'Co6 O10 F2'
_cell_volume   176.58197178
_cell_formula_units_Z   2
loop_
 _symmetry_equiv_pos_site_id
 _symmetry_equiv_pos_as_xyz
  1  'x, y, z'
loop_
 _atom_site_type_symbol
 _atom_site_label
 _atom_site_symmetry_multiplicity
 _atom_site_fract_x
 _atom_site_fract_y
 _atom_site_fract_z
 _atom_site_occupancy
  Co  Co0  1  0.97059588  0.00044644  -0.00000002  1
  Co  Co1  1  0.02738735  0.34151703  0.00000013  1
  Co  Co2  1  0.03486331  0.65803267  0.00000031  1
  Co  Co3  1  0.46657293  0.15735192  0.49999985  1
  Co  Co4  1  0.52974549  0.50006036  0.49999987  1
  Co  Co5  1  0.47139902  0.84254980  0.49999995  1
  O  O6  1  0.19428771  0.27066865  0.50000010  1
  O  O7  1  0.15642109  0.93894548  0.49999986  1
  O  O8  1  0.23528864  0.59613874  0.50000016  1
  O  O9  1  0.30450224  0.77122944  0.00000014  1
  O  O10  1  0.26544368  0.09656457  -0.00000001  1
  O  O11  1  0.34365639  0.43804314  -0.00000024  1
  O  O12  1  0.71979123  0.56251154  -0.00000008  1
  O  O13  1  0.67016028  0.90134743  -0.00000010  1
  O  O14  1  0.78137454  0.06303886  0.50000005  1
  O  O15  1  0.82810733  0.40060407  0.50000001  1
  F  F16  1  0.68830145  0.23069535  0.99999986  1
  F  F17  1  0.81210143  0.73025654  0.50000016  1
