# generated using pymatgen
data_LiMnF3
_symmetry_space_group_name_H-M   'P 1'
_cell_length_a   8.44338564
_cell_length_b   5.41406717
_cell_length_c   5.25899792
_cell_angle_alpha   90.00000000
_cell_angle_beta   90.00000000
_cell_angle_gamma   90.00000000
_symmetry_Int_Tables_number   1
_chemical_formula_structural   LiMnF3
_chemical_formula_sum   'Li4 Mn4 F12'
_cell_volume   240.40487166
_cell_formula_units_Z   4
loop_
 _symmetry_equiv_pos_site_id
 _symmetry_equiv_pos_as_xyz
  1  'x, y, z'
loop_
 _atom_site_type_symbol
 _atom_site_label
 _atom_site_symmetry_multiplicity
 _atom_site_fract_x
 _atom_site_fract_y
 _atom_site_fract_z
 _atom_site_occupancy
  Li  Li0  1  0.00522841  0.13057968  0.51683060  1
  Li  Li1  1  0.49477159  0.63057968  0.01683060  1
  Li  Li2  1  0.50522841  0.36942032  0.51683060  1
  Li  Li3  1  0.99477159  0.86942032  0.01683060  1
  Mn  Mn4  1  0.17510470  0.64448372  0.55285557  1
  Mn  Mn5  1  0.32489530  0.14448372  0.05285557  1
  Mn  Mn6  1  0.67510470  0.85551628  0.55285557  1
  Mn  Mn7  1  0.82489530  0.35551628  0.05285557  1
  F  F8  1  0.00616658  0.43668688  0.34396661  1
  F  F9  1  0.15811899  0.94202144  0.27807547  1
  F  F10  1  0.15727070  0.99136987  0.77499875  1
  F  F11  1  0.34272930  0.49136987  0.27499875  1
  F  F12  1  0.34188101  0.44202144  0.77807547  1
  F  F13  1  0.49383342  0.93668688  0.84396661  1
  F  F14  1  0.50616658  0.06331312  0.34396661  1
  F  F15  1  0.65811899  0.55797856  0.27807547  1
  F  F16  1  0.65727070  0.50863013  0.77499875  1
  F  F17  1  0.84272930  0.00863013  0.27499875  1
  F  F18  1  0.84188101  0.05797856  0.77807547  1
  F  F19  1  0.99383342  0.56331312  0.84396661  1
