# generated using pymatgen
data_Li2Co(Si2O5)2
_symmetry_space_group_name_H-M   'P 1'
_cell_length_a   9.58392043
_cell_length_b   14.27680357
_cell_length_c   7.06883929
_cell_angle_alpha   90.00000000
_cell_angle_beta   90.00000000
_cell_angle_gamma   90.00000000
_symmetry_Int_Tables_number   1
_chemical_formula_structural   Li2Co(Si2O5)2
_chemical_formula_sum   'Li8 Co4 Si16 O40'
_cell_volume   967.21337099
_cell_formula_units_Z   4
loop_
 _symmetry_equiv_pos_site_id
 _symmetry_equiv_pos_as_xyz
  1  'x, y, z'
loop_
 _atom_site_type_symbol
 _atom_site_label
 _atom_site_symmetry_multiplicity
 _atom_site_fract_x
 _atom_site_fract_y
 _atom_site_fract_z
 _atom_site_occupancy
  Li  Li0  1  0.08965493  0.82417576  0.66200089  1
  Li  Li1  1  0.15862566  0.53213059  0.06373185  1
  Li  Li2  1  0.34137434  0.46786941  0.56373185  1
  Li  Li3  1  0.41034507  0.17582424  0.16200089  1
  Li  Li4  1  0.58965493  0.67582424  0.33799911  1
  Li  Li5  1  0.65862566  0.96786941  0.93626815  1
  Li  Li6  1  0.84137434  0.03213059  0.43626815  1
  Li  Li7  1  0.91034507  0.32417576  0.83799911  1
  Co  Co8  1  0.19339699  0.34585414  0.00163659  1
  Co  Co9  1  0.30660301  0.65414586  0.50163659  1
  Co  Co10  1  0.69339699  0.15414586  0.99836341  1
  Co  Co11  1  0.80660301  0.84585414  0.49836341  1
  Si  Si12  1  0.02643041  0.56848164  0.46861243  1
  Si  Si13  1  0.06062138  0.89840772  0.24152452  1
  Si  Si14  1  0.10032377  0.21831947  0.31124375  1
  Si  Si15  1  0.13678660  0.17566326  0.73367866  1
  Si  Si16  1  0.36321340  0.82433674  0.23367866  1
  Si  Si17  1  0.39967623  0.78168053  0.81124375  1
  Si  Si18  1  0.43937862  0.10159228  0.74152452  1
  Si  Si19  1  0.47356959  0.43151836  0.96861243  1
  Si  Si20  1  0.52643041  0.93151836  0.53138757  1
  Si  Si21  1  0.56062138  0.60159228  0.75847548  1
  Si  Si22  1  0.60032377  0.28168053  0.68875625  1
  Si  Si23  1  0.63678660  0.32433674  0.26632134  1
  Si  Si24  1  0.86321340  0.67566326  0.76632134  1
  Si  Si25  1  0.89967623  0.71831947  0.18875625  1
  Si  Si26  1  0.93937862  0.39840772  0.25847548  1
  Si  Si27  1  0.97356959  0.06848164  0.03138757  1
  O  O28  1  0.98530105  0.81253637  0.12467785  1
  O  O29  1  0.98806555  0.15219256  0.19244656  1
  O  O30  1  0.02978495  0.42933061  0.07600735  1
  O  O31  1  0.01605197  0.10533174  0.81969227  1
  O  O32  1  0.08128254  0.98383179  0.08801092  1
  O  O33  1  0.13782679  0.16029391  0.50421886  1
  O  O34  1  0.10083540  0.28202182  0.79483824  1
  O  O35  1  0.18959361  0.53896343  0.46517083  1
  O  O36  1  0.21242080  0.86024715  0.31589644  1
  O  O37  1  0.23724523  0.24461698  0.18828664  1
  O  O38  1  0.26275477  0.75538302  0.68828664  1
  O  O39  1  0.28757920  0.13975285  0.81589644  1
  O  O40  1  0.31040639  0.46103657  0.96517083  1
  O  O41  1  0.39916460  0.71797818  0.29483824  1
  O  O42  1  0.36217321  0.83970609  0.00421886  1
  O  O43  1  0.41871746  0.01616821  0.58801092  1
  O  O44  1  0.48394803  0.89466826  0.31969227  1
  O  O45  1  0.47021505  0.57066939  0.57600735  1
  O  O46  1  0.51193445  0.84780744  0.69244656  1
  O  O47  1  0.51469895  0.18746363  0.62467785  1
  O  O48  1  0.48530105  0.68746363  0.87532215  1
  O  O49  1  0.48806555  0.34780744  0.80755344  1
  O  O50  1  0.52978495  0.07066939  0.92399265  1
  O  O51  1  0.51605197  0.39466826  0.18030773  1
  O  O52  1  0.58128254  0.51616821  0.91198908  1
  O  O53  1  0.63782679  0.33970609  0.49578114  1
  O  O54  1  0.60083540  0.21797818  0.20516176  1
  O  O55  1  0.68959361  0.96103657  0.53482917  1
  O  O56  1  0.71242080  0.63975285  0.68410356  1
  O  O57  1  0.73724523  0.25538302  0.81171336  1
  O  O58  1  0.76275477  0.74461698  0.31171336  1
  O  O59  1  0.78757920  0.36024715  0.18410356  1
  O  O60  1  0.81040639  0.03896343  0.03482917  1
  O  O61  1  0.89916460  0.78202182  0.70516176  1
  O  O62  1  0.86217321  0.66029391  0.99578114  1
  O  O63  1  0.91871746  0.48383279  0.41198908  1
  O  O64  1  0.98394803  0.60533174  0.68030773  1
  O  O65  1  0.97021505  0.92933061  0.42399265  1
  O  O66  1  0.01193445  0.65219256  0.30755344  1
  O  O67  1  0.01469895  0.31253637  0.37532215  1
