# generated using pymatgen
data_Li2Co2(SiO3)3
_symmetry_space_group_name_H-M   'P 1'
_cell_length_a   12.53913976
_cell_length_b   10.07637927
_cell_length_c   7.12023050
_cell_angle_alpha   90.00000000
_cell_angle_beta   90.00000000
_cell_angle_gamma   90.00000000
_symmetry_Int_Tables_number   1
_chemical_formula_structural   Li2Co2(SiO3)3
_chemical_formula_sum   'Li8 Co8 Si12 O36'
_cell_volume   899.63491442
_cell_formula_units_Z   4
loop_
 _symmetry_equiv_pos_site_id
 _symmetry_equiv_pos_as_xyz
  1  'x, y, z'
loop_
 _atom_site_type_symbol
 _atom_site_label
 _atom_site_symmetry_multiplicity
 _atom_site_fract_x
 _atom_site_fract_y
 _atom_site_fract_z
 _atom_site_occupancy
  Li  Li0  1  0.16035784  0.51478457  0.56270832  1
  Li  Li1  1  0.16035784  0.98521543  0.56270832  1
  Li  Li2  1  0.33964216  0.01478457  0.06270832  1
  Li  Li3  1  0.33964216  0.48521543  0.06270832  1
  Li  Li4  1  0.66035784  0.51478457  0.93729168  1
  Li  Li5  1  0.66035784  0.98521543  0.93729168  1
  Li  Li6  1  0.83964216  0.01478457  0.43729168  1
  Li  Li7  1  0.83964216  0.48521543  0.43729168  1
  Co  Co8  1  0.08752130  0.56465617  0.11589125  1
  Co  Co9  1  0.08752130  0.93534383  0.11589125  1
  Co  Co10  1  0.41247870  0.06465617  0.61589125  1
  Co  Co11  1  0.41247870  0.43534383  0.61589125  1
  Co  Co12  1  0.58752130  0.56465617  0.38410875  1
  Co  Co13  1  0.58752130  0.93534383  0.38410875  1
  Co  Co14  1  0.91247870  0.06465617  0.88410875  1
  Co  Co15  1  0.91247870  0.43534383  0.88410875  1
  Si  Si16  1  0.02654217  0.75000000  0.45703711  1
  Si  Si17  1  0.05970966  0.25000000  0.14420256  1
  Si  Si18  1  0.21464628  0.25000000  0.46921139  1
  Si  Si19  1  0.28535372  0.75000000  0.96921139  1
  Si  Si20  1  0.44029034  0.75000000  0.64420256  1
  Si  Si21  1  0.47345783  0.25000000  0.95703711  1
  Si  Si22  1  0.52654217  0.75000000  0.04296289  1
  Si  Si23  1  0.55970966  0.25000000  0.35579744  1
  Si  Si24  1  0.71464628  0.25000000  0.03078861  1
  Si  Si25  1  0.78535372  0.75000000  0.53078861  1
  Si  Si26  1  0.94029034  0.75000000  0.85579744  1
  Si  Si27  1  0.97345783  0.25000000  0.54296289  1
  O  O28  1  0.03421755  0.75000000  0.68993876  1
  O  O29  1  0.04639628  0.11590964  0.02041281  1
  O  O30  1  0.04639628  0.38409036  0.02041281  1
  O  O31  1  0.08168866  0.61335960  0.38212412  1
  O  O32  1  0.08168866  0.88664040  0.38212412  1
  O  O33  1  0.10226904  0.25000000  0.59329894  1
  O  O34  1  0.22634954  0.61020673  0.01448151  1
  O  O35  1  0.22634954  0.88979327  0.01448151  1
  O  O36  1  0.17862565  0.25000000  0.24419577  1
  O  O37  1  0.32137435  0.75000000  0.74419577  1
  O  O38  1  0.27365046  0.11020673  0.51448151  1
  O  O39  1  0.27365046  0.38979327  0.51448151  1
  O  O40  1  0.39773096  0.75000000  0.09329894  1
  O  O41  1  0.41831134  0.11335960  0.88212412  1
  O  O42  1  0.41831134  0.38664040  0.88212412  1
  O  O43  1  0.45360372  0.61590964  0.52041281  1
  O  O44  1  0.45360372  0.88409036  0.52041281  1
  O  O45  1  0.46578245  0.25000000  0.18993876  1
  O  O46  1  0.53421755  0.75000000  0.81006124  1
  O  O47  1  0.54639628  0.11590964  0.47958719  1
  O  O48  1  0.54639628  0.38409036  0.47958719  1
  O  O49  1  0.58168866  0.61335960  0.11787588  1
  O  O50  1  0.58168866  0.88664040  0.11787588  1
  O  O51  1  0.60226904  0.25000000  0.90670106  1
  O  O52  1  0.72634954  0.61020673  0.48551849  1
  O  O53  1  0.72634954  0.88979327  0.48551849  1
  O  O54  1  0.67862565  0.25000000  0.25580423  1
  O  O55  1  0.82137435  0.75000000  0.75580423  1
  O  O56  1  0.77365046  0.11020673  0.98551849  1
  O  O57  1  0.77365046  0.38979327  0.98551849  1
  O  O58  1  0.89773096  0.75000000  0.40670106  1
  O  O59  1  0.91831134  0.11335960  0.61787588  1
  O  O60  1  0.91831134  0.38664040  0.61787588  1
  O  O61  1  0.95360372  0.61590964  0.97958719  1
  O  O62  1  0.95360372  0.88409036  0.97958719  1
  O  O63  1  0.96578245  0.25000000  0.31006124  1
