# generated using pymatgen
data_LiV(PO3)3
_symmetry_space_group_name_H-M   'P 1'
_cell_length_a   7.36934100
_cell_length_b   12.06562751
_cell_length_c   9.24190880
_cell_angle_alpha   90.00000000
_cell_angle_beta   90.00000000
_cell_angle_gamma   90.00000000
_symmetry_Int_Tables_number   1
_chemical_formula_structural   LiV(PO3)3
_chemical_formula_sum   'Li4 V4 P12 O36'
_cell_volume   821.75100747
_cell_formula_units_Z   4
loop_
 _symmetry_equiv_pos_site_id
 _symmetry_equiv_pos_as_xyz
  1  'x, y, z'
loop_
 _atom_site_type_symbol
 _atom_site_label
 _atom_site_symmetry_multiplicity
 _atom_site_fract_x
 _atom_site_fract_y
 _atom_site_fract_z
 _atom_site_occupancy
  Li  Li0  1  0.25000000  0.03224203  0.03175783  1
  Li  Li1  1  0.25000000  0.46775797  0.53175783  1
  Li  Li2  1  0.75000000  0.53224203  0.46824217  1
  Li  Li3  1  0.75000000  0.96775797  0.96824217  1
  V  V4  1  0.25000000  0.70956013  0.48059342  1
  V  V5  1  0.25000000  0.79043987  0.98059342  1
  V  V6  1  0.75000000  0.20956013  0.01940658  1
  V  V7  1  0.75000000  0.29043987  0.51940658  1
  P  P8  1  0.04661513  0.34838283  0.24919892  1
  P  P9  1  0.04661513  0.15161717  0.74919892  1
  P  P10  1  0.25000000  0.95822298  0.69525097  1
  P  P11  1  0.25000000  0.54177702  0.19525097  1
  P  P12  1  0.45338487  0.15161717  0.74919892  1
  P  P13  1  0.45338487  0.34838283  0.24919892  1
  P  P14  1  0.54661513  0.65161717  0.75080108  1
  P  P15  1  0.54661513  0.84838283  0.25080108  1
  P  P16  1  0.75000000  0.45822298  0.80474903  1
  P  P17  1  0.75000000  0.04177702  0.30474903  1
  P  P18  1  0.95338487  0.65161717  0.75080108  1
  P  P19  1  0.95338487  0.84838283  0.25080108  1
  O  O20  1  0.02244669  0.75986192  0.34870194  1
  O  O21  1  0.02244669  0.74013808  0.84870194  1
  O  O22  1  0.05563901  0.88153444  0.11601869  1
  O  O23  1  0.05563901  0.61846556  0.61601869  1
  O  O24  1  0.08120700  0.03941236  0.65545056  1
  O  O25  1  0.08120700  0.46058764  0.15545056  1
  O  O26  1  0.25000000  0.31444896  0.30379228  1
  O  O27  1  0.25000000  0.86134087  0.59763923  1
  O  O28  1  0.25000000  0.63865913  0.09763923  1
  O  O29  1  0.25000000  0.94337470  0.85774491  1
  O  O30  1  0.25000000  0.18555104  0.80379228  1
  O  O31  1  0.25000000  0.55662530  0.35774491  1
  O  O32  1  0.41879300  0.03941236  0.65545056  1
  O  O33  1  0.41879300  0.46058764  0.15545056  1
  O  O34  1  0.44436099  0.88153444  0.11601869  1
  O  O35  1  0.44436099  0.61846556  0.61601869  1
  O  O36  1  0.47755331  0.75986192  0.34870194  1
  O  O37  1  0.47755331  0.74013808  0.84870194  1
  O  O38  1  0.52244669  0.25986192  0.15129806  1
  O  O39  1  0.52244669  0.24013808  0.65129806  1
  O  O40  1  0.55563901  0.11846556  0.88398131  1
  O  O41  1  0.55563901  0.38153444  0.38398131  1
  O  O42  1  0.58120700  0.53941236  0.84454944  1
  O  O43  1  0.58120700  0.96058764  0.34454944  1
  O  O44  1  0.75000000  0.05662530  0.14225509  1
  O  O45  1  0.75000000  0.13865913  0.40236077  1
  O  O46  1  0.75000000  0.44337470  0.64225509  1
  O  O47  1  0.75000000  0.36134087  0.90236077  1
  O  O48  1  0.75000000  0.68555104  0.69620772  1
  O  O49  1  0.75000000  0.81444896  0.19620772  1
  O  O50  1  0.91879300  0.53941236  0.84454944  1
  O  O51  1  0.91879300  0.96058764  0.34454944  1
  O  O52  1  0.94436099  0.38153444  0.38398131  1
  O  O53  1  0.94436099  0.11846556  0.88398131  1
  O  O54  1  0.97755331  0.24013808  0.65129806  1
  O  O55  1  0.97755331  0.25986192  0.15129806  1
