# generated using pymatgen
data_LiV(PO3)4
_symmetry_space_group_name_H-M   'P 1'
_cell_length_a   5.07085633
_cell_length_b   10.43586324
_cell_length_c   10.43586324
_cell_angle_alpha   67.97878499
_cell_angle_beta   102.28290920
_cell_angle_gamma   102.28290920
_symmetry_Int_Tables_number   1
_chemical_formula_structural   LiV(PO3)4
_chemical_formula_sum   'Li2 V2 P8 O24'
_cell_volume   494.82474804
_cell_formula_units_Z   2
loop_
 _symmetry_equiv_pos_site_id
 _symmetry_equiv_pos_as_xyz
  1  'x, y, z'
loop_
 _atom_site_type_symbol
 _atom_site_label
 _atom_site_symmetry_multiplicity
 _atom_site_fract_x
 _atom_site_fract_y
 _atom_site_fract_z
 _atom_site_occupancy
  Li  Li0  1  0.00000000  0.50000000  0.00000000  1
  Li  Li1  1  0.00000000  0.00000000  0.50000000  1
  V  V2  1  0.31977266  0.35326643  0.35326643  1
  V  V3  1  0.68022734  0.64673357  0.64673357  1
  P  P4  1  0.15327939  0.40885262  0.76312551  1
  P  P5  1  0.15327939  0.76312551  0.40885262  1
  P  P6  1  0.56186722  0.93158777  0.69354473  1
  P  P7  1  0.56186722  0.69354473  0.93158777  1
  P  P8  1  0.43813278  0.06841223  0.30645527  1
  P  P9  1  0.43813278  0.30645527  0.06841223  1
  P  P10  1  0.84672061  0.23687449  0.59114738  1
  P  P11  1  0.84672061  0.59114738  0.23687449  1
  O  O12  1  0.00000000  0.72732721  0.27267279  1
  O  O13  1  0.00000000  0.27267279  0.72732721  1
  O  O14  1  0.27373344  0.65961869  0.95368542  1
  O  O15  1  0.27373344  0.95368542  0.65961869  1
  O  O16  1  0.04498324  0.25772593  0.49406344  1
  O  O17  1  0.04498324  0.49406344  0.25772593  1
  O  O18  1  0.40092035  0.46610645  0.69068344  1
  O  O19  1  0.40092035  0.69068344  0.46610645  1
  O  O20  1  0.22345345  0.33279845  0.92755027  1
  O  O21  1  0.22345345  0.92755027  0.33279845  1
  O  O22  1  0.64877090  0.86041836  0.86041836  1
  O  O23  1  0.34293279  0.15015804  0.37870677  1
  O  O24  1  0.34293279  0.37870677  0.15015804  1
  O  O25  1  0.65706721  0.62129323  0.84984196  1
  O  O26  1  0.65706721  0.84984196  0.62129323  1
  O  O27  1  0.35122910  0.13958164  0.13958164  1
  O  O28  1  0.77654655  0.66720155  0.07244973  1
  O  O29  1  0.77654655  0.07244973  0.66720155  1
  O  O30  1  0.59907965  0.30931656  0.53389355  1
  O  O31  1  0.59907965  0.53389355  0.30931656  1
  O  O32  1  0.95501676  0.50593656  0.74227407  1
  O  O33  1  0.95501676  0.74227407  0.50593656  1
  O  O34  1  0.72626656  0.04631458  0.34038131  1
  O  O35  1  0.72626656  0.34038131  0.04631458  1
