# generated using pymatgen
data_LiMnF3
_symmetry_space_group_name_H-M   'P 1'
_cell_length_a   8.85939983
_cell_length_b   8.85939983
_cell_length_c   6.25491194
_cell_angle_alpha   90.00000000
_cell_angle_beta   90.00000000
_cell_angle_gamma   90.00000000
_symmetry_Int_Tables_number   1
_chemical_formula_structural   LiMnF3
_chemical_formula_sum   'Li8 Mn8 F24'
_cell_volume   490.94156651
_cell_formula_units_Z   8
loop_
 _symmetry_equiv_pos_site_id
 _symmetry_equiv_pos_as_xyz
  1  'x, y, z'
loop_
 _atom_site_type_symbol
 _atom_site_label
 _atom_site_symmetry_multiplicity
 _atom_site_fract_x
 _atom_site_fract_y
 _atom_site_fract_z
 _atom_site_occupancy
  Li  Li0  1  0.09928343  0.19834326  0.41133565  1
  Li  Li1  1  0.30165674  0.09928343  0.08866435  1
  Li  Li2  1  0.19834326  0.40071657  0.08866435  1
  Li  Li3  1  0.40071657  0.30165674  0.41133565  1
  Li  Li4  1  0.59928343  0.69834326  0.58866435  1
  Li  Li5  1  0.80165674  0.59928343  0.91133565  1
  Li  Li6  1  0.69834326  0.90071657  0.91133565  1
  Li  Li7  1  0.90071657  0.80165674  0.58866435  1
  Mn  Mn8  1  0.05709610  0.77278737  0.14710603  1
  Mn  Mn9  1  0.22721263  0.55709610  0.64710603  1
  Mn  Mn10  1  0.27278737  0.94290390  0.64710603  1
  Mn  Mn11  1  0.44290390  0.72721263  0.14710603  1
  Mn  Mn12  1  0.55709610  0.27278737  0.85289397  1
  Mn  Mn13  1  0.72721263  0.05709610  0.35289397  1
  Mn  Mn14  1  0.77278737  0.44290390  0.35289397  1
  Mn  Mn15  1  0.94290390  0.22721263  0.85289397  1
  F  F16  1  0.07758362  0.07224125  0.68710226  1
  F  F17  1  0.09547997  0.19993982  0.10384007  1
  F  F18  1  0.10897424  0.74838577  0.52336494  1
  F  F19  1  0.07224125  0.42241638  0.81289774  1
  F  F20  1  0.24838577  0.89102576  0.02336494  1
  F  F21  1  0.19993982  0.40452003  0.39615993  1
  F  F22  1  0.30006018  0.09547997  0.39615993  1
  F  F23  1  0.25161423  0.60897424  0.02336494  1
  F  F24  1  0.42775875  0.07758362  0.81289774  1
  F  F25  1  0.39102576  0.75161423  0.52336494  1
  F  F26  1  0.40452003  0.30006018  0.10384007  1
  F  F27  1  0.42241638  0.42775875  0.68710226  1
  F  F28  1  0.57758362  0.57224125  0.31289774  1
  F  F29  1  0.59547997  0.69993982  0.89615993  1
  F  F30  1  0.60897424  0.24838577  0.47663506  1
  F  F31  1  0.57224125  0.92241638  0.18710226  1
  F  F32  1  0.74838577  0.39102576  0.97663506  1
  F  F33  1  0.69993982  0.90452003  0.60384007  1
  F  F34  1  0.80006018  0.59547997  0.60384007  1
  F  F35  1  0.75161423  0.10897424  0.97663506  1
  F  F36  1  0.92775875  0.57758362  0.18710226  1
  F  F37  1  0.89102576  0.25161423  0.47663506  1
  F  F38  1  0.90452003  0.80006018  0.89615993  1
  F  F39  1  0.92241638  0.92775875  0.31289774  1
