# generated using pymatgen
data_LiV3P5O19
_symmetry_space_group_name_H-M   'P 1'
_cell_length_a   8.50341004
_cell_length_b   8.50341004
_cell_length_c   6.35293541
_cell_angle_alpha   81.58504830
_cell_angle_beta   98.41495170
_cell_angle_gamma   66.05429075
_symmetry_Int_Tables_number   1
_chemical_formula_structural   LiV3P5O19
_chemical_formula_sum   'Li1 V3 P5 O19'
_cell_volume   404.41427675
_cell_formula_units_Z   1
loop_
 _symmetry_equiv_pos_site_id
 _symmetry_equiv_pos_as_xyz
  1  'x, y, z'
loop_
 _atom_site_type_symbol
 _atom_site_label
 _atom_site_symmetry_multiplicity
 _atom_site_fract_x
 _atom_site_fract_y
 _atom_site_fract_z
 _atom_site_occupancy
  Li  Li0  1  0.90419941  0.09580059  0.47137339  1
  V  V1  1  0.23474740  0.76525260  0.15566973  1
  V  V2  1  0.51159836  0.24417181  0.82077501  1
  V  V3  1  0.75582819  0.48840164  0.82077501  1
  P  P4  1  0.32741944  0.67258056  0.69570498  1
  P  P5  1  0.39226098  0.31522457  0.27213275  1
  P  P6  1  0.68477543  0.60773902  0.27213275  1
  P  P7  1  0.18663001  0.18384677  0.99972051  1
  P  P8  1  0.81615323  0.81336999  0.99972051  1
  O  O9  1  0.21982386  0.78017614  0.84507765  1
  O  O10  1  0.22176932  0.77823068  0.46126285  1
  O  O11  1  0.00198114  0.32239540  0.88478591  1
  O  O12  1  0.67760460  0.99801886  0.88478591  1
  O  O13  1  0.33207057  0.48653714  0.73800025  1
  O  O14  1  0.51346286  0.66792943  0.73800025  1
  O  O15  1  0.48353075  0.70837086  0.22170169  1
  O  O16  1  0.29162914  0.51646925  0.22170169  1
  O  O17  1  0.31737628  0.16378006  0.85630865  1
  O  O18  1  0.83621994  0.68262372  0.85630865  1
  O  O19  1  0.75314278  0.75585109  0.21460154  1
  O  O20  1  0.24414891  0.24685722  0.21460154  1
  O  O21  1  0.48065950  0.23217405  0.51086755  1
  O  O22  1  0.76782595  0.51934050  0.51086755  1
  O  O23  1  0.67987815  0.32012185  0.81025201  1
  O  O24  1  0.98611050  0.82390641  0.09870043  1
  O  O25  1  0.17609359  0.01388950  0.09870043  1
  O  O26  1  0.53147968  0.24754096  0.13696491  1
  O  O27  1  0.75245904  0.46852032  0.13696491  1
