# generated using pymatgen
data_Li2Co(Si2O5)2
_symmetry_space_group_name_H-M   'P 1'
_cell_length_a   6.94435217
_cell_length_b   9.98392125
_cell_length_c   13.64776591
_cell_angle_alpha   90.00000000
_cell_angle_beta   85.88517320
_cell_angle_gamma   90.00000000
_symmetry_Int_Tables_number   1
_chemical_formula_structural   Li2Co(Si2O5)2
_chemical_formula_sum   'Li8 Co4 Si16 O40'
_cell_volume   943.78593226
_cell_formula_units_Z   4
loop_
 _symmetry_equiv_pos_site_id
 _symmetry_equiv_pos_as_xyz
  1  'x, y, z'
loop_
 _atom_site_type_symbol
 _atom_site_label
 _atom_site_symmetry_multiplicity
 _atom_site_fract_x
 _atom_site_fract_y
 _atom_site_fract_z
 _atom_site_occupancy
  Li  Li0  1  0.11011584  0.64069308  0.91941514  1
  Li  Li1  1  0.19366322  0.40978816  0.26117576  1
  Li  Li2  1  0.30633678  0.90978816  0.23882424  1
  Li  Li3  1  0.38988416  0.14069308  0.58058486  1
  Li  Li4  1  0.61011584  0.85930692  0.41941514  1
  Li  Li5  1  0.69366322  0.09021184  0.76117576  1
  Li  Li6  1  0.80633678  0.59021184  0.73882424  1
  Li  Li7  1  0.88988416  0.35930692  0.08058486  1
  Co  Co8  1  0.04860570  0.63554620  0.16164096  1
  Co  Co9  1  0.45139430  0.13554620  0.33835904  1
  Co  Co10  1  0.54860570  0.86445380  0.66164096  1
  Co  Co11  1  0.95139430  0.36445380  0.83835904  1
  Si  Si12  1  0.98838008  0.77338015  0.36407218  1
  Si  Si13  1  0.99624992  0.05296159  0.33774602  1
  Si  Si14  1  0.24643655  0.47230412  0.66834053  1
  Si  Si15  1  0.25325881  0.23421947  0.95846384  1
  Si  Si16  1  0.24674119  0.73421947  0.54153616  1
  Si  Si17  1  0.25356345  0.97230412  0.83165947  1
  Si  Si18  1  0.48838008  0.72661985  0.86407218  1
  Si  Si19  1  0.49624992  0.44703841  0.83774602  1
  Si  Si20  1  0.50375008  0.55296159  0.16225398  1
  Si  Si21  1  0.51161992  0.27338015  0.13592782  1
  Si  Si22  1  0.74643655  0.02769588  0.16834053  1
  Si  Si23  1  0.75325881  0.26578053  0.45846384  1
  Si  Si24  1  0.74674119  0.76578053  0.04153616  1
  Si  Si25  1  0.75356345  0.52769588  0.33165947  1
  Si  Si26  1  0.00375008  0.94703841  0.66225398  1
  Si  Si27  1  0.01161992  0.22661985  0.63592782  1
  O  O28  1  0.05051859  0.94897480  0.77906812  1
  O  O29  1  0.08330109  0.80387397  0.61854825  1
  O  O30  1  0.05577919  0.32154041  0.96533485  1
  O  O31  1  0.06885297  0.51191107  0.74679363  1
  O  O32  1  0.11505086  0.07836822  0.60528846  1
  O  O33  1  0.08490607  0.78106277  0.25309554  1
  O  O34  1  0.20524602  0.32305540  0.61803155  1
  O  O35  1  0.21905102  0.08082455  0.92071323  1
  O  O36  1  0.15306809  0.72502301  0.43530724  1
  O  O37  1  0.28094898  0.58082455  0.57928677  1
  O  O38  1  0.29475398  0.82305540  0.88196845  1
  O  O39  1  0.27938313  0.52723762  0.15149575  1
  O  O40  1  0.22061687  0.02723762  0.34850425  1
  O  O41  1  0.34693191  0.22502301  0.06469276  1
  O  O42  1  0.38494914  0.57836822  0.89471154  1
  O  O43  1  0.43114703  0.01191107  0.75320637  1
  O  O44  1  0.44422081  0.82154041  0.53466515  1
  O  O45  1  0.41669891  0.30387397  0.88145175  1
  O  O46  1  0.44948141  0.44897480  0.72093188  1
  O  O47  1  0.41509393  0.28106277  0.24690446  1
  O  O48  1  0.58490607  0.71893723  0.75309554  1
  O  O49  1  0.55051859  0.55102520  0.27906812  1
  O  O50  1  0.58330109  0.69612603  0.11854825  1
  O  O51  1  0.55577919  0.17845959  0.46533485  1
  O  O52  1  0.56885297  0.98808893  0.24679363  1
  O  O53  1  0.61505086  0.42163178  0.10528846  1
  O  O54  1  0.65306809  0.77497699  0.93530724  1
  O  O55  1  0.77938313  0.97276238  0.65149575  1
  O  O56  1  0.72061687  0.47276238  0.84850425  1
  O  O57  1  0.70524602  0.17694460  0.11803155  1
  O  O58  1  0.71905102  0.41917545  0.42071323  1
  O  O59  1  0.84693191  0.27497699  0.56469276  1
  O  O60  1  0.78094898  0.91917545  0.07928677  1
  O  O61  1  0.79475398  0.67694460  0.38196845  1
  O  O62  1  0.91509393  0.21893723  0.74690446  1
  O  O63  1  0.88494914  0.92163178  0.39471154  1
  O  O64  1  0.93114703  0.48808893  0.25320637  1
  O  O65  1  0.94422081  0.67845959  0.03466515  1
  O  O66  1  0.91669891  0.19612603  0.38145175  1
  O  O67  1  0.94948141  0.05102520  0.22093188  1
