# generated using pymatgen
data_Li5MnO3F
_symmetry_space_group_name_H-M   'P 1'
_cell_length_a   6.71295640
_cell_length_b   6.70323483
_cell_length_c   4.75085929
_cell_angle_alpha   90.31210133
_cell_angle_beta   89.71492050
_cell_angle_gamma   90.16175172
_symmetry_Int_Tables_number   1
_chemical_formula_structural   Li5MnO3F
_chemical_formula_sum   'Li10 Mn2 O6 F2'
_cell_volume   213.77499840
_cell_formula_units_Z   2
loop_
 _symmetry_equiv_pos_site_id
 _symmetry_equiv_pos_as_xyz
  1  'x, y, z'
loop_
 _atom_site_type_symbol
 _atom_site_label
 _atom_site_symmetry_multiplicity
 _atom_site_fract_x
 _atom_site_fract_y
 _atom_site_fract_z
 _atom_site_occupancy
  Li  Li0  1  0.24749127  0.69554710  0.95703533  1
  Li  Li1  1  0.97859075  0.45854775  0.03325648  1
  Li  Li2  1  0.97718582  0.49244154  0.54192680  1
  Li  Li3  1  0.20206750  0.18409480  0.55850476  1
  Li  Li4  1  0.70066729  0.69718091  0.01759334  1
  Li  Li5  1  0.77252212  0.77032786  0.51514045  1
  Li  Li6  1  0.47217424  0.95328066  0.46532671  1
  Li  Li7  1  0.47824404  0.99194212  0.95693181  1
  Li  Li8  1  0.67686297  0.27844612  0.97993628  1
  Li  Li9  1  0.74857926  0.19709008  0.48028270  1
  Mn  Mn10  1  0.96306178  0.98796777  0.98073443  1
  Mn  Mn11  1  0.48275661  0.48605276  0.51859847  1
  O  O12  1  0.97118579  0.70798000  0.81158233  1
  O  O13  1  0.49257150  0.74258856  0.74261573  1
  O  O14  1  0.95664280  0.24410203  0.75784353  1
  O  O15  1  0.74275695  0.47654588  0.28028189  1
  O  O16  1  0.47814694  0.20607702  0.68738434  1
  O  O17  1  0.70710322  0.97380375  0.22152806  1
  F  F18  1  0.20480913  0.48266771  0.27550672  1
  F  F19  1  0.24657902  0.97331758  0.21798985  1
