# generated using pymatgen
data_Li2V5(PO4)4
_symmetry_space_group_name_H-M   'P 1'
_cell_length_a   8.18965652
_cell_length_b   8.30205397
_cell_length_c   5.29147084
_cell_angle_alpha   92.09123476
_cell_angle_beta   101.33724576
_cell_angle_gamma   110.87704190
_symmetry_Int_Tables_number   1
_chemical_formula_structural   Li2V5(PO4)4
_chemical_formula_sum   'Li2 V5 P4 O16'
_cell_volume   327.35626920
_cell_formula_units_Z   1
loop_
 _symmetry_equiv_pos_site_id
 _symmetry_equiv_pos_as_xyz
  1  'x, y, z'
loop_
 _atom_site_type_symbol
 _atom_site_label
 _atom_site_symmetry_multiplicity
 _atom_site_fract_x
 _atom_site_fract_y
 _atom_site_fract_z
 _atom_site_occupancy
  Li  Li0  1  0.05904197  0.29471810  0.60794593  1
  Li  Li1  1  0.94095803  0.70528190  0.39205407  1
  V  V2  1  0.25008915  0.77299913  0.09218994  1
  V  V3  1  0.00000000  0.00000000  0.00000000  1
  V  V4  1  0.41282343  0.67844216  0.64693588  1
  V  V5  1  0.58717657  0.32155784  0.35306412  1
  V  V6  1  0.74991085  0.22700087  0.90781006  1
  P  P7  1  0.20644776  0.42982745  0.14278902  1
  P  P8  1  0.29386537  0.03486323  0.61254930  1
  P  P9  1  0.70613463  0.96513677  0.38745070  1
  P  P10  1  0.79355224  0.57017255  0.85721098  1
  O  O11  1  0.21096081  0.97172308  0.31614072  1
  O  O12  1  0.30846799  0.87330605  0.74483643  1
  O  O13  1  0.02820915  0.26755583  0.08338874  1
  O  O14  1  0.23295021  0.51897024  0.89045083  1
  O  O15  1  0.17914872  0.56367268  0.33666827  1
  O  O16  1  0.17115246  0.10560576  0.72911040  1
  O  O17  1  0.51381804  0.82570500  0.34826827  1
  O  O18  1  0.36142698  0.38156005  0.26966798  1
  O  O19  1  0.63857302  0.61843995  0.73033202  1
  O  O20  1  0.48618196  0.17429500  0.65173173  1
  O  O21  1  0.82884754  0.89439424  0.27088960  1
  O  O22  1  0.82085128  0.43632732  0.66333173  1
  O  O23  1  0.76704979  0.48102976  0.10954917  1
  O  O24  1  0.97179085  0.73244417  0.91661126  1
  O  O25  1  0.69153201  0.12669395  0.25516357  1
  O  O26  1  0.78903919  0.02827692  0.68385928  1
