# generated using pymatgen
data_LiFe2(CO3)4
_symmetry_space_group_name_H-M   'P 1'
_cell_length_a   7.35465791
_cell_length_b   9.67565474
_cell_length_c   8.50575589
_cell_angle_alpha   90.00000000
_cell_angle_beta   71.29769940
_cell_angle_gamma   90.00000000
_symmetry_Int_Tables_number   1
_chemical_formula_structural   LiFe2(CO3)4
_chemical_formula_sum   'Li2 Fe4 C8 O24'
_cell_volume   573.31889247
_cell_formula_units_Z   2
loop_
 _symmetry_equiv_pos_site_id
 _symmetry_equiv_pos_as_xyz
  1  'x, y, z'
loop_
 _atom_site_type_symbol
 _atom_site_label
 _atom_site_symmetry_multiplicity
 _atom_site_fract_x
 _atom_site_fract_y
 _atom_site_fract_z
 _atom_site_occupancy
  Li  Li0  1  0.00582678  0.91385682  0.35605262  1
  Li  Li1  1  0.49417322  0.41385682  0.14394738  1
  Fe  Fe2  1  0.03986757  0.34573510  0.43424694  1
  Fe  Fe3  1  0.46013243  0.84573510  0.06575306  1
  Fe  Fe4  1  0.56951123  0.14974135  0.92046784  1
  Fe  Fe5  1  0.93048877  0.64974135  0.57953216  1
  C  C6  1  0.26611849  0.11501871  0.24983146  1
  C  C7  1  0.23388151  0.61501871  0.25016854  1
  C  C8  1  0.25512606  0.48540438  0.63328919  1
  C  C9  1  0.24487494  0.98540438  0.86671081  1
  C  C10  1  0.76320270  0.99681088  0.14073940  1
  C  C11  1  0.73679730  0.49681088  0.35926060  1
  C  C12  1  0.75019532  0.40180781  0.77070074  1
  C  C13  1  0.74980468  0.90180781  0.72929926  1
  O  O14  1  0.12240787  0.15848387  0.37322598  1
  O  O15  1  0.21601474  0.48207212  0.26694942  1
  O  O16  1  0.11942695  0.70133373  0.34867558  1
  O  O17  1  0.38057305  0.20133373  0.15132442  1
  O  O18  1  0.28398526  0.98207212  0.23305058  1
  O  O19  1  0.11573341  0.97666763  0.79881756  1
  O  O20  1  0.37759213  0.65848387  0.12677402  1
  O  O21  1  0.16460243  0.60093816  0.63607633  1
  O  O22  1  0.21856587  0.37477060  0.56211078  1
  O  O23  1  0.28143413  0.87477060  0.93788922  1
  O  O24  1  0.33539757  0.10093816  0.86392367  1
  O  O25  1  0.61293241  0.50814808  0.28827447  1
  O  O26  1  0.38426659  0.47666763  0.70118244  1
  O  O27  1  0.65500946  0.88553375  0.16429002  1
  O  O28  1  0.73888301  0.09443406  0.04240204  1
  O  O29  1  0.76111699  0.59443406  0.45759796  1
  O  O30  1  0.84499054  0.38553375  0.33570998  1
  O  O31  1  0.62506061  0.34828722  0.90325161  1
  O  O32  1  0.88706759  0.00814808  0.21172553  1
  O  O33  1  0.71468269  0.03115205  0.72991674  1
  O  O34  1  0.66863530  0.81908668  0.85002685  1
  O  O35  1  0.83136470  0.31908668  0.64997315  1
  O  O36  1  0.78531731  0.53115205  0.77008326  1
  O  O37  1  0.87493939  0.84828722  0.59674839  1
