# generated using pymatgen
data_LiCoSiO4
_symmetry_space_group_name_H-M   'P 1'
_cell_length_a   8.51249869
_cell_length_b   8.51249869
_cell_length_c   8.51249889
_cell_angle_alpha   107.18574627
_cell_angle_beta   107.18574626
_cell_angle_gamma   107.18575363
_symmetry_Int_Tables_number   1
_chemical_formula_structural   LiCoSiO4
_chemical_formula_sum   'Li6 Co6 Si6 O24'
_cell_volume   511.08335485
_cell_formula_units_Z   6
loop_
 _symmetry_equiv_pos_site_id
 _symmetry_equiv_pos_as_xyz
  1  'x, y, z'
loop_
 _atom_site_type_symbol
 _atom_site_label
 _atom_site_symmetry_multiplicity
 _atom_site_fract_x
 _atom_site_fract_y
 _atom_site_fract_z
 _atom_site_occupancy
  Li  Li0  1  0.05477093  0.45605659  0.22838430  1
  Li  Li1  1  0.54394341  0.77161570  0.94522907  1
  Li  Li2  1  0.77161570  0.94522907  0.54394341  1
  Li  Li3  1  0.22838430  0.05477093  0.45605659  1
  Li  Li4  1  0.45605659  0.22838430  0.05477093  1
  Li  Li5  1  0.94522907  0.54394341  0.77161570  1
  Co  Co6  1  0.39561517  0.80053965  0.56841084  1
  Co  Co7  1  0.19946035  0.43158916  0.60438483  1
  Co  Co8  1  0.43158916  0.60438483  0.19946035  1
  Co  Co9  1  0.56841084  0.39561517  0.80053965  1
  Co  Co10  1  0.80053965  0.56841084  0.39561517  1
  Co  Co11  1  0.60438483  0.19946035  0.43158916  1
  Si  Si12  1  0.13301644  0.90476884  0.73043846  1
  Si  Si13  1  0.26956154  0.86698356  0.09523116  1
  Si  Si14  1  0.09523116  0.26956154  0.86698356  1
  Si  Si15  1  0.90476884  0.73043846  0.13301644  1
  Si  Si16  1  0.73043846  0.13301644  0.90476884  1
  Si  Si17  1  0.86698356  0.09523116  0.26956154  1
  O  O18  1  0.26275997  0.96049662  0.94656821  1
  O  O19  1  0.05343179  0.73724003  0.03950338  1
  O  O20  1  0.25114415  0.92845374  0.61379346  1
  O  O21  1  0.38620654  0.74885585  0.07154626  1
  O  O22  1  0.64137272  0.97309088  0.70048549  1
  O  O23  1  0.29839168  0.63766356  0.34142033  1
  O  O24  1  0.07154626  0.38620654  0.74885585  1
  O  O25  1  0.36233644  0.65857967  0.70160832  1
  O  O26  1  0.02690912  0.29951451  0.35862728  1
  O  O27  1  0.29951451  0.35862728  0.02690912  1
  O  O28  1  0.65857967  0.70160832  0.36233644  1
  O  O29  1  0.03950338  0.05343179  0.73724003  1
  O  O30  1  0.96049662  0.94656821  0.26275997  1
  O  O31  1  0.34142033  0.29839168  0.63766356  1
  O  O32  1  0.70048549  0.64137272  0.97309088  1
  O  O33  1  0.97309088  0.70048549  0.64137272  1
  O  O34  1  0.63766356  0.34142033  0.29839168  1
  O  O35  1  0.92845374  0.61379346  0.25114415  1
  O  O36  1  0.70160832  0.36233644  0.65857967  1
  O  O37  1  0.35862728  0.02690912  0.29951451  1
  O  O38  1  0.61379346  0.25114415  0.92845374  1
  O  O39  1  0.74885585  0.07154626  0.38620654  1
  O  O40  1  0.94656821  0.26275997  0.96049662  1
  O  O41  1  0.73724003  0.03950338  0.05343179  1
