# generated using pymatgen
data_LiP3W2O13
_symmetry_space_group_name_H-M   'P 1'
_cell_length_a   6.48898516
_cell_length_b   19.04374267
_cell_length_c   9.82190537
_cell_angle_alpha   90.00000000
_cell_angle_beta   107.12430074
_cell_angle_gamma   90.00000000
_symmetry_Int_Tables_number   1
_chemical_formula_structural   LiP3W2O13
_chemical_formula_sum   'Li4 P12 W8 O52'
_cell_volume   1159.93051632
_cell_formula_units_Z   4
loop_
 _symmetry_equiv_pos_site_id
 _symmetry_equiv_pos_as_xyz
  1  'x, y, z'
loop_
 _atom_site_type_symbol
 _atom_site_label
 _atom_site_symmetry_multiplicity
 _atom_site_fract_x
 _atom_site_fract_y
 _atom_site_fract_z
 _atom_site_occupancy
  Li  Li0  1  0.18480061  0.92511088  0.61993333  1
  Li  Li1  1  0.23438691  0.15466818  0.02995406  1
  Li  Li2  1  0.76561309  0.65466818  0.97004594  1
  Li  Li3  1  0.81519939  0.42511088  0.38006667  1
  P  P4  1  0.09173711  0.33179699  0.96463795  1
  P  P5  1  0.02006864  0.06714689  0.29296237  1
  P  P6  1  0.24433977  0.69257718  0.70265194  1
  P  P7  1  0.25700032  0.62726016  0.30873417  1
  P  P8  1  0.59100760  0.48790209  0.97255479  1
  P  P9  1  0.47928435  0.25247816  0.69679283  1
  P  P10  1  0.52071565  0.75247816  0.30320717  1
  P  P11  1  0.40899240  0.98790209  0.02744521  1
  P  P12  1  0.74299968  0.12726016  0.69126583  1
  P  P13  1  0.75566023  0.19257718  0.29734806  1
  P  P14  1  0.97993136  0.56714689  0.70703763  1
  P  P15  1  0.90826289  0.83179699  0.03536205  1
  W  W16  1  0.06683710  0.78682906  0.39301674  1
  W  W17  1  0.37036599  0.81994924  0.94378475  1
  W  W18  1  0.13214399  0.49724029  0.07361809  1
  W  W19  1  0.43767728  0.53234205  0.62030273  1
  W  W20  1  0.56232272  0.03234205  0.37969727  1
  W  W21  1  0.86785601  0.99724029  0.92638191  1
  W  W22  1  0.62963401  0.31994924  0.05621525  1
  W  W23  1  0.93316290  0.28682906  0.60698326  1
  O  O24  1  0.06434889  0.80586089  0.95433157  1
  O  O25  1  0.02218242  0.55197371  0.86542323  1
  O  O26  1  0.08267622  0.41136284  0.93918139  1
  O  O27  1  0.04004868  0.29377295  0.82069253  1
  O  O28  1  0.02612838  0.65072598  0.69884075  1
  O  O29  1  0.18443871  0.01120648  0.93150402  1
  O  O30  1  0.12119524  0.52887048  0.63073702  1
  O  O31  1  0.07532682  0.87525325  0.44840955  1
  O  O32  1  0.16937656  0.75353289  0.60136818  1
  O  O33  1  0.29819902  0.87220968  0.78804460  1
  O  O34  1  0.34273374  0.71950176  0.85652248  1
  O  O35  1  0.10310865  0.67816494  0.34904535  1
  O  O36  1  0.24238301  0.26058028  0.61228381  1
  O  O37  1  0.25562322  0.05937026  0.38242640  1
  O  O38  1  0.15349994  0.59993677  0.15570376  1
  O  O39  1  0.40312033  0.64339950  0.66427457  1
  O  O40  1  0.19659085  0.44735015  0.22916363  1
  O  O41  1  0.56368603  0.00810800  0.94140590  1
  O  O42  1  0.32989406  0.56633090  0.41093123  1
  O  O43  1  0.52867291  0.27006515  0.85496224  1
  O  O44  1  0.54368096  0.53489564  0.83868615  1
  O  O45  1  0.57899825  0.40977968  0.93007419  1
  O  O46  1  0.45009667  0.44300633  0.58779346  1
  O  O47  1  0.37896656  0.78955287  0.37972793  1
  O  O48  1  0.52544962  0.16876604  0.69155143  1
  O  O49  1  0.68442540  0.80455040  0.94520385  1
  O  O50  1  0.31557460  0.30455040  0.05479615  1
  O  O51  1  0.47455038  0.66876604  0.30844857  1
  O  O52  1  0.62103344  0.28955287  0.62027207  1
  O  O53  1  0.54990333  0.94300633  0.41220654  1
  O  O54  1  0.42100175  0.90977968  0.06992581  1
  O  O55  1  0.45631904  0.03489564  0.16131385  1
  O  O56  1  0.47132709  0.77006515  0.14503776  1
  O  O57  1  0.67010594  0.06633090  0.58906877  1
  O  O58  1  0.43631397  0.50810800  0.05859410  1
  O  O59  1  0.80340915  0.94735015  0.77083637  1
  O  O60  1  0.59687967  0.14339950  0.33572543  1
  O  O61  1  0.84650006  0.09993677  0.84429624  1
  O  O62  1  0.74437678  0.55937026  0.61757360  1
  O  O63  1  0.75761699  0.76058028  0.38771619  1
  O  O64  1  0.89689135  0.17816494  0.65095465  1
  O  O65  1  0.65726626  0.21950176  0.14347752  1
  O  O66  1  0.70180098  0.37220968  0.21195540  1
  O  O67  1  0.83062344  0.25353289  0.39863182  1
  O  O68  1  0.92467318  0.37525325  0.55159045  1
  O  O69  1  0.87880476  0.02887048  0.36926298  1
  O  O70  1  0.81556129  0.51120648  0.06849598  1
  O  O71  1  0.97387162  0.15072598  0.30115925  1
  O  O72  1  0.95995132  0.79377295  0.17930747  1
  O  O73  1  0.91732378  0.91136284  0.06081861  1
  O  O74  1  0.97781758  0.05197371  0.13457677  1
  O  O75  1  0.93565111  0.30586089  0.04566843  1
