# generated using pymatgen
data_Li3Ti2(NiO4)2
_symmetry_space_group_name_H-M   'P 1'
_cell_length_a   5.93477301
_cell_length_b   5.94330024
_cell_length_c   5.94761016
_cell_angle_alpha   120.83333968
_cell_angle_beta   59.13009376
_cell_angle_gamma   91.23384901
_symmetry_Int_Tables_number   1
_chemical_formula_structural   Li3Ti2(NiO4)2
_chemical_formula_sum   'Li3 Ti2 Ni2 O8'
_cell_volume   146.08325041
_cell_formula_units_Z   1
loop_
 _symmetry_equiv_pos_site_id
 _symmetry_equiv_pos_as_xyz
  1  'x, y, z'
loop_
 _atom_site_type_symbol
 _atom_site_label
 _atom_site_symmetry_multiplicity
 _atom_site_fract_x
 _atom_site_fract_y
 _atom_site_fract_z
 _atom_site_occupancy
  Li  Li0  1  0.50000000  0.00000000  0.00000000  1
  Li  Li1  1  0.50000000  0.50000000  0.00000000  1
  Li  Li2  1  0.50000000  0.50000000  0.50000000  1
  Ti  Ti3  1  0.00000000  0.00000000  0.00000000  1
  Ti  Ti4  1  0.50000000  0.00000000  0.50000000  1
  Ni  Ni5  1  0.00000000  0.50000000  0.00000000  1
  Ni  Ni6  1  0.00000000  0.00000000  0.50000000  1
  O  O7  1  0.22459479  0.76322629  0.00736327  1
  O  O8  1  0.24815611  0.23419462  0.52383042  1
  O  O9  1  0.25568853  0.77406730  0.52233636  1
  O  O10  1  0.25567368  0.22181050  0.97129579  1
  O  O11  1  0.74432632  0.77818950  0.02870421  1
  O  O12  1  0.74431147  0.22593270  0.47766364  1
  O  O13  1  0.75184389  0.76580538  0.47616958  1
  O  O14  1  0.77540521  0.23677371  0.99263673  1
