# generated using pymatgen
data_LiFeP2O7
_symmetry_space_group_name_H-M   'P 1'
_cell_length_a   5.15328251
_cell_length_b   8.59470297
_cell_length_c   6.81848794
_cell_angle_alpha   90.00000000
_cell_angle_beta   109.06731670
_cell_angle_gamma   90.00000000
_symmetry_Int_Tables_number   1
_chemical_formula_structural   LiFeP2O7
_chemical_formula_sum   'Li2 Fe2 P4 O14'
_cell_volume   285.42823853
_cell_formula_units_Z   2
loop_
 _symmetry_equiv_pos_site_id
 _symmetry_equiv_pos_as_xyz
  1  'x, y, z'
loop_
 _atom_site_type_symbol
 _atom_site_label
 _atom_site_symmetry_multiplicity
 _atom_site_fract_x
 _atom_site_fract_y
 _atom_site_fract_z
 _atom_site_occupancy
  Li  Li0  1  0.26192062  0.48301834  0.80237204  1
  Li  Li1  1  0.73807938  0.98301834  0.19762796  1
  Fe  Fe2  1  0.19418352  0.84467152  0.67140175  1
  Fe  Fe3  1  0.80581648  0.34467152  0.32859725  1
  P  P4  1  0.39128046  0.18733697  0.54185149  1
  P  P5  1  0.18081870  0.79087881  0.05030521  1
  P  P6  1  0.81918130  0.29087881  0.94969479  1
  P  P7  1  0.60871954  0.68733697  0.45814851  1
  O  O8  1  0.03530273  0.33076192  0.85968346  1
  O  O9  1  0.10377056  0.67915975  0.86058417  1
  O  O10  1  0.25134847  0.02898432  0.52611993  1
  O  O11  1  0.19431703  0.32787831  0.50102311  1
  O  O12  1  0.42387592  0.69250551  0.59586222  1
  O  O13  1  0.68258415  0.42870834  0.03338310  1
  O  O14  1  0.57227805  0.19888720  0.78001781  1
  O  O15  1  0.42772195  0.69888720  0.21998219  1
  O  O16  1  0.31741585  0.92870834  0.96661690  1
  O  O17  1  0.57612408  0.19250551  0.40413778  1
  O  O18  1  0.80568297  0.82787831  0.49897689  1
  O  O19  1  0.74865153  0.52898432  0.47388007  1
  O  O20  1  0.89622944  0.17915975  0.13941583  1
  O  O21  1  0.96469727  0.83076192  0.14031654  1
