# generated using pymatgen
data_Li6Ti3V(PO4)6
_symmetry_space_group_name_H-M   'P 1'
_cell_length_a   8.54161870
_cell_length_b   8.59009324
_cell_length_c   8.59352207
_cell_angle_alpha   62.63508490
_cell_angle_beta   62.80443486
_cell_angle_gamma   62.75838342
_symmetry_Int_Tables_number   1
_chemical_formula_structural   Li6Ti3V(PO4)6
_chemical_formula_sum   'Li6 Ti3 V1 P6 O24'
_cell_volume   472.95741472
_cell_formula_units_Z   1
loop_
 _symmetry_equiv_pos_site_id
 _symmetry_equiv_pos_as_xyz
  1  'x, y, z'
loop_
 _atom_site_type_symbol
 _atom_site_label
 _atom_site_symmetry_multiplicity
 _atom_site_fract_x
 _atom_site_fract_y
 _atom_site_fract_z
 _atom_site_occupancy
  Li  Li0  1  0.02533570  0.00247333  0.99420141  1
  Li  Li1  1  0.75459086  0.14672374  0.34692228  1
  Li  Li2  1  0.47192562  0.50601149  0.49630881  1
  Li  Li3  1  0.22989981  0.83796500  0.65838509  1
  Li  Li4  1  0.66138641  0.23091197  0.83624122  1
  Li  Li5  1  0.83526012  0.66115254  0.23072707  1
  Ti  Ti6  1  0.14611692  0.14553654  0.13701909  1
  Ti  Ti7  1  0.35373410  0.36149129  0.35385593  1
  Ti  Ti8  1  0.64745298  0.64935809  0.64947920  1
  V  V9  1  0.85585947  0.85418485  0.85417083  1
  P  P10  1  0.05435673  0.75335035  0.44744786  1
  P  P11  1  0.44873424  0.05649102  0.74984171  1
  P  P12  1  0.75157743  0.45051404  0.05341252  1
  P  P13  1  0.25329023  0.54219812  0.95517509  1
  P  P14  1  0.54392688  0.95883837  0.25300390  1
  P  P15  1  0.95319883  0.25304409  0.53884349  1
  O  O16  1  0.11981802  0.31172372  0.48873135  1
  O  O17  1  0.32100959  0.49764021  0.11294334  1
  O  O18  1  0.05103133  0.92021899  0.26553436  1
  O  O19  1  0.51864538  0.11606256  0.31186708  1
  O  O20  1  0.24177296  0.59747775  0.41518668  1
  O  O21  1  0.03683349  0.80394084  0.60520694  1
  O  O22  1  0.26018739  0.07198897  0.90666891  1
  O  O23  1  0.43371997  0.23932980  0.58428200  1
  O  O24  1  0.59758987  0.41860940  0.24553061  1
  O  O25  1  0.19300681  0.38158890  0.99207490  1
  O  O26  1  0.09684171  0.73055234  0.94020189  1
  O  O27  1  0.37471500  0.00226695  0.20102755  1
  O  O28  1  0.60731989  0.03418471  0.80401369  1
  O  O29  1  0.90506820  0.25700847  0.07271976  1
  O  O30  1  0.80718734  0.60555243  0.03296230  1
  O  O31  1  0.40972776  0.56378021  0.76424173  1
  O  O32  1  0.56098581  0.76937079  0.41155977  1
  O  O33  1  0.72979782  0.93749557  0.09430970  1
  O  O34  1  0.97321973  0.19973452  0.37973436  1
  O  O35  1  0.76539762  0.41234532  0.56592173  1
  O  O36  1  0.48703282  0.89000234  0.69472022  1
  O  O37  1  0.94176689  0.09513408  0.72594404  1
  O  O38  1  0.69326656  0.48780837  0.89057174  1
  O  O39  1  0.88741671  0.69494089  0.49001486  1
