# generated using pymatgen
data_LiV(PO3)4
_symmetry_space_group_name_H-M   'P 1'
_cell_length_a   7.50825342
_cell_length_b   8.58601702
_cell_length_c   14.45109669
_cell_angle_alpha   90.00000000
_cell_angle_beta   95.82085374
_cell_angle_gamma   90.00000000
_symmetry_Int_Tables_number   1
_chemical_formula_structural   LiV(PO3)4
_chemical_formula_sum   'Li4 V4 P16 O48'
_cell_volume   926.80079869
_cell_formula_units_Z   4
loop_
 _symmetry_equiv_pos_site_id
 _symmetry_equiv_pos_as_xyz
  1  'x, y, z'
loop_
 _atom_site_type_symbol
 _atom_site_label
 _atom_site_symmetry_multiplicity
 _atom_site_fract_x
 _atom_site_fract_y
 _atom_site_fract_z
 _atom_site_occupancy
  Li  Li0  1  0.06093131  0.58536680  0.92562782  1
  Li  Li1  1  0.43906869  0.08536680  0.57437218  1
  Li  Li2  1  0.56093131  0.91463320  0.42562782  1
  Li  Li3  1  0.93906869  0.41463320  0.07437218  1
  V  V4  1  0.04007706  0.65884513  0.35201512  1
  V  V5  1  0.54007706  0.84115487  0.85201512  1
  V  V6  1  0.45992294  0.15884513  0.14798488  1
  V  V7  1  0.95992294  0.34115487  0.64798488  1
  P  P8  1  0.06580708  0.27762718  0.43112171  1
  P  P9  1  0.13771778  0.04751115  0.78331755  1
  P  P10  1  0.18845738  0.23240193  0.95563683  1
  P  P11  1  0.20587016  0.03259441  0.30924671  1
  P  P12  1  0.31154262  0.73240193  0.54436317  1
  P  P13  1  0.36228222  0.54751115  0.71668245  1
  P  P14  1  0.29412984  0.53259441  0.19075329  1
  P  P15  1  0.56580708  0.22237282  0.93112171  1
  P  P16  1  0.43419292  0.77762718  0.06887829  1
  P  P17  1  0.70587016  0.46740559  0.80924671  1
  P  P18  1  0.63771778  0.45248885  0.28331755  1
  P  P19  1  0.68845738  0.26759807  0.45563683  1
  P  P20  1  0.79412984  0.96740559  0.69075329  1
  P  P21  1  0.81154262  0.76759807  0.04436317  1
  P  P22  1  0.86228222  0.95248885  0.21668245  1
  P  P23  1  0.93419292  0.72237282  0.56887829  1
  O  O24  1  0.07388659  0.37322609  0.96668208  1
  O  O25  1  0.08172391  0.12290502  0.87865044  1
  O  O26  1  0.03061084  0.06955752  0.23803865  1
  O  O27  1  0.10493326  0.29025746  0.53526295  1
  O  O28  1  0.13352318  0.16459062  0.70539821  1
  O  O29  1  0.13878745  0.78500305  0.59433026  1
  O  O30  1  0.10244011  0.41157425  0.37011734  1
  O  O31  1  0.19475010  0.45605910  0.69856668  1
  O  O32  1  0.16917983  0.12395023  0.40354630  1
  O  O33  1  0.13586860  0.60888419  0.22726901  1
  O  O34  1  0.30524990  0.95605910  0.80143332  1
  O  O35  1  0.22209442  0.86379321  0.33594512  1
  O  O36  1  0.25420948  0.63879745  0.45869094  1
  O  O37  1  0.36121255  0.28500305  0.90566974  1
  O  O38  1  0.36647682  0.66459062  0.79460179  1
  O  O39  1  0.39506674  0.79025746  0.96473705  1
  O  O40  1  0.24579052  0.13879745  0.04130906  1
  O  O41  1  0.27790558  0.36379321  0.16405488  1
  O  O42  1  0.41827609  0.62290502  0.62134956  1
  O  O43  1  0.36413140  0.10888419  0.27273099  1
  O  O44  1  0.42611341  0.87322609  0.53331792  1
  O  O45  1  0.33082017  0.62395023  0.09645370  1
  O  O46  1  0.53061084  0.43044248  0.73803865  1
  O  O47  1  0.39755989  0.91157425  0.12988266  1
  O  O48  1  0.60244011  0.08842575  0.87011734  1
  O  O49  1  0.46938916  0.56955752  0.26196135  1
  O  O50  1  0.66917983  0.37604977  0.90354630  1
  O  O51  1  0.57388659  0.12677391  0.46668208  1
  O  O52  1  0.63586860  0.89111581  0.72726901  1
  O  O53  1  0.58172391  0.37709498  0.37865044  1
  O  O54  1  0.72209442  0.63620679  0.83594512  1
  O  O55  1  0.75420948  0.86120255  0.95869094  1
  O  O56  1  0.60493326  0.20974254  0.03526295  1
  O  O57  1  0.63352318  0.33540938  0.20539821  1
  O  O58  1  0.63878745  0.71499695  0.09433026  1
  O  O59  1  0.74579052  0.36120255  0.54130906  1
  O  O60  1  0.77790558  0.13620679  0.66405488  1
  O  O61  1  0.69475010  0.04394090  0.19856668  1
  O  O62  1  0.86413140  0.39111581  0.77273099  1
  O  O63  1  0.83082017  0.87604977  0.59645370  1
  O  O64  1  0.80524990  0.54394090  0.30143332  1
  O  O65  1  0.89755989  0.58842575  0.62988266  1
  O  O66  1  0.86121255  0.21499695  0.40566974  1
  O  O67  1  0.86647682  0.83540938  0.29460179  1
  O  O68  1  0.89506674  0.70974254  0.46473705  1
  O  O69  1  0.96938916  0.93044248  0.76196135  1
  O  O70  1  0.91827609  0.87709498  0.12134956  1
  O  O71  1  0.92611341  0.62677391  0.03331792  1
