# generated using pymatgen
data_Li2Mn3OF6
_symmetry_space_group_name_H-M   'P 1'
_cell_length_a   5.16104862
_cell_length_b   10.83290554
_cell_length_c   12.27392902
_cell_angle_alpha   63.46351434
_cell_angle_beta   76.63656184
_cell_angle_gamma   90.05245702
_symmetry_Int_Tables_number   1
_chemical_formula_structural   Li2Mn3OF6
_chemical_formula_sum   'Li8 Mn12 O4 F24'
_cell_volume   593.01473270
_cell_formula_units_Z   4
loop_
 _symmetry_equiv_pos_site_id
 _symmetry_equiv_pos_as_xyz
  1  'x, y, z'
loop_
 _atom_site_type_symbol
 _atom_site_label
 _atom_site_symmetry_multiplicity
 _atom_site_fract_x
 _atom_site_fract_y
 _atom_site_fract_z
 _atom_site_occupancy
  Li  Li0  1  0.02023428  0.25404671  0.99580328  1
  Li  Li1  1  0.96348021  0.31547185  0.20969210  1
  Li  Li2  1  0.67119680  0.01579378  0.79946478  1
  Li  Li3  1  0.68291178  0.35155666  0.49401195  1
  Li  Li4  1  0.47591778  0.74578670  0.00292337  1
  Li  Li5  1  0.33204882  0.81117159  0.20825183  1
  Li  Li6  1  0.05025811  0.51729042  0.77974753  1
  Li  Li7  1  0.29686931  0.85007971  0.50086625  1
  Mn  Mn8  1  0.41701853  0.12900744  0.19847532  1
  Mn  Mn9  1  0.80258418  0.01400237  0.52080263  1
  Mn  Mn10  1  0.51201420  0.50531677  0.97079821  1
  Mn  Mn11  1  0.17650763  0.15914132  0.65235191  1
  Mn  Mn12  1  0.35172932  0.35346836  0.33380298  1
  Mn  Mn13  1  0.83622935  0.61799998  0.21902640  1
  Mn  Mn14  1  0.62908725  0.33661020  0.77854927  1
  Mn  Mn15  1  0.22633886  0.52460592  0.49947871  1
  Mn  Mn16  1  0.01736006  0.99256780  0.99286790  1
  Mn  Mn17  1  0.82919234  0.84404675  0.34661870  1
  Mn  Mn18  1  0.71325151  0.67305096  0.63493770  1
  Mn  Mn19  1  0.09496015  0.83115169  0.78843754  1
  O  O20  1  0.93557182  0.99980472  0.66948628  1
  O  O21  1  0.53410631  0.49055439  0.37098741  1
  O  O22  1  0.91905873  0.50347316  0.65005653  1
  O  O23  1  0.94227881  0.85132073  0.49167752  1
  F  F24  1  0.75781773  0.09755630  0.07909561  1
  F  F25  1  0.22957365  0.31186771  0.07694384  1
  F  F26  1  0.09829629  0.17783564  0.34038234  1
  F  F27  1  0.61664010  0.29682987  0.20386974  1
  F  F28  1  0.53144785  0.17999703  0.49748781  1
  F  F29  1  0.10335597  0.47123235  0.21310670  1
  F  F30  1  0.85470747  0.16670850  0.80315502  1
  F  F31  1  0.03477849  0.32638276  0.50259815  1
  F  F32  1  0.65518816  0.58940080  0.07845738  1
  F  F33  1  0.28756029  0.17948998  0.92005930  1
  F  F34  1  0.42952824  0.32131883  0.64605435  1
  F  F35  1  0.18610708  0.80047913  0.08483105  1
  F  F36  1  0.79014458  0.38035926  0.92430502  1
  F  F37  1  0.06229674  0.67170146  0.34230254  1
  F  F38  1  0.68876681  0.80972692  0.20707790  1
  F  F39  1  0.39471883  0.50071574  0.80375936  1
  F  F40  1  0.47448783  0.69134467  0.49699468  1
  F  F41  1  0.17675532  0.97443338  0.19608620  1
  F  F42  1  0.85087340  0.66103551  0.80214339  1
  F  F43  1  0.29707409  0.68070128  0.91803180  1
  F  F44  1  0.54730256  0.98935679  0.35493983  1
  F  F45  1  0.42328397  0.83670990  0.64129858  1
  F  F46  1  0.77530839  0.87874951  0.94045795  1
  F  F47  1  0.30377700  0.99294769  0.81744837  1
