# generated using pymatgen
data_Na2SrLiVP2O9
_symmetry_space_group_name_H-M   'P 1'
_cell_length_a   6.98519649
_cell_length_b   10.69487888
_cell_length_c   10.76400151
_cell_angle_alpha   89.99852375
_cell_angle_beta   90.00081087
_cell_angle_gamma   89.99953129
_symmetry_Int_Tables_number   1
_chemical_formula_structural   Na2SrLiVP2O9
_chemical_formula_sum   'Na8 Sr4 Li4 V4 P8 O36'
_cell_volume   804.13367119
_cell_formula_units_Z   4
loop_
 _symmetry_equiv_pos_site_id
 _symmetry_equiv_pos_as_xyz
  1  'x, y, z'
loop_
 _atom_site_type_symbol
 _atom_site_label
 _atom_site_symmetry_multiplicity
 _atom_site_fract_x
 _atom_site_fract_y
 _atom_site_fract_z
 _atom_site_occupancy
  Na  Na0  1  0.48598411  0.64494499  0.76732693  1
  Na  Na1  1  0.01315677  0.65486931  0.75406041  1
  Na  Na2  1  0.51314455  0.15487137  0.74593430  1
  Na  Na3  1  0.98598649  0.14494789  0.73267815  1
  Na  Na4  1  0.01314901  0.84513054  0.25406323  1
  Na  Na5  1  0.48598943  0.85505438  0.26732146  1
  Na  Na6  1  0.51315347  0.34512788  0.24594270  1
  Na  Na7  1  0.98597552  0.35505365  0.23267303  1
  Sr  Sr8  1  0.75069368  0.92279729  0.93537132  1
  Sr  Sr9  1  0.25068962  0.42280298  0.56463738  1
  Sr  Sr10  1  0.75067968  0.57719476  0.43536125  1
  Sr  Sr11  1  0.25067619  0.07719909  0.06463139  1
  Li  Li12  1  0.96292884  0.49549857  0.96326975  1
  Li  Li13  1  0.46294958  0.99550760  0.53672862  1
  Li  Li14  1  0.96294935  0.00449200  0.46327038  1
  Li  Li15  1  0.46292995  0.50450156  0.03672694  1
  V  V16  1  0.74025920  0.29255156  0.97401728  1
  V  V17  1  0.24029348  0.79256108  0.52597938  1
  V  V18  1  0.74029918  0.20742877  0.47403299  1
  V  V19  1  0.24026501  0.70744814  0.02598382  1
  P  P20  1  0.24767984  0.35700124  0.91233500  1
  P  P21  1  0.25308305  0.91534878  0.80937715  1
  P  P22  1  0.75306639  0.41535424  0.69062381  1
  P  P23  1  0.74769558  0.85698994  0.58767776  1
  P  P24  1  0.24769080  0.14300377  0.41232783  1
  P  P25  1  0.25312465  0.58466384  0.30936701  1
  P  P26  1  0.75307040  0.08465432  0.19061822  1
  P  P27  1  0.74767574  0.64300064  0.08765988  1
  O  O28  1  0.42879657  0.32138392  0.99341756  1
  O  O29  1  0.06751651  0.31632420  0.98963622  1
  O  O30  1  0.24221352  0.50409204  0.90292689  1
  O  O31  1  0.75082281  0.14989306  0.89021714  1
  O  O32  1  0.42808554  0.98273944  0.86347427  1
  O  O33  1  0.07317054  0.98163404  0.85776320  1
  O  O34  1  0.24952305  0.77457782  0.84826293  1
  O  O35  1  0.76306289  0.42494851  0.83638564  1
  O  O36  1  0.25387790  0.29354548  0.78408278  1
  O  O37  1  0.75388878  0.79355456  0.71590687  1
  O  O38  1  0.26308312  0.92495683  0.66360918  1
  O  O39  1  0.74951980  0.27456618  0.65174002  1
  O  O40  1  0.57318135  0.48163043  0.64222787  1
  O  O41  1  0.92809062  0.48273209  0.63652639  1
  O  O42  1  0.25083363  0.64989896  0.60977837  1
  O  O43  1  0.74224446  0.00410042  0.59706672  1
  O  O44  1  0.92880808  0.82137758  0.50657768  1
  O  O45  1  0.56752561  0.81633663  0.51036368  1
  O  O46  1  0.42880242  0.17861722  0.49342603  1
  O  O47  1  0.06751746  0.18366950  0.48964365  1
  O  O48  1  0.24222564  0.99590628  0.40293569  1
  O  O49  1  0.75083401  0.35008679  0.39023426  1
  O  O50  1  0.42807208  0.51726638  0.36347282  1
  O  O51  1  0.07314029  0.51835877  0.35777127  1
  O  O52  1  0.24952620  0.72542325  0.34826492  1
  O  O53  1  0.76307988  0.07504568  0.33639050  1
  O  O54  1  0.25387596  0.20645028  0.28409397  1
  O  O55  1  0.75388023  0.70645437  0.21591219  1
  O  O56  1  0.26307074  0.57504948  0.16361647  1
  O  O57  1  0.74951125  0.22542589  0.15173305  1
  O  O58  1  0.92807765  0.01726720  0.13652246  1
  O  O59  1  0.57316492  0.01837111  0.14223401  1
  O  O60  1  0.25082636  0.85010540  0.10978221  1
  O  O61  1  0.74221867  0.49590868  0.09706987  1
  O  O62  1  0.92879609  0.67862167  0.00657402  1
  O  O63  1  0.56751978  0.68367564  0.01035881  1
