# generated using pymatgen
data_Ni3OF5
_symmetry_space_group_name_H-M   'P 1'
_cell_length_a   4.68898694
_cell_length_b   4.68906744
_cell_length_c   9.28347457
_cell_angle_alpha   90.00153924
_cell_angle_beta   89.99871806
_cell_angle_gamma   89.21635592
_symmetry_Int_Tables_number   1
_chemical_formula_structural   Ni3OF5
_chemical_formula_sum   'Ni6 O2 F10'
_cell_volume   204.09644113
_cell_formula_units_Z   2
loop_
 _symmetry_equiv_pos_site_id
 _symmetry_equiv_pos_as_xyz
  1  'x, y, z'
loop_
 _atom_site_type_symbol
 _atom_site_label
 _atom_site_symmetry_multiplicity
 _atom_site_fract_x
 _atom_site_fract_y
 _atom_site_fract_z
 _atom_site_occupancy
  Ni  Ni0  1  0.00794294  0.99206028  0.66313153  1
  Ni  Ni1  1  0.00090615  0.99908865  0.33333851  1
  Ni  Ni2  1  0.00786714  0.99214242  0.00356446  1
  Ni  Ni3  1  0.48848077  0.51151963  0.16643278  1
  Ni  Ni4  1  0.50714898  0.49285907  0.83331424  1
  Ni  Ni5  1  0.48858847  0.51140478  0.50023028  1
  O  O6  1  0.19536632  0.80463839  0.16548295  1
  O  O7  1  0.19545827  0.80455821  0.50119383  1
  F  F8  1  0.20243469  0.79758209  0.83337013  1
  F  F9  1  0.30494143  0.30148837  0.00005705  1
  F  F10  1  0.30054309  0.30530076  0.33331352  1
  F  F11  1  0.30500582  0.30136187  0.66661451  1
  F  F12  1  0.69852955  0.69505931  0.00005523  1
  F  F13  1  0.69469448  0.69944198  0.33331423  1
  F  F14  1  0.69866282  0.69496901  0.66661306  1
  F  F15  1  0.81230333  0.18768021  0.83331976  1
  F  F16  1  0.79553105  0.20446372  0.16695886  1
  F  F17  1  0.79559370  0.20438126  0.49969307  1
