# generated using pymatgen
data_Fe2C2O7
_symmetry_space_group_name_H-M   'P 1'
_cell_length_a   4.96091086
_cell_length_b   4.95306995
_cell_length_c   16.01251765
_cell_angle_alpha   89.38013729
_cell_angle_beta   89.70219192
_cell_angle_gamma   60.10089514
_symmetry_Int_Tables_number   1
_chemical_formula_structural   Fe2C2O7
_chemical_formula_sum   'Fe4 C4 O14'
_cell_volume   341.06829870
_cell_formula_units_Z   2
loop_
 _symmetry_equiv_pos_site_id
 _symmetry_equiv_pos_as_xyz
  1  'x, y, z'
loop_
 _atom_site_type_symbol
 _atom_site_label
 _atom_site_symmetry_multiplicity
 _atom_site_fract_x
 _atom_site_fract_y
 _atom_site_fract_z
 _atom_site_occupancy
  Fe  Fe0  1  0.67128778  0.66364632  0.13625603  1
  Fe  Fe1  1  0.67100231  0.66619745  0.36370574  1
  Fe  Fe2  1  0.32911329  0.33354601  0.63628829  1
  Fe  Fe3  1  0.32883731  0.33594389  0.86373869  1
  C  C4  1  0.33479136  0.33294104  0.09629454  1
  C  C5  1  0.33489780  0.33240609  0.40371184  1
  C  C6  1  0.66540144  0.66744843  0.59627367  1
  C  C7  1  0.66507680  0.66694453  0.90371701  1
  O  O8  1  0.06864715  0.58710131  0.40606251  1
  O  O9  1  0.41076030  0.93302254  0.90468071  1
  O  O10  1  0.34603839  0.58795567  0.09758072  1
  O  O11  1  0.41050456  0.65562657  0.59595159  1
  O  O12  1  0.06854276  0.34428484  0.09406139  1
  O  O13  1  0.65416088  0.93362021  0.59728402  1
  O  O14  1  0.32478341  0.33574169  0.75002402  1
  O  O15  1  0.67562776  0.66333225  0.24997799  1
  O  O16  1  0.34591048  0.06628965  0.40260700  1
  O  O17  1  0.93149276  0.65558772  0.90579243  1
  O  O18  1  0.58943258  0.34427985  0.40415697  1
  O  O19  1  0.65395888  0.41200125  0.90237760  1
  O  O20  1  0.58939950  0.06675110  0.09555096  1
  O  O21  1  0.93139751  0.41285561  0.59390228  1
