# generated using pymatgen
data_RbO2F
_symmetry_space_group_name_H-M   'P 1'
_cell_length_a   4.34308821
_cell_length_b   12.17325983
_cell_length_c   12.17325983
_cell_angle_alpha   90.00000000
_cell_angle_beta   90.00000000
_cell_angle_gamma   90.00000000
_symmetry_Int_Tables_number   1
_chemical_formula_structural   RbO2F
_chemical_formula_sum   'Rb8 O16 F8'
_cell_volume   643.59466267
_cell_formula_units_Z   8
loop_
 _symmetry_equiv_pos_site_id
 _symmetry_equiv_pos_as_xyz
  1  'x, y, z'
loop_
 _atom_site_type_symbol
 _atom_site_label
 _atom_site_symmetry_multiplicity
 _atom_site_fract_x
 _atom_site_fract_y
 _atom_site_fract_z
 _atom_site_occupancy
  Rb  Rb0  1  0.75078064  0.73384231  0.23384231  1
  Rb  Rb1  1  0.75078064  0.26615769  0.76615769  1
  Rb  Rb2  1  0.24921936  0.23384231  0.26615769  1
  Rb  Rb3  1  0.24921936  0.76615769  0.73384231  1
  Rb  Rb4  1  0.25888540  0.00000000  0.50000000  1
  Rb  Rb5  1  0.74111460  0.50000000  0.00000000  1
  Rb  Rb6  1  -0.00000000  0.00000000  0.00000000  1
  Rb  Rb7  1  -0.00000000  0.50000000  0.50000000  1
  O  O8  1  0.38187849  0.29487388  0.50742085  1
  O  O9  1  0.38187849  0.70512612  0.49257915  1
  O  O10  1  0.61812151  0.50742085  0.70512612  1
  O  O11  1  0.61812151  0.20512612  0.00742085  1
  O  O12  1  0.61812151  0.49257915  0.29487388  1
  O  O13  1  0.61812151  0.79487388  0.99257915  1
  O  O14  1  0.38187849  0.99257915  0.20512612  1
  O  O15  1  0.38187849  0.00742085  0.79487388  1
  O  O16  1  0.33161020  0.21507103  0.00213599  1
  O  O17  1  0.33161020  0.78492897  0.99786401  1
  O  O18  1  0.66838980  0.00213599  0.78492897  1
  O  O19  1  0.66838980  0.28492897  0.50213599  1
  O  O20  1  0.66838980  0.99786401  0.21507103  1
  O  O21  1  0.66838980  0.71507103  0.49786401  1
  O  O22  1  0.33161020  0.49786401  0.28492897  1
  O  O23  1  0.33161020  0.50213599  0.71507103  1
  F  F24  1  0.23703703  0.16924442  0.66924442  1
  F  F25  1  0.23703703  0.83075558  0.33075558  1
  F  F26  1  0.76296297  0.66924442  0.83075558  1
  F  F27  1  0.76296297  0.33075558  0.16924442  1
  F  F28  1  0.22702951  0.62034555  0.12034555  1
  F  F29  1  0.22702951  0.37965445  0.87965445  1
  F  F30  1  0.77297049  0.12034555  0.37965445  1
  F  F31  1  0.77297049  0.87965445  0.62034555  1
