# generated using pymatgen
data_Li4Mn7(OF7)2
_symmetry_space_group_name_H-M   'P 1'
_cell_length_a   6.42080099
_cell_length_b   6.20564119
_cell_length_c   11.13634496
_cell_angle_alpha   107.18711935
_cell_angle_beta   90.00000000
_cell_angle_gamma   58.84628715
_symmetry_Int_Tables_number   1
_chemical_formula_structural   Li4Mn7(OF7)2
_chemical_formula_sum   'Li4 Mn7 O2 F14'
_cell_volume   356.38084074
_cell_formula_units_Z   1
loop_
 _symmetry_equiv_pos_site_id
 _symmetry_equiv_pos_as_xyz
  1  'x, y, z'
loop_
 _atom_site_type_symbol
 _atom_site_label
 _atom_site_symmetry_multiplicity
 _atom_site_fract_x
 _atom_site_fract_y
 _atom_site_fract_z
 _atom_site_occupancy
  Li  Li0  1  0.64167379  0.71665241  0.09981043  1
  Li  Li1  1  0.98275638  0.03448623  0.01533362  1
  Li  Li2  1  0.14224362  0.71551377  0.60966638  1
  Li  Li3  1  0.48332621  0.03334759  0.52518957  1
  Mn  Mn4  1  0.29188552  0.41622896  0.07316558  1
  Mn  Mn5  1  0.56250000  0.37500000  0.31250000  1
  Mn  Mn6  1  0.06250000  0.37500000  0.31250000  1
  Mn  Mn7  1  0.56250000  0.87500000  0.81250000  1
  Mn  Mn8  1  0.83311448  0.33377104  0.55183442  1
  Mn  Mn9  1  0.06250000  0.37500000  0.81250000  1
  Mn  Mn10  1  0.56250000  0.37500000  0.81250000  1
  O  O11  1  0.42426125  0.15147749  0.72188450  1
  O  O12  1  0.70073875  0.59852251  0.90311550  1
  F  F13  1  0.94258295  0.59673548  0.18268869  1
  F  F14  1  0.46068057  0.59673548  0.18268869  1
  F  F15  1  0.69619133  0.60761633  0.43842718  1
  F  F16  1  0.42880867  0.14238367  0.18657282  1
  F  F17  1  0.20316864  0.59366271  0.42555750  1
  F  F18  1  0.92183136  0.15633729  0.19944250  1
  F  F19  1  0.66431943  0.15326452  0.44231131  1
  F  F20  1  0.18241705  0.15326452  0.44231131  1
  F  F21  1  0.45801239  0.60616028  0.67371877  1
  F  F22  1  0.93582833  0.60616028  0.67371877  1
  F  F23  1  0.94775318  0.10449365  0.67497065  1
  F  F24  1  0.17724682  0.64550635  0.95002935  1
  F  F25  1  0.18917167  0.14383972  0.95128123  1
  F  F26  1  0.66698761  0.14383972  0.95128123  1
