# generated using pymatgen
data_VO2F
_symmetry_space_group_name_H-M   'P 1'
_cell_length_a   5.05121683
_cell_length_b   5.38550917
_cell_length_c   12.49330884
_cell_angle_alpha   91.91483895
_cell_angle_beta   92.31119865
_cell_angle_gamma   60.00226986
_symmetry_Int_Tables_number   1
_chemical_formula_structural   VO2F
_chemical_formula_sum   'V6 O12 F6'
_cell_volume   294.06034507
_cell_formula_units_Z   6
loop_
 _symmetry_equiv_pos_site_id
 _symmetry_equiv_pos_as_xyz
  1  'x, y, z'
loop_
 _atom_site_type_symbol
 _atom_site_label
 _atom_site_symmetry_multiplicity
 _atom_site_fract_x
 _atom_site_fract_y
 _atom_site_fract_z
 _atom_site_occupancy
  V  V0  1  0.64816194  0.71024000  0.66908719  1
  V  V1  1  0.68227865  0.59958782  0.16570215  1
  V  V2  1  0.33333300  0.33333300  0.83333300  1
  V  V3  1  0.33333300  0.33333300  0.33333300  1
  V  V4  1  0.98438835  0.06707918  0.50096385  1
  V  V5  1  0.01850506  0.95642700  0.99757981  1
  O  O6  1  0.94725178  0.53453930  0.27899298  1
  O  O7  1  0.91191149  0.33796798  0.08255917  1
  O  O8  1  0.75475451  0.32869802  0.58410783  1
  O  O9  1  0.71941422  0.13212770  0.38767302  1
  O  O10  1  0.37775689  0.81884835  0.05456783  1
  O  O11  1  0.60188605  0.19899094  0.94178472  1
  O  O12  1  0.47293663  0.46286495  0.21960070  1
  O  O13  1  0.28891011  0.84781865  0.61209917  1
  O  O14  1  0.59822054  0.99477072  0.75050937  1
  O  O15  1  0.06844646  0.67189528  0.91615763  1
  O  O16  1  0.19372937  0.20380205  0.44706530  1
  O  O17  1  0.06477995  0.46767606  0.72488228  1
  F  F18  1  0.86397443  0.86874951  0.11501456  1
  F  F19  1  0.80269257  0.79791749  0.55165244  1
  F  F20  1  0.54030048  0.52922479  0.78410622  1
  F  F21  1  0.27212411  0.65539934  0.41734264  1
  F  F22  1  0.39454189  0.01126666  0.24932336  1
  F  F23  1  0.12636652  0.13744221  0.88256078  1
