# generated using pymatgen
data_LiCo5O3F5
_symmetry_space_group_name_H-M   'P 1'
_cell_length_a   6.18530156
_cell_length_b   6.10924967
_cell_length_c   6.11564183
_cell_angle_alpha   60.79012401
_cell_angle_beta   88.72865341
_cell_angle_gamma   120.34398834
_symmetry_Int_Tables_number   1
_chemical_formula_structural   LiCo5O3F5
_chemical_formula_sum   'Li1 Co5 O3 F5'
_cell_volume   162.62210696
_cell_formula_units_Z   1
loop_
 _symmetry_equiv_pos_site_id
 _symmetry_equiv_pos_as_xyz
  1  'x, y, z'
loop_
 _atom_site_type_symbol
 _atom_site_label
 _atom_site_symmetry_multiplicity
 _atom_site_fract_x
 _atom_site_fract_y
 _atom_site_fract_z
 _atom_site_occupancy
  Li  Li0  1  0.61475291  0.74742798  0.61475291  1
  Co  Co1  1  0.60889694  0.22362048  0.13555506  1
  Co  Co2  1  0.97636599  0.03511301  0.97636599  1
  Co  Co3  1  0.62382512  0.24629848  0.62382512  1
  Co  Co4  1  0.28204737  0.48976128  0.28204737  1
  Co  Co5  1  0.13555506  0.75027959  0.60889694  1
  O  O6  1  0.39935386  0.22051849  0.39935386  1
  O  O7  1  0.84986785  0.28703923  0.84986785  1
  O  O8  1  0.38931851  0.76141461  0.38931851  1
  F  F9  1  0.87130824  0.22678147  0.38984831  1
  F  F10  1  0.86764640  0.75551873  0.37796364  1
  F  F11  1  0.37796364  0.26583598  0.86764640  1
  F  F12  1  0.86324880  0.74507011  0.86324880  1
  F  F13  1  0.38984831  0.74532155  0.87130824  1
