# generated using pymatgen
data_Li10Fe5Co3O16
_symmetry_space_group_name_H-M   'P 1'
_cell_length_a   6.02722218
_cell_length_b   5.95956244
_cell_length_c   9.87898409
_cell_angle_alpha   89.99570355
_cell_angle_beta   90.28943741
_cell_angle_gamma   59.97928681
_symmetry_Int_Tables_number   1
_chemical_formula_structural   Li10Fe5Co3O16
_chemical_formula_sum   'Li10 Fe5 Co3 O16'
_cell_volume   307.23897424
_cell_formula_units_Z   1
loop_
 _symmetry_equiv_pos_site_id
 _symmetry_equiv_pos_as_xyz
  1  'x, y, z'
loop_
 _atom_site_type_symbol
 _atom_site_label
 _atom_site_symmetry_multiplicity
 _atom_site_fract_x
 _atom_site_fract_y
 _atom_site_fract_z
 _atom_site_occupancy
  Li  Li0  1  0.18930690  0.18830478  0.05469697  1
  Li  Li1  1  0.18799767  0.61429932  0.06025541  1
  Li  Li2  1  0.59731201  0.19608300  0.05360196  1
  Li  Li3  1  0.33194761  0.32664114  0.27556427  1
  Li  Li4  1  0.98032919  0.00342040  0.98324540  1
  Li  Li5  1  0.99543633  0.99088985  0.48652615  1
  Li  Li6  1  0.38714089  0.80524582  0.55063808  1
  Li  Li7  1  0.78910198  0.81134769  0.55661121  1
  Li  Li8  1  0.65005116  0.66930424  0.77388850  1
  Li  Li9  1  0.79223141  0.39194742  0.55532744  1
  Fe  Fe10  1  0.30451082  0.34008735  0.53194457  1
  Fe  Fe11  1  0.64485848  0.66656530  0.02807480  1
  Fe  Fe12  1  0.64252309  0.17202980  0.78467689  1
  Fe  Fe13  1  0.82073304  0.33390436  0.28598113  1
  Fe  Fe14  1  0.81960144  0.82772247  0.28521176  1
  Co  Co15  1  0.15011753  0.17059494  0.78801452  1
  Co  Co16  1  0.32759394  0.82846384  0.28712591  1
  Co  Co17  1  0.14979140  0.66153900  0.78724040  1
  O  O18  1  0.14899335  0.16859591  0.41358541  1
  O  O19  1  0.00027926  0.49798406  0.66088329  1
  O  O20  1  0.31350720  0.34992366  0.90370711  1
  O  O21  1  0.47876326  0.02141505  0.66016013  1
  O  O22  1  0.15047466  0.66121348  0.40924729  1
  O  O23  1  0.98113207  -0.00001040  0.17431703  1
  O  O24  1  0.97968305  0.98996868  0.67726230  1
  O  O25  1  0.47444205  0.49285112  0.66110263  1
  O  O26  1  0.31367906  0.83242027  0.91698907  1
  O  O27  1  0.66252480  0.16040927  0.40712938  1
  O  O28  1  0.50577594  0.49974868  0.16275149  1
  O  O29  1  0.50486713  0.98016872  0.16015968  1
  O  O30  1  0.66581968  0.65975371  0.40454297  1
  O  O31  1  0.80301668  0.33733247  0.90923588  1
  O  O32  1  0.96943510  0.50571687  0.16218533  1
  O  O33  1  0.80677984  0.84225372  0.90777963  1
