# generated using pymatgen
data_Li2Mn3F8
_symmetry_space_group_name_H-M   'P 1'
_cell_length_a   8.92802979
_cell_length_b   11.83055424
_cell_length_c   6.70596072
_cell_angle_alpha   90.00000000
_cell_angle_beta   96.87314418
_cell_angle_gamma   90.00000000
_symmetry_Int_Tables_number   1
_chemical_formula_structural   Li2Mn3F8
_chemical_formula_sum   'Li8 Mn12 F32'
_cell_volume   703.21709538
_cell_formula_units_Z   4
loop_
 _symmetry_equiv_pos_site_id
 _symmetry_equiv_pos_as_xyz
  1  'x, y, z'
loop_
 _atom_site_type_symbol
 _atom_site_label
 _atom_site_symmetry_multiplicity
 _atom_site_fract_x
 _atom_site_fract_y
 _atom_site_fract_z
 _atom_site_occupancy
  Li  Li0  1  0.06977193  0.38642196  0.89342722  1
  Li  Li1  1  0.06977193  0.11357804  0.39342722  1
  Li  Li2  1  0.40385573  0.57719722  0.69492713  1
  Li  Li3  1  0.40385573  0.92280278  0.19492713  1
  Li  Li4  1  0.59614427  0.07719722  0.80507287  1
  Li  Li5  1  0.59614427  0.42280278  0.30507287  1
  Li  Li6  1  0.93022807  0.88642196  0.60657278  1
  Li  Li7  1  0.93022807  0.61357804  0.10657278  1
  Mn  Mn8  1  0.06267857  0.60816562  0.64328078  1
  Mn  Mn9  1  0.06267857  0.89183438  0.14328078  1
  Mn  Mn10  1  0.26586578  0.90939731  0.68007896  1
  Mn  Mn11  1  0.26586578  0.59060269  0.18007896  1
  Mn  Mn12  1  0.34277944  0.30313714  0.64518140  1
  Mn  Mn13  1  0.34277944  0.19686286  0.14518140  1
  Mn  Mn14  1  0.65722056  0.80313714  0.85481860  1
  Mn  Mn15  1  0.65722056  0.69686286  0.35481860  1
  Mn  Mn16  1  0.73413422  0.40939731  0.81992104  1
  Mn  Mn17  1  0.73413422  0.09060269  0.31992104  1
  Mn  Mn18  1  0.93732143  0.10816562  0.85671922  1
  Mn  Mn19  1  0.93732143  0.39183438  0.35671922  1
  F  F20  1  0.10045517  0.41720583  0.61311884  1
  F  F21  1  0.09579539  0.78416689  0.63629751  1
  F  F22  1  0.09365135  0.04386618  0.65952298  1
  F  F23  1  0.10045517  0.08279417  0.11311884  1
  F  F24  1  0.09579539  0.71583311  0.13629751  1
  F  F25  1  0.09365135  0.45613382  0.15952298  1
  F  F26  1  0.22392824  0.28195610  0.91029916  1
  F  F27  1  0.25327715  0.90481661  0.97895206  1
  F  F28  1  0.22392824  0.21804390  0.41029916  1
  F  F29  1  0.25645958  0.58460940  0.87469913  1
  F  F30  1  0.25327715  0.59518339  0.47895206  1
  F  F31  1  0.25645958  0.91539060  0.37469913  1
  F  F32  1  0.46977950  0.19341508  0.84608213  1
  F  F33  1  0.49554958  0.43345963  0.74327429  1
  F  F34  1  0.46977950  0.30658492  0.34608213  1
  F  F35  1  0.49554958  0.06654037  0.24327429  1
  F  F36  1  0.50445042  0.93345963  0.75672571  1
  F  F37  1  0.53022050  0.69341508  0.65391787  1
  F  F38  1  0.50445042  0.56654037  0.25672571  1
  F  F39  1  0.53022050  0.80658492  0.15391787  1
  F  F40  1  0.74354042  0.08460940  0.62530087  1
  F  F41  1  0.74672285  0.40481661  0.52104794  1
  F  F42  1  0.74354042  0.41539060  0.12530087  1
  F  F43  1  0.77607176  0.78195610  0.58970084  1
  F  F44  1  0.74672285  0.09518339  0.02104794  1
  F  F45  1  0.77607176  0.71804390  0.08970084  1
  F  F46  1  0.90634865  0.54386618  0.84047702  1
  F  F47  1  0.90420461  0.28416689  0.86370249  1
  F  F48  1  0.89954483  0.91720583  0.88688116  1
  F  F49  1  0.90634865  0.95613382  0.34047702  1
  F  F50  1  0.90420461  0.21583311  0.36370249  1
  F  F51  1  0.89954483  0.58279417  0.38688216  1
