# generated using pymatgen
data_Li3V2(O2F)2
_symmetry_space_group_name_H-M   'P 1'
_cell_length_a   5.99562869
_cell_length_b   5.91261922
_cell_length_c   7.89365364
_cell_angle_alpha   100.69614777
_cell_angle_beta   67.70944323
_cell_angle_gamma   120.45708068
_symmetry_Int_Tables_number   1
_chemical_formula_structural   Li3V2(O2F)2
_chemical_formula_sum   'Li6 V4 O8 F4'
_cell_volume   223.18187855
_cell_formula_units_Z   2
loop_
 _symmetry_equiv_pos_site_id
 _symmetry_equiv_pos_as_xyz
  1  'x, y, z'
loop_
 _atom_site_type_symbol
 _atom_site_label
 _atom_site_symmetry_multiplicity
 _atom_site_fract_x
 _atom_site_fract_y
 _atom_site_fract_z
 _atom_site_occupancy
  Li  Li0  1  0.16824886  0.68154065  0.37210276  1
  Li  Li1  1  0.33175114  0.31845935  0.62789724  1
  Li  Li2  1  0.64100093  0.68149055  0.37213504  1
  Li  Li3  1  0.86029984  0.85535293  0.63487354  1
  Li  Li4  1  0.63970016  0.14464707  0.36512646  1
  Li  Li5  1  0.85899907  0.31850945  0.62786496  1
  V  V6  1  0.00922095  0.50421712  0.98588334  1
  V  V7  1  0.00285234  0.99993695  0.99999834  1
  V  V8  1  0.49077905  0.49578288  0.01411666  1
  V  V9  1  0.49714766  0.00006305  0.00000166  1
  O  O10  1  0.09822370  0.83696005  0.14079164  1
  O  O11  1  0.07806435  0.31943674  0.13834951  1
  O  O12  1  0.59379050  0.84130076  0.15391474  1
  O  O13  1  0.60331311  0.31951915  0.13838495  1
  O  O14  1  0.42193565  0.68056326  0.86165049  1
  O  O15  1  0.40177630  0.16303995  0.85920836  1
  O  O16  1  0.89668689  0.68048085  0.86161505  1
  O  O17  1  0.90620950  0.15869924  0.84608526  1
  F  F18  1  0.25000000  0.50000000  0.50000000  1
  F  F19  1  0.25000000  0.00000000  0.50000000  1
  F  F20  1  0.75000000  0.50000000  0.50000000  1
  F  F21  1  0.75000000  0.00000000  0.50000000  1
