# generated using pymatgen
data_Li3Mn2F9
_symmetry_space_group_name_H-M   'P 1'
_cell_length_a   5.48373626
_cell_length_b   5.69011941
_cell_length_c   15.51745968
_cell_angle_alpha   77.39110066
_cell_angle_beta   114.52177471
_cell_angle_gamma   119.17145622
_symmetry_Int_Tables_number   1
_chemical_formula_structural   Li3Mn2F9
_chemical_formula_sum   'Li6 Mn4 F18'
_cell_volume   384.56920162
_cell_formula_units_Z   2
loop_
 _symmetry_equiv_pos_site_id
 _symmetry_equiv_pos_as_xyz
  1  'x, y, z'
loop_
 _atom_site_type_symbol
 _atom_site_label
 _atom_site_symmetry_multiplicity
 _atom_site_fract_x
 _atom_site_fract_y
 _atom_site_fract_z
 _atom_site_occupancy
  Li  Li0  1  0.24239889  0.58341937  0.75709803  1
  Li  Li1  1  0.26333868  0.71749172  0.54865521  1
  Li  Li2  1  0.43703366  0.71012284  0.95545507  1
  Li  Li3  1  0.66628992  0.41483580  0.24865692  1
  Li  Li4  1  0.74361654  0.28263673  0.45254746  1
  Li  Li5  1  0.55931483  0.29227276  0.04389957  1
  Mn  Mn6  1  0.00251063  0.97119230  0.15065917  1
  Mn  Mn7  1  0.98247620  0.97805595  0.34680783  1
  Mn  Mn8  1  0.03540431  0.03454325  0.65385227  1
  Mn  Mn9  1  0.99492609  0.01505108  0.84888332  1
  F  F10  1  0.11603050  0.75531459  0.25082779  1
  F  F11  1  0.20662671  0.80128288  0.64632424  1
  F  F12  1  0.17714712  0.84152548  0.94993826  1
  F  F13  1  0.23607471  0.32832476  0.92431160  1
  F  F14  1  0.13821917  0.22444357  0.25050793  1
  F  F15  1  0.08619623  0.32909635  0.56556984  1
  F  F16  1  0.36846730  0.24713627  0.75023843  1
  F  F17  1  0.40847637  0.18983140  0.14141984  1
  F  F18  1  0.34518214  0.15309750  0.44216608  1
  F  F19  1  0.66431348  0.84459148  0.56325004  1
  F  F20  1  0.58525128  0.80885966  0.85674458  1
  F  F21  1  0.65791311  0.76929341  0.24439006  1
  F  F22  1  0.92373049  0.77312397  0.75926129  1
  F  F23  1  0.74094579  0.67234994  0.06837658  1
  F  F24  1  0.91071626  0.67589320  0.43054578  1
  F  F25  1  0.79000326  0.19737835  0.35237061  1
  F  F26  1  0.83355599  0.16990398  0.05648507  1
  F  F27  1  0.88391934  0.21913140  0.74075814  1
