# generated using pymatgen
data_Li2V3O3F5
_symmetry_space_group_name_H-M   'P 1'
_cell_length_a   5.95466564
_cell_length_b   5.99712085
_cell_length_c   6.03849227
_cell_angle_alpha   59.57418431
_cell_angle_beta   88.95847172
_cell_angle_gamma   61.26848506
_symmetry_Int_Tables_number   1
_chemical_formula_structural   Li2V3O3F5
_chemical_formula_sum   'Li2 V3 O3 F5'
_cell_volume   155.64614147
_cell_formula_units_Z   1
loop_
 _symmetry_equiv_pos_site_id
 _symmetry_equiv_pos_as_xyz
  1  'x, y, z'
loop_
 _atom_site_type_symbol
 _atom_site_label
 _atom_site_symmetry_multiplicity
 _atom_site_fract_x
 _atom_site_fract_y
 _atom_site_fract_z
 _atom_site_occupancy
  Li  Li0  1  0.00344199  0.98237532  0.00895099  1
  Li  Li1  1  0.23948821  0.51804962  0.73759083  1
  V  V2  1  0.63527265  0.75631571  0.38554235  1
  V  V3  1  0.63498023  0.75418246  0.86042614  1
  V  V4  1  0.11965488  0.25016093  0.37509369  1
  O  O5  1  0.85146038  0.73431060  0.63053769  1
  O  O6  1  0.87015236  0.70711304  0.14485974  1
  O  O7  1  0.37418479  0.79473560  0.60451186  1
  F  F8  1  0.87776502  0.26792796  0.61053039  1
  F  F9  1  0.87641114  0.27094068  0.11751291  1
  F  F10  1  0.39464997  0.76796624  0.12003701  1
  F  F11  1  0.36914850  0.22940391  0.62954868  1
  F  F12  1  0.36603389  0.23596794  0.14008073  1
