# generated using pymatgen
data_Cr(PO3)4
_symmetry_space_group_name_H-M   'P 1'
_cell_length_a   7.18619200
_cell_length_b   7.18183117
_cell_length_c   9.80143737
_cell_angle_alpha   70.94601544
_cell_angle_beta   80.88281133
_cell_angle_gamma   109.78319507
_symmetry_Int_Tables_number   1
_chemical_formula_structural   Cr(PO3)4
_chemical_formula_sum   'Cr2 P8 O24'
_cell_volume   428.85537513
_cell_formula_units_Z   2
loop_
 _symmetry_equiv_pos_site_id
 _symmetry_equiv_pos_as_xyz
  1  'x, y, z'
loop_
 _atom_site_type_symbol
 _atom_site_label
 _atom_site_symmetry_multiplicity
 _atom_site_fract_x
 _atom_site_fract_y
 _atom_site_fract_z
 _atom_site_occupancy
  Cr  Cr0  1  0.05405840  0.80402488  0.74992020  1
  Cr  Cr1  1  0.94594160  0.19597512  0.25007980  1
  P  P2  1  0.26587758  0.72781745  0.01859826  1
  P  P3  1  0.24655360  0.28488642  0.48112323  1
  P  P4  1  0.28768903  0.49531098  0.69317622  1
  P  P5  1  0.31154129  0.01906662  0.19336259  1
  P  P6  1  0.68845871  0.98093338  0.80663741  1
  P  P7  1  0.71231097  0.50468902  0.30682378  1
  P  P8  1  0.75344640  0.71511358  0.51887677  1
  P  P9  1  0.73412242  0.27218255  0.98140174  1
  O  O10  1  0.15108249  0.48691143  0.09714490  1
  O  O11  1  0.29215492  0.82198343  0.14485041  1
  O  O12  1  0.08435527  0.24860854  0.40269950  1
  O  O13  1  0.19462701  0.85784187  0.90190157  1
  O  O14  1  0.34981698  0.96687389  0.34273787  1
  O  O15  1  0.11784515  0.06006599  0.19042685  1
  O  O16  1  0.24957487  0.69213853  0.69020721  1
  O  O17  1  0.21515928  0.44487736  0.55731046  1
  O  O18  1  0.19021263  0.30675450  0.84293437  1
  O  O19  1  0.25957009  0.09634230  0.59797287  1
  O  O20  1  0.46706734  0.43715009  0.35498975  1
  O  O21  1  0.49804827  0.22771937  0.05716126  1
  O  O22  1  0.50195173  0.77228063  0.94283874  1
  O  O23  1  0.53293266  0.56284991  0.64501025  1
  O  O24  1  0.74042991  0.90365770  0.40202713  1
  O  O25  1  0.80978737  0.69324550  0.15706563  1
  O  O26  1  0.78484072  0.55512264  0.44268954  1
  O  O27  1  0.75042513  0.30786147  0.30979279  1
  O  O28  1  0.88215485  0.93993401  0.80957315  1
  O  O29  1  0.65018302  0.03312611  0.65726213  1
  O  O30  1  0.80537299  0.14215813  0.09809843  1
  O  O31  1  0.91564473  0.75139146  0.59730050  1
  O  O32  1  0.70784508  0.17801657  0.85514959  1
  O  O33  1  0.84891751  0.51308857  0.90285510  1
