# generated using pymatgen
data_LiV2OF7
_symmetry_space_group_name_H-M   'P 1'
_cell_length_a   6.09014618
_cell_length_b   5.85251023
_cell_length_c   5.84941720
_cell_angle_alpha   62.50989685
_cell_angle_beta   58.78505588
_cell_angle_gamma   58.74738969
_symmetry_Int_Tables_number   1
_chemical_formula_structural   LiV2OF7
_chemical_formula_sum   'Li1 V2 O1 F7'
_cell_volume   147.04038754
_cell_formula_units_Z   1
loop_
 _symmetry_equiv_pos_site_id
 _symmetry_equiv_pos_as_xyz
  1  'x, y, z'
loop_
 _atom_site_type_symbol
 _atom_site_label
 _atom_site_symmetry_multiplicity
 _atom_site_fract_x
 _atom_site_fract_y
 _atom_site_fract_z
 _atom_site_occupancy
  Li  Li0  1  0.10419215  0.13497164  0.13498208  1
  V  V1  1  0.51637750  0.00238367  0.49055122  1
  V  V2  1  0.51628405  0.49059044  0.00238088  1
  O  O3  1  0.70497882  0.24645639  0.24671100  1
  F  F4  1  0.28858886  0.24757386  0.24722695  1
  F  F5  1  0.26814884  0.21750302  0.73744982  1
  F  F6  1  0.26815135  0.73746087  0.21752982  1
  F  F7  1  0.29824884  0.75272504  0.75233512  1
  F  F8  1  0.71740463  0.28341896  0.76489758  1
  F  F9  1  0.71738170  0.76496476  0.28334048  1
  F  F10  1  0.71569125  0.75067735  0.75104406  1
