# generated using pymatgen
data_Li6Mn11(OF12)2
_symmetry_space_group_name_H-M   'P 1'
_cell_length_a   8.54034296
_cell_length_b   9.02314248
_cell_length_c   8.38560346
_cell_angle_alpha   107.09843198
_cell_angle_beta   90.18284499
_cell_angle_gamma   109.21672138
_symmetry_Int_Tables_number   1
_chemical_formula_structural   Li6Mn11(OF12)2
_chemical_formula_sum   'Li6 Mn11 O2 F24'
_cell_volume   579.63637594
_cell_formula_units_Z   1
loop_
 _symmetry_equiv_pos_site_id
 _symmetry_equiv_pos_as_xyz
  1  'x, y, z'
loop_
 _atom_site_type_symbol
 _atom_site_label
 _atom_site_symmetry_multiplicity
 _atom_site_fract_x
 _atom_site_fract_y
 _atom_site_fract_z
 _atom_site_occupancy
  Li  Li0  1  0.09427370  0.23748041  0.41180230  1
  Li  Li1  1  0.21067004  0.45180213  0.08579653  1
  Li  Li2  1  0.57342751  0.93639002  0.29385496  1
  Li  Li3  1  0.38349616  0.08479414  0.70403587  1
  Li  Li4  1  0.80253948  0.55107284  0.92594121  1
  Li  Li5  1  0.89745750  0.74180750  0.58107508  1
  Mn  Mn6  1  0.11244734  0.85157441  0.28538116  1
  Mn  Mn7  1  0.21716175  0.74039306  0.86999593  1
  Mn  Mn8  1  0.00050001  0.99219742  0.00832696  1
  Mn  Mn9  1  0.28412290  0.67289656  0.48427080  1
  Mn  Mn10  1  0.39140242  0.47424341  0.70760766  1
  Mn  Mn11  1  0.35577432  0.15383041  0.15192403  1
  Mn  Mn12  1  0.61277809  0.85165540  0.86861025  1
  Mn  Mn13  1  0.63016686  0.57337513  0.28197506  1
  Mn  Mn14  1  0.72071074  0.33360796  0.53007105  1
  Mn  Mn15  1  0.79776712  0.25328174  0.12613764  1
  Mn  Mn16  1  0.88233813  0.15686507  0.72220406  1
  O  O17  1  0.13360170  0.06496173  0.23318134  1
  O  O18  1  0.40404704  0.72080970  0.71853143  1
  F  F19  1  0.00162938  0.74544252  0.99645194  1
  F  F20  1  0.06913495  0.67692478  0.63559626  1
  F  F21  1  0.10063481  0.19904932  0.62109458  1
  F  F22  1  0.14763981  0.61890068  0.24828011  1
  F  F23  1  0.23434668  0.51689202  0.89616753  1
  F  F24  1  0.28840754  0.92059361  0.49684955  1
  F  F25  1  0.39280428  0.90753333  0.11078473  1
  F  F26  1  0.29354238  0.42734759  0.45465285  1
  F  F27  1  0.24939312  0.02352010  0.89011040  1
  F  F28  1  0.40423013  0.39176342  0.12861213  1
  F  F29  1  0.49201964  0.28579463  0.65457911  1
  F  F30  1  0.50460504  0.73458580  0.34290458  1
  F  F31  1  0.62700298  0.62512152  0.88835133  1
  F  F32  1  0.75501653  0.98641647  0.10711991  1
  F  F33  1  0.59229160  0.24244748  0.27732900  1
  F  F34  1  0.69122101  0.55501055  0.51980881  1
  F  F35  1  0.66028500  0.10819404  0.87274716  1
  F  F36  1  0.86051406  0.91388686  0.76590007  1
  F  F37  1  0.70590798  0.08617204  0.50693930  1
  F  F38  1  0.76202019  0.46421253  0.10561599  1
  F  F39  1  0.85862209  0.39191387  0.75926978  1
  F  F40  1  0.87573271  0.77407909  0.36917005  1
  F  F41  1  0.92000712  0.32250321  0.36681646  1
  F  F42  1  0.00830714  0.23865850  0.99412701  1
