# generated using pymatgen
data_Na3Mn20O40
_symmetry_space_group_name_H-M   'P 1'
_cell_length_a   5.96712662
_cell_length_b   10.33178321
_cell_length_c   13.31407739
_cell_angle_alpha   75.09345508
_cell_angle_beta   102.98753671
_cell_angle_gamma   106.79474891
_symmetry_Int_Tables_number   1
_chemical_formula_structural   Na3Mn20O40
_chemical_formula_sum   'Na3 Mn20 O40'
_cell_volume   749.26658584
_cell_formula_units_Z   1
loop_
 _symmetry_equiv_pos_site_id
 _symmetry_equiv_pos_as_xyz
  1  'x, y, z'
loop_
 _atom_site_type_symbol
 _atom_site_label
 _atom_site_symmetry_multiplicity
 _atom_site_fract_x
 _atom_site_fract_y
 _atom_site_fract_z
 _atom_site_occupancy
  Na  Na0  1  0.00218925  0.37440254  0.12592376  1
  Na  Na1  1  0.79854322  0.77524675  0.32423520  1
  Na  Na2  1  0.19872450  0.22418968  0.67544862  1
  Mn  Mn3  1  0.39826759  0.19642122  0.09872209  1
  Mn  Mn4  1  0.50054702  0.50339017  0.99656634  1
  Mn  Mn5  1  0.20491294  0.10018791  0.30230064  1
  Mn  Mn6  1  0.89829924  0.70423871  0.09601223  1
  Mn  Mn7  1  0.39773544  0.70375552  0.09538795  1
  Mn  Mn8  1  0.69383646  0.09979059  0.30273527  1
  Mn  Mn9  1  0.29839633  0.90302362  0.19607928  1
  Mn  Mn10  1  0.09768705  0.29972112  0.40044570  1
  Mn  Mn11  1  0.99893384  0.99951366  0.50118603  1
  Mn  Mn12  1  0.19914846  0.59943960  0.29997167  1
  Mn  Mn13  1  0.00059097  0.50127607  0.50015528  1
  Mn  Mn14  1  0.50160390  0.50084337  0.49990311  1
  Mn  Mn15  1  0.80335861  0.40492730  0.70120255  1
  Mn  Mn16  1  0.69955368  0.09730876  0.80303291  1
  Mn  Mn17  1  0.90318338  0.70015366  0.60335005  1
  Mn  Mn18  1  0.60231682  0.30071728  0.90019776  1
  Mn  Mn19  1  0.30107382  0.89687292  0.70022227  1
  Mn  Mn20  1  0.10128571  0.30033420  0.89987314  1
  Mn  Mn21  1  0.79548453  0.89603367  0.70067991  1
  Mn  Mn22  1  0.59840870  0.80077158  0.89907804  1
  O  O23  1  0.65454251  0.34589245  0.03769761  1
  O  O24  1  0.23125575  0.34561447  0.03734032  1
  O  O25  1  0.13778207  0.05352731  0.16007681  1
  O  O26  1  0.57418937  0.05308686  0.16045625  1
  O  O27  1  0.59864609  0.56956795  0.13098078  1
  O  O28  1  0.48603672  0.22742298  0.24600673  1
  O  O29  1  0.68497847  0.82891899  0.04527521  1
  O  O30  1  0.11272968  0.57958982  0.15021953  1
  O  O31  1  0.19776328  0.83698175  0.06231523  1
  O  O32  1  0.99786339  0.23054476  0.27113440  1
  O  O33  1  0.82666619  0.14723559  0.44357534  1
  O  O34  1  0.02969851  0.74919288  0.23576732  1
  O  O35  1  0.45298904  0.74890908  0.23523726  1
  O  O36  1  0.25972361  0.14789727  0.44344336  1
  O  O37  1  0.93850283  0.45510263  0.35832435  1
  O  O38  1  0.37092972  0.45407672  0.35750443  1
  O  O39  1  0.39733884  0.96426293  0.33317914  1
  O  O40  1  0.19924722  0.36996229  0.53039029  1
  O  O41  1  0.28802466  0.62874254  0.44488312  1
  O  O42  1  0.08320586  0.02039974  0.64734648  1
  O  O43  1  0.80304986  0.63224206  0.47045881  1
  O  O44  1  0.71489290  0.37372742  0.55526246  1
  O  O45  1  0.91417215  0.97685176  0.35608634  1
  O  O46  1  0.60003795  0.03246653  0.66791294  1
  O  O47  1  0.62815538  0.54693929  0.64191549  1
  O  O48  1  0.06308769  0.54651955  0.64171791  1
  O  O49  1  0.54754925  0.25543570  0.76268197  1
  O  O50  1  0.73936169  0.85015529  0.56010827  1
  O  O51  1  0.96952645  0.25489628  0.76264062  1
  O  O52  1  0.17177041  0.85154914  0.55966198  1
  O  O53  1  0.80304295  0.16820649  0.93602516  1
  O  O54  1  0.89038665  0.42798562  0.84982921  1
  O  O55  1  0.00070140  0.76453660  0.73466135  1
  O  O56  1  0.51171316  0.77164692  0.75356602  1
  O  O57  1  0.40022762  0.43275642  0.86432371  1
  O  O58  1  0.31340323  0.17308402  0.95035993  1
  O  O59  1  0.42481965  0.94591120  0.83993485  1
  O  O60  1  0.85893402  0.94553970  0.84039323  1
  O  O61  1  0.77365293  0.65572552  0.95809035  1
  O  O62  1  0.33779844  0.65492764  0.95764264  1
