# generated using pymatgen
data_Na7Mn10O24
_symmetry_space_group_name_H-M   'P 1'
_cell_length_a   6.11190871
_cell_length_b   6.11225505
_cell_length_c   16.48177946
_cell_angle_alpha   81.79060972
_cell_angle_beta   77.78087719
_cell_angle_gamma   121.49008492
_symmetry_Int_Tables_number   1
_chemical_formula_structural   Na7Mn10O24
_chemical_formula_sum   'Na7 Mn10 O24'
_cell_volume   488.86333005
_cell_formula_units_Z   1
loop_
 _symmetry_equiv_pos_site_id
 _symmetry_equiv_pos_as_xyz
  1  'x, y, z'
loop_
 _atom_site_type_symbol
 _atom_site_label
 _atom_site_symmetry_multiplicity
 _atom_site_fract_x
 _atom_site_fract_y
 _atom_site_fract_z
 _atom_site_occupancy
  Na  Na0  1  0.87275724  0.05199107  0.28760813  1
  Na  Na1  1  0.50089535  0.33441416  0.33231775  1
  Na  Na2  1  0.85959938  0.37789604  0.63119383  1
  Na  Na3  1  0.13463466  0.62102396  0.37213996  1
  Na  Na4  1  0.49207102  0.33028554  0.83898710  1
  Na  Na5  1  0.87900544  0.70853781  0.95613504  1
  Na  Na6  1  0.11452789  0.95663443  0.71448968  1
  Mn  Mn7  1  0.51374666  0.98731863  0.99948685  1
  Mn  Mn8  1  0.51487614  0.17826252  0.15658334  1
  Mn  Mn9  1  0.48884758  0.99461321  0.50821256  1
  Mn  Mn10  1  0.51424452  0.67181028  0.15700356  1
  Mn  Mn11  1  0.48806069  0.48876005  0.50892793  1
  Mn  Mn12  1  0.99329249  0.99397682  0.50891721  1
  Mn  Mn13  1  0.00862457  0.67202775  0.15659494  1
  Mn  Mn14  1  0.48437716  0.67214533  0.67171604  1
  Mn  Mn15  1  0.50165200  0.83850767  0.83315220  1
  Mn  Mn16  1  0.99527931  0.33205382  0.83316622  1
  O  O17  1  0.70624809  0.05049441  0.08353840  1
  O  O18  1  0.28895460  0.05011936  0.08051786  1
  O  O19  1  0.76156559  0.29864491  0.21991530  1
  O  O20  1  0.74398406  0.56694999  0.09462072  1
  O  O21  1  0.71983667  0.03686542  0.58126202  1
  O  O22  1  0.31335682  0.29467846  0.21955545  1
  O  O23  1  0.76618466  0.74752910  0.21956511  1
  O  O24  1  0.69015390  0.37152617  0.44764320  1
  O  O25  1  0.28245226  0.62670471  0.08356149  1
  O  O26  1  0.23765938  0.36767206  0.44729768  1
  O  O27  1  0.25714441  0.09758537  0.57251785  1
  O  O28  1  0.27682529  0.77940951  0.22189000  1
  O  O29  1  0.71376953  0.61642873  0.58483062  1
  O  O30  1  0.72645761  0.88704522  0.44322656  1
  O  O31  1  0.74610404  0.21081817  0.77161227  1
  O  O32  1  0.30049839  0.61746944  0.58127869  1
  O  O33  1  0.75389450  0.34633725  0.92157828  1
  O  O34  1  0.68817281  0.75928128  0.74531547  1
  O  O35  1  0.25023950  0.32117233  0.74537617  1
  O  O36  1  0.23306742  0.91439827  0.44765836  1
  O  O37  1  0.25502537  0.72331112  0.76079432  1
  O  O38  1  0.24429151  0.46361870  0.89608850  1
  O  O39  1  0.75208340  0.94695738  0.90048352  1
  O  O40  1  0.31053811  0.90305655  0.92157286  1
