# generated using pymatgen
data_PrI3O10
_symmetry_space_group_name_H-M   'P 1'
_cell_length_a   6.73855087
_cell_length_b   7.55221448
_cell_length_c   10.29693121
_cell_angle_alpha   110.19070004
_cell_angle_beta   90.00000000
_cell_angle_gamma   90.00000000
_symmetry_Int_Tables_number   1
_chemical_formula_structural   PrI3O10
_chemical_formula_sum   'Pr2 I6 O20'
_cell_volume   491.81935499
_cell_formula_units_Z   2
loop_
 _symmetry_equiv_pos_site_id
 _symmetry_equiv_pos_as_xyz
  1  'x, y, z'
loop_
 _atom_site_type_symbol
 _atom_site_label
 _atom_site_symmetry_multiplicity
 _atom_site_fract_x
 _atom_site_fract_y
 _atom_site_fract_z
 _atom_site_occupancy
  Pr  Pr0  1  0.86543369  0.23916774  0.81237529  1
  Pr  Pr1  1  0.36543369  0.76083226  0.18762471  1
  I  I2  1  0.49920821  0.88697689  0.58068190  1
  I  I3  1  0.99920821  0.11302311  0.41931810  1
  I  I4  1  0.89174078  0.83350989  0.96200197  1
  I  I5  1  0.39174078  0.16649011  0.03799803  1
  I  I6  1  0.33991124  0.47077637  0.77571502  1
  I  I7  1  0.83991124  0.52922363  0.22428498  1
  O  O8  1  0.51206994  0.69763324  0.65702242  1
  O  O9  1  0.01206994  0.30236676  0.34297758  1
  O  O10  1  0.57429686  0.34501078  0.71939349  1
  O  O11  1  0.07429686  0.65498922  0.28060651  1
  O  O12  1  0.72844739  0.69847339  0.15020837  1
  O  O13  1  0.22844739  0.30152661  0.84979163  1
  O  O14  1  0.58169643  0.09748128  0.90143087  1
  O  O15  1  0.08169643  0.90251872  0.09856913  1
  O  O16  1  0.42139338  0.65184426  0.93546121  1
  O  O17  1  0.92139338  0.34815574  0.06453879  1
  O  O18  1  0.00447134  0.95485185  0.85321165  1
  O  O19  1  0.50447134  0.04514815  0.14678835  1
  O  O20  1  0.76095346  0.96355051  0.60894459  1
  O  O21  1  0.26095346  0.03644949  0.39105541  1
  O  O22  1  0.52747896  0.74301706  0.39801396  1
  O  O23  1  0.02747896  0.25698294  0.60198604  1
  O  O24  1  0.96273163  0.59073565  0.86204858  1
  O  O25  1  0.46273163  0.40926435  0.13795142  1
  O  O26  1  0.70333670  0.28317767  0.41136741  1
  O  O27  1  0.20333670  0.71682233  0.58863259  1
