# generated using pymatgen
data_LiFe4(BO3)4
_symmetry_space_group_name_H-M   'P 1'
_cell_length_a   5.25212612
_cell_length_b   9.14993418
_cell_length_c   11.41173891
_cell_angle_alpha   66.64767236
_cell_angle_beta   76.88679563
_cell_angle_gamma   89.01086806
_symmetry_Int_Tables_number   1
_chemical_formula_structural   LiFe4(BO3)4
_chemical_formula_sum   'Li2 Fe8 B8 O24'
_cell_volume   488.73526519
_cell_formula_units_Z   2
loop_
 _symmetry_equiv_pos_site_id
 _symmetry_equiv_pos_as_xyz
  1  'x, y, z'
loop_
 _atom_site_type_symbol
 _atom_site_label
 _atom_site_symmetry_multiplicity
 _atom_site_fract_x
 _atom_site_fract_y
 _atom_site_fract_z
 _atom_site_occupancy
  Li  Li0  1  0.72312029  0.72688452  0.89220405  1
  Li  Li1  1  0.73943295  0.75266933  0.15539559  1
  Fe  Fe2  1  0.99024596  0.64999808  0.37971821  1
  Fe  Fe3  1  0.73660054  0.07055217  0.87501515  1
  Fe  Fe4  1  0.51146142  0.84931517  0.62897742  1
  Fe  Fe5  1  0.76237984  0.42578126  0.13113550  1
  Fe  Fe6  1  0.22656959  0.55747353  0.88090006  1
  Fe  Fe7  1  0.48043304  0.14743941  0.37790794  1
  Fe  Fe8  1  0.01636299  0.35121342  0.62943746  1
  Fe  Fe9  1  0.26876614  0.94142296  0.12210497  1
  B  B10  1  0.97076689  0.31370474  0.37997131  1
  B  B11  1  0.73130117  0.40324893  0.87128240  1
  B  B12  1  0.52703386  0.18698696  0.62543395  1
  B  B13  1  0.76364099  0.09388629  0.13518287  1
  B  B14  1  0.47900038  0.81723095  0.37289425  1
  B  B15  1  0.22966630  0.88179484  0.88458558  1
  B  B16  1  0.02062134  0.68435988  0.63259059  1
  B  B17  1  0.26678964  0.61682082  0.11927225  1
  O  O18  1  0.97200068  0.88067164  0.89026985  1
  O  O19  1  0.88300286  0.30322703  0.82534547  1
  O  O20  1  0.85054734  0.50356727  0.91433181  1
  O  O21  1  0.84811538  0.78986119  0.64930497  1
  O  O22  1  0.97442208  0.58520839  0.57203791  1
  O  O23  1  0.76031831  0.17540865  0.66591893  1
  O  O24  1  0.73715124  0.32527893  0.33936022  1
  O  O25  1  0.47155602  0.41116232  0.87518166  1
  O  O26  1  0.39161544  0.78210948  0.83341650  1
  O  O27  1  0.52287465  0.91350678  0.43525763  1
  O  O28  1  0.65620247  0.71485105  0.35125490  1
  O  O29  1  0.35945390  0.97159550  0.93156953  1
  O  O30  1  0.64406681  0.99254774  0.09312440  1
  O  O31  1  0.36020748  0.29873906  0.63116330  1
  O  O32  1  0.46685726  0.07476151  0.57764798  1
  O  O33  1  0.61310417  0.19356100  0.18196139  1
  O  O34  1  0.52969089  0.62152941  0.10792964  1
  O  O35  1  0.24850610  0.66916588  0.67858045  1
  O  O36  1  0.25148244  0.83015108  0.32705252  1
  O  O37  1  0.03083968  0.42534489  0.42830272  1
  O  O38  1  0.13852365  0.20266314  0.37327113  1
  O  O39  1  0.13791723  0.52639039  0.07341862  1
  O  O40  1  0.10827989  0.71352204  0.17410999  1
  O  O41  1  0.02399268  0.08687436  0.13010989  1
