# generated using pymatgen
data_Li2Fe4OF8
_symmetry_space_group_name_H-M   'P 1'
_cell_length_a   6.55756693
_cell_length_b   8.03942857
_cell_length_c   9.26841832
_cell_angle_alpha   100.74921560
_cell_angle_beta   111.87824481
_cell_angle_gamma   105.87394211
_symmetry_Int_Tables_number   1
_chemical_formula_structural   Li2Fe4OF8
_chemical_formula_sum   'Li4 Fe8 O2 F16'
_cell_volume   412.74082361
_cell_formula_units_Z   2
loop_
 _symmetry_equiv_pos_site_id
 _symmetry_equiv_pos_as_xyz
  1  'x, y, z'
loop_
 _atom_site_type_symbol
 _atom_site_label
 _atom_site_symmetry_multiplicity
 _atom_site_fract_x
 _atom_site_fract_y
 _atom_site_fract_z
 _atom_site_occupancy
  Li  Li0  1  0.07640696  0.25847505  0.33928645  1
  Li  Li1  1  0.53487288  0.71480596  0.93672015  1
  Li  Li2  1  0.46512812  0.28519404  0.06327985  1
  Li  Li3  1  0.92359304  0.74152495  0.66071355  1
  Fe  Fe4  1  0.02970494  0.32772517  0.72238155  1
  Fe  Fe5  1  0.45058069  0.88117562  0.58789730  1
  Fe  Fe6  1  0.15094910  0.88802112  0.08267026  1
  Fe  Fe7  1  0.41040668  0.64656115  0.25984319  1
  Fe  Fe8  1  0.58959332  0.35343885  0.74015681  1
  Fe  Fe9  1  0.84905090  0.11197888  0.91732974  1
  Fe  Fe10  1  0.54941931  0.11882438  0.41210270  1
  Fe  Fe11  1  0.97029506  0.67227483  0.27761845  1
  O  O12  1  0.29193394  0.85887165  0.32751782  1
  O  O13  1  0.70806606  0.14112835  0.67248218  1
  F  F14  1  0.01441666  0.93149710  0.85661386  1
  F  F15  1  0.10417468  0.76409298  0.53660879  1
  F  F16  1  0.16690996  0.31403634  0.96162124  1
  F  F17  1  0.36737575  0.47521990  0.77843450  1
  F  F18  1  0.12692467  0.47671830  0.27988626  1
  F  F19  1  0.53879057  0.88473022  0.82666024  1
  F  F20  1  0.37359596  0.26495455  0.49140372  1
  F  F21  1  0.64353820  0.27284947  0.94328284  1
  F  F22  1  0.35646180  0.72715053  0.05671716  1
  F  F23  1  0.62640404  0.73504545  0.50859628  1
  F  F24  1  0.46120943  0.11526978  0.17333976  1
  F  F25  1  0.87307533  0.52328170  0.72011374  1
  F  F26  1  0.63262425  0.52478010  0.22156550  1
  F  F27  1  0.83309004  0.68596366  0.03837876  1
  F  F28  1  0.89582532  0.23590702  0.46339121  1
  F  F29  1  0.98558334  0.06850290  0.14338614  1
