# generated using pymatgen
data_LiFe4(BO3)4
_symmetry_space_group_name_H-M   'P 1'
_cell_length_a   5.23620175
_cell_length_b   9.11799361
_cell_length_c   10.22588371
_cell_angle_alpha   90.03453047
_cell_angle_beta   90.35626084
_cell_angle_gamma   89.22304663
_symmetry_Int_Tables_number   1
_chemical_formula_structural   LiFe4(BO3)4
_chemical_formula_sum   'Li2 Fe8 B8 O24'
_cell_volume   488.16666467
_cell_formula_units_Z   2
loop_
 _symmetry_equiv_pos_site_id
 _symmetry_equiv_pos_as_xyz
  1  'x, y, z'
loop_
 _atom_site_type_symbol
 _atom_site_label
 _atom_site_symmetry_multiplicity
 _atom_site_fract_x
 _atom_site_fract_y
 _atom_site_fract_z
 _atom_site_occupancy
  Li  Li0  1  0.83925887  0.82182872  0.66938275  1
  Li  Li1  1  0.81050795  0.82732630  0.17250869  1
  Fe  Fe2  1  0.83058652  0.16716344  0.62750070  1
  Fe  Fe3  1  0.82634364  0.49136807  0.12617460  1
  Fe  Fe4  1  0.67673603  0.00830057  0.88103061  1
  Fe  Fe5  1  0.66821080  0.33624376  0.37483316  1
  Fe  Fe6  1  0.33208406  0.65631193  0.62640632  1
  Fe  Fe7  1  0.32863869  0.00349994  0.12793413  1
  Fe  Fe8  1  0.17534617  0.84342782  0.38341760  1
  Fe  Fe9  1  0.17196910  0.50751288  0.88005266  1
  B  B10  1  0.84205207  0.50321781  0.62493562  1
  B  B11  1  0.83454912  0.16443379  0.13098197  1
  B  B12  1  0.66000216  0.00740228  0.37202291  1
  B  B13  1  0.67057301  0.33691529  0.87396528  1
  B  B14  1  0.33296624  0.99472858  0.63079812  1
  B  B15  1  0.32442092  0.67303930  0.12601474  1
  B  B16  1  0.16215909  0.50011294  0.37665968  1
  B  B17  1  0.18429944  0.83085977  0.87524626  1
  O  O18  1  0.91378943  0.49337340  0.32102867  1
  O  O19  1  0.93129321  0.84618902  0.85295504  1
  O  O20  1  0.78019024  0.21367040  0.81642728  1
  O  O21  1  0.74593652  0.13691521  0.43260861  1
  O  O22  1  0.81271770  0.88782149  0.35864317  1
  O  O23  1  0.83241530  0.43888681  0.93471988  1
  O  O24  1  0.69333204  0.62774874  0.62603793  1
  O  O25  1  0.69154027  0.04283082  0.09255103  1
  O  O26  1  0.75922842  0.37331064  0.56903849  1
  O  O27  1  0.70624042  0.29265650  0.17328547  1
  O  O28  1  0.58539586  0.65564207  0.13365135  1
  O  O29  1  0.59572751  0.99510752  0.65917094  1
  O  O30  1  0.41272026  0.00648244  0.32217111  1
  O  O31  1  0.41577972  0.35945689  0.87425445  1
  O  O32  1  0.30966511  0.70072693  0.82886628  1
  O  O33  1  0.23143693  0.62776329  0.44052648  1
  O  O34  1  0.32336778  0.38372245  0.36764967  1
  O  O35  1  0.33230385  0.93546708  0.93816959  1
  O  O36  1  0.17006875  0.56203135  0.07549439  1
  O  O37  1  0.17925321  0.11494314  0.63575095  1
  O  O38  1  0.22365401  0.85952069  0.59470525  1
  O  O39  1  0.19855515  0.80025121  0.16782395  1
  O  O40  1  0.09142498  0.15776174  0.12688217  1
  O  O41  1  0.08509146  0.50585800  0.68204105  1
