# generated using pymatgen
data_Pr5Fe2Sb
_symmetry_space_group_name_H-M   'P 1'
_cell_length_a   7.94770928
_cell_length_b   7.94770928
_cell_length_c   9.01761112
_cell_angle_alpha   116.14709020
_cell_angle_beta   116.14709020
_cell_angle_gamma   90.00000000
_symmetry_Int_Tables_number   1
_chemical_formula_structural   Pr5Fe2Sb
_chemical_formula_sum   'Pr10 Fe4 Sb2'
_cell_volume   445.46318176
_cell_formula_units_Z   2
loop_
 _symmetry_equiv_pos_site_id
 _symmetry_equiv_pos_as_xyz
  1  'x, y, z'
loop_
 _atom_site_type_symbol
 _atom_site_label
 _atom_site_symmetry_multiplicity
 _atom_site_fract_x
 _atom_site_fract_y
 _atom_site_fract_z
 _atom_site_occupancy
  Pr  Pr0  1  0.00000000  0.00000000  0.00000000  1
  Pr  Pr1  1  0.50000000  0.50000000  0.00000000  1
  Pr  Pr2  1  0.30477797  0.80477797  0.27616422  1
  Pr  Pr3  1  0.69522203  0.19522203  0.72383578  1
  Pr  Pr4  1  0.97138626  0.47138626  0.27616422  1
  Pr  Pr5  1  0.47138626  0.30477797  0.27616422  1
  Pr  Pr6  1  0.19522203  0.02861374  0.72383578  1
  Pr  Pr7  1  0.02861374  0.52861374  0.72383578  1
  Pr  Pr8  1  0.52861374  0.69522203  0.72383578  1
  Pr  Pr9  1  0.80477797  0.97138626  0.27616422  1
  Fe  Fe10  1  0.59965970  0.09965970  0.00000000  1
  Fe  Fe11  1  0.40034030  0.90034030  -0.00000000  1
  Fe  Fe12  1  0.90034030  0.59965970  0.00000000  1
  Fe  Fe13  1  0.09965970  0.40034030  0.00000000  1
  Sb  Sb14  1  0.25000000  0.25000000  0.50000000  1
  Sb  Sb15  1  0.75000000  0.75000000  0.50000000  1
