# generated using pymatgen
data_LiFe8(BO3)8
_symmetry_space_group_name_H-M   'P 1'
_cell_length_a   5.23723637
_cell_length_b   9.13518480
_cell_length_c   10.18181104
_cell_angle_alpha   89.95579653
_cell_angle_beta   89.85700419
_cell_angle_gamma   88.94707733
_symmetry_Int_Tables_number   1
_chemical_formula_structural   LiFe8(BO3)8
_chemical_formula_sum   'Li1 Fe8 B8 O24'
_cell_volume   487.04573063
_cell_formula_units_Z   1
loop_
 _symmetry_equiv_pos_site_id
 _symmetry_equiv_pos_as_xyz
  1  'x, y, z'
loop_
 _atom_site_type_symbol
 _atom_site_label
 _atom_site_symmetry_multiplicity
 _atom_site_fract_x
 _atom_site_fract_y
 _atom_site_fract_z
 _atom_site_occupancy
  Li  Li0  1  0.81710156  0.82612571  0.15889697  1
  Fe  Fe1  1  0.83816801  0.16302660  0.62690029  1
  Fe  Fe2  1  0.82822367  0.48988602  0.12684794  1
  Fe  Fe3  1  0.67305668  0.00245117  0.87442183  1
  Fe  Fe4  1  0.66789982  0.33448465  0.37853135  1
  Fe  Fe5  1  0.32697300  0.66282953  0.62595784  1
  Fe  Fe6  1  0.32667257  0.00720510  0.12952575  1
  Fe  Fe7  1  0.18042640  0.84238016  0.38425523  1
  Fe  Fe8  1  0.16944554  0.50513017  0.87714535  1
  B  B9  1  0.83769251  0.49931372  0.62832709  1
  B  B10  1  0.82725295  0.16693772  0.12668168  1
  B  B11  1  0.66238251  0.00710883  0.36721156  1
  B  B12  1  0.67104978  0.33202273  0.87798702  1
  B  B13  1  0.34492113  0.99778782  0.63228674  1
  B  B14  1  0.32726968  0.67225934  0.12288328  1
  B  B15  1  0.15963920  0.49929614  0.37758693  1
  B  B16  1  0.17549369  0.83318267  0.88168690  1
  O  O17  1  0.91359848  0.48962062  0.32132561  1
  O  O18  1  0.91802802  0.85186190  0.88909290  1
  O  O19  1  0.78486427  0.20310551  0.82972919  1
  O  O20  1  0.74571264  0.13289700  0.43396544  1
  O  O21  1  0.81455062  0.89176433  0.34104658  1
  O  O22  1  0.83300613  0.43559215  0.93423737  1
  O  O23  1  0.67389791  0.61420108  0.63182645  1
  O  O24  1  0.68268805  0.04925069  0.07970234  1
  O  O25  1  0.76852199  0.36593655  0.57069305  1
  O  O26  1  0.69753365  0.29252879  0.17367825  1
  O  O27  1  0.58787219  0.65321998  0.13013273  1
  O  O28  1  0.59691350  0.00516659  0.67845215  1
  O  O29  1  0.41016451  0.01210298  0.31925499  1
  O  O30  1  0.41758203  0.35667964  0.87250019  1
  O  O31  1  0.28663065  0.70495776  0.83063205  1
  O  O32  1  0.22484095  0.62988946  0.43752359  1
  O  O33  1  0.32326082  0.38341588  0.37201920  1
  O  O34  1  0.33567731  0.94162673  0.93013982  1
  O  O35  1  0.17071797  0.56208651  0.07454792  1
  O  O36  1  0.18517734  0.11608333  0.63677155  1
  O  O37  1  0.26353276  0.86558545  0.58375563  1
  O  O38  1  0.20499051  0.80235787  0.16138609  1
  O  O39  1  0.08299974  0.15836684  0.12512512  1
  O  O40  1  0.08302626  0.50604227  0.68217207  1
