# generated using pymatgen
data_Co3(OF2)2
_symmetry_space_group_name_H-M   'P 1'
_cell_length_a   6.98413128
_cell_length_b   5.62533074
_cell_length_c   5.62533074
_cell_angle_alpha   76.00240762
_cell_angle_beta   74.40684017
_cell_angle_gamma   74.40684017
_symmetry_Int_Tables_number   1
_chemical_formula_structural   Co3(OF2)2
_chemical_formula_sum   'Co6 O4 F8'
_cell_volume   201.58282477
_cell_formula_units_Z   2
loop_
 _symmetry_equiv_pos_site_id
 _symmetry_equiv_pos_as_xyz
  1  'x, y, z'
loop_
 _atom_site_type_symbol
 _atom_site_label
 _atom_site_symmetry_multiplicity
 _atom_site_fract_x
 _atom_site_fract_y
 _atom_site_fract_z
 _atom_site_occupancy
  Co  Co0  1  0.83994777  0.66822301  0.66822301  1
  Co  Co1  1  0.33466008  0.65168608  0.65168608  1
  Co  Co2  1  0.66533992  0.34831392  0.34831392  1
  Co  Co3  1  0.16005223  0.33177699  0.33177699  1
  Co  Co4  1  0.50000000  0.00000000  0.00000000  1
  Co  Co5  1  0.00000000  0.00000000  0.00000000  1
  O  O6  1  0.62983116  0.56510357  0.56510357  1
  O  O7  1  0.95625493  0.24762752  0.24762752  1
  O  O8  1  0.37016884  0.43489643  0.43489643  1
  O  O9  1  0.04374507  0.75237348  0.75237348  1
  F  F10  1  0.32974968  0.35986642  0.97464308  1
  F  F11  1  0.67025032  0.02535692  0.64013358  1
  F  F12  1  0.30727404  0.87939441  0.87939441  1
  F  F13  1  0.69272596  0.12060559  0.12060559  1
  F  F14  1  0.32974968  0.97464308  0.35986642  1
  F  F15  1  0.67025032  0.64013358  0.02535692  1
  F  F16  1  0.00000000  0.29938963  0.70061037  1
  F  F17  1  0.00000000  0.70061037  0.29938963  1
