# generated using pymatgen
data_Li3Fe8(BO3)8
_symmetry_space_group_name_H-M   'P 1'
_cell_length_a   5.23345583
_cell_length_b   9.16713935
_cell_length_c   11.33130246
_cell_angle_alpha   66.98395130
_cell_angle_beta   76.70159259
_cell_angle_gamma   89.41619858
_symmetry_Int_Tables_number   1
_chemical_formula_structural   Li3Fe8(BO3)8
_chemical_formula_sum   'Li3 Fe8 B8 O24'
_cell_volume   485.00259801
_cell_formula_units_Z   1
loop_
 _symmetry_equiv_pos_site_id
 _symmetry_equiv_pos_as_xyz
  1  'x, y, z'
loop_
 _atom_site_type_symbol
 _atom_site_label
 _atom_site_symmetry_multiplicity
 _atom_site_fract_x
 _atom_site_fract_y
 _atom_site_fract_z
 _atom_site_occupancy
  Li  Li0  1  0.70973642  0.72421862  0.91413401  1
  Li  Li1  1  0.51434877  0.49553988  0.65527153  1
  Li  Li2  1  0.02364757  0.99982124  0.64952733  1
  Fe  Fe3  1  0.97846919  0.65089850  0.37039100  1
  Fe  Fe4  1  0.74179708  0.06897346  0.88235181  1
  Fe  Fe5  1  0.53497622  0.84393000  0.62373545  1
  Fe  Fe6  1  0.75627890  0.43347309  0.13975399  1
  Fe  Fe7  1  0.22892573  0.55721007  0.88632362  1
  Fe  Fe8  1  0.47992998  0.14618658  0.37432826  1
  Fe  Fe9  1  0.02464622  0.35086237  0.62725827  1
  Fe  Fe10  1  0.26280903  0.93580262  0.12476511  1
  B  B11  1  0.96823130  0.30683641  0.38767339  1
  B  B12  1  0.74389480  0.40923707  0.86509229  1
  B  B13  1  0.52232487  0.18655814  0.62578607  1
  B  B14  1  0.76195544  0.10037603  0.13345933  1
  B  B15  1  0.47249228  0.81260171  0.37705397  1
  B  B16  1  0.23112138  0.88591553  0.87786838  1
  B  B17  1  0.02971106  0.68058225  0.63172448  1
  B  B18  1  0.27222591  0.61294784  0.12076974  1
  O  O19  1  0.98167997  0.90349377  0.85749570  1
  O  O20  1  0.88926979  0.30467801  0.82022325  1
  O  O21  1  0.85522269  0.50348814  0.91433523  1
  O  O22  1  0.90177336  0.80777907  0.63655002  1
  O  O23  1  0.92832709  0.57582604  0.58425472  1
  O  O24  1  0.76961276  0.16962155  0.65919011  1
  O  O25  1  0.73361933  0.31981367  0.34934975  1
  O  O26  1  0.49012409  0.42594840  0.85258177  1
  O  O27  1  0.38305395  0.77370613  0.84161470  1
  O  O28  1  0.53720022  0.92506725  0.42177107  1
  O  O29  1  0.62392333  0.68953782  0.38357494  1
  O  O30  1  0.34833563  0.97314313  0.92995770  1
  O  O31  1  0.63055568  0.01335949  0.08470459  1
  O  O32  1  0.38403182  0.31396289  0.63052395  1
  O  O33  1  0.42075279  0.07398732  0.59099229  1
  O  O34  1  0.61843906  0.20478779  0.18031171  1
  O  O35  1  0.53535652  0.61990531  0.10329494  1
  O  O36  1  0.26145721  0.64614084  0.67423305  1
  O  O37  1  0.24031810  0.82473717  0.33247110  1
  O  O38  1  0.03967171  0.42419980  0.43018092  1
  O  O39  1  0.12527953  0.18829523  0.38982742  1
  O  O40  1  0.14108755  0.51598973  0.07856424  1
  O  O41  1  0.11590867  0.70902044  0.17568342  1
  O  O42  1  0.02050501  0.08319861  0.13244438  1
