# generated using pymatgen
data_LiFe4(BO3)4
_symmetry_space_group_name_H-M   'P 1'
_cell_length_a   5.25182489
_cell_length_b   9.13413914
_cell_length_c   11.52404483
_cell_angle_alpha   66.34382699
_cell_angle_beta   77.30457595
_cell_angle_gamma   89.07381747
_symmetry_Int_Tables_number   1
_chemical_formula_structural   LiFe4(BO3)4
_chemical_formula_sum   'Li2 Fe8 B8 O24'
_cell_volume   492.37879932
_cell_formula_units_Z   2
loop_
 _symmetry_equiv_pos_site_id
 _symmetry_equiv_pos_as_xyz
  1  'x, y, z'
loop_
 _atom_site_type_symbol
 _atom_site_label
 _atom_site_symmetry_multiplicity
 _atom_site_fract_x
 _atom_site_fract_y
 _atom_site_fract_z
 _atom_site_occupancy
  Li  Li0  1  0.51035976  0.49544915  0.65986863  1
  Li  Li1  1  0.22987627  0.24618160  0.16307278  1
  Fe  Fe2  1  0.98490125  0.64602134  0.37453116  1
  Fe  Fe3  1  0.73251497  0.06297038  0.88551253  1
  Fe  Fe4  1  0.51158071  0.85412634  0.62881776  1
  Fe  Fe5  1  0.76500408  0.43931393  0.12299174  1
  Fe  Fe6  1  0.22620349  0.56811600  0.88019218  1
  Fe  Fe7  1  0.49129986  0.15262504  0.37849662  1
  Fe  Fe8  1  0.02042092  0.34083025  0.63150406  1
  Fe  Fe9  1  0.26210989  0.92955603  0.12499640  1
  B  B10  1  0.97918499  0.31743676  0.37367765  1
  B  B11  1  0.74305166  0.39368058  0.87133313  1
  B  B12  1  0.53282993  0.19151937  0.62583459  1
  B  B13  1  0.76325111  0.11423282  0.12696731  1
  B  B14  1  0.46946248  0.81093324  0.38443049  1
  B  B15  1  0.23674470  0.90182794  0.87142322  1
  B  B16  1  0.01866237  0.68195398  0.62418648  1
  B  B17  1  0.26167724  0.59233260  0.13635394  1
  O  O18  1  0.97811240  0.91800852  0.87659023  1
  O  O19  1  0.89349520  0.28842678  0.82552320  1
  O  O20  1  0.85848852  0.46336768  0.93733399  1
  O  O21  1  0.85521339  0.79474140  0.63217723  1
  O  O22  1  0.93741573  0.56566267  0.58389363  1
  O  O23  1  0.75420374  0.16671675  0.67607574  1
  O  O24  1  0.75311961  0.33184839  0.32694946  1
  O  O25  1  0.50656884  0.42528155  0.84598719  1
  O  O26  1  0.36909999  0.80235237  0.81654611  1
  O  O27  1  0.52660747  0.92569691  0.43070651  1
  O  O28  1  0.63752695  0.69659245  0.38505057  1
  O  O29  1  0.37239872  0.98087538  0.92279402  1
  O  O30  1  0.63842616  0.03212197  0.07383497  1
  O  O31  1  0.38261793  0.31463627  0.62716701  1
  O  O32  1  0.46787590  0.08888552  0.57200967  1
  O  O33  1  0.59957605  0.21491494  0.17624081  1
  O  O34  1  0.52158595  0.58606955  0.13102248  1
  O  O35  1  0.26215516  0.66852465  0.65578799  1
  O  O36  1  0.24014788  0.81863884  0.34281147  1
  O  O37  1  0.02337465  0.41275460  0.43682653  1
  O  O38  1  0.15556957  0.21508464  0.35297921  1
  O  O39  1  0.14266331  0.49252502  0.09281168  1
  O  O40  1  0.11115046  0.69126132  0.18360459  1
  O  O41  1  0.01314374  0.10558048  0.13540505  1
