# generated using pymatgen
data_Li2V4O5F8
_symmetry_space_group_name_H-M   'P 1'
_cell_length_a   3.69587184
_cell_length_b   6.47797073
_cell_length_c   10.57628248
_cell_angle_alpha   79.58273476
_cell_angle_beta   90.00000000
_cell_angle_gamma   73.42533720
_symmetry_Int_Tables_number   1
_chemical_formula_structural   Li2V4O5F8
_chemical_formula_sum   'Li2 V4 O5 F8'
_cell_volume   238.33542655
_cell_formula_units_Z   1
loop_
 _symmetry_equiv_pos_site_id
 _symmetry_equiv_pos_as_xyz
  1  'x, y, z'
loop_
 _atom_site_type_symbol
 _atom_site_label
 _atom_site_symmetry_multiplicity
 _atom_site_fract_x
 _atom_site_fract_y
 _atom_site_fract_z
 _atom_site_occupancy
  Li  Li0  1  0.57994884  0.84010132  0.63476909  1
  Li  Li1  1  0.42005116  0.15989868  0.36523091  1
  V  V2  1  0.64505536  0.70988828  0.99560039  1
  V  V3  1  0.71975106  0.56049787  0.38227261  1
  V  V4  1  0.28024894  0.43950213  0.61772739  1
  V  V5  1  0.35494464  0.29011172  0.00439961  1
  O  O6  1  0.76371029  0.47257943  0.58563086  1
  O  O7  1  0.81797611  0.36404877  0.99230969  1
  O  O8  1  0.18202389  0.63595123  0.00769031  1
  O  O9  1  0.23628971  0.52742057  0.41436914  1
  O  O10  1  0.50000000  0.00000000  0.00000000  1
  F  F11  1  0.61900072  0.76199857  0.81670903  1
  F  F12  1  0.57256649  0.85486702  0.40200070  1
  F  F13  1  0.12588937  0.74822126  0.62340325  1
  F  F14  1  0.68012926  0.63974247  0.20044836  1
  F  F15  1  0.31987074  0.36025753  0.79955164  1
  F  F16  1  0.87411063  0.25177874  0.37659675  1
  F  F17  1  0.42743351  0.14513298  0.59799930  1
  F  F18  1  0.38099928  0.23800143  0.18329097  1
