# generated using pymatgen
data_Li4VF7
_symmetry_space_group_name_H-M   'P 1'
_cell_length_a   7.69313037
_cell_length_b   7.69313053
_cell_length_c   5.54265563
_cell_angle_alpha   79.57252268
_cell_angle_beta   100.42747800
_cell_angle_gamma   110.88570795
_symmetry_Int_Tables_number   1
_chemical_formula_structural   Li4VF7
_chemical_formula_sum   'Li8 V2 F14'
_cell_volume   298.99096498
_cell_formula_units_Z   2
loop_
 _symmetry_equiv_pos_site_id
 _symmetry_equiv_pos_as_xyz
  1  'x, y, z'
loop_
 _atom_site_type_symbol
 _atom_site_label
 _atom_site_symmetry_multiplicity
 _atom_site_fract_x
 _atom_site_fract_y
 _atom_site_fract_z
 _atom_site_occupancy
  Li  Li0  1  0.05690533  0.74492548  0.33484903  1
  Li  Li1  1  0.25507452  0.94309467  0.83484903  1
  Li  Li2  1  0.30568051  0.57357178  0.76419197  1
  Li  Li3  1  0.42642822  0.69431949  0.26419197  1
  Li  Li4  1  0.57357178  0.30568051  0.73580803  1
  Li  Li5  1  0.69431949  0.42642822  0.23580803  1
  Li  Li6  1  0.74492548  0.05690533  0.16515097  1
  Li  Li7  1  0.94309467  0.25507452  0.66515097  1
  V  V8  1  0.22899392  0.22899392  0.25000000  1
  V  V9  1  0.77100608  0.77100608  0.75000000  1
  F  F10  1  0.00422740  0.80501384  0.64414070  1
  F  F11  1  0.19498616  0.99577260  0.14414070  1
  F  F12  1  0.14982135  0.33438467  0.90699288  1
  F  F13  1  0.22048823  0.61578384  0.43391586  1
  F  F14  1  0.38421616  0.77951177  0.93391586  1
  F  F15  1  0.33438467  0.14982135  0.59300712  1
  F  F16  1  0.44726389  0.44726389  0.25000000  1
  F  F17  1  0.55273611  0.55273611  0.75000000  1
  F  F18  1  0.66561533  0.85017865  0.40699288  1
  F  F19  1  0.61578384  0.22048823  0.06608414  1
  F  F20  1  0.77951177  0.38421616  0.56608414  1
  F  F21  1  0.85017865  0.66561533  0.09300712  1
  F  F22  1  0.80501384  0.00422740  0.85585930  1
  F  F23  1  0.99577260  0.19498616  0.35585930  1
