# generated using pymatgen
data_LiV2O3F
_symmetry_space_group_name_H-M   'P 1'
_cell_length_a   6.01793251
_cell_length_b   8.02166571
_cell_length_c   8.02166571
_cell_angle_alpha   115.51839779
_cell_angle_beta   112.07711376
_cell_angle_gamma   67.92288624
_symmetry_Int_Tables_number   1
_chemical_formula_structural   LiV2O3F
_chemical_formula_sum   'Li4 V8 O12 F4'
_cell_volume   313.06189521
_cell_formula_units_Z   4
loop_
 _symmetry_equiv_pos_site_id
 _symmetry_equiv_pos_as_xyz
  1  'x, y, z'
loop_
 _atom_site_type_symbol
 _atom_site_label
 _atom_site_symmetry_multiplicity
 _atom_site_fract_x
 _atom_site_fract_y
 _atom_site_fract_z
 _atom_site_occupancy
  Li  Li0  1  0.36218135  0.99082837  0.24940587  1
  Li  Li1  1  0.12700720  0.26061823  0.99641805  1
  Li  Li2  1  0.86218135  0.75059413  0.00917163  1
  Li  Li3  1  0.62700720  0.00358195  0.73938177  1
  V  V4  1  0.76068281  0.23725255  0.22446975  1
  V  V5  1  0.01156189  0.99150662  0.50131880  1
  V  V6  1  0.51156189  0.49868120  0.00849338  1
  V  V7  1  0.87140597  0.62983002  0.37504061  1
  V  V8  1  0.37140597  0.62495939  0.37016998  1
  V  V9  1  0.62048333  0.38136987  0.63361527  1
  V  V10  1  0.12048333  0.36638473  0.61863013  1
  V  V11  1  0.26068281  0.77553025  0.76274745  1
  O  O12  1  0.40947776  0.38349479  0.13934190  1
  O  O13  1  0.08698603  0.12975946  0.37981444  1
  O  O14  1  0.86688111  0.38770352  0.14477412  1
  O  O15  1  0.74758272  0.47634038  0.48535872  1
  O  O16  1  0.97664064  0.25207654  0.71693925  1
  O  O17  1  0.52198940  0.72522861  0.25344941  1
  O  O18  1  0.47664064  0.28306075  0.74792346  1
  O  O19  1  0.02198940  0.74655059  0.27477139  1
  O  O20  1  0.24758272  0.51464128  0.52365962  1
  O  O21  1  0.90947776  0.86065810  0.61650521  1
  O  O22  1  0.58698603  0.62018556  0.87024054  1
  O  O23  1  0.36688111  0.85522588  0.61229648  1
  F  F24  1  0.25407923  0.00546376  0.00018463  1
  F  F25  1  0.63304256  0.12784971  0.37919259  1
  F  F26  1  0.13304256  0.62080741  0.87215029  1
  F  F27  1  0.75407923  -0.00018463  0.99453624  1
