# generated using pymatgen
data_SbTe2SeF6
_symmetry_space_group_name_H-M   'P 1'
_cell_length_a   9.01822658
_cell_length_b   12.66416491
_cell_length_c   16.37612417
_cell_angle_alpha   90.00000000
_cell_angle_beta   90.00000000
_cell_angle_gamma   90.00000000
_symmetry_Int_Tables_number   1
_chemical_formula_structural   SbTe2SeF6
_chemical_formula_sum   'Sb8 Te16 Se8 F48'
_cell_volume   1870.28944296
_cell_formula_units_Z   8
loop_
 _symmetry_equiv_pos_site_id
 _symmetry_equiv_pos_as_xyz
  1  'x, y, z'
loop_
 _atom_site_type_symbol
 _atom_site_label
 _atom_site_symmetry_multiplicity
 _atom_site_fract_x
 _atom_site_fract_y
 _atom_site_fract_z
 _atom_site_occupancy
  Sb  Sb0  1  0.54193742  0.21343969  0.23011985  1
  Sb  Sb1  1  0.95806258  0.78656031  0.73011985  1
  Sb  Sb2  1  0.45806258  0.71343969  0.26988015  1
  Sb  Sb3  1  0.04193742  0.28656031  0.76988015  1
  Sb  Sb4  1  0.01491953  0.04658275  0.05300532  1
  Sb  Sb5  1  0.48508047  0.95341725  0.55300532  1
  Sb  Sb6  1  0.98508047  0.54658275  0.44699468  1
  Sb  Sb7  1  0.51491953  0.45341725  0.94699468  1
  Te  Te8  1  0.54323458  0.60924784  0.54500000  1
  Te  Te9  1  0.95676542  0.39075216  0.04500000  1
  Te  Te10  1  0.45676542  0.10924784  0.95500000  1
  Te  Te11  1  0.04323458  0.89075216  0.45500000  1
  Te  Te12  1  0.13418943  0.00643945  0.31349081  1
  Te  Te13  1  0.36581057  0.99356055  0.81349081  1
  Te  Te14  1  0.86581057  0.50643945  0.18650919  1
  Te  Te15  1  0.63418943  0.49356055  0.68650919  1
  Te  Te16  1  0.14987066  0.43043293  0.17004566  1
  Te  Te17  1  0.35012934  0.56956707  0.67004566  1
  Te  Te18  1  0.85012934  0.93043293  0.32995434  1
  Te  Te19  1  0.64987066  0.06956707  0.82995434  1
  Te  Te20  1  0.13962446  0.66880867  0.05335158  1
  Te  Te21  1  0.36037554  0.33119133  0.55335158  1
  Te  Te22  1  0.86037554  0.16880867  0.44664842  1
  Te  Te23  1  0.63962446  0.83119133  0.94664842  1
  Se  Se24  1  0.09845279  0.19847141  0.36854102  1
  Se  Se25  1  0.40154721  0.80152859  0.86854102  1
  Se  Se26  1  0.90154721  0.69847141  0.13145898  1
  Se  Se27  1  0.59845279  0.30152859  0.63145898  1
  Se  Se28  1  0.49213279  0.44236309  0.45103725  1
  Se  Se29  1  0.00786721  0.55763691  0.95103725  1
  Se  Se30  1  0.50786721  0.94236309  0.04896275  1
  Se  Se31  1  0.99213279  0.05763691  0.54896275  1
  F  F32  1  0.95842773  0.10915431  0.15537970  1
  F  F33  1  0.54157227  0.89084569  0.65537970  1
  F  F34  1  0.04157227  0.60915431  0.34462030  1
  F  F35  1  0.45842773  0.39084569  0.84462030  1
  F  F36  1  0.33364009  0.02953450  0.61161248  1
  F  F37  1  0.16635991  0.97046550  0.11161248  1
  F  F38  1  0.66635991  0.52953450  0.88838752  1
  F  F39  1  0.83364009  0.47046550  0.38838752  1
  F  F40  1  0.51803083  0.19611035  0.11398902  1
  F  F41  1  0.98196917  0.80388965  0.61398902  1
  F  F42  1  0.48196917  0.69611035  0.38601098  1
  F  F43  1  0.01803083  0.30388965  0.88601098  1
  F  F44  1  0.11812379  0.42900779  0.43023370  1
  F  F45  1  0.38187621  0.57099221  0.93023370  1
  F  F46  1  0.88187621  0.92900779  0.06976630  1
  F  F47  1  0.61812379  0.07099221  0.56976630  1
  F  F48  1  0.72181689  0.29183114  0.21219451  1
  F  F49  1  0.77818311  0.70816886  0.71219451  1
  F  F50  1  0.27818311  0.79183114  0.28780549  1
  F  F51  1  0.22181689  0.20816886  0.78780549  1
  F  F52  1  0.42935773  0.34262687  0.22444777  1
  F  F53  1  0.07064227  0.65737313  0.72444777  1
  F  F54  1  0.57064227  0.84262687  0.27555223  1
  F  F55  1  0.92935773  0.15737313  0.77555223  1
  F  F56  1  0.64941146  0.08322473  0.23577683  1
  F  F57  1  0.85058854  0.91677527  0.73577683  1
  F  F58  1  0.35058854  0.58322473  0.26422317  1
  F  F59  1  0.14941146  0.41677527  0.76422317  1
  F  F60  1  0.56400136  0.23136538  0.34616714  1
  F  F61  1  0.93599864  0.76863462  0.84616714  1
  F  F62  1  0.43599864  0.73136538  0.15383286  1
  F  F63  1  0.06400136  0.26863462  0.65383286  1
  F  F64  1  0.35903849  0.37804192  0.00211988  1
  F  F65  1  0.14096151  0.62195808  0.50211988  1
  F  F66  1  0.64096151  0.87804192  0.49788012  1
  F  F67  1  0.85903849  0.12195808  0.99788012  1
  F  F68  1  0.14955230  0.16344349  0.03540605  1
  F  F69  1  0.35044770  0.83655651  0.53540605  1
  F  F70  1  0.85044770  0.66344349  0.46459395  1
  F  F71  1  0.64955230  0.33655651  0.96459395  1
  F  F72  1  0.58120681  0.51410230  0.04825257  1
  F  F73  1  0.91879319  0.48589770  0.54825257  1
  F  F74  1  0.41879319  0.01410230  0.45174743  1
  F  F75  1  0.08120681  0.98589770  0.95174743  1
  F  F76  1  0.35766352  0.13745836  0.24701563  1
  F  F77  1  0.14233648  0.86254164  0.74701563  1
  F  F78  1  0.64233648  0.63745836  0.25298437  1
  F  F79  1  0.85766352  0.36254164  0.75298437  1
