# generated using pymatgen
data_LiMn2F7
_symmetry_space_group_name_H-M   'P 1'
_cell_length_a   7.26209206
_cell_length_b   7.59761103
_cell_length_c   9.79646403
_cell_angle_alpha   90.00000000
_cell_angle_beta   88.44628407
_cell_angle_gamma   90.00000000
_symmetry_Int_Tables_number   1
_chemical_formula_structural   LiMn2F7
_chemical_formula_sum   'Li4 Mn8 F28'
_cell_volume   540.31677803
_cell_formula_units_Z   4
loop_
 _symmetry_equiv_pos_site_id
 _symmetry_equiv_pos_as_xyz
  1  'x, y, z'
loop_
 _atom_site_type_symbol
 _atom_site_label
 _atom_site_symmetry_multiplicity
 _atom_site_fract_x
 _atom_site_fract_y
 _atom_site_fract_z
 _atom_site_occupancy
  Li  Li0  1  0.38717372  0.12604447  0.38167380  1
  Li  Li1  1  0.38717372  0.37395553  0.88167380  1
  Li  Li2  1  0.61282628  0.62604447  0.11832620  1
  Li  Li3  1  0.61282628  0.87395553  0.61832620  1
  Mn  Mn4  1  0.08404480  0.61959126  0.11174774  1
  Mn  Mn5  1  0.08404480  0.88040874  0.61174774  1
  Mn  Mn6  1  0.35080010  0.62858118  0.42875938  1
  Mn  Mn7  1  0.35080010  0.87141882  0.92875938  1
  Mn  Mn8  1  0.64919990  0.12858118  0.07124062  1
  Mn  Mn9  1  0.64919990  0.37141882  0.57124062  1
  Mn  Mn10  1  0.91595520  0.11959126  0.38825226  1
  Mn  Mn11  1  0.91595520  0.38040874  0.88825226  1
  F  F12  1  0.01555536  0.35238016  0.06411088  1
  F  F13  1  0.01555536  0.14761984  0.56411088  1
  F  F14  1  0.14446720  0.15477394  0.31333221  1
  F  F15  1  0.18348559  0.88936294  0.07595085  1
  F  F16  1  0.17340091  0.56873966  0.29333178  1
  F  F17  1  0.14446720  0.34522606  0.81333221  1
  F  F18  1  0.18348559  0.61063706  0.57595085  1
  F  F19  1  0.17340091  0.93126034  0.79333178  1
  F  F20  1  0.32342431  0.57997845  0.02052097  1
  F  F21  1  0.32342431  0.92002155  0.52052097  1
  F  F22  1  0.43866659  0.35649808  0.45566780  1
  F  F23  1  0.43866659  0.14350192  0.95566780  1
  F  F24  1  0.50211885  0.20511290  0.21290329  1
  F  F25  1  0.50211885  0.29488710  0.71290329  1
  F  F26  1  0.49788115  0.70511290  0.28709671  1
  F  F27  1  0.49788115  0.79488710  0.78709671  1
  F  F28  1  0.56133341  0.85649808  0.04433220  1
  F  F29  1  0.56133341  0.64350192  0.54433220  1
  F  F30  1  0.67657569  0.07997845  0.47947903  1
  F  F31  1  0.67657569  0.42002155  0.97947903  1
  F  F32  1  0.82659909  0.06873966  0.20666822  1
  F  F33  1  0.81651441  0.38936294  0.42404915  1
  F  F34  1  0.85553280  0.65477394  0.18666779  1
  F  F35  1  0.82659909  0.43126034  0.70666822  1
  F  F36  1  0.81651441  0.11063706  0.92404915  1
  F  F37  1  0.85553280  0.84522606  0.68666779  1
  F  F38  1  0.98444464  0.85238016  0.43588912  1
  F  F39  1  0.98444464  0.64761984  0.93588912  1
