# generated using pymatgen
data_V5F11
_symmetry_space_group_name_H-M   'P 1'
_cell_length_a   8.49770523
_cell_length_b   14.59916760
_cell_length_c   8.11800355
_cell_angle_alpha   90.00000000
_cell_angle_beta   98.45018550
_cell_angle_gamma   90.00000000
_symmetry_Int_Tables_number   1
_chemical_formula_structural   V5F11
_chemical_formula_sum   'V20 F44'
_cell_volume   996.18159523
_cell_formula_units_Z   4
loop_
 _symmetry_equiv_pos_site_id
 _symmetry_equiv_pos_as_xyz
  1  'x, y, z'
loop_
 _atom_site_type_symbol
 _atom_site_label
 _atom_site_symmetry_multiplicity
 _atom_site_fract_x
 _atom_site_fract_y
 _atom_site_fract_z
 _atom_site_occupancy
  V  V0  1  0.04742633  0.66820921  0.77874512  1
  V  V1  1  0.07438390  0.17145088  0.56819690  1
  V  V2  1  0.19685488  0.32395242  0.94864512  1
  V  V3  1  0.23524756  0.99587539  0.77070404  1
  V  V4  1  0.15817439  0.83765852  0.14703697  1
  V  V5  1  0.26475244  0.49587539  0.72929596  1
  V  V6  1  0.30314512  0.82395242  0.55135488  1
  V  V7  1  0.42561610  0.67145088  0.93180310  1
  V  V8  1  0.34182561  0.33765852  0.35296303  1
  V  V9  1  0.45257367  0.16820921  0.72125488  1
  V  V10  1  0.54742633  0.83179079  0.27874512  1
  V  V11  1  0.65817439  0.66234148  0.64703697  1
  V  V12  1  0.57438390  0.32854912  0.06819690  1
  V  V13  1  0.69685488  0.17604758  0.44864512  1
  V  V14  1  0.73524756  0.50412461  0.27070404  1
  V  V15  1  0.84182561  0.16234148  0.85296303  1
  V  V16  1  0.76475244  0.00412461  0.22929596  1
  V  V17  1  0.80314512  0.67604758  0.05135488  1
  V  V18  1  0.92561610  0.82854912  0.43180310  1
  V  V19  1  0.95257367  0.33179079  0.22125488  1
  F  F20  1  0.03977417  0.08314664  0.77050262  1
  F  F21  1  0.09179317  0.42092946  0.78185691  1
  F  F22  1  0.99773705  0.25014300  0.01063541  1
  F  F23  1  0.10222459  0.90459540  0.60040927  1
  F  F24  1  0.11933375  0.58146456  0.60122730  1
  F  F25  1  0.18407376  0.92754872  0.95670876  1
  F  F26  1  0.13089607  0.26041841  0.38376303  1
  F  F27  1  0.12842307  0.76077079  0.36760681  1
  F  F28  1  0.22676098  0.58249859  0.92290949  1
  F  F29  1  0.24074082  0.24238424  0.74446552  1
  F  F30  1  0.16370865  0.39658211  0.16996332  1
  F  F31  1  0.25925918  0.74238424  0.75553448  1
  F  F32  1  0.27323902  0.08249859  0.57709051  1
  F  F33  1  0.31592624  0.42754872  0.54329124  1
  F  F34  1  0.38066625  0.08146456  0.89877270  1
  F  F35  1  0.39777541  0.40459540  0.89959073  1
  F  F36  1  0.33629135  0.89658211  0.33003668  1
  F  F37  1  0.40820683  0.92092946  0.71814309  1
  F  F38  1  0.37157693  0.26077079  0.13239319  1
  F  F39  1  0.36910393  0.76041841  0.11623697  1
  F  F40  1  0.46022583  0.58314664  0.72949738  1
  F  F41  1  0.49773705  0.24985700  0.51063541  1
  F  F42  1  0.50226295  0.75014300  0.48936459  1
  F  F43  1  0.53977417  0.41685336  0.27050262  1
  F  F44  1  0.63089607  0.23958159  0.88376303  1
  F  F45  1  0.62842307  0.73922921  0.86760681  1
  F  F46  1  0.59179317  0.07907054  0.28185691  1
  F  F47  1  0.66370865  0.10341789  0.66996332  1
  F  F48  1  0.60222459  0.59540460  0.10040927  1
  F  F49  1  0.61933375  0.91853544  0.10122730  1
  F  F50  1  0.68407376  0.57245128  0.45670876  1
  F  F51  1  0.72676098  0.91750141  0.42290949  1
  F  F52  1  0.74074082  0.25761576  0.24446552  1
  F  F53  1  0.83629135  0.60341789  0.83003668  1
  F  F54  1  0.75925918  0.75761576  0.25553448  1
  F  F55  1  0.77323902  0.41750141  0.07709051  1
  F  F56  1  0.87157693  0.23922921  0.63239319  1
  F  F57  1  0.86910393  0.73958159  0.61623697  1
  F  F58  1  0.81592624  0.07245128  0.04329124  1
  F  F59  1  0.88066625  0.41853544  0.39877270  1
  F  F60  1  0.89777541  0.09540460  0.39959073  1
  F  F61  1  0.00226295  0.74985700  0.98936459  1
  F  F62  1  0.90820683  0.57907054  0.21814309  1
  F  F63  1  0.96022583  0.91685336  0.22949738  1
