# generated using pymatgen
data_LiCr(CO3)2
_symmetry_space_group_name_H-M   'P 1'
_cell_length_a   6.41129409
_cell_length_b   7.76694116
_cell_length_c   5.17540441
_cell_angle_alpha   90.00000000
_cell_angle_beta   114.86314773
_cell_angle_gamma   90.00000000
_symmetry_Int_Tables_number   1
_chemical_formula_structural   LiCr(CO3)2
_chemical_formula_sum   'Li2 Cr2 C4 O12'
_cell_volume   233.82875688
_cell_formula_units_Z   2
loop_
 _symmetry_equiv_pos_site_id
 _symmetry_equiv_pos_as_xyz
  1  'x, y, z'
loop_
 _atom_site_type_symbol
 _atom_site_label
 _atom_site_symmetry_multiplicity
 _atom_site_fract_x
 _atom_site_fract_y
 _atom_site_fract_z
 _atom_site_occupancy
  Li  Li0  1  0.66170932  0.06026096  0.37499551  1
  Li  Li1  1  0.83829068  0.56026096  0.62500449  1
  Cr  Cr2  1  0.01236997  0.00311144  0.00831070  1
  Cr  Cr3  1  0.48763003  0.50311144  0.99168930  1
  C  C4  1  0.12295831  0.26693369  0.86530692  1
  C  C5  1  0.37704169  0.76693369  0.13469308  1
  C  C6  1  0.63537994  0.24145998  0.86265847  1
  C  C7  1  0.86462006  0.74145998  0.13734153  1
  O  O8  1  0.07336163  0.13171172  0.70316260  1
  O  O9  1  0.16362093  0.41538610  0.78168149  1
  O  O10  1  0.37971352  0.74581243  0.88714424  1
  O  O11  1  0.12028648  0.24581243  0.11285576  1
  O  O12  1  0.33637907  0.91538610  0.21831851  1
  O  O13  1  0.42663837  0.63171172  0.29683740  1
  O  O14  1  0.60456792  0.38371388  0.71988381  1
  O  O15  1  0.69029311  0.09952699  0.77879011  1
  O  O16  1  0.89924280  0.75094181  0.90636191  1
  O  O17  1  0.60075720  0.25094181  0.09363809  1
  O  O18  1  0.80970689  0.59952699  0.22120989  1
  O  O19  1  0.89543208  0.88371388  0.28011619  1
