# generated using pymatgen
data_LiMnOF2
_symmetry_space_group_name_H-M   'P 1'
_cell_length_a   10.44455558
_cell_length_b   8.95343556
_cell_length_c   5.24271752
_cell_angle_alpha   90.00000000
_cell_angle_beta   76.68795371
_cell_angle_gamma   90.00000000
_symmetry_Int_Tables_number   1
_chemical_formula_structural   LiMnOF2
_chemical_formula_sum   'Li8 Mn8 O8 F16'
_cell_volume   477.09757940
_cell_formula_units_Z   8
loop_
 _symmetry_equiv_pos_site_id
 _symmetry_equiv_pos_as_xyz
  1  'x, y, z'
loop_
 _atom_site_type_symbol
 _atom_site_label
 _atom_site_symmetry_multiplicity
 _atom_site_fract_x
 _atom_site_fract_y
 _atom_site_fract_z
 _atom_site_occupancy
  Li  Li0  1  0.05853123  0.16461416  0.74787334  1
  Li  Li1  1  0.05853123  0.33538584  0.24787334  1
  Li  Li2  1  0.42388713  0.33985449  0.85594290  1
  Li  Li3  1  0.42388713  0.16014551  0.35594290  1
  Li  Li4  1  0.54335335  0.83945225  0.67328034  1
  Li  Li5  1  0.54335335  0.66054775  0.17328034  1
  Li  Li6  1  0.96782942  0.65532551  0.73992854  1
  Li  Li7  1  0.96782942  0.84467449  0.23992854  1
  Mn  Mn8  1  0.25472210  0.65690346  0.93318794  1
  Mn  Mn9  1  0.25471576  0.99174931  0.93136234  1
  Mn  Mn10  1  0.25472210  0.84309654  0.43318794  1
  Mn  Mn11  1  0.25471576  0.50825069  0.43136234  1
  Mn  Mn12  1  0.74378633  0.55288004  0.55539814  1
  Mn  Mn13  1  0.74257238  0.16003882  0.54946848  1
  Mn  Mn14  1  0.74378633  0.94711996  0.05539814  1
  Mn  Mn15  1  0.74257238  0.33996118  0.04946848  1
  O  O16  1  0.15688336  0.97824947  0.66539278  1
  O  O17  1  0.16001133  0.66503470  0.64768820  1
  O  O18  1  0.15688336  0.52175053  0.16539278  1
  O  O19  1  0.16001133  0.83496530  0.14768820  1
  O  O20  1  0.34659138  0.51158669  0.70841686  1
  O  O21  1  0.34995411  0.83176863  0.72481249  1
  O  O22  1  0.34659138  0.98841331  0.20841686  1
  O  O23  1  0.34995411  0.66823137  0.22481249  1
  F  F24  1  0.13396871  0.34564904  0.56674474  1
  F  F25  1  0.13396871  0.15435096  0.06674474  1
  F  F26  1  0.37496493  0.14216870  0.73803257  1
  F  F27  1  0.37496493  0.35783130  0.23803257  1
  F  F28  1  0.60815258  0.67397059  0.81646055  1
  F  F29  1  0.62412954  0.33802852  0.76109270  1
  F  F30  1  0.63525674  0.99633227  0.78310329  1
  F  F31  1  0.60815258  0.82602941  0.31646055  1
  F  F32  1  0.62412954  0.16197148  0.26109270  1
  F  F33  1  0.63525674  0.50366773  0.28310329  1
  F  F34  1  0.89008564  0.79759404  0.96495781  1
  F  F35  1  0.86316312  0.15714654  0.82948618  1
  F  F36  1  0.86744188  0.47977719  0.80737082  1
  F  F37  1  0.89008564  0.70240596  0.46495781  1
  F  F38  1  0.86316312  0.34285346  0.32948618  1
  F  F39  1  0.86744188  0.02022281  0.30737082  1
