# generated using pymatgen
data_Li3Ni8(OF3)4
_symmetry_space_group_name_H-M   'P 1'
_cell_length_a   6.02877492
_cell_length_b   10.03798548
_cell_length_c   5.86007494
_cell_angle_alpha   106.95615081
_cell_angle_beta   60.86774242
_cell_angle_gamma   105.58891958
_symmetry_Int_Tables_number   1
_chemical_formula_structural   Li3Ni8(OF3)4
_chemical_formula_sum   'Li3 Ni8 O4 F12'
_cell_volume   292.87518260
_cell_formula_units_Z   1
loop_
 _symmetry_equiv_pos_site_id
 _symmetry_equiv_pos_as_xyz
  1  'x, y, z'
loop_
 _atom_site_type_symbol
 _atom_site_label
 _atom_site_symmetry_multiplicity
 _atom_site_fract_x
 _atom_site_fract_y
 _atom_site_fract_z
 _atom_site_occupancy
  Li  Li0  1  0.99994045  0.99986772  0.00108656  1
  Li  Li1  1  0.80991785  0.42478459  0.80984452  1
  Li  Li2  1  0.18998543  0.57505118  0.19277463  1
  Ni  Ni3  1  0.49983809  0.00001988  0.00119822  1
  Ni  Ni4  1  0.49999261  0.00010107  0.50139171  1
  Ni  Ni5  1  0.25957026  0.24598597  0.24658739  1
  Ni  Ni6  1  0.26092434  0.24717328  0.74402888  1
  Ni  Ni7  1  0.75135459  0.26268979  0.25676765  1
  Ni  Ni8  1  0.24797384  0.73714396  0.74611333  1
  Ni  Ni9  1  0.74025737  0.75383086  0.75589947  1
  Ni  Ni10  1  0.73879129  0.75253645  0.25831591  1
  O  O11  1  0.35735816  0.11245200  0.87888036  1
  O  O12  1  0.41317393  0.12990226  0.35995688  1
  O  O13  1  0.58636192  0.87014033  0.64313998  1
  O  O14  1  0.64246722  0.88735410  0.12361985  1
  F  F15  1  0.88690083  0.13293169  0.35689628  1
  F  F16  1  0.88440969  0.13229407  0.89126609  1
  F  F17  1  0.13200412  0.35907950  0.61634449  1
  F  F18  1  0.12308621  0.36834593  0.12542359  1
  F  F19  1  0.60781194  0.36572926  0.13234573  1
  F  F20  1  0.61011763  0.36690907  0.62939608  1
  F  F21  1  0.39185333  0.63390813  0.87049831  1
  F  F22  1  0.38936874  0.63279290  0.37335173  1
  F  F23  1  0.87632180  0.63141786  0.87734495  1
  F  F24  1  0.86781962  0.64069904  0.38596195  1
  F  F25  1  0.11277155  0.86679205  0.64576604  1
  F  F26  1  0.11531617  0.86758208  0.11130940  1
