# generated using pymatgen
data_LiSnPO4
_symmetry_space_group_name_H-M   'P 1'
_cell_length_a   9.45668127
_cell_length_b   7.07595373
_cell_length_c   16.46878876
_cell_angle_alpha   90.00000000
_cell_angle_beta   89.88522692
_cell_angle_gamma   90.00000000
_symmetry_Int_Tables_number   1
_chemical_formula_structural   LiSnPO4
_chemical_formula_sum   'Li12 Sn12 P12 O48'
_cell_volume   1102.00743278
_cell_formula_units_Z   12
loop_
 _symmetry_equiv_pos_site_id
 _symmetry_equiv_pos_as_xyz
  1  'x, y, z'
loop_
 _atom_site_type_symbol
 _atom_site_label
 _atom_site_symmetry_multiplicity
 _atom_site_fract_x
 _atom_site_fract_y
 _atom_site_fract_z
 _atom_site_occupancy
  Li  Li0  1  0.24009923  0.01648451  0.92016329  1
  Li  Li1  1  0.24091278  0.97313860  0.58871118  1
  Li  Li2  1  0.25154401  0.98654408  0.23207948  1
  Li  Li3  1  0.24845599  0.48654408  0.26792052  1
  Li  Li4  1  0.25908722  0.47313860  0.91128882  1
  Li  Li5  1  0.25990077  0.51648451  0.57983671  1
  Li  Li6  1  0.74009923  0.48351549  0.42016329  1
  Li  Li7  1  0.74091278  0.52686140  0.08871118  1
  Li  Li8  1  0.75154401  0.51345592  0.73207948  1
  Li  Li9  1  0.74845599  0.01345592  0.76792052  1
  Li  Li10  1  0.75908722  0.02686140  0.41128882  1
  Li  Li11  1  0.75990077  0.98351549  0.07983671  1
  Sn  Sn12  1  0.03593434  0.75251800  0.40128821  1
  Sn  Sn13  1  0.08623908  0.73820368  0.78037367  1
  Sn  Sn14  1  0.12932596  0.74149995  0.06538458  1
  Sn  Sn15  1  0.37067404  0.24149995  0.43461542  1
  Sn  Sn16  1  0.41376092  0.23820368  0.71962633  1
  Sn  Sn17  1  0.46406566  0.25251800  0.09871179  1
  Sn  Sn18  1  0.53593434  0.74748200  0.90128821  1
  Sn  Sn19  1  0.58623908  0.76179632  0.28037367  1
  Sn  Sn20  1  0.62932596  0.75850005  0.56538458  1
  Sn  Sn21  1  0.87067404  0.25850005  0.93461542  1
  Sn  Sn22  1  0.91376092  0.26179632  0.21962633  1
  Sn  Sn23  1  0.96406566  0.24748200  0.59871179  1
  P  P24  1  0.05146168  0.26260856  0.41069813  1
  P  P25  1  0.08675843  0.23607302  0.76908894  1
  P  P26  1  0.10719945  0.24644211  0.07234393  1
  P  P27  1  0.39280055  0.74644211  0.42765607  1
  P  P28  1  0.41324157  0.73607302  0.73091106  1
  P  P29  1  0.44853832  0.76260856  0.08930187  1
  P  P30  1  0.55146168  0.23739144  0.91069813  1
  P  P31  1  0.58675843  0.26392698  0.26908894  1
  P  P32  1  0.60719945  0.25355789  0.57234393  1
  P  P33  1  0.89280055  0.75355789  0.92765607  1
  P  P34  1  0.91324157  0.76392698  0.23091106  1
  P  P35  1  0.94853832  0.73739144  0.58930187  1
  O  O36  1  0.94420181  0.42639089  0.41551919  1
  O  O37  1  0.03348155  0.92237505  0.60122612  1
  O  O38  1  0.13729740  0.40725812  0.81923176  1
  O  O39  1  0.14469326  0.24534505  0.49141496  1
  O  O40  1  0.06182456  0.74163767  0.92253406  1
  O  O41  1  0.07403651  0.75597222  0.25207679  1
  O  O42  1  0.15329838  0.24658092  0.16328852  1
  O  O43  1  0.12613921  0.05584278  0.81743530  1
  O  O44  1  0.16708303  0.41559319  0.02347071  1
  O  O45  1  0.15330381  0.06443178  0.02740933  1
  O  O46  1  0.16218979  0.23635397  0.68180549  1
  O  O47  1  0.16426873  0.29695500  0.34319295  1
  O  O48  1  0.33573127  0.79695500  0.15680705  1
  O  O49  1  0.34669619  0.56443178  0.47259067  1
  O  O50  1  0.33781021  0.73635397  0.81819451  1
  O  O51  1  0.33291697  0.91559319  0.47652929  1
  O  O52  1  0.37386079  0.55584278  0.68256470  1
  O  O53  1  0.34670162  0.74658092  0.33671148  1
  O  O54  1  0.42596349  0.25597222  0.24792321  1
  O  O55  1  0.35530674  0.74534505  0.00858504  1
  O  O56  1  0.43817544  0.24163767  0.57746594  1
  O  O57  1  0.36270260  0.90725812  0.68076824  1
  O  O58  1  0.46651845  0.42237505  0.89877388  1
  O  O59  1  0.55579819  0.92639089  0.08448081  1
  O  O60  1  0.44420181  0.07360911  0.91551919  1
  O  O61  1  0.53348155  0.57762495  0.10122612  1
  O  O62  1  0.63729740  0.09274188  0.31923176  1
  O  O63  1  0.64469326  0.25465495  0.99141496  1
  O  O64  1  0.56182456  0.75836233  0.42253406  1
  O  O65  1  0.57403651  0.74402778  0.75207679  1
  O  O66  1  0.65329838  0.25341908  0.66328852  1
  O  O67  1  0.62613921  0.44415722  0.31743530  1
  O  O68  1  0.66708303  0.08440681  0.52347071  1
  O  O69  1  0.66218979  0.26364603  0.18180549  1
  O  O70  1  0.65330381  0.43556822  0.52740933  1
  O  O71  1  0.66426873  0.20304500  0.84319295  1
  O  O72  1  0.83573127  0.70304500  0.65680705  1
  O  O73  1  0.83781021  0.76364603  0.31819451  1
  O  O74  1  0.84669619  0.93556822  0.97259067  1
  O  O75  1  0.83291697  0.58440681  0.97652929  1
  O  O76  1  0.87386079  0.94415722  0.18256470  1
  O  O77  1  0.84670162  0.75341908  0.83671148  1
  O  O78  1  0.92596349  0.24402778  0.74792321  1
  O  O79  1  0.93817544  0.25836233  0.07746594  1
  O  O80  1  0.85530674  0.75465495  0.50858504  1
  O  O81  1  0.86270260  0.59274188  0.18076824  1
  O  O82  1  0.96651845  0.07762495  0.39877388  1
  O  O83  1  0.05579819  0.57360911  0.58448081  1
