# generated using pymatgen
data_Na3Li6Mn5O9
_symmetry_space_group_name_H-M   'P 1'
_cell_length_a   5.90656718
_cell_length_b   5.88179973
_cell_length_c   9.27598850
_cell_angle_alpha   83.85491035
_cell_angle_beta   77.78532514
_cell_angle_gamma   60.00160416
_symmetry_Int_Tables_number   1
_chemical_formula_structural   Na3Li6Mn5O9
_chemical_formula_sum   'Na3 Li6 Mn5 O9'
_cell_volume   272.77092898
_cell_formula_units_Z   1
loop_
 _symmetry_equiv_pos_site_id
 _symmetry_equiv_pos_as_xyz
  1  'x, y, z'
loop_
 _atom_site_type_symbol
 _atom_site_label
 _atom_site_symmetry_multiplicity
 _atom_site_fract_x
 _atom_site_fract_y
 _atom_site_fract_z
 _atom_site_occupancy
  Na  Na0  1  0.84047926  0.32223637  0.50468373  1
  Na  Na1  1  0.16164453  0.67547871  0.50420474  1
  Na  Na2  1  0.48415999  0.99726354  0.51297329  1
  Li  Li3  1  0.33879730  0.67553888  0.93513472  1
  Li  Li4  1  0.01776495  0.31692369  0.93517562  1
  Li  Li5  1  0.07125229  0.99697204  0.75294725  1
  Li  Li6  1  0.93004575  0.71818108  0.02624302  1
  Li  Li7  1  0.36425676  0.99655802  0.03604739  1
  Li  Li8  1  0.65470569  0.26529932  0.01879470  1
  Mn  Mn9  1  0.58353200  0.68009806  0.24464335  1
  Mn  Mn10  1  0.27167372  0.31299285  0.24428303  1
  Mn  Mn11  1  0.74747983  0.67748004  0.75864345  1
  Mn  Mn12  1  0.42538743  0.31966007  0.75625262  1
  Mn  Mn13  1  0.88890747  0.00115699  0.24246098  1
  O  O14  1  0.66120344  0.62452202  0.99735413  1
  O  O15  1  0.29025345  0.36697938  0.99568230  1
  O  O16  1  0.42598451  0.67163176  0.70491048  1
  O  O17  1  0.77982520  0.99853184  0.67571931  1
  O  O18  1  0.09712761  0.32535840  0.70487013  1
  O  O19  1  0.90201016  0.64681921  0.32877672  1
  O  O20  1  0.54865053  0.34751748  0.33655519  1
  O  O21  1  0.20676839  0.99757184  0.32553306  1
  O  O22  1  0.03008675  0.99549740  0.00435580  1
