# generated using pymatgen
data_Nd2Ta2O9
_symmetry_space_group_name_H-M   'P 1'
_cell_length_a   3.89605621
_cell_length_b   6.72104139
_cell_length_c   14.43689291
_cell_angle_alpha   93.14269904
_cell_angle_beta   90.00000000
_cell_angle_gamma   90.00000000
_symmetry_Int_Tables_number   1
_chemical_formula_structural   Nd2Ta2O9
_chemical_formula_sum   'Nd4 Ta4 O18'
_cell_volume   377.46951932
_cell_formula_units_Z   2
loop_
 _symmetry_equiv_pos_site_id
 _symmetry_equiv_pos_as_xyz
  1  'x, y, z'
loop_
 _atom_site_type_symbol
 _atom_site_label
 _atom_site_symmetry_multiplicity
 _atom_site_fract_x
 _atom_site_fract_y
 _atom_site_fract_z
 _atom_site_occupancy
  Nd  Nd0  1  0.00406567  0.00950042  0.69501993  1
  Nd  Nd1  1  0.99593433  0.99049958  0.30498007  1
  Nd  Nd2  1  0.50406567  0.49049958  0.80498007  1
  Nd  Nd3  1  0.49593433  0.50950042  0.19501993  1
  Ta  Ta4  1  0.00331175  0.26720504  0.96093668  1
  Ta  Ta5  1  0.99668825  0.73279496  0.03906332  1
  Ta  Ta6  1  0.50331175  0.23279496  0.53906332  1
  Ta  Ta7  1  0.49668825  0.76720504  0.46093668  1
  O  O8  1  0.00113471  0.57760168  0.91891686  1
  O  O9  1  0.99886529  0.42239832  0.08108314  1
  O  O10  1  0.50113471  0.92239832  0.58108314  1
  O  O11  1  0.49886529  0.07760168  0.41891686  1
  O  O12  1  0.50824324  0.84156824  0.78100492  1
  O  O13  1  0.49175676  0.15843176  0.21899508  1
  O  O14  1  0.00824324  0.65843176  0.71899508  1
  O  O15  1  0.99175676  0.34156824  0.28100492  1
  O  O16  1  -0.00000000  -0.00000000  0.00000000  1
  O  O17  1  0.50000000  0.50000000  0.50000000  1
  O  O18  1  0.50205504  0.29414942  0.95165841  1
  O  O19  1  0.49794496  0.70585058  0.04834159  1
  O  O20  1  0.00205504  0.20585058  0.54834159  1
  O  O21  1  0.99794496  0.79414942  0.45165841  1
  O  O22  1  0.00305637  0.24405372  0.82383664  1
  O  O23  1  0.99694363  0.75594628  0.17616336  1
  O  O24  1  0.50305637  0.25594628  0.67616336  1
  O  O25  1  0.49694363  0.74405372  0.32383664  1
