# generated using pymatgen
data_Li3VF5
_symmetry_space_group_name_H-M   'P 1'
_cell_length_a   8.05783825
_cell_length_b   10.43294427
_cell_length_c   5.09513391
_cell_angle_alpha   90.00000000
_cell_angle_beta   90.00000000
_cell_angle_gamma   90.00000000
_symmetry_Int_Tables_number   1
_chemical_formula_structural   Li3VF5
_chemical_formula_sum   'Li12 V4 F20'
_cell_volume   428.33250726
_cell_formula_units_Z   4
loop_
 _symmetry_equiv_pos_site_id
 _symmetry_equiv_pos_as_xyz
  1  'x, y, z'
loop_
 _atom_site_type_symbol
 _atom_site_label
 _atom_site_symmetry_multiplicity
 _atom_site_fract_x
 _atom_site_fract_y
 _atom_site_fract_z
 _atom_site_occupancy
  Li  Li0  1  0.10930748  0.75000000  0.18370189  1
  Li  Li1  1  0.13665486  0.99325071  0.82829748  1
  Li  Li2  1  0.13665486  0.50674929  0.82829748  1
  Li  Li3  1  0.36334514  0.00674929  0.32829748  1
  Li  Li4  1  0.36334514  0.49325071  0.32829748  1
  Li  Li5  1  0.39069252  0.25000000  0.68370189  1
  Li  Li6  1  0.60930748  0.75000000  0.31629811  1
  Li  Li7  1  0.63665486  0.99325071  0.67170252  1
  Li  Li8  1  0.63665486  0.50674929  0.67170252  1
  Li  Li9  1  0.86334514  0.49325071  0.17170252  1
  Li  Li10  1  0.86334514  0.00674929  0.17170252  1
  Li  Li11  1  0.89069252  0.25000000  0.81629811  1
  V  V12  1  0.12514430  0.25000000  0.28303888  1
  V  V13  1  0.37485570  0.75000000  0.78303888  1
  V  V14  1  0.62514430  0.25000000  0.21696112  1
  V  V15  1  0.87485570  0.75000000  0.71696112  1
  F  F16  1  0.03024639  0.12190886  0.01628149  1
  F  F17  1  0.03024639  0.37809114  0.01628149  1
  F  F18  1  0.20389737  0.10039899  0.53687514  1
  F  F19  1  0.20389737  0.39960101  0.53687514  1
  F  F20  1  0.12966483  0.75000000  0.56504728  1
  F  F21  1  0.37033517  0.25000000  0.06504728  1
  F  F22  1  0.29610263  0.60039899  0.03687514  1
  F  F23  1  0.29610263  0.89960101  0.03687514  1
  F  F24  1  0.46975361  0.62190886  0.51628149  1
  F  F25  1  0.46975361  0.87809114  0.51628149  1
  F  F26  1  0.53024639  0.12190886  0.48371851  1
  F  F27  1  0.53024639  0.37809114  0.48371851  1
  F  F28  1  0.70389737  0.10039899  0.96312486  1
  F  F29  1  0.70389737  0.39960101  0.96312486  1
  F  F30  1  0.62966483  0.75000000  0.93495272  1
  F  F31  1  0.87033517  0.25000000  0.43495272  1
  F  F32  1  0.79610263  0.60039899  0.46312486  1
  F  F33  1  0.79610263  0.89960101  0.46312486  1
  F  F34  1  0.96975361  0.62190886  0.98371851  1
  F  F35  1  0.96975361  0.87809114  0.98371851  1
