# generated using pymatgen
data_Li12Fe5O16
_symmetry_space_group_name_H-M   'P 1'
_cell_length_a   5.87027739
_cell_length_b   6.00389691
_cell_length_c   9.79066946
_cell_angle_alpha   92.95630972
_cell_angle_beta   90.54255181
_cell_angle_gamma   59.49176412
_symmetry_Int_Tables_number   1
_chemical_formula_structural   Li12Fe5O16
_chemical_formula_sum   'Li12 Fe5 O16'
_cell_volume   296.84349419
_cell_formula_units_Z   1
loop_
 _symmetry_equiv_pos_site_id
 _symmetry_equiv_pos_as_xyz
  1  'x, y, z'
loop_
 _atom_site_type_symbol
 _atom_site_label
 _atom_site_symmetry_multiplicity
 _atom_site_fract_x
 _atom_site_fract_y
 _atom_site_fract_z
 _atom_site_occupancy
  Li  Li0  1  0.75683687  0.91278778  0.22349934  1
  Li  Li1  1  0.79574578  0.78959672  0.96696138  1
  Li  Li2  1  0.97366273  0.01319815  0.02970154  1
  Li  Li3  1  0.31156824  0.91590353  0.22352113  1
  Li  Li4  1  0.09722934  0.80333659  0.45322722  1
  Li  Li5  1  0.37990238  0.77968854  0.95689019  1
  Li  Li6  1  0.66507729  0.65673393  0.72158038  1
  Li  Li7  1  0.80284303  0.38176756  0.94829678  1
  Li  Li8  1  0.28148978  0.43616793  0.23470266  1
  Li  Li9  1  0.15932265  0.65611522  0.71975512  1
  Li  Li10  1  0.61865814  0.26040471  0.44614143  1
  Li  Li11  1  0.11489787  0.26104020  0.44851163  1
  Fe  Fe12  1  0.16313818  0.16328758  0.71515734  1
  Fe  Fe13  1  0.61609068  0.76984994  0.45965691  1
  Fe  Fe14  1  0.31330372  0.34618334  0.97246638  1
  Fe  Fe15  1  0.79479651  0.40125143  0.21417289  1
  Fe  Fe16  1  0.66613914  0.16744654  0.71409152  1
  O  O17  1  0.81083497  0.85356413  0.59812514  1
  O  O18  1  0.46316250  0.06317773  0.35722157  1
  O  O19  1  0.34525218  0.84786244  0.58717796  1
  O  O20  1  0.64450207  0.67503742  0.10235844  1
  O  O21  1  0.93226424  0.59006557  0.35225487  1
  O  O22  1  0.48863831  0.57961284  0.34532738  1
  O  O23  1  0.15119135  0.66834129  0.06544800  1
  O  O24  1  0.83424385  0.32276087  0.60473423  1
  O  O25  1  0.50325786  0.46827091  0.83552784  1
  O  O26  1  0.61471028  0.21244516  0.08727998  1
  O  O27  1  0.93877282  0.10420083  0.31281620  1
  O  O28  1  0.34464044  0.30880865  0.61766159  1
  O  O29  1  0.98730408  0.01739882  0.82231005  1
  O  O30  1  0.01927695  0.47734579  0.84635729  1
  O  O31  1  0.11040474  0.22050854  0.09515979  1
  O  O32  1  0.47816701  0.02141530  0.85369380  1
