# generated using pymatgen
data_Mn3F10
_symmetry_space_group_name_H-M   'P 1'
_cell_length_a   6.27412604
_cell_length_b   9.71762466
_cell_length_c   7.67552668
_cell_angle_alpha   112.18790113
_cell_angle_beta   92.43025450
_cell_angle_gamma   70.91013665
_symmetry_Int_Tables_number   1
_chemical_formula_structural   Mn3F10
_chemical_formula_sum   'Mn6 F20'
_cell_volume   407.72799575
_cell_formula_units_Z   2
loop_
 _symmetry_equiv_pos_site_id
 _symmetry_equiv_pos_as_xyz
  1  'x, y, z'
loop_
 _atom_site_type_symbol
 _atom_site_label
 _atom_site_symmetry_multiplicity
 _atom_site_fract_x
 _atom_site_fract_y
 _atom_site_fract_z
 _atom_site_occupancy
  Mn  Mn0  1  0.91618602  0.16160102  0.48238720  1
  Mn  Mn1  1  0.81301265  0.37670066  0.02023857  1
  Mn  Mn2  1  0.74077501  0.00247737  0.00684682  1
  Mn  Mn3  1  0.18698735  0.62329934  0.97976143  1
  Mn  Mn4  1  0.08381398  0.83839898  0.51761280  1
  Mn  Mn5  1  0.25922499  0.99752263  0.99315318  1
  F  F6  1  0.87354340  0.79304050  0.98188196  1
  F  F7  1  0.92866783  0.72401798  0.53677857  1
  F  F8  1  0.95917670  0.05065247  0.20258989  1
  F  F9  1  0.87404499  0.25534655  0.74223007  1
  F  F10  1  0.54318483  0.95481132  0.82096239  1
  F  F11  1  0.77461473  0.46093178  0.26655265  1
  F  F12  1  0.35462307  0.72389365  0.54218679  1
  F  F13  1  0.66951718  0.20641923  0.01388672  1
  F  F14  1  0.80706656  0.99873764  0.49740664  1
  F  F15  1  0.50000000  0.50000000  -0.00000000  1
  F  F16  1  0.33048282  0.79358077  0.98611328  1
  F  F17  1  0.64537693  0.27610635  0.45781321  1
  F  F18  1  0.22538527  0.53906822  0.73344735  1
  F  F19  1  0.45681517  0.04518868  0.17903761  1
  F  F20  1  0.12595501  0.74465345  0.25776993  1
  F  F21  1  0.04082330  0.94934753  0.79741011  1
  F  F22  1  0.07133217  0.27598202  0.46322143  1
  F  F23  1  -0.00000000  0.50000000  -0.00000000  1
  F  F24  1  0.19293344  0.00126236  0.50259336  1
  F  F25  1  0.12645660  0.20695950  0.01811804  1
