# generated using pymatgen
data_Li4V3Co(PO4)4
_symmetry_space_group_name_H-M   'P 1'
_cell_length_a   4.74765333
_cell_length_b   10.43804495
_cell_length_c   6.05938970
_cell_angle_alpha   90.00000000
_cell_angle_beta   90.00000000
_cell_angle_gamma   89.84360169
_symmetry_Int_Tables_number   1
_chemical_formula_structural   Li4V3Co(PO4)4
_chemical_formula_sum   'Li4 V3 Co1 P4 O16'
_cell_volume   300.27932329
_cell_formula_units_Z   1
loop_
 _symmetry_equiv_pos_site_id
 _symmetry_equiv_pos_as_xyz
  1  'x, y, z'
loop_
 _atom_site_type_symbol
 _atom_site_label
 _atom_site_symmetry_multiplicity
 _atom_site_fract_x
 _atom_site_fract_y
 _atom_site_fract_z
 _atom_site_occupancy
  Li  Li0  1  0.00143987  0.99791218  0.99829936  1
  Li  Li1  1  0.00143987  0.99791218  0.50170064  1
  Li  Li2  1  0.49995834  0.50081705  0.50008880  1
  Li  Li3  1  0.49995834  0.50081705  -0.00008880  1
  V  V4  1  0.48507229  0.22513548  0.75000000  1
  V  V5  1  0.51707366  0.77479476  0.25000000  1
  V  V6  1  0.98319457  0.27611449  0.25000000  1
  Co  Co7  1  0.01186143  0.72506050  0.75000000  1
  P  P8  1  0.08179728  0.59354904  0.25000000  1
  P  P9  1  0.41449867  0.09235686  0.25000000  1
  P  P10  1  0.58859354  0.90549644  0.75000000  1
  P  P11  1  0.91550277  0.40938212  0.75000000  1
  O  O12  1  0.20644282  0.45619753  0.25000000  1
  O  O13  1  0.21660536  0.66459725  0.04605048  1
  O  O14  1  0.21660536  0.66459725  0.45394952  1
  O  O15  1  0.23826274  0.40351515  0.75000000  1
  O  O16  1  0.26586983  0.90161023  0.75000000  1
  O  O17  1  0.27761959  0.16206572  0.04646798  1
  O  O18  1  0.27761959  0.16206572  0.45353202  1
  O  O19  1  0.29369548  0.95398916  0.25000000  1
  O  O20  1  0.70715211  0.04394795  0.75000000  1
  O  O21  1  0.72728035  0.83497976  0.54605834  1
  O  O22  1  0.72728035  0.83497976  0.95394166  1
  O  O23  1  0.73701993  0.09630859  0.25000000  1
  O  O24  1  0.75816038  0.59601728  0.25000000  1
  O  O25  1  0.77769423  0.33898191  0.54721362  1
  O  O26  1  0.77769423  0.33898191  0.95278638  1
  O  O27  1  0.79460401  0.54781769  0.75000000  1
