# generated using pymatgen
data_CoSnO3
_symmetry_space_group_name_H-M   'P 1'
_cell_length_a   5.42276583
_cell_length_b   5.39492197
_cell_length_c   7.81052971
_cell_angle_alpha   89.99708100
_cell_angle_beta   90.00092259
_cell_angle_gamma   89.99859047
_symmetry_Int_Tables_number   1
_chemical_formula_structural   CoSnO3
_chemical_formula_sum   'Co4 Sn4 O12'
_cell_volume   228.50015908
_cell_formula_units_Z   4
loop_
 _symmetry_equiv_pos_site_id
 _symmetry_equiv_pos_as_xyz
  1  'x, y, z'
loop_
 _atom_site_type_symbol
 _atom_site_label
 _atom_site_symmetry_multiplicity
 _atom_site_fract_x
 _atom_site_fract_y
 _atom_site_fract_z
 _atom_site_occupancy
  Co  Co0  1  0.98650884  0.97256258  0.75001885  1
  Co  Co1  1  0.51348226  0.47270714  0.74999452  1
  Co  Co2  1  0.48709651  0.52740746  0.25000960  1
  Co  Co3  1  0.01290673  0.02727777  0.24998170  1
  Sn  Sn4  1  0.00029925  0.49995660  0.00001982  1
  Sn  Sn5  1  0.00009942  0.49994971  0.49993227  1
  Sn  Sn6  1  0.49993472  0.00014352  0.00005285  1
  Sn  Sn7  1  0.49974395  0.99998048  0.49997815  1
  O  O8  1  0.12492720  0.40606560  0.25001009  1
  O  O9  1  0.16521761  0.16815793  0.56676965  1
  O  O10  1  0.16532168  0.16808292  0.93322961  1
  O  O11  1  0.33470275  0.66816876  0.56675469  1
  O  O12  1  0.33483695  0.66834363  0.93325497  1
  O  O13  1  0.37508768  0.90613003  0.24998888  1
  O  O14  1  0.62457879  0.09394145  0.74999579  1
  O  O15  1  0.66529158  0.33188102  0.06669502  1
  O  O16  1  0.66519188  0.33175700  0.43335581  1
  O  O17  1  0.83470524  0.83178269  0.06663662  1
  O  O18  1  0.83465004  0.83179706  0.43333941  1
  O  O19  1  0.87541693  0.59390665  0.74998169  1
