# generated using pymatgen
data_LiV(OF)2
_symmetry_space_group_name_H-M   'P 1'
_cell_length_a   6.71040985
_cell_length_b   5.08604953
_cell_length_c   8.46496406
_cell_angle_alpha   90.00218700
_cell_angle_beta   90.00233016
_cell_angle_gamma   90.00055908
_symmetry_Int_Tables_number   1
_chemical_formula_structural   LiV(OF)2
_chemical_formula_sum   'Li4 V4 O8 F8'
_cell_volume   288.90479481
_cell_formula_units_Z   4
loop_
 _symmetry_equiv_pos_site_id
 _symmetry_equiv_pos_as_xyz
  1  'x, y, z'
loop_
 _atom_site_type_symbol
 _atom_site_label
 _atom_site_symmetry_multiplicity
 _atom_site_fract_x
 _atom_site_fract_y
 _atom_site_fract_z
 _atom_site_occupancy
  Li  Li0  1  0.24706651  0.52868487  0.72686923  1
  Li  Li1  1  0.25302568  0.52870363  0.22688325  1
  Li  Li2  1  0.74697658  0.47120308  0.72686646  1
  Li  Li3  1  0.75308393  0.47121926  0.22688296  1
  V  V4  1  0.98974038  0.04583627  0.02165788  1
  V  V5  1  0.51016578  0.04591312  0.52162942  1
  V  V6  1  0.48977013  0.95413416  0.02169258  1
  V  V7  1  0.01012745  0.95420609  0.52152293  1
  O  O8  1  0.03659017  0.81572314  0.69628376  1
  O  O9  1  0.24620520  0.10824219  0.96856330  1
  O  O10  1  0.25382579  0.10827573  0.46859745  1
  O  O11  1  0.46340015  0.81584090  0.19617554  1
  O  O12  1  0.53655146  0.18427510  0.69622687  1
  O  O13  1  0.74617924  0.89175320  0.96857031  1
  O  O14  1  0.75376453  0.89175978  0.46859934  1
  O  O15  1  0.96341577  0.18415505  0.19615641  1
  F  F16  1  0.08536316  0.67879357  0.38844363  1
  F  F17  1  0.06347552  0.70311035  0.08002165  1
  F  F18  1  0.43653890  0.70318150  0.58004529  1
  F  F19  1  0.41466566  0.67879859  0.88842888  1
  F  F20  1  0.58535894  0.32119778  0.38844640  1
  F  F21  1  0.56349481  0.29688907  0.08003296  1
  F  F22  1  0.93652781  0.29690230  0.58004213  1
  F  F23  1  0.91468646  0.32120127  0.88841736  1
