# generated using pymatgen
data_Li3V3O5F3
_symmetry_space_group_name_H-M   'P 1'
_cell_length_a   5.85999290
_cell_length_b   5.97215978
_cell_length_c   5.97215978
_cell_angle_alpha   60.97246482
_cell_angle_beta   60.76074331
_cell_angle_gamma   60.76074331
_symmetry_Int_Tables_number   1
_chemical_formula_structural   Li3V3O5F3
_chemical_formula_sum   'Li3 V3 O5 F3'
_cell_volume   150.55917639
_cell_formula_units_Z   1
loop_
 _symmetry_equiv_pos_site_id
 _symmetry_equiv_pos_as_xyz
  1  'x, y, z'
loop_
 _atom_site_type_symbol
 _atom_site_label
 _atom_site_symmetry_multiplicity
 _atom_site_fract_x
 _atom_site_fract_y
 _atom_site_fract_z
 _atom_site_occupancy
  Li  Li0  1  0.26983069  0.24650243  0.24650243  1
  Li  Li1  1  0.12839545  0.62045140  0.62045140  1
  Li  Li2  1  0.62338962  0.62538674  0.62538674  1
  V  V3  1  0.98886170  0.00601899  0.00601899  1
  V  V4  1  0.61881407  0.61473069  0.12265861  1
  V  V5  1  0.61881407  0.12265861  0.61473069  1
  O  O6  1  0.39497213  0.38445574  0.38445574  1
  O  O7  1  0.86339370  0.89752788  0.37612294  1
  O  O8  1  0.86339370  0.37612294  0.89752788  1
  O  O9  1  0.85039039  0.88125046  0.88125046  1
  O  O10  1  0.37521714  0.87679922  0.87679922  1
  F  F11  1  0.86316328  0.37962338  0.37962338  1
  F  F12  1  0.39568303  0.84775261  0.37071889  1
  F  F13  1  0.39568303  0.37071889  0.84775261  1
