# generated using pymatgen
data_Nb2Co2Si3
_symmetry_space_group_name_H-M   'P 1'
_cell_length_a   5.05315904
_cell_length_b   8.99040063
_cell_length_c   8.99040063
_cell_angle_alpha   85.47015844
_cell_angle_beta   73.67826404
_cell_angle_gamma   73.67826404
_symmetry_Int_Tables_number   1
_chemical_formula_structural   Nb2Co2Si3
_chemical_formula_sum   'Nb8 Co8 Si12'
_cell_volume   376.17585265
_cell_formula_units_Z   4
loop_
 _symmetry_equiv_pos_site_id
 _symmetry_equiv_pos_as_xyz
  1  'x, y, z'
loop_
 _atom_site_type_symbol
 _atom_site_label
 _atom_site_symmetry_multiplicity
 _atom_site_fract_x
 _atom_site_fract_y
 _atom_site_fract_z
 _atom_site_occupancy
  Nb  Nb0  1  0.13525993  -0.00000000  0.72948014  1
  Nb  Nb1  1  0.86474007  0.00000000  0.27051986  1
  Nb  Nb2  1  0.86474007  0.27051986  -0.00000000  1
  Nb  Nb3  1  0.13525993  0.72948014  0.00000000  1
  Nb  Nb4  1  0.30543516  0.19456484  0.19456484  1
  Nb  Nb5  1  0.69456484  0.80543516  0.80543516  1
  Nb  Nb6  1  0.50000000  0.80543516  0.19456484  1
  Nb  Nb7  1  0.50000000  0.19456484  0.80543516  1
  Co  Co8  1  0.38762752  0.50000000  0.22474497  1
  Co  Co9  1  0.61237248  0.50000000  0.77525503  1
  Co  Co10  1  0.11237248  0.50000000  0.77525503  1
  Co  Co11  1  0.61237248  0.77525503  0.50000000  1
  Co  Co12  1  0.88762752  0.50000000  0.22474497  1
  Co  Co13  1  0.38762752  0.22474497  0.50000000  1
  Co  Co14  1  0.88762752  0.22474497  0.50000000  1
  Co  Co15  1  0.11237248  0.77525503  0.50000000  1
  Si  Si16  1  0.25582637  0.00000000  0.00000000  1
  Si  Si17  1  0.74417363  0.00000000  0.00000000  1
  Si  Si18  1  0.28642156  0.00000000  0.42715687  1
  Si  Si19  1  0.71357844  -0.00000000  0.57284313  1
  Si  Si20  1  0.71357844  0.57284313  -0.00000000  1
  Si  Si21  1  0.28642156  0.42715687  -0.00000000  1
  Si  Si22  1  0.29181211  0.70818789  0.70818789  1
  Si  Si23  1  0.70818789  0.29181211  0.29181211  1
  Si  Si24  1  0.00000000  0.29181211  0.70818789  1
  Si  Si25  1  -0.00000000  0.70818789  0.29181211  1
  Si  Si26  1  0.00000000  0.50000000  0.50000000  1
  Si  Si27  1  0.50000000  0.50000000  0.50000000  1
