# generated using pymatgen
data_LiFePO4
_symmetry_space_group_name_H-M   'P 1'
_cell_length_a   5.08921844
_cell_length_b   5.08921844
_cell_length_c   6.28731622
_cell_angle_alpha   90.00000000
_cell_angle_beta   90.00000000
_cell_angle_gamma   68.00582243
_symmetry_Int_Tables_number   1
_chemical_formula_structural   LiFePO4
_chemical_formula_sum   'Li2 Fe2 P2 O8'
_cell_volume   150.99104027
_cell_formula_units_Z   2
loop_
 _symmetry_equiv_pos_site_id
 _symmetry_equiv_pos_as_xyz
  1  'x, y, z'
loop_
 _atom_site_type_symbol
 _atom_site_label
 _atom_site_symmetry_multiplicity
 _atom_site_fract_x
 _atom_site_fract_y
 _atom_site_fract_z
 _atom_site_occupancy
  Li  Li0  1  0.50000000  0.50000000  0.00000000  1
  Li  Li1  1  0.50000000  0.50000000  0.50000000  1
  Fe  Fe2  1  0.17961168  0.17961168  0.25000000  1
  Fe  Fe3  1  0.82038832  0.82038832  0.75000000  1
  P  P4  1  0.14464626  0.14464626  0.75000000  1
  P  P5  1  0.85535374  0.85535374  0.25000000  1
  O  O6  1  0.18689153  0.74727511  0.25000000  1
  O  O7  1  0.25272489  0.81310847  0.75000000  1
  O  O8  1  0.25335250  0.25335250  0.55146299  1
  O  O9  1  0.25335250  0.25335250  0.94853701  1
  O  O10  1  0.74664750  0.74664750  0.05146299  1
  O  O11  1  0.74664750  0.74664750  0.44853701  1
  O  O12  1  0.74727511  0.18689153  0.25000000  1
  O  O13  1  0.81310847  0.25272489  0.75000000  1
