# generated using pymatgen
data_Li2V2O5F2
_symmetry_space_group_name_H-M   'P 1'
_cell_length_a   7.31844636
_cell_length_b   7.06339463
_cell_length_c   6.87989106
_cell_angle_alpha   63.30321292
_cell_angle_beta   120.42855624
_cell_angle_gamma   88.17610626
_symmetry_Int_Tables_number   1
_chemical_formula_structural   Li2V2O5F2
_chemical_formula_sum   'Li4 V4 O10 F4'
_cell_volume   257.97096334
_cell_formula_units_Z   2
loop_
 _symmetry_equiv_pos_site_id
 _symmetry_equiv_pos_as_xyz
  1  'x, y, z'
loop_
 _atom_site_type_symbol
 _atom_site_label
 _atom_site_symmetry_multiplicity
 _atom_site_fract_x
 _atom_site_fract_y
 _atom_site_fract_z
 _atom_site_occupancy
  Li  Li0  1  0.44035615  0.40717568  0.01813499  1
  Li  Li1  1  0.56545889  0.02695597  0.51837964  1
  Li  Li2  1  0.40717568  0.44035615  0.48495452  1
  Li  Li3  1  0.02695597  0.56545889  0.47987772  1
  V  V4  1  0.03141057  0.01153144  0.00398874  1
  V  V5  1  0.53266943  0.94845538  0.05498213  1
  V  V6  1  0.01153144  0.03141057  0.48410961  1
  V  V7  1  0.94845538  0.53266943  0.97076708  1
  O  O8  1  0.67122567  0.06415860  0.24319284  1
  O  O9  1  0.94500199  0.31405621  0.25919979  1
  O  O10  1  0.90925071  0.05413660  0.67911371  1
  O  O11  1  0.68648085  0.67958372  0.24846632  1
  O  O12  1  0.06415860  0.67122567  0.13612576  1
  O  O13  1  0.31405621  0.94500199  0.12825401  1
  O  O14  1  0.96179958  0.29199621  0.90437798  1
  O  O15  1  0.05413660  0.90925071  0.32399860  1
  O  O16  1  0.67958372  0.68648085  0.74156918  1
  O  O17  1  0.29199621  0.96179958  0.73457561  1
  F  F18  1  0.37724402  0.32942187  0.27193082  1
  F  F19  1  0.65605328  0.05525618  0.84534518  1
  F  F20  1  0.32942187  0.37724402  0.72410768  1
  F  F21  1  0.05525618  0.65605328  0.74454908  1
