# generated using pymatgen
data_Mn12O7F17
_symmetry_space_group_name_H-M   'P 1'
_cell_length_a   4.76830210
_cell_length_b   5.76432774
_cell_length_c   15.88855497
_cell_angle_alpha   89.80035317
_cell_angle_beta   89.47258605
_cell_angle_gamma   88.60398010
_symmetry_Int_Tables_number   1
_chemical_formula_structural   Mn12O7F17
_chemical_formula_sum   'Mn12 O7 F17'
_cell_volume   436.56327183
_cell_formula_units_Z   1
loop_
 _symmetry_equiv_pos_site_id
 _symmetry_equiv_pos_as_xyz
  1  'x, y, z'
loop_
 _atom_site_type_symbol
 _atom_site_label
 _atom_site_symmetry_multiplicity
 _atom_site_fract_x
 _atom_site_fract_y
 _atom_site_fract_z
 _atom_site_occupancy
  Mn  Mn0  1  0.99200382  0.15585568  0.41511602  1
  Mn  Mn1  1  0.02846648  0.83876867  0.23804245  1
  Mn  Mn2  1  0.00966744  0.15996610  0.07556076  1
  Mn  Mn3  1  0.05222348  0.17136618  0.74924464  1
  Mn  Mn4  1  0.02243551  0.85351402  0.58064100  1
  Mn  Mn5  1  0.00093758  0.85758650  0.91845695  1
  Mn  Mn6  1  0.47342944  0.32111867  0.58505514  1
  Mn  Mn7  1  0.49058679  0.33068880  0.92359593  1
  Mn  Mn8  1  0.52990516  0.34083607  0.25936061  1
  Mn  Mn9  1  0.48676209  0.64949188  0.08240667  1
  Mn  Mn10  1  0.50319539  0.66554172  0.42041035  1
  Mn  Mn11  1  0.51012273  0.63083702  0.75506203  1
  O  O12  1  0.21124323  0.09699495  0.63990044  1
  O  O13  1  0.20636399  0.12173042  0.96892946  1
  O  O14  1  0.23027815  0.88857977  0.12725948  1
  O  O15  1  0.21610969  0.89927789  0.46859852  1
  O  O16  1  0.30569115  0.38797357  0.80984238  1
  O  O17  1  0.70082286  0.38260771  0.02948649  1
  O  O18  1  0.72737928  0.38706378  0.36885709  1
  F  F19  1  0.22497557  0.11840224  0.30591412  1
  F  F20  1  0.25002333  0.87642738  0.80711707  1
  F  F21  1  0.26713934  0.39608774  0.15092969  1
  F  F22  1  0.27778803  0.61859907  0.30968534  1
  F  F23  1  0.24515692  0.40060823  0.47359401  1
  F  F24  1  0.26466433  0.60259128  0.64521816  1
  F  F25  1  0.24948550  0.61457921  0.97644923  1
  F  F26  1  0.72375168  0.61879962  0.19267119  1
  F  F27  1  0.72600234  0.62576774  0.53319574  1
  F  F28  1  0.73871798  0.61422602  0.86723486  1
  F  F29  1  0.74078438  0.38001391  0.69288638  1
  F  F30  1  0.78827014  0.12569170  0.18634528  1
  F  F31  1  0.75363046  0.11434523  0.52065682  1
  F  F32  1  0.76392550  0.89195432  0.35072089  1
  F  F33  1  0.73756713  0.88230916  0.02380429  1
  F  F34  1  0.78390614  0.12027993  0.85102764  1
  F  F35  1  0.76658494  0.85951882  0.69672386  1
