# generated using pymatgen
data_Li3BiS3
_symmetry_space_group_name_H-M   'P 1'
_cell_length_a   11.04590628
_cell_length_b   12.31262806
_cell_length_c   11.20556355
_cell_angle_alpha   113.70192211
_cell_angle_beta   88.01286156
_cell_angle_gamma   108.76588963
_symmetry_Int_Tables_number   1
_chemical_formula_structural   Li3BiS3
_chemical_formula_sum   'Li24 Bi8 S24'
_cell_volume   1313.37486346
_cell_formula_units_Z   8
loop_
 _symmetry_equiv_pos_site_id
 _symmetry_equiv_pos_as_xyz
  1  'x, y, z'
loop_
 _atom_site_type_symbol
 _atom_site_label
 _atom_site_symmetry_multiplicity
 _atom_site_fract_x
 _atom_site_fract_y
 _atom_site_fract_z
 _atom_site_occupancy
  Li  Li0  1  0.09011774  0.92465554  0.49689894  1
  Li  Li1  1  0.07223576  0.55171187  0.33712757  1
  Li  Li2  1  0.10284056  0.49952475  0.91857464  1
  Li  Li3  1  0.15878781  0.34881426  0.62642649  1
  Li  Li4  1  0.27994328  0.78353000  0.45135485  1
  Li  Li5  1  0.31652140  0.59125617  0.14760123  1
  Li  Li6  1  0.34020062  0.66456024  0.89201759  1
  Li  Li7  1  0.47304046  0.93596914  0.26252090  1
  Li  Li8  1  0.42265475  0.62209027  0.57361444  1
  Li  Li9  1  0.51145565  0.89203616  0.86635014  1
  Li  Li10  1  0.31779613  0.16964214  0.54377027  1
  Li  Li11  1  0.51487751  0.53927307  0.25197979  1
  Li  Li12  1  0.48512249  0.46072693  0.74802021  1
  Li  Li13  1  0.68220387  0.83035786  0.45622973  1
  Li  Li14  1  0.48854435  0.10796384  0.13364986  1
  Li  Li15  1  0.57734525  0.37790973  0.42638556  1
  Li  Li16  1  0.52695954  0.06403086  0.73747910  1
  Li  Li17  1  0.65979938  0.33543976  0.10798241  1
  Li  Li18  1  0.68347860  0.40874383  0.85239877  1
  Li  Li19  1  0.72005672  0.21647000  0.54864515  1
  Li  Li20  1  0.84121219  0.65118574  0.37357351  1
  Li  Li21  1  0.89715944  0.50047525  0.08142536  1
  Li  Li22  1  0.92776424  0.44828813  0.66287243  1
  Li  Li23  1  0.90988226  0.07534446  0.50310106  1
  Bi  Bi24  1  0.15602023  0.85681323  0.16883412  1
  Bi  Bi25  1  0.17027502  0.79706636  0.74871350  1
  Bi  Bi26  1  0.24786419  0.31422430  0.30366885  1
  Bi  Bi27  1  0.27944590  0.23412424  0.86172091  1
  Bi  Bi28  1  0.72055410  0.76587576  0.13827909  1
  Bi  Bi29  1  0.75213581  0.68577570  0.69633115  1
  Bi  Bi30  1  0.82972498  0.20293364  0.25128650  1
  Bi  Bi31  1  0.84397977  0.14318677  0.83116588  1
  S  S32  1  0.04766098  0.73164690  0.52540542  1
  S  S33  1  0.11594163  0.63585625  0.14960797  1
  S  S34  1  0.14496958  0.58300873  0.74724136  1
  S  S35  1  0.28911460  0.95766957  0.38934395  1
  S  S36  1  0.36027798  0.88269286  0.04260922  1
  S  S37  1  0.11048837  0.14018548  0.65724299  1
  S  S38  1  0.38855971  0.84181490  0.66360929  1
  S  S39  1  0.28773697  0.54078100  0.34236696  1
  S  S40  1  0.30634289  0.46119010  0.91419112  1
  S  S41  1  0.35901237  0.36793054  0.52368609  1
  S  S42  1  0.52686870  0.76149445  0.26621640  1
  S  S43  1  0.55808539  0.69903445  0.82487603  1
  S  S44  1  0.44191461  0.30096555  0.17512397  1
  S  S45  1  0.47313130  0.23850555  0.73378360  1
  S  S46  1  0.64098763  0.63206946  0.47631391  1
  S  S47  1  0.69365711  0.53880890  0.08580888  1
  S  S48  1  0.71226303  0.45921900  0.65763304  1
  S  S49  1  0.61144029  0.15818510  0.33639071  1
  S  S50  1  0.88951163  0.85981452  0.34275701  1
  S  S51  1  0.63972202  0.11730714  0.95739078  1
  S  S52  1  0.71088540  0.04233043  0.61065605  1
  S  S53  1  0.85503042  0.41699127  0.25275864  1
  S  S54  1  0.88405837  0.36414375  0.85039203  1
  S  S55  1  0.95233902  0.26835310  0.47459458  1
