# generated using pymatgen
data_Li2Cu4S3
_symmetry_space_group_name_H-M   'P 1'
_cell_length_a   10.39065500
_cell_length_b   3.87170352
_cell_length_c   14.36661089
_cell_angle_alpha   90.00000000
_cell_angle_beta   90.00000000
_cell_angle_gamma   90.00000000
_symmetry_Int_Tables_number   1
_chemical_formula_structural   Li2Cu4S3
_chemical_formula_sum   'Li8 Cu16 S12'
_cell_volume   577.96208337
_cell_formula_units_Z   4
loop_
 _symmetry_equiv_pos_site_id
 _symmetry_equiv_pos_as_xyz
  1  'x, y, z'
loop_
 _atom_site_type_symbol
 _atom_site_label
 _atom_site_symmetry_multiplicity
 _atom_site_fract_x
 _atom_site_fract_y
 _atom_site_fract_z
 _atom_site_occupancy
  Li  Li0  1  0.04467925  0.75000000  0.75197944  1
  Li  Li1  1  0.13411633  0.75000000  0.36474761  1
  Li  Li2  1  0.36588367  0.25000000  0.86474761  1
  Li  Li3  1  0.45532075  0.25000000  0.25197944  1
  Li  Li4  1  0.54467925  0.75000000  0.74802056  1
  Li  Li5  1  0.63411633  0.75000000  0.13525239  1
  Li  Li6  1  0.86588367  0.25000000  0.63525239  1
  Li  Li7  1  0.95532075  0.25000000  0.24802056  1
  Cu  Cu8  1  0.21704904  0.25000000  0.63089667  1
  Cu  Cu9  1  0.20026149  0.25000000  0.23855964  1
  Cu  Cu10  1  0.09384555  0.25000000  0.48297930  1
  Cu  Cu11  1  0.10821513  0.25000000  0.86989013  1
  Cu  Cu12  1  0.39178487  0.75000000  0.36989013  1
  Cu  Cu13  1  0.40615445  0.75000000  0.98297930  1
  Cu  Cu14  1  0.29973851  0.75000000  0.73855964  1
  Cu  Cu15  1  0.28295096  0.75000000  0.13089667  1
  Cu  Cu16  1  0.71704904  0.25000000  0.86910333  1
  Cu  Cu17  1  0.70026149  0.25000000  0.26144036  1
  Cu  Cu18  1  0.59384555  0.25000000  0.01702070  1
  Cu  Cu19  1  0.60821513  0.25000000  0.63010987  1
  Cu  Cu20  1  0.89178487  0.75000000  0.13010987  1
  Cu  Cu21  1  0.90615445  0.75000000  0.51702070  1
  Cu  Cu22  1  0.79973851  0.75000000  0.76144036  1
  Cu  Cu23  1  0.78295096  0.75000000  0.36910333  1
  S  S24  1  0.21631664  0.75000000  0.88811957  1
  S  S25  1  0.10540651  0.75000000  0.58967892  1
  S  S26  1  0.08585095  0.75000000  0.19837802  1
  S  S27  1  0.41414905  0.25000000  0.69837802  1
  S  S28  1  0.39459349  0.25000000  0.08967892  1
  S  S29  1  0.28368336  0.25000000  0.38811957  1
  S  S30  1  0.71631664  0.75000000  0.61188043  1
  S  S31  1  0.60540651  0.75000000  0.91032108  1
  S  S32  1  0.58585095  0.75000000  0.30162198  1
  S  S33  1  0.91414905  0.25000000  0.80162198  1
  S  S34  1  0.89459349  0.25000000  0.41032108  1
  S  S35  1  0.78368336  0.25000000  0.11188043  1
