# generated using pymatgen
data_Li7Ti3(SiO6)2
_symmetry_space_group_name_H-M   'P 1'
_cell_length_a   4.92695624
_cell_length_b   4.92627505
_cell_length_c   9.93287260
_cell_angle_alpha   94.74461021
_cell_angle_beta   99.52082318
_cell_angle_gamma   59.99542338
_symmetry_Int_Tables_number   1
_chemical_formula_structural   Li7Ti3(SiO6)2
_chemical_formula_sum   'Li7 Ti3 Si2 O12'
_cell_volume   205.90129548
_cell_formula_units_Z   1
loop_
 _symmetry_equiv_pos_site_id
 _symmetry_equiv_pos_as_xyz
  1  'x, y, z'
loop_
 _atom_site_type_symbol
 _atom_site_label
 _atom_site_symmetry_multiplicity
 _atom_site_fract_x
 _atom_site_fract_y
 _atom_site_fract_z
 _atom_site_occupancy
  Li  Li0  1  0.66871618  0.66666700  0.99177397  1
  Li  Li1  1  0.91666700  0.66666700  0.75000000  1
  Li  Li2  1  0.83610917  0.33803895  0.50816487  1
  Li  Li3  1  0.32585088  0.33803895  0.99183513  1
  Li  Li4  1  0.16461682  0.66666700  0.50822603  1
  Li  Li5  1  0.50748212  0.99529405  0.50816487  1
  Li  Li6  1  0.99722383  0.99529405  0.99183513  1
  Ti  Ti7  1  0.41666700  0.66666700  0.25000000  1
  Ti  Ti8  1  0.75047695  0.99904610  0.25000000  1
  Ti  Ti9  1  0.08285605  0.33428690  0.25000000  1
  Si  Si10  1  0.58334145  0.33331710  0.75000000  1
  Si  Si11  1  0.24999155  0.00001590  0.75000000  1
  O  O12  1  0.79171173  0.66666700  0.37610668  1
  O  O13  1  0.95067187  0.29336295  0.85198783  1
  O  O14  1  0.70888317  0.33310967  0.12662471  1
  O  O15  1  0.50938800  0.66666700  0.64802590  1
  O  O16  1  0.45800716  0.33310967  0.37337529  1
  O  O17  1  0.88266113  0.03997105  0.64801217  1
  O  O18  1  0.32394500  0.66666700  0.85197410  1
  O  O19  1  0.04162227  0.66666700  0.12389332  1
  O  O20  1  0.57736782  0.03997105  0.85198783  1
  O  O21  1  0.37532584  0.00022433  0.12662471  1
  O  O22  1  0.25596518  0.29336295  0.64801217  1
  O  O23  1  0.12444983  0.00022433  0.37337529  1
