# generated using pymatgen
data_LiNiP2O7
_symmetry_space_group_name_H-M   'P 1'
_cell_length_a   5.12939807
_cell_length_b   6.12989304
_cell_length_c   8.68678310
_cell_angle_alpha   109.34630814
_cell_angle_beta   91.62285429
_cell_angle_gamma   86.76650211
_symmetry_Int_Tables_number   1
_chemical_formula_structural   LiNiP2O7
_chemical_formula_sum   'Li2 Ni2 P4 O14'
_cell_volume   257.28882697
_cell_formula_units_Z   2
loop_
 _symmetry_equiv_pos_site_id
 _symmetry_equiv_pos_as_xyz
  1  'x, y, z'
loop_
 _atom_site_type_symbol
 _atom_site_label
 _atom_site_symmetry_multiplicity
 _atom_site_fract_x
 _atom_site_fract_y
 _atom_site_fract_z
 _atom_site_occupancy
  Li  Li0  1  0.22498442  0.81101187  0.47748705  1
  Li  Li1  1  0.77501558  0.18898813  0.52251295  1
  Ni  Ni2  1  0.23235408  0.44015201  0.73016514  1
  Ni  Ni3  1  0.76764592  0.55984799  0.26983486  1
  P  P4  1  0.21261787  0.79996585  0.13292462  1
  P  P5  1  0.30619840  0.26484867  0.34218701  1
  P  P6  1  0.69380160  0.73515133  0.65781299  1
  P  P7  1  0.78738213  0.20003415  0.86707538  1
  O  O8  1  0.05545953  0.19869302  0.79362994  1
  O  O9  1  0.12298191  0.47116871  0.34193716  1
  O  O10  1  0.23230606  0.17070862  0.47903684  1
  O  O11  1  0.22887173  0.68109702  0.95184313  1
  O  O12  1  0.26526142  0.06890521  0.16617000  1
  O  O13  1  0.40718104  0.67590511  0.64542452  1
  O  O14  1  0.41973250  0.71560347  0.23527725  1
  O  O15  1  0.58026750  0.28439653  0.76472275  1
  O  O16  1  0.59281896  0.32409489  0.35457548  1
  O  O17  1  0.73473858  0.93109479  0.83383000  1
  O  O18  1  0.77112827  0.31890298  0.04815687  1
  O  O19  1  0.76769394  0.82929138  0.52096316  1
  O  O20  1  0.87701809  0.52883129  0.65806284  1
  O  O21  1  0.94454047  0.80130698  0.20637006  1
