# generated using pymatgen
data_LiFePO4
_symmetry_space_group_name_H-M   'P 1'
_cell_length_a   9.54124745
_cell_length_b   4.76352749
_cell_length_c   6.91540564
_cell_angle_alpha   90.00000000
_cell_angle_beta   90.00000000
_cell_angle_gamma   90.00000000
_symmetry_Int_Tables_number   1
_chemical_formula_structural   LiFePO4
_chemical_formula_sum   'Li4 Fe4 P4 O16'
_cell_volume   314.30514842
_cell_formula_units_Z   4
loop_
 _symmetry_equiv_pos_site_id
 _symmetry_equiv_pos_as_xyz
  1  'x, y, z'
loop_
 _atom_site_type_symbol
 _atom_site_label
 _atom_site_symmetry_multiplicity
 _atom_site_fract_x
 _atom_site_fract_y
 _atom_site_fract_z
 _atom_site_occupancy
  Li  Li0  1  0.03209906  0.00791278  0.09489648  1
  Li  Li1  1  0.46790094  0.99208722  0.59489648  1
  Li  Li2  1  0.53209906  0.49208722  0.90510352  1
  Li  Li3  1  0.96790094  0.50791278  0.40510352  1
  Fe  Fe4  1  0.18586154  0.45569567  0.76840598  1
  Fe  Fe5  1  0.31413846  0.54430433  0.26840598  1
  Fe  Fe6  1  0.68586154  0.04430433  0.23159402  1
  Fe  Fe7  1  0.81413846  0.95569567  0.73159402  1
  P  P8  1  0.15389014  0.90625310  0.50312363  1
  P  P9  1  0.34610986  0.09374690  0.00312363  1
  P  P10  1  0.65389014  0.59374690  0.49687637  1
  P  P11  1  0.84610986  0.40625310  0.99687637  1
  O  O12  1  0.05981009  0.78684846  0.66877527  1
  O  O13  1  0.10645382  0.78453178  0.30461188  1
  O  O14  1  0.15761855  0.23025940  0.50329773  1
  O  O15  1  0.19869170  0.23437019  0.03500289  1
  O  O16  1  0.30130830  0.76562981  0.53500289  1
  O  O17  1  0.34238145  0.76974060  0.00329773  1
  O  O18  1  0.39354618  0.21546822  0.80461188  1
  O  O19  1  0.44018991  0.21315154  0.16877527  1
  O  O20  1  0.55981009  0.71315154  0.33122473  1
  O  O21  1  0.60645382  0.71546822  0.69538812  1
  O  O22  1  0.65761855  0.26974060  0.49670227  1
  O  O23  1  0.69869170  0.26562981  0.96499711  1
  O  O24  1  0.80130830  0.73437019  0.46499711  1
  O  O25  1  0.84238145  0.73025940  0.99670227  1
  O  O26  1  0.89354618  0.28453178  0.19538812  1
  O  O27  1  0.94018991  0.28684846  0.83122473  1
