# generated using pymatgen
data_LaMg6Al
_symmetry_space_group_name_H-M   'P 1'
_cell_length_a   6.68528289
_cell_length_b   6.68528230
_cell_length_c   5.06508635
_cell_angle_alpha   90.00000000
_cell_angle_beta   90.00000000
_cell_angle_gamma   119.86996037
_symmetry_Int_Tables_number   1
_chemical_formula_structural   LaMg6Al
_chemical_formula_sum   'La1 Mg6 Al1'
_cell_volume   196.30195303
_cell_formula_units_Z   1
loop_
 _symmetry_equiv_pos_site_id
 _symmetry_equiv_pos_as_xyz
  1  'x, y, z'
loop_
 _atom_site_type_symbol
 _atom_site_label
 _atom_site_symmetry_multiplicity
 _atom_site_fract_x
 _atom_site_fract_y
 _atom_site_fract_z
 _atom_site_occupancy
  La  La0  1  0.32637877  0.17362123  0.75000000  1
  Mg  Mg1  1  0.15840330  0.81517495  0.25000000  1
  Mg  Mg2  1  0.68482505  0.34159670  0.25000000  1
  Mg  Mg3  1  0.66732389  0.83267611  0.25000000  1
  Mg  Mg4  1  0.32176703  0.66011074  0.75000000  1
  Mg  Mg5  1  0.83988926  0.17823297  0.75000000  1
  Mg  Mg6  1  0.83634773  0.66365227  0.75000000  1
  Al  Al7  1  0.16506497  0.33493503  0.25000000  1
