# generated using pymatgen
data_La4SbTe7
_symmetry_space_group_name_H-M   'P 1'
_cell_length_a   4.52520803
_cell_length_b   4.52179101
_cell_length_c   18.81717625
_cell_angle_alpha   90.00000000
_cell_angle_beta   90.00000000
_cell_angle_gamma   90.00000000
_symmetry_Int_Tables_number   1
_chemical_formula_structural   La4SbTe7
_chemical_formula_sum   'La4 Sb1 Te7'
_cell_volume   385.03790698
_cell_formula_units_Z   1
loop_
 _symmetry_equiv_pos_site_id
 _symmetry_equiv_pos_as_xyz
  1  'x, y, z'
loop_
 _atom_site_type_symbol
 _atom_site_label
 _atom_site_symmetry_multiplicity
 _atom_site_fract_x
 _atom_site_fract_y
 _atom_site_fract_z
 _atom_site_occupancy
  La  La0  1  0.75000000  0.75000000  0.13890730  1
  La  La1  1  0.75000000  0.75000000  0.63664349  1
  La  La2  1  0.25000000  0.25000000  0.36334822  1
  La  La3  1  0.25000000  0.25000000  0.86111151  1
  Sb  Sb4  1  0.75000000  0.25000000  0.00000758  1
  Te  Te5  1  0.75000000  0.75000000  0.31715873  1
  Te  Te6  1  0.75000000  0.75000000  0.81578612  1
  Te  Te7  1  0.25000000  0.25000000  0.18419002  1
  Te  Te8  1  0.25000000  0.25000000  0.68283121  1
  Te  Te9  1  0.75000000  0.25000000  0.50005235  1
  Te  Te10  1  0.25000000  0.75000000  0.49997371  1
  Te  Te11  1  0.25000000  0.75000000  0.99998976  1
