# generated using pymatgen
data_Li2Mn7F16
_symmetry_space_group_name_H-M   'P 1'
_cell_length_a   6.51771236
_cell_length_b   9.58739007
_cell_length_c   6.51771276
_cell_angle_alpha   109.87143346
_cell_angle_beta   59.99999555
_cell_angle_gamma   109.87143302
_symmetry_Int_Tables_number   1
_chemical_formula_structural   Li2Mn7F16
_chemical_formula_sum   'Li2 Mn7 F16'
_cell_volume   324.40919594
_cell_formula_units_Z   1
loop_
 _symmetry_equiv_pos_site_id
 _symmetry_equiv_pos_as_xyz
  1  'x, y, z'
loop_
 _atom_site_type_symbol
 _atom_site_label
 _atom_site_symmetry_multiplicity
 _atom_site_fract_x
 _atom_site_fract_y
 _atom_site_fract_z
 _atom_site_occupancy
  Li  Li0  1  0.33403640  0.00210919  0.33403640  1
  Li  Li1  1  0.66596360  0.99789081  0.66596360  1
  Mn  Mn2  1  0.00000000  0.00000000  0.00000000  1
  Mn  Mn3  1  0.25461754  0.66428190  0.52041767  1
  Mn  Mn4  1  0.11075331  0.33571810  0.74538246  1
  Mn  Mn5  1  0.47958233  0.33571810  0.11075331  1
  Mn  Mn6  1  0.52041767  0.66428190  0.88924669  1
  Mn  Mn7  1  0.88924669  0.66428190  0.25461754  1
  Mn  Mn8  1  0.74538246  0.33571810  0.47958233  1
  F  F9  1  0.23741672  0.71224916  0.23741672  1
  F  F10  1  0.24536291  0.89256828  0.65230285  1
  F  F11  1  0.15914229  0.41030457  0.40514854  1
  F  F12  1  0.15398626  0.58969543  0.84085771  1
  F  F13  1  0.00509748  0.10743172  0.75463709  1
  F  F14  1  0.34769715  0.10743172  0.00509748  1
  F  F15  1  0.59485146  0.58969543  0.15398626  1
  F  F16  1  0.41635033  0.24905200  0.41635033  1
  F  F17  1  0.58364967  0.75094800  0.58364967  1
  F  F18  1  0.40514854  0.41030457  0.84601374  1
  F  F19  1  0.65230285  0.89256828  0.99490252  1
  F  F20  1  0.99490252  0.89256828  0.24536291  1
  F  F21  1  0.84601374  0.41030457  0.15914229  1
  F  F22  1  0.84085771  0.58969543  0.59485146  1
  F  F23  1  0.75463709  0.10743172  0.34769715  1
  F  F24  1  0.76258328  0.28775084  0.76258328  1
