# generated using pymatgen
data_Li4V2SiO8
_symmetry_space_group_name_H-M   'P 1'
_cell_length_a   8.27910168
_cell_length_b   10.93360325
_cell_length_c   8.27377000
_cell_angle_alpha   90.00000000
_cell_angle_beta   103.09791044
_cell_angle_gamma   90.00000000
_symmetry_Int_Tables_number   1
_chemical_formula_structural   Li4V2SiO8
_chemical_formula_sum   'Li16 V8 Si4 O32'
_cell_volume   729.46069682
_cell_formula_units_Z   4
loop_
 _symmetry_equiv_pos_site_id
 _symmetry_equiv_pos_as_xyz
  1  'x, y, z'
loop_
 _atom_site_type_symbol
 _atom_site_label
 _atom_site_symmetry_multiplicity
 _atom_site_fract_x
 _atom_site_fract_y
 _atom_site_fract_z
 _atom_site_occupancy
  Li  Li0  1  0.09631168  0.66886423  0.60050012  1
  Li  Li1  1  0.16250993  0.16626222  0.66292050  1
  Li  Li2  1  0.15727975  0.33677422  0.14335139  1
  Li  Li3  1  0.21899653  0.42162084  0.46475467  1
  Li  Li4  1  0.28100347  0.92162084  0.53524533  1
  Li  Li5  1  0.34272025  0.83677422  0.85664861  1
  Li  Li6  1  0.33749007  0.66626222  0.33707950  1
  Li  Li7  1  0.40368832  0.16886423  0.39949988  1
  Li  Li8  1  0.59631168  0.83113577  0.60050012  1
  Li  Li9  1  0.66250993  0.33373778  0.66292050  1
  Li  Li10  1  0.65727975  0.16322578  0.14335139  1
  Li  Li11  1  0.71899653  0.07837916  0.46475467  1
  Li  Li12  1  0.78100347  0.57837916  0.53524533  1
  Li  Li13  1  0.84272025  0.66322578  0.85664861  1
  Li  Li14  1  0.83749007  0.83373778  0.33707950  1
  Li  Li15  1  0.90368832  0.33113577  0.39949988  1
  V  V16  1  0.04186493  0.41067027  0.76436797  1
  V  V17  1  0.03095693  0.08694983  0.28780371  1
  V  V18  1  0.46904307  0.58694983  0.71219629  1
  V  V19  1  0.54186493  0.08932973  0.76436797  1
  V  V20  1  0.45813507  0.91067027  0.23563203  1
  V  V21  1  0.53095693  0.41305017  0.28780371  1
  V  V22  1  0.96904307  0.91305017  0.71219629  1
  V  V23  1  0.95813507  0.58932973  0.23563203  1
  Si  Si24  1  0.08624950  0.83412701  0.08973142  1
  Si  Si25  1  0.41375150  0.33412701  0.91026858  1
  Si  Si26  1  0.58624850  0.66587299  0.08973142  1
  Si  Si27  1  0.91375150  0.16587299  0.91026858  1
  O  O28  1  0.99141288  0.08135124  0.77935708  1
  O  O29  1  0.09067293  0.33388309  0.59682274  1
  O  O30  1  0.23625217  0.38579175  0.94213196  1
  O  O31  1  0.02050203  0.43688135  0.25814137  1
  O  O32  1  0.14245411  0.84281356  0.66489253  1
  O  O33  1  0.04860518  0.17281042  0.09120931  1
  O  O34  1  0.11687255  0.69530094  0.16899781  1
  O  O35  1  0.20794803  0.08848741  0.45447233  1
  O  O36  1  0.29205197  0.58848741  0.54552767  1
  O  O37  1  0.38312745  0.19530094  0.83100219  1
  O  O38  1  0.45139482  0.67281042  0.90879069  1
  O  O39  1  0.35754589  0.34281356  0.33510747  1
  O  O40  1  0.47949797  0.93688135  0.74185863  1
  O  O41  1  0.26374783  0.88579175  0.05786804  1
  O  O42  1  0.49141288  0.41864876  0.77935708  1
  O  O43  1  0.40932707  0.83388309  0.40317726  1
  O  O44  1  0.59067293  0.16611691  0.59682274  1
  O  O45  1  0.50858712  0.58135124  0.22064292  1
  O  O46  1  0.73625217  0.11420825  0.94213196  1
  O  O47  1  0.52050203  0.06311865  0.25814137  1
  O  O48  1  0.64245411  0.65718644  0.66489253  1
  O  O49  1  0.54860518  0.32718958  0.09120931  1
  O  O50  1  0.61687255  0.80469906  0.16899781  1
  O  O51  1  0.70794803  0.41151259  0.45447233  1
  O  O52  1  0.79205197  0.91151259  0.54552767  1
  O  O53  1  0.88312745  0.30469906  0.83100219  1
  O  O54  1  0.95139482  0.82718958  0.90879069  1
  O  O55  1  0.85754589  0.15718644  0.33510747  1
  O  O56  1  0.97949797  0.56311865  0.74185863  1
  O  O57  1  0.76374783  0.61420825  0.05786804  1
  O  O58  1  0.90932707  0.66611691  0.40317726  1
  O  O59  1  0.00858712  0.91864876  0.22064292  1
