# generated using pymatgen
data_LiVSiO4
_symmetry_space_group_name_H-M   'P 1'
_cell_length_a   10.31523199
_cell_length_b   13.70664446
_cell_length_c   5.15732402
_cell_angle_alpha   90.00000000
_cell_angle_beta   90.00000000
_cell_angle_gamma   90.00000000
_symmetry_Int_Tables_number   1
_chemical_formula_structural   LiVSiO4
_chemical_formula_sum   'Li8 V8 Si8 O32'
_cell_volume   729.17969247
_cell_formula_units_Z   8
loop_
 _symmetry_equiv_pos_site_id
 _symmetry_equiv_pos_as_xyz
  1  'x, y, z'
loop_
 _atom_site_type_symbol
 _atom_site_label
 _atom_site_symmetry_multiplicity
 _atom_site_fract_x
 _atom_site_fract_y
 _atom_site_fract_z
 _atom_site_occupancy
  Li  Li0  1  0.03500455  0.75083540  0.06251216  1
  Li  Li1  1  0.21345496  0.00364398  0.55154714  1
  Li  Li2  1  0.28654504  0.50364398  0.55154714  1
  Li  Li3  1  0.46499545  0.25083540  0.06251216  1
  Li  Li4  1  0.53500455  0.75083540  0.93748784  1
  Li  Li5  1  0.71345496  0.00364398  0.44845286  1
  Li  Li6  1  0.78654504  0.50364398  0.44845286  1
  Li  Li7  1  0.96499545  0.25083540  0.93748784  1
  V  V8  1  0.03263001  0.50092452  0.92558030  1
  V  V9  1  0.21601980  0.75190815  0.55759655  1
  V  V10  1  0.28398020  0.25190815  0.55759655  1
  V  V11  1  0.46736999  0.00092452  0.92558030  1
  V  V12  1  0.53263001  0.50092452  0.07441970  1
  V  V13  1  0.71601980  0.75190815  0.44240345  1
  V  V14  1  0.78398020  0.25190815  0.44240345  1
  V  V15  1  0.96736999  0.00092452  0.07441970  1
  Si  Si16  1  0.03217543  0.37595019  0.43530062  1
  Si  Si17  1  0.21657682  0.12739684  0.05609233  1
  Si  Si18  1  0.28342318  0.62739684  0.05609233  1
  Si  Si19  1  0.46782457  0.87595019  0.43530062  1
  Si  Si20  1  0.53217543  0.37595019  0.56469938  1
  Si  Si21  1  0.71657682  0.12739684  0.94390767  1
  Si  Si22  1  0.78342318  0.62739684  0.94390767  1
  Si  Si23  1  0.96782457  0.87595019  0.56469938  1
  O  O24  1  0.99879647  0.88261908  0.87746185  1
  O  O25  1  0.97229117  0.47414086  0.57478182  1
  O  O26  1  0.03899351  0.77789397  0.44668000  1
  O  O27  1  0.06002696  0.12172202  0.99520853  1
  O  O28  1  0.18866406  0.37098151  0.49644136  1
  O  O29  1  0.21619265  0.53026408  0.92338677  1
  O  O30  1  0.28217233  0.22530406  0.92552774  1
  O  O31  1  0.24470364  0.13201434  0.36995266  1
  O  O32  1  0.25529636  0.63201434  0.36995266  1
  O  O33  1  0.21782767  0.72530406  0.92552774  1
  O  O34  1  0.28380735  0.03026408  0.92338677  1
  O  O35  1  0.31133594  0.87098151  0.49644136  1
  O  O36  1  0.43997304  0.62172202  0.99520853  1
  O  O37  1  0.46100649  0.27789397  0.44668000  1
  O  O38  1  0.52770883  0.97414086  0.57478182  1
  O  O39  1  0.50120353  0.38261908  0.87746185  1
  O  O40  1  0.49879647  0.88261908  0.12253815  1
  O  O41  1  0.47229117  0.47414086  0.42521818  1
  O  O42  1  0.53899351  0.77789397  0.55332000  1
  O  O43  1  0.56002696  0.12172202  0.00479147  1
  O  O44  1  0.68866406  0.37098151  0.50355864  1
  O  O45  1  0.71619265  0.53026408  0.07661323  1
  O  O46  1  0.78217233  0.22530406  0.07447226  1
  O  O47  1  0.74470364  0.13201434  0.63004734  1
  O  O48  1  0.75529636  0.63201434  0.63004734  1
  O  O49  1  0.71782767  0.72530406  0.07447226  1
  O  O50  1  0.78380735  0.03026408  0.07661323  1
  O  O51  1  0.81133594  0.87098151  0.50355864  1
  O  O52  1  0.93997304  0.62172202  0.00479147  1
  O  O53  1  0.96100649  0.27789397  0.55332000  1
  O  O54  1  0.02770883  0.97414086  0.42521818  1
  O  O55  1  0.00120353  0.38261908  0.12253815  1
