# generated using pymatgen
data_LiCr2(PO4)2
_symmetry_space_group_name_H-M   'P 1'
_cell_length_a   9.33893479
_cell_length_b   5.53436987
_cell_length_c   6.40889985
_cell_angle_alpha   101.72383174
_cell_angle_beta   106.43596013
_cell_angle_gamma   82.82837680
_symmetry_Int_Tables_number   1
_chemical_formula_structural   LiCr2(PO4)2
_chemical_formula_sum   'Li2 Cr4 P4 O16'
_cell_volume   310.28005982
_cell_formula_units_Z   2
loop_
 _symmetry_equiv_pos_site_id
 _symmetry_equiv_pos_as_xyz
  1  'x, y, z'
loop_
 _atom_site_type_symbol
 _atom_site_label
 _atom_site_symmetry_multiplicity
 _atom_site_fract_x
 _atom_site_fract_y
 _atom_site_fract_z
 _atom_site_occupancy
  Li  Li0  1  0.38283071  0.18281175  0.11751697  1
  Li  Li1  1  0.61716929  0.81718825  0.88248303  1
  Cr  Cr2  1  0.08349675  0.31479104  0.33626845  1
  Cr  Cr3  1  0.28843732  0.86789254  0.55135108  1
  Cr  Cr4  1  0.71156268  0.13210746  0.44864892  1
  Cr  Cr5  1  0.91650325  0.68520896  0.66373155  1
  P  P6  1  0.05032186  0.19466931  0.79025351  1
  P  P7  1  0.42360024  0.31524964  0.66139181  1
  P  P8  1  0.57639976  0.68475036  0.33860819  1
  P  P9  1  0.94967814  0.80533069  0.20974649  1
  O  O10  1  0.07880563  0.39069448  0.66483274  1
  O  O11  1  0.12593148  0.94082384  0.70592293  1
  O  O12  1  0.12074928  0.82801058  0.26367402  1
  O  O13  1  0.12289840  0.27229799  0.03690631  1
  O  O14  1  0.42147077  0.12050571  0.81028696  1
  O  O15  1  0.31198731  0.19042246  0.43716306  1
  O  O16  1  0.36941463  0.58340709  0.73906223  1
  O  O17  1  0.41893562  0.68864775  0.36614369  1
  O  O18  1  0.58106438  0.31135225  0.63385631  1
  O  O19  1  0.63058537  0.41659291  0.26093777  1
  O  O20  1  0.68801269  0.80957754  0.56283694  1
  O  O21  1  0.57852923  0.87949429  0.18971304  1
  O  O22  1  0.87710160  0.72770201  0.96309369  1
  O  O23  1  0.87925072  0.17198942  0.73632598  1
  O  O24  1  0.87406852  0.05917616  0.29407707  1
  O  O25  1  0.92119437  0.60930552  0.33516726  1
