# generated using pymatgen
data_LiVSiO4
_symmetry_space_group_name_H-M   'P 1'
_cell_length_a   5.14574267
_cell_length_b   10.31654470
_cell_length_c   6.90699564
_cell_angle_alpha   90.00000000
_cell_angle_beta   88.32562006
_cell_angle_gamma   90.00000000
_symmetry_Int_Tables_number   1
_chemical_formula_structural   LiVSiO4
_chemical_formula_sum   'Li4 V4 Si4 O16'
_cell_volume   366.51017657
_cell_formula_units_Z   4
loop_
 _symmetry_equiv_pos_site_id
 _symmetry_equiv_pos_as_xyz
  1  'x, y, z'
loop_
 _atom_site_type_symbol
 _atom_site_label
 _atom_site_symmetry_multiplicity
 _atom_site_fract_x
 _atom_site_fract_y
 _atom_site_fract_z
 _atom_site_occupancy
  Li  Li0  1  0.19946888  0.14153885  0.50442775  1
  Li  Li1  1  0.30053112  0.64153885  0.99557225  1
  Li  Li2  1  0.69946888  0.35846115  0.00442775  1
  Li  Li3  1  0.80053112  0.85846115  0.49557225  1
  V  V4  1  0.19003181  0.17404971  0.00733910  1
  V  V5  1  0.30996819  0.67404971  0.49266090  1
  V  V6  1  0.69003181  0.32595029  0.50733910  1
  V  V7  1  0.80996819  0.82595029  0.99266090  1
  Si  Si8  1  0.19688686  0.40619931  0.26559678  1
  Si  Si9  1  0.30311314  0.90619931  0.23440322  1
  Si  Si10  1  0.69688686  0.09380069  0.76559678  1
  Si  Si11  1  0.80311314  0.59380069  0.73440322  1
  O  O12  1  0.11710121  0.62577728  0.73017462  1
  O  O13  1  0.17300272  0.82624005  0.05467282  1
  O  O14  1  0.18148492  0.84806693  0.44075005  1
  O  O15  1  0.24374324  0.06176736  0.22629551  1
  O  O16  1  0.25625676  0.56176736  0.27370449  1
  O  O17  1  0.31851508  0.34806693  0.05924995  1
  O  O18  1  0.32699728  0.32624005  0.44532718  1
  O  O19  1  0.38289879  0.12577728  0.76982538  1
  O  O20  1  0.61710121  0.87422272  0.23017462  1
  O  O21  1  0.67300272  0.67375995  0.55467282  1
  O  O22  1  0.68148492  0.65193307  0.94075005  1
  O  O23  1  0.74374324  0.43823264  0.72629551  1
  O  O24  1  0.75625676  0.93823264  0.77370449  1
  O  O25  1  0.81851508  0.15193307  0.55924995  1
  O  O26  1  0.82699728  0.17375995  0.94532718  1
  O  O27  1  0.88289879  0.37422272  0.26982538  1
