# generated using pymatgen
data_Li4Ti11O24
_symmetry_space_group_name_H-M   'P 1'
_cell_length_a   5.98308854
_cell_length_b   10.32422491
_cell_length_c   8.45391757
_cell_angle_alpha   114.31611141
_cell_angle_beta   90.00000000
_cell_angle_gamma   73.15643013
_symmetry_Int_Tables_number   1
_chemical_formula_structural   Li4Ti11O24
_chemical_formula_sum   'Li4 Ti11 O24'
_cell_volume   451.18144020
_cell_formula_units_Z   1
loop_
 _symmetry_equiv_pos_site_id
 _symmetry_equiv_pos_as_xyz
  1  'x, y, z'
loop_
 _atom_site_type_symbol
 _atom_site_label
 _atom_site_symmetry_multiplicity
 _atom_site_fract_x
 _atom_site_fract_y
 _atom_site_fract_z
 _atom_site_occupancy
  Li  Li0  1  0.00214547  0.99571007  0.99632160  1
  Li  Li1  1  0.33427516  0.33144868  0.66019152  1
  Li  Li2  1  0.83116148  0.33767704  0.92197077  1
  Li  Li3  1  0.41669077  0.16661746  0.95834549  1
  Ti  Ti4  1  0.25351515  0.49297070  0.12183136  1
  Ti  Ti5  1  0.08495595  0.83008710  0.30294044  1
  Ti  Ti6  1  0.57683576  0.32750970  0.28145783  1
  Ti  Ti7  1  0.09565354  0.32750970  0.28145783  1
  Ti  Ti8  1  0.74695426  0.50609249  0.61363946  1
  Ti  Ti9  1  0.91847191  0.16305618  0.45540721  1
  Ti  Ti10  1  0.57826343  0.84347214  0.79955563  1
  Ti  Ti11  1  0.74046757  0.00358570  0.63217059  1
  Ti  Ti12  1  0.41815410  0.66822756  0.95989727  1
  Ti  Ti13  1  0.91361834  0.66822756  0.95989727  1
  Ti  Ti14  1  0.25594673  0.00358570  0.63217059  1
  O  O15  1  0.59336795  0.81326410  0.01796180  1
  O  O16  1  0.09314662  0.81370675  0.04086753  1
  O  O17  1  0.94914006  0.66840244  0.18986823  1
  O  O18  1  0.38245751  0.66840244  0.18986823  1
  O  O19  1  0.09385945  0.34598400  0.06556526  1
  O  O20  1  0.56015655  0.34598400  0.06556526  1
  O  O21  1  0.40279244  0.19441512  0.22133816  1
  O  O22  1  0.26004099  0.47991802  0.34770822  1
  O  O23  1  0.07304918  0.85390163  0.53438469  1
  O  O24  1  0.90929952  0.18140196  0.22792763  1
  O  O25  1  0.76061195  0.47877611  0.38336174  1
  O  O26  1  0.57232471  0.85535058  0.56988063  1
  O  O27  1  0.61361780  0.33249499  0.52920392  1
  O  O28  1  0.05388720  0.33249499  0.52920392  1
  O  O29  1  0.21429308  0.00145714  0.39173144  1
  O  O30  1  0.45028039  0.66417609  0.72613827  1
  O  O31  1  0.88554352  0.66417609  0.72613827  1
  O  O32  1  0.78424978  0.00145714  0.39173144  1
  O  O33  1  0.92370298  0.15259404  0.69091374  1
  O  O34  1  0.74048298  0.51903304  0.87661249  1
  O  O35  1  0.24247420  0.51505160  0.89371124  1
  O  O36  1  0.42839660  0.14320679  0.69476091  1
  O  O37  1  0.27267919  0.98761808  0.85081954  1
  O  O38  1  0.73970272  0.98761808  0.85081954  1
