# generated using pymatgen
data_Li6Mn2O5F2
_symmetry_space_group_name_H-M   'P 1'
_cell_length_a   9.74845615
_cell_length_b   6.01876286
_cell_length_c   5.12255515
_cell_angle_alpha   90.00000000
_cell_angle_beta   77.88016123
_cell_angle_gamma   90.00000000
_symmetry_Int_Tables_number   1
_chemical_formula_structural   Li6Mn2O5F2
_chemical_formula_sum   'Li12 Mn4 O10 F4'
_cell_volume   293.85970605
_cell_formula_units_Z   2
loop_
 _symmetry_equiv_pos_site_id
 _symmetry_equiv_pos_as_xyz
  1  'x, y, z'
loop_
 _atom_site_type_symbol
 _atom_site_label
 _atom_site_symmetry_multiplicity
 _atom_site_fract_x
 _atom_site_fract_y
 _atom_site_fract_z
 _atom_site_occupancy
  Li  Li0  1  0.13683570  0.79370691  0.65931899  1
  Li  Li1  1  0.14224959  0.24095635  0.62235238  1
  Li  Li2  1  0.13110489  0.51358428  0.05130050  1
  Li  Li3  1  0.36733884  0.72114328  0.85060577  1
  Li  Li4  1  0.35009938  0.28196710  0.87815266  1
  Li  Li5  1  0.36917599  0.97564584  0.45590166  1
  Li  Li6  1  0.63110489  0.98641572  0.55130050  1
  Li  Li7  1  0.63683570  0.70629309  0.15931899  1
  Li  Li8  1  0.64224959  0.25904365  0.12235238  1
  Li  Li9  1  0.86917599  0.52435416  0.95590166  1
  Li  Li10  1  0.86733884  0.77885672  0.35060577  1
  Li  Li11  1  0.85009938  0.21803290  0.37815266  1
  Mn  Mn12  1  0.12754236  0.02560232  0.13761605  1
  Mn  Mn13  1  0.37020330  0.48933808  0.36245988  1
  Mn  Mn14  1  0.62754236  0.47439768  0.63761605  1
  Mn  Mn15  1  0.87020330  0.01066192  0.86245988  1
  O  O16  1  0.00025348  0.01357382  0.50062350  1
  O  O17  1  0.00413349  0.80354999  0.00594108  1
  O  O18  1  0.25220726  0.01311629  0.79921161  1
  O  O19  1  0.24795540  0.51061344  0.70084199  1
  O  O20  1  0.23336335  0.28630484  0.24366836  1
  O  O21  1  0.50413349  0.69645001  0.50594108  1
  O  O22  1  0.50025348  0.48642618  0.00062350  1
  O  O23  1  0.73336335  0.21369516  0.74366836  1
  O  O24  1  0.75220726  0.48688371  0.29921161  1
  O  O25  1  0.74795540  0.98938656  0.20084199  1
  F  F26  1  0.27063851  0.78674430  0.25194014  1
  F  F27  1  0.49690146  0.20185245  0.48006543  1
  F  F28  1  0.77063851  0.71325570  0.75194014  1
  F  F29  1  0.99690146  0.29814755  0.98006543  1
