# generated using pymatgen
data_Li3NiPCO7
_symmetry_space_group_name_H-M   'P 1'
_cell_length_a   8.53086736
_cell_length_b   4.87446730
_cell_length_c   6.34013410
_cell_angle_alpha   90.00000000
_cell_angle_beta   90.00000000
_cell_angle_gamma   84.83302859
_symmetry_Int_Tables_number   1
_chemical_formula_structural   Li3NiPCO7
_chemical_formula_sum   'Li6 Ni2 P2 C2 O14'
_cell_volume   262.57322243
_cell_formula_units_Z   2
loop_
 _symmetry_equiv_pos_site_id
 _symmetry_equiv_pos_as_xyz
  1  'x, y, z'
loop_
 _atom_site_type_symbol
 _atom_site_label
 _atom_site_symmetry_multiplicity
 _atom_site_fract_x
 _atom_site_fract_y
 _atom_site_fract_z
 _atom_site_occupancy
  Li  Li0  1  0.10531719  0.77098476  0.26033412  1
  Li  Li1  1  0.28293216  0.23593399  0.48994046  1
  Li  Li2  1  0.35415478  0.77759526  0.74436884  1
  Li  Li3  1  0.64584522  0.22240474  0.24436884  1
  Li  Li4  1  0.71706784  0.76406601  0.98994046  1
  Li  Li5  1  0.89468281  0.22901524  0.76033412  1
  Ni  Ni6  1  0.26767713  0.25582240  0.00086202  1
  Ni  Ni7  1  0.73232287  0.74417760  0.50086202  1
  P  P8  1  0.40836405  0.72110988  0.24820965  1
  P  P9  1  0.59163595  0.27889012  0.74820965  1
  C  C10  1  0.04008526  0.70495086  0.75837590  1
  C  C11  1  0.95991474  0.29504914  0.25837590  1
  O  O12  1  0.06771630  0.95699447  0.75705182  1
  O  O13  1  0.10514205  0.36561572  0.23627424  1
  O  O14  1  0.15194763  0.50848376  0.77811737  1
  O  O15  1  0.31684286  0.84895796  0.05502133  1
  O  O16  1  0.30816799  0.81858249  0.44090453  1
  O  O17  1  0.42123615  0.19389435  0.75358372  1
  O  O18  1  0.41640324  0.40056079  0.22695700  1
  O  O19  1  0.58359676  0.59943921  0.72695600  1
  O  O20  1  0.57876385  0.80610565  0.25358372  1
  O  O21  1  0.69183201  0.18141751  0.94090453  1
  O  O22  1  0.68315714  0.15104204  0.55502133  1
  O  O23  1  0.84805237  0.49151624  0.27811737  1
  O  O24  1  0.89485795  0.63438428  0.73627424  1
  O  O25  1  0.93228370  0.04300553  0.25705182  1
