# generated using pymatgen
data_Li2Co(CO3)2
_symmetry_space_group_name_H-M   'P 1'
_cell_length_a   5.22980370
_cell_length_b   6.47493304
_cell_length_c   8.27661512
_cell_angle_alpha   83.27858309
_cell_angle_beta   78.89518257
_cell_angle_gamma   66.32140323
_symmetry_Int_Tables_number   1
_chemical_formula_structural   Li2Co(CO3)2
_chemical_formula_sum   'Li4 Co2 C4 O12'
_cell_volume   251.62133920
_cell_formula_units_Z   2
loop_
 _symmetry_equiv_pos_site_id
 _symmetry_equiv_pos_as_xyz
  1  'x, y, z'
loop_
 _atom_site_type_symbol
 _atom_site_label
 _atom_site_symmetry_multiplicity
 _atom_site_fract_x
 _atom_site_fract_y
 _atom_site_fract_z
 _atom_site_occupancy
  Li  Li0  1  0.96148921  0.45052205  0.83431410  1
  Li  Li1  1  0.52641753  0.95440990  0.66410291  1
  Li  Li2  1  0.11672654  0.62260171  0.36425758  1
  Li  Li3  1  0.35177134  0.32467702  0.13058872  1
  Co  Co4  1  0.62865290  0.50659016  0.49974570  1
  Co  Co5  1  0.98994637  0.97146263  0.99809931  1
  C  C6  1  0.36065201  0.59691127  0.78905745  1
  C  C7  1  0.89221343  0.10701107  0.71071939  1
  C  C8  1  0.66385814  0.90876656  0.29348387  1
  C  C9  1  0.77757198  0.39476538  0.19966988  1
  O  O10  1  0.22412791  0.62683206  0.93859336  1
  O  O11  1  0.73553390  0.02416885  0.81673353  1
  O  O12  1  0.60794954  0.60769375  0.74676915  1
  O  O13  1  0.11586659  0.10737686  0.76207984  1
  O  O14  1  0.25370421  0.55238725  0.67423871  1
  O  O15  1  0.83078338  0.18153505  0.56776629  1
  O  O16  1  0.62752208  0.81951871  0.44493315  1
  O  O17  1  0.92761513  0.87652837  0.23208401  1
  O  O18  1  0.96197882  0.42602760  0.26495668  1
  O  O19  1  0.52235975  0.44537812  0.28414278  1
  O  O20  1  0.46478093  0.01359733  0.21357064  1
  O  O21  1  0.83512730  0.31444129  0.05450494  1
