# generated using pymatgen
data_Np(WO4)2
_symmetry_space_group_name_H-M   'P 1'
_cell_length_a   9.77322080
_cell_length_b   10.38906241
_cell_length_c   14.58479408
_cell_angle_alpha   90.00000000
_cell_angle_beta   90.00000000
_cell_angle_gamma   90.00000000
_symmetry_Int_Tables_number   1
_chemical_formula_structural   Np(WO4)2
_chemical_formula_sum   'Np8 W16 O64'
_cell_volume   1480.86124522
_cell_formula_units_Z   8
loop_
 _symmetry_equiv_pos_site_id
 _symmetry_equiv_pos_as_xyz
  1  'x, y, z'
loop_
 _atom_site_type_symbol
 _atom_site_label
 _atom_site_symmetry_multiplicity
 _atom_site_fract_x
 _atom_site_fract_y
 _atom_site_fract_z
 _atom_site_occupancy
  Np  Np0  1  0.72306996  0.53439810  0.88971257  1
  Np  Np1  1  0.27693004  0.46560190  0.11028743  1
  Np  Np2  1  0.77693004  0.03439810  0.11028743  1
  Np  Np3  1  0.27693004  0.96560190  0.38971257  1
  Np  Np4  1  0.22306996  0.96560190  0.88971257  1
  Np  Np5  1  0.72306996  0.03439810  0.61028743  1
  Np  Np6  1  0.22306996  0.46560190  0.61028743  1
  Np  Np7  1  0.77693004  0.53439810  0.38971257  1
  W  W8  1  0.99859325  0.77600438  0.55926391  1
  W  W9  1  0.00140675  0.22399562  0.44073609  1
  W  W10  1  0.50140675  0.27600438  0.44073609  1
  W  W11  1  0.00140675  0.72399562  0.05926391  1
  W  W12  1  0.49859325  0.72399562  0.55926391  1
  W  W13  1  0.99859325  0.27600438  0.94073609  1
  W  W14  1  0.49859325  0.22399562  0.94073609  1
  W  W15  1  0.50140675  0.77600438  0.05926391  1
  W  W16  1  0.81862929  0.89487664  0.84815079  1
  W  W17  1  0.18137071  0.10512336  0.15184921  1
  W  W18  1  0.68137071  0.39487664  0.15184921  1
  W  W19  1  0.18137071  0.60512336  0.34815079  1
  W  W20  1  0.31862929  0.60512336  0.84815079  1
  W  W21  1  0.81862929  0.39487664  0.65184921  1
  W  W22  1  0.31862929  0.10512336  0.65184921  1
  W  W23  1  0.68137071  0.89487664  0.34815079  1
  O  O24  1  0.61287843  0.82758013  0.62448368  1
  O  O25  1  0.38712157  0.17241987  0.37551632  1
  O  O26  1  0.88712157  0.32758013  0.37551632  1
  O  O27  1  0.38712157  0.67241987  0.12448368  1
  O  O28  1  0.11287843  0.67241987  0.62448368  1
  O  O29  1  0.61287843  0.32758013  0.87551632  1
  O  O30  1  0.11287843  0.17241987  0.87551632  1
  O  O31  1  0.88712157  0.82758013  0.12448368  1
  O  O32  1  0.76255025  0.92983352  0.96388562  1
  O  O33  1  0.23744975  0.07016648  0.03611438  1
  O  O34  1  0.73744975  0.42983352  0.03611438  1
  O  O35  1  0.23744975  0.57016648  0.46388562  1
  O  O36  1  0.26255025  0.57016648  0.96388562  1
  O  O37  1  0.76255025  0.42983352  0.53611438  1
  O  O38  1  0.26255025  0.07016648  0.53611438  1
  O  O39  1  0.73744975  0.92983352  0.46388562  1
  O  O40  1  0.88024660  0.66807610  0.50227825  1
  O  O41  1  0.11975340  0.33192390  0.49772175  1
  O  O42  1  0.61975340  0.16807610  0.49772175  1
  O  O43  1  0.11975340  0.83192390  0.00227825  1
  O  O44  1  0.38024660  0.83192390  0.50227825  1
  O  O45  1  0.88024660  0.16807610  0.99772175  1
  O  O46  1  0.38024660  0.33192390  0.99772175  1
  O  O47  1  0.61975340  0.66807610  0.00227825  1
  O  O48  1  0.77035761  0.73001075  0.82304466  1
  O  O49  1  0.22964239  0.26998925  0.17695534  1
  O  O50  1  0.72964239  0.23001075  0.17695534  1
  O  O51  1  0.22964239  0.76998925  0.32304466  1
  O  O52  1  0.27035761  0.76998925  0.82304466  1
  O  O53  1  0.77035761  0.23001075  0.67695534  1
  O  O54  1  0.27035761  0.26998925  0.67695534  1
  O  O55  1  0.72964239  0.73001075  0.32304466  1
  O  O56  1  0.90487408  0.89193306  0.63105692  1
  O  O57  1  0.09512592  0.10806694  0.36894308  1
  O  O58  1  0.59512592  0.39193306  0.36894308  1
  O  O59  1  0.09512592  0.60806694  0.13105692  1
  O  O60  1  0.40487408  0.60806694  0.63105692  1
  O  O61  1  0.90487408  0.39193306  0.86894308  1
  O  O62  1  0.40487408  0.10806694  0.86894308  1
  O  O63  1  0.59512592  0.89193306  0.13105692  1
  O  O64  1  0.73564692  0.50236237  0.73269013  1
  O  O65  1  0.26435308  0.49763763  0.26730987  1
  O  O66  1  0.76435308  0.00236237  0.26730987  1
  O  O67  1  0.26435308  0.99763763  0.23269013  1
  O  O68  1  0.23564692  0.99763763  0.73269013  1
  O  O69  1  0.73564692  0.00236237  0.76730987  1
  O  O70  1  0.23564692  0.49763763  0.76730987  1
  O  O71  1  0.76435308  0.50236237  0.23269013  1
  O  O72  1  0.90549704  0.63754070  0.97285014  1
  O  O73  1  0.09450296  0.36245930  0.02714986  1
  O  O74  1  0.59450296  0.13754070  0.02714986  1
  O  O75  1  0.09450296  0.86245930  0.47285014  1
  O  O76  1  0.40549704  0.86245930  0.97285014  1
  O  O77  1  0.90549704  0.13754070  0.52714986  1
  O  O78  1  0.40549704  0.36245930  0.52714986  1
  O  O79  1  0.59450296  0.63754070  0.47285014  1
  O  O80  1  0.00290688  0.91823941  0.84447385  1
  O  O81  1  0.99709312  0.08176059  0.15552615  1
  O  O82  1  0.49709312  0.41823941  0.15552615  1
  O  O83  1  0.99709312  0.58176059  0.34447385  1
  O  O84  1  0.50290688  0.58176059  0.84447385  1
  O  O85  1  0.00290688  0.41823941  0.65552615  1
  O  O86  1  0.50290688  0.08176059  0.65552615  1
  O  O87  1  0.49709312  0.91823941  0.34447385  1
