# generated using pymatgen
data_Li3MnOF4
_symmetry_space_group_name_H-M   'P 1'
_cell_length_a   3.73226737
_cell_length_b   5.49323938
_cell_length_c   5.49411565
_cell_angle_alpha   84.05804271
_cell_angle_beta   70.12140699
_cell_angle_gamma   70.14998786
_symmetry_Int_Tables_number   1
_chemical_formula_structural   Li3MnOF4
_chemical_formula_sum   'Li3 Mn1 O1 F4'
_cell_volume   99.62700853
_cell_formula_units_Z   1
loop_
 _symmetry_equiv_pos_site_id
 _symmetry_equiv_pos_as_xyz
  1  'x, y, z'
loop_
 _atom_site_type_symbol
 _atom_site_label
 _atom_site_symmetry_multiplicity
 _atom_site_fract_x
 _atom_site_fract_y
 _atom_site_fract_z
 _atom_site_occupancy
  Li  Li0  1  0.80377669  0.66565472  0.72598375  1
  Li  Li1  1  0.48941383  0.69801472  0.32202220  1
  Li  Li2  1  0.54979111  0.27112283  0.63049624  1
  Mn  Mn3  1  0.97098089  0.02590463  0.03168602  1
  O  O4  1  0.52743147  0.95527742  0.98940980  1
  F  F5  1  0.92214287  0.80730016  0.34735759  1
  F  F6  1  0.69504070  0.34071695  0.27136158  1
  F  F7  1  0.31861289  0.65067169  0.71229220  1
  F  F8  1  0.01186055  0.25150989  0.72539462  1
