# generated using pymatgen
data_LiVSiO4
_symmetry_space_group_name_H-M   'P 1'
_cell_length_a   10.32251357
_cell_length_b   13.62911224
_cell_length_c   5.16484886
_cell_angle_alpha   90.00000000
_cell_angle_beta   90.00000000
_cell_angle_gamma   90.00000000
_symmetry_Int_Tables_number   1
_chemical_formula_structural   LiVSiO4
_chemical_formula_sum   'Li8 V8 Si8 O32'
_cell_volume   726.62552168
_cell_formula_units_Z   8
loop_
 _symmetry_equiv_pos_site_id
 _symmetry_equiv_pos_as_xyz
  1  'x, y, z'
loop_
 _atom_site_type_symbol
 _atom_site_label
 _atom_site_symmetry_multiplicity
 _atom_site_fract_x
 _atom_site_fract_y
 _atom_site_fract_z
 _atom_site_occupancy
  Li  Li0  1  0.03409632  0.50188499  0.91451320  1
  Li  Li1  1  0.21786703  0.74992732  0.55974357  1
  Li  Li2  1  0.28213297  0.24992732  0.55974357  1
  Li  Li3  1  0.46590368  0.00188499  0.91451320  1
  Li  Li4  1  0.53409632  0.50188499  0.08548680  1
  Li  Li5  1  0.71786703  0.74992732  0.44025643  1
  Li  Li6  1  0.78213297  0.24992732  0.44025643  1
  Li  Li7  1  0.96590368  0.00188499  0.08548680  1
  V  V8  1  0.04033788  0.75158925  0.06961398  1
  V  V9  1  0.21441430  0.99949033  0.55697605  1
  V  V10  1  0.28558570  0.49949033  0.55697605  1
  V  V11  1  0.45966212  0.25158925  0.06961398  1
  V  V12  1  0.54033788  0.75158925  0.93038602  1
  V  V13  1  0.71441430  0.99949033  0.44302395  1
  V  V14  1  0.78558570  0.49949033  0.44302395  1
  V  V15  1  0.95966212  0.25158925  0.93038602  1
  Si  Si16  1  0.03317662  0.37626751  0.42725772  1
  Si  Si17  1  0.21319758  0.12809152  0.05641486  1
  Si  Si18  1  0.28680242  0.62809152  0.05641486  1
  Si  Si19  1  0.46682338  0.87626751  0.42725772  1
  Si  Si20  1  0.53317662  0.37626751  0.57274228  1
  Si  Si21  1  0.71319758  0.12809152  0.94358514  1
  Si  Si22  1  0.78680242  0.62809152  0.94358514  1
  Si  Si23  1  0.96682338  0.87626751  0.57274228  1
  O  O24  1  0.99615560  0.87239651  0.88574827  1
  O  O25  1  0.96452480  0.47554688  0.54754300  1
  O  O26  1  0.03450530  0.77940768  0.43679619  1
  O  O27  1  0.05622532  0.13356332  0.00276773  1
  O  O28  1  0.18902376  0.37982827  0.48934757  1
  O  O29  1  0.23057753  0.53008518  0.90668291  1
  O  O30  1  0.28496227  0.22676276  0.94171451  1
  O  O31  1  0.24702916  0.12075848  0.36704318  1
  O  O32  1  0.25297084  0.62075848  0.36704318  1
  O  O33  1  0.21503773  0.72676276  0.94171451  1
  O  O34  1  0.26942247  0.03008518  0.90668291  1
  O  O35  1  0.31097624  0.87982827  0.48934757  1
  O  O36  1  0.44377468  0.63356332  0.00276773  1
  O  O37  1  0.46549470  0.27940768  0.43679619  1
  O  O38  1  0.53547520  0.97554688  0.54754300  1
  O  O39  1  0.50384440  0.37239651  0.88574827  1
  O  O40  1  0.49615560  0.87239651  0.11425173  1
  O  O41  1  0.46452480  0.47554688  0.45245700  1
  O  O42  1  0.53450530  0.77940768  0.56320381  1
  O  O43  1  0.55622532  0.13356332  0.99723227  1
  O  O44  1  0.68902376  0.37982827  0.51065243  1
  O  O45  1  0.73057753  0.53008518  0.09331709  1
  O  O46  1  0.78496227  0.22676276  0.05828549  1
  O  O47  1  0.74702916  0.12075848  0.63295682  1
  O  O48  1  0.75297084  0.62075848  0.63295682  1
  O  O49  1  0.71503773  0.72676276  0.05828549  1
  O  O50  1  0.76942247  0.03008518  0.09331709  1
  O  O51  1  0.81097624  0.87982827  0.51065243  1
  O  O52  1  0.94377468  0.63356332  0.99723227  1
  O  O53  1  0.96549470  0.27940768  0.56320381  1
  O  O54  1  0.03547520  0.97554688  0.45245700  1
  O  O55  1  0.00384440  0.37239651  0.11425173  1
