# generated using pymatgen
data_Li4Mn8O9F7
_symmetry_space_group_name_H-M   'P 1'
_cell_length_a   6.26592926
_cell_length_b   6.22150449
_cell_length_c   10.97025160
_cell_angle_alpha   90.57213199
_cell_angle_beta   74.74581582
_cell_angle_gamma   124.21931493
_symmetry_Int_Tables_number   1
_chemical_formula_structural   Li4Mn8O9F7
_chemical_formula_sum   'Li4 Mn8 O9 F7'
_cell_volume   336.02708496
_cell_formula_units_Z   1
loop_
 _symmetry_equiv_pos_site_id
 _symmetry_equiv_pos_as_xyz
  1  'x, y, z'
loop_
 _atom_site_type_symbol
 _atom_site_label
 _atom_site_symmetry_multiplicity
 _atom_site_fract_x
 _atom_site_fract_y
 _atom_site_fract_z
 _atom_site_occupancy
  Li  Li0  1  0.85090819  0.21014835  0.44915846  1
  Li  Li1  1  0.12349751  0.27834740  0.05608015  1
  Li  Li2  1  0.84694256  0.71143087  0.95157035  1
  Li  Li3  1  0.15679428  0.79186689  0.55000218  1
  Mn  Mn4  1  0.51080068  0.00162858  0.00244944  1
  Mn  Mn5  1  0.51746726  0.24652572  0.24241850  1
  Mn  Mn6  1  0.49880618  0.25047574  0.75254675  1
  Mn  Mn7  1  0.50747184  0.75914059  0.24578972  1
  Mn  Mn8  1  0.50253224  0.50059658  0.49912358  1
  Mn  Mn9  1  0.00007525  0.25187903  0.74878699  1
  Mn  Mn10  1  0.49938623  0.75169168  0.74940106  1
  Mn  Mn11  1  0.00368835  0.75056099  0.24909411  1
  O  O12  1  0.72542465  0.08096557  0.13304420  1
  O  O13  1  0.73111070  0.40560604  0.36036059  1
  O  O14  1  0.73253926  0.11641902  0.65554635  1
  O  O15  1  0.72341108  0.62433557  0.16122847  1
  O  O16  1  0.26893931  0.09472842  0.14024250  1
  O  O17  1  0.73165321  0.90661444  0.85970869  1
  O  O18  1  0.27935741  0.87342641  0.33957954  1
  O  O19  1  0.27176218  0.59562623  0.63585280  1
  O  O20  1  0.26603495  0.38717170  0.84224865  1
  F  F21  1  0.76779153  0.62370548  0.61698947  1
  F  F22  1  0.25976454  0.11521432  0.61710581  1
  F  F23  1  0.23517562  0.60215617  0.12246313  1
  F  F24  1  0.75319084  0.88810511  0.38174147  1
  F  F25  1  0.74559734  0.39076126  0.88083314  1
  F  F26  1  0.25225057  0.41093715  0.37102804  1
  F  F27  1  0.23762525  0.87993570  0.88560384  1
