# generated using pymatgen
data_Li34Sb8S7
_symmetry_space_group_name_H-M   'P 1'
_cell_length_a   9.69206740
_cell_length_b   11.79454616
_cell_length_c   9.67785776
_cell_angle_alpha   65.76099823
_cell_angle_beta   89.92296587
_cell_angle_gamma   114.18535978
_symmetry_Int_Tables_number   1
_chemical_formula_structural   Li34Sb8S7
_chemical_formula_sum   'Li34 Sb8 S7'
_cell_volume   900.91544559
_cell_formula_units_Z   1
loop_
 _symmetry_equiv_pos_site_id
 _symmetry_equiv_pos_as_xyz
  1  'x, y, z'
loop_
 _atom_site_type_symbol
 _atom_site_label
 _atom_site_symmetry_multiplicity
 _atom_site_fract_x
 _atom_site_fract_y
 _atom_site_fract_z
 _atom_site_occupancy
  Li  Li0  1  0.27013896  0.14324656  0.00986351  1
  Li  Li1  1  0.99315531  0.14546182  0.12582107  1
  Li  Li2  1  0.64146529  0.00048456  0.22210849  1
  Li  Li3  1  0.55201031  0.25018751  0.15080852  1
  Li  Li4  1  0.84650423  0.51681481  0.04472546  1
  Li  Li5  1  0.22020997  0.99829600  0.36023333  1
  Li  Li6  1  0.56509025  0.51734585  0.15319536  1
  Li  Li7  1  0.85114489  0.25297345  0.29726762  1
  Li  Li8  1  0.43016129  0.86064663  0.06945165  1
  Li  Li9  1  0.07148138  0.14142293  0.42945251  1
  Li  Li10  1  0.25081219  0.50066255  0.25123695  1
  Li  Li11  1  0.40317239  0.25014805  0.44782331  1
  Li  Li12  1  0.12771970  0.85544207  0.15372299  1
  Li  Li13  1  0.95219405  0.51761001  0.32958258  1
  Li  Li14  1  0.77819470  0.00094503  0.64021459  1
  Li  Li15  1  0.67113602  0.51672022  0.43808160  1
  Li  Li16  1  0.84509585  0.85602671  0.27033282  1
  Li  Li17  1  0.69754008  0.24968780  0.59717409  1
  Li  Li18  1  0.35863086  0.99807363  0.77725773  1
  Li  Li19  1  0.29749549  0.74743039  0.40181695  1
  Li  Li20  1  0.15514943  0.14486646  0.72855999  1
  Li  Li21  1  0.32705008  0.48234621  0.56294971  1
  Li  Li22  1  0.04728940  0.48336937  0.66960495  1
  Li  Li23  1  0.87222908  0.14237194  0.84741927  1
  Li  Li24  1  0.59727452  0.74860484  0.54954894  1
  Li  Li25  1  0.57001976  0.14119712  0.93044813  1
  Li  Li26  1  0.74918849  0.49769073  0.75087774  1
  Li  Li27  1  0.92934194  0.86125512  0.56822802  1
  Li  Li28  1  0.14628740  0.74602800  0.70251394  1
  Li  Li29  1  0.43571927  0.48547168  0.84457868  1
  Li  Li30  1  0.15320884  0.48263231  0.95520011  1
  Li  Li31  1  0.44716628  0.74928671  0.84769979  1
  Li  Li32  1  0.00985883  0.85555243  0.87222010  1
  Li  Li33  1  0.72978863  0.85406233  0.99131820  1
  Sb  Sb34  1  0.28237427  0.31277536  0.15551501  1
  Sb  Sb35  1  0.15609214  0.68806023  0.03219267  1
  Sb  Sb36  1  0.53206416  0.68802391  0.28040201  1
  Sb  Sb37  1  0.03012709  0.31157861  0.53216494  1
  Sb  Sb38  1  0.96743966  0.68854794  0.46803376  1
  Sb  Sb39  1  0.46696802  0.31232305  0.71967654  1
  Sb  Sb40  1  0.84471587  0.31117716  0.96814102  1
  Sb  Sb41  1  0.71948385  0.68846811  0.84172812  1
  S  S42  1  0.00043280  0.99931941  0.00023427  1
  S  S43  1  0.39348684  0.99975119  0.18407111  1
  S  S44  1  0.81894009  0.00169198  0.39193159  1
  S  S45  1  0.68308363  0.36557312  0.31639949  1
  S  S46  1  0.18241719  -0.00007941  0.60638542  1
  S  S47  1  0.60621346  0.00006112  0.81723040  1
  S  S48  1  0.31614376  0.63500939  0.68161093  1
