# generated using pymatgen
data_Li2V(CO3)2
_symmetry_space_group_name_H-M   'P 1'
_cell_length_a   5.23448184
_cell_length_b   6.92076257
_cell_length_c   7.76728974
_cell_angle_alpha   89.99976320
_cell_angle_beta   89.99857666
_cell_angle_gamma   110.67691744
_symmetry_Int_Tables_number   1
_chemical_formula_structural   Li2V(CO3)2
_chemical_formula_sum   'Li4 V2 C4 O12'
_cell_volume   263.25767039
_cell_formula_units_Z   2
loop_
 _symmetry_equiv_pos_site_id
 _symmetry_equiv_pos_as_xyz
  1  'x, y, z'
loop_
 _atom_site_type_symbol
 _atom_site_label
 _atom_site_symmetry_multiplicity
 _atom_site_fract_x
 _atom_site_fract_y
 _atom_site_fract_z
 _atom_site_occupancy
  Li  Li0  1  0.13369070  0.73222097  0.58449662  1
  Li  Li1  1  0.36629977  0.76778604  0.08447900  1
  Li  Li2  1  0.63371259  0.23223268  0.91550423  1
  Li  Li3  1  0.86629931  0.26777032  0.41550378  1
  V  V4  1  0.50001129  0.50000288  0.50000420  1
  V  V5  1  0.00000235  0.00000972  0.00000236  1
  C  C6  1  0.69483089  0.85816860  0.73521950  1
  C  C7  1  0.80527601  0.64189240  0.23509165  1
  C  C8  1  0.19473451  0.35810431  0.76490318  1
  C  C9  1  0.30515757  0.14182798  0.26476450  1
  O  O10  1  0.94957725  0.87434600  0.73559976  1
  O  O11  1  0.60187570  0.91194956  0.87783757  1
  O  O12  1  0.53854977  0.79634261  0.60351930  1
  O  O13  1  0.96140902  0.70363508  0.10356514  1
  O  O14  1  0.55041057  0.62564901  0.23556593  1
  O  O15  1  0.10182627  0.41194387  0.62213172  1
  O  O16  1  0.89815963  0.58804770  0.37786447  1
  O  O17  1  0.44959006  0.37434833  0.76441618  1
  O  O18  1  0.03861054  0.29637394  0.89643688  1
  O  O19  1  0.46147155  0.20365667  0.39649256  1
  O  O20  1  0.39813028  0.08807880  0.12215328  1
  O  O21  1  0.05043238  0.12565153  0.26441020  1
