# generated using pymatgen
data_V(SiO3)2
_symmetry_space_group_name_H-M   'P 1'
_cell_length_a   17.99261226
_cell_length_b   8.81961144
_cell_length_c   5.32799238
_cell_angle_alpha   90.00000000
_cell_angle_beta   90.00000000
_cell_angle_gamma   90.00000000
_symmetry_Int_Tables_number   1
_chemical_formula_structural   V(SiO3)2
_chemical_formula_sum   'V8 Si16 O48'
_cell_volume   845.48764986
_cell_formula_units_Z   8
loop_
 _symmetry_equiv_pos_site_id
 _symmetry_equiv_pos_as_xyz
  1  'x, y, z'
loop_
 _atom_site_type_symbol
 _atom_site_label
 _atom_site_symmetry_multiplicity
 _atom_site_fract_x
 _atom_site_fract_y
 _atom_site_fract_z
 _atom_site_occupancy
  V  V0  1  0.12586353  0.35418679  0.37915806  1
  V  V1  1  0.12586353  0.14581321  0.87915806  1
  V  V2  1  0.37413647  0.64581321  0.87915806  1
  V  V3  1  0.37413647  0.85418679  0.37915806  1
  V  V4  1  0.62586353  0.14581321  0.62084194  1
  V  V5  1  0.62586353  0.35418679  0.12084194  1
  V  V6  1  0.87413647  0.64581321  0.62084194  1
  V  V7  1  0.87413647  0.85418679  0.12084194  1
  Si  Si8  1  0.02520883  0.66702082  0.30320567  1
  Si  Si9  1  0.02520883  0.83297918  0.80320567  1
  Si  Si10  1  0.22372442  0.66515441  0.55061729  1
  Si  Si11  1  0.22372442  0.83484559  0.05061729  1
  Si  Si12  1  0.27627558  0.16515441  0.55061729  1
  Si  Si13  1  0.27627558  0.33484559  0.05061729  1
  Si  Si14  1  0.47479117  0.16702082  0.30320567  1
  Si  Si15  1  0.47479117  0.33297918  0.80320567  1
  Si  Si16  1  0.52520883  0.66702082  0.19679433  1
  Si  Si17  1  0.52520883  0.83297918  0.69679433  1
  Si  Si18  1  0.72372442  0.66515441  0.94938271  1
  Si  Si19  1  0.72372442  0.83484559  0.44938271  1
  Si  Si20  1  0.77627558  0.16515441  0.94938271  1
  Si  Si21  1  0.77627558  0.33484559  0.44938271  1
  Si  Si22  1  0.97479117  0.16702082  0.19679433  1
  Si  Si23  1  0.97479117  0.33297918  0.69679433  1
  O  O24  1  0.05509385  0.76857665  0.07033621  1
  O  O25  1  0.05509385  0.73142335  0.57033621  1
  O  O26  1  0.06707843  0.18372147  0.19311999  1
  O  O27  1  0.06707843  0.31627853  0.69311999  1
  O  O28  1  0.05750278  0.49564972  0.26960799  1
  O  O29  1  0.05750278  0.00435028  0.76960799  1
  O  O30  1  0.18353818  0.18113674  0.56362985  1
  O  O31  1  0.18353818  0.31886326  0.06362985  1
  O  O32  1  0.19383946  0.00637270  0.00569550  1
  O  O33  1  0.19383946  0.49362730  0.50569550  1
  O  O34  1  0.19455495  0.76881065  0.31808135  1
  O  O35  1  0.19455495  0.73118935  0.81808135  1
  O  O36  1  0.30544505  0.23118935  0.81808135  1
  O  O37  1  0.30544505  0.26881065  0.31808135  1
  O  O38  1  0.30616054  0.50637270  0.00569550  1
  O  O39  1  0.30616054  0.99362730  0.50569550  1
  O  O40  1  0.31646182  0.68113674  0.56362985  1
  O  O41  1  0.31646182  0.81886326  0.06362985  1
  O  O42  1  0.44249722  0.99564972  0.26960799  1
  O  O43  1  0.44249722  0.50435028  0.76960799  1
  O  O44  1  0.43292157  0.68372147  0.19311999  1
  O  O45  1  0.43292157  0.81627853  0.69311999  1
  O  O46  1  0.44490615  0.23142335  0.57033621  1
  O  O47  1  0.44490615  0.26857665  0.07033621  1
  O  O48  1  0.55509385  0.73142335  0.92966379  1
  O  O49  1  0.55509385  0.76857665  0.42966379  1
  O  O50  1  0.56707843  0.18372147  0.30688001  1
  O  O51  1  0.56707843  0.31627853  0.80688001  1
  O  O52  1  0.55750278  0.49564972  0.23039201  1
  O  O53  1  0.55750278  0.00435028  0.73039201  1
  O  O54  1  0.68353818  0.18113674  0.93637015  1
  O  O55  1  0.68353818  0.31886326  0.43637015  1
  O  O56  1  0.69383946  0.00637270  0.49430450  1
  O  O57  1  0.69383946  0.49362730  0.99430450  1
  O  O58  1  0.69455495  0.73118935  0.68191865  1
  O  O59  1  0.69455495  0.76881065  0.18191865  1
  O  O60  1  0.80544505  0.23118935  0.68191865  1
  O  O61  1  0.80544505  0.26881065  0.18191865  1
  O  O62  1  0.80616054  0.50637270  0.49430450  1
  O  O63  1  0.80616054  0.99362730  0.99430450  1
  O  O64  1  0.81646182  0.68113674  0.93637015  1
  O  O65  1  0.81646182  0.81886326  0.43637015  1
  O  O66  1  0.94249722  0.99564972  0.23039201  1
  O  O67  1  0.94249722  0.50435028  0.73039201  1
  O  O68  1  0.93292157  0.68372147  0.30688001  1
  O  O69  1  0.93292157  0.81627853  0.80688001  1
  O  O70  1  0.94490615  0.23142335  0.92966379  1
  O  O71  1  0.94490615  0.26857665  0.42966379  1
