# generated using pymatgen
data_Li3Fe4(PO4)6
_symmetry_space_group_name_H-M   'P 1'
_cell_length_a   8.83213973
_cell_length_b   8.59965944
_cell_length_c   6.41980412
_cell_angle_alpha   74.47855888
_cell_angle_beta   106.59508145
_cell_angle_gamma   86.70885139
_symmetry_Int_Tables_number   1
_chemical_formula_structural   Li3Fe4(PO4)6
_chemical_formula_sum   'Li3 Fe4 P6 O24'
_cell_volume   445.49909096
_cell_formula_units_Z   1
loop_
 _symmetry_equiv_pos_site_id
 _symmetry_equiv_pos_as_xyz
  1  'x, y, z'
loop_
 _atom_site_type_symbol
 _atom_site_label
 _atom_site_symmetry_multiplicity
 _atom_site_fract_x
 _atom_site_fract_y
 _atom_site_fract_z
 _atom_site_occupancy
  Li  Li0  1  0.29237240  0.28803949  0.74120909  1
  Li  Li1  1  0.50000000  0.50000000  0.00000000  1
  Li  Li2  1  0.70762760  0.71196051  0.25879091  1
  Fe  Fe3  1  0.06072705  0.63628648  0.12939437  1
  Fe  Fe4  1  0.37288186  0.93938225  0.62861326  1
  Fe  Fe5  1  0.62711814  0.06061875  0.37138674  1
  Fe  Fe6  1  0.93927295  0.36371352  0.87060563  1
  P  P7  1  0.14527736  0.65231535  0.64548114  1
  P  P8  1  0.28533811  0.28966339  0.24618176  1
  P  P9  1  0.34612258  0.86133509  0.12886631  1
  P  P10  1  0.65387742  0.13866491  0.87113369  1
  P  P11  1  0.71466189  0.71033661  0.75381824  1
  P  P12  1  0.85472264  0.34768465  0.35451886  1
  O  O13  1  0.04795058  0.60826104  0.81873311  1
  O  O14  1  0.02813053  0.64955338  0.41458836  1
  O  O15  1  0.18810651  0.82644913  0.61392321  1
  O  O16  1  0.27059034  0.17254876  0.46831885  1
  O  O17  1  0.16976874  0.26531109  0.02727357  1
  O  O18  1  0.17652462  0.82246830  0.11591342  1
  O  O19  1  0.29255738  0.52324576  0.73740707  1
  O  O20  1  0.34388159  0.98835002  0.90424426  1
  O  O21  1  0.25305484  0.46616771  0.25604898  1
  O  O22  1  0.40701328  0.94324327  0.32384710  1
  O  O23  1  0.53542793  0.28795326  0.83501408  1
  O  O24  1  0.45792211  0.26277940  0.23163408  1
  O  O25  1  0.54207789  0.73722060  0.76836592  1
  O  O26  1  0.46457207  0.71204674  0.16498592  1
  O  O27  1  0.59298672  0.05675673  0.67615290  1
  O  O28  1  0.74694516  0.53383229  0.74395102  1
  O  O29  1  0.65611841  0.01164998  0.09575574  1
  O  O30  1  0.70744262  0.47675424  0.26259293  1
  O  O31  1  0.82347538  0.17753170  0.88408658  1
  O  O32  1  0.83023126  0.73468891  0.97272643  1
  O  O33  1  0.72940966  0.82745124  0.53168115  1
  O  O34  1  0.81189349  0.17355087  0.38607679  1
  O  O35  1  0.97186947  0.35044662  0.58541164  1
  O  O36  1  0.95204942  0.39173896  0.18126689  1
