# generated using pymatgen
data_Li12V3CrP4(CO7)4
_symmetry_space_group_name_H-M   'P 1'
_cell_length_a   8.54037420
_cell_length_b   10.00941826
_cell_length_c   6.58877538
_cell_angle_alpha   90.00000000
_cell_angle_beta   90.00000000
_cell_angle_gamma   85.01593650
_symmetry_Int_Tables_number   1
_chemical_formula_structural   Li12V3CrP4(CO7)4
_chemical_formula_sum   'Li12 V3 Cr1 P4 C4 O28'
_cell_volume   561.10639305
_cell_formula_units_Z   1
loop_
 _symmetry_equiv_pos_site_id
 _symmetry_equiv_pos_as_xyz
  1  'x, y, z'
loop_
 _atom_site_type_symbol
 _atom_site_label
 _atom_site_symmetry_multiplicity
 _atom_site_fract_x
 _atom_site_fract_y
 _atom_site_fract_z
 _atom_site_occupancy
  Li  Li0  1  0.10164115  0.38115348  0.25000000  1
  Li  Li1  1  0.09563419  0.88415575  0.25000000  1
  Li  Li2  1  0.27898424  0.12461040  0.02652716  1
  Li  Li3  1  0.27898424  0.12461040  0.47347284  1
  Li  Li4  1  0.27716678  0.62465896  0.02833416  1
  Li  Li5  1  0.27716678  0.62465896  0.47166584  1
  Li  Li6  1  0.72199320  0.37440541  0.52285049  1
  Li  Li7  1  0.72199320  0.37440541  0.97714951  1
  Li  Li8  1  0.72172330  0.87600918  0.52570947  1
  Li  Li9  1  0.72172330  0.87600918  0.97429053  1
  Li  Li10  1  0.90341005  0.11615617  0.75000000  1
  Li  Li11  1  0.90618577  0.61676410  0.75000000  1
  V  V12  1  0.32924707  0.39551066  0.75000000  1
  V  V13  1  0.32836984  0.89681106  0.75000000  1
  V  V14  1  0.67026364  0.10306283  0.25000000  1
  Cr  Cr15  1  0.66596307  0.60761386  0.25000000  1
  P  P16  1  0.41260034  0.35931907  0.25000000  1
  P  P17  1  0.40817729  0.86175668  0.25000000  1
  P  P18  1  0.58880541  0.13994557  0.75000000  1
  P  P19  1  0.58699674  0.64092447  0.75000000  1
  C  C20  1  0.03543312  0.34855764  0.75000000  1
  C  C21  1  0.03519574  0.84858618  0.75000000  1
  C  C22  1  0.96359072  0.15107001  0.25000000  1
  C  C23  1  0.96935605  0.64796986  0.25000000  1
  O  O24  1  0.07508537  0.47124438  0.75000000  1
  O  O25  1  0.10930713  0.17858630  0.25000000  1
  O  O26  1  0.07403858  0.97161517  0.75000000  1
  O  O27  1  0.14845353  0.25178097  0.75000000  1
  O  O28  1  0.11274920  0.68301071  0.25000000  1
  O  O29  1  0.14845906  0.75226075  0.75000000  1
  O  O30  1  0.30980329  0.41218317  0.06730273  1
  O  O31  1  0.30980329  0.41218317  0.43269727  1
  O  O32  1  0.30734092  0.91697872  0.06685377  1
  O  O33  1  0.30734092  0.91697872  0.43314623  1
  O  O34  1  0.42266411  0.08930776  0.75000000  1
  O  O35  1  0.43107012  0.20240439  0.25000000  1
  O  O36  1  0.42183891  0.58910279  0.75000000  1
  O  O37  1  0.42158670  0.70579397  0.25000000  1
  O  O38  1  0.56887527  0.29670050  0.75000000  1
  O  O39  1  0.57850746  0.41014678  0.25000000  1
  O  O40  1  0.56797143  0.79739733  0.75000000  1
  O  O41  1  0.57665038  0.90870856  0.25000000  1
  O  O42  1  0.69157635  0.08701884  0.93263629  1
  O  O43  1  0.69157635  0.08701884  0.56736371  1
  O  O44  1  0.68880333  0.58876642  0.56461589  1
  O  O45  1  0.68880333  0.58876642  0.93538411  1
  O  O46  1  0.85040728  0.24708109  0.25000000  1
  O  O47  1  0.88998364  0.32151205  0.75000000  1
  O  O48  1  0.85217656  0.74158080  0.25000000  1
  O  O49  1  0.92488353  0.02800388  0.25000000  1
  O  O50  1  0.88988686  0.82103605  0.75000000  1
  O  O51  1  0.93974884  0.52410616  0.25000000  1
