# generated using pymatgen
data_Na5Bi2P(CO4)4
_symmetry_space_group_name_H-M   'P 1'
_cell_length_a   10.46516859
_cell_length_b   10.34180482
_cell_length_c   10.46516859
_cell_angle_alpha   60.18670837
_cell_angle_beta   89.00466894
_cell_angle_gamma   119.81329163
_symmetry_Int_Tables_number   1
_chemical_formula_structural   Na5Bi2P(CO4)4
_chemical_formula_sum   'Na10 Bi4 P2 C8 O32'
_cell_volume   798.27988961
_cell_formula_units_Z   2
loop_
 _symmetry_equiv_pos_site_id
 _symmetry_equiv_pos_as_xyz
  1  'x, y, z'
loop_
 _atom_site_type_symbol
 _atom_site_label
 _atom_site_symmetry_multiplicity
 _atom_site_fract_x
 _atom_site_fract_y
 _atom_site_fract_z
 _atom_site_occupancy
  Na  Na0  1  0.93114514  0.25000000  0.31885486  1
  Na  Na1  1  0.68376765  0.36753631  0.06623235  1
  Na  Na2  1  0.68461653  0.75000000  0.06538347  1
  Na  Na3  1  0.93241727  0.25000000  0.93241727  1
  Na  Na4  1  0.93050627  0.86101155  0.31949373  1
  Na  Na5  1  0.31758273  0.25000000  0.31758273  1
  Na  Na6  1  0.06623235  0.13246369  0.68376765  1
  Na  Na7  1  0.31885486  0.25000000  0.93114514  1
  Na  Na8  1  0.31949373  0.63898845  0.93050627  1
  Na  Na9  1  0.06538347  0.75000000  0.68461653  1
  Bi  Bi10  1  0.49276649  0.99604442  0.99885106  1
  Bi  Bi11  1  0.50327893  0.99604442  0.50510452  1
  Bi  Bi12  1  0.50510452  0.50395558  0.50327893  1
  Bi  Bi13  1  0.99885106  0.50395558  0.49276649  1
  P  P14  1  0.12500000  0.25000000  0.12500000  1
  P  P15  1  0.87500000  0.75000000  0.87500000  1
  C  C16  1  0.72000177  0.05798876  0.72302164  1
  C  C17  1  0.71898961  0.44201124  0.33798699  1
  C  C18  1  0.72302164  0.44201124  0.72000177  1
  C  C19  1  0.33798699  0.05798876  0.71898961  1
  C  C20  1  0.66834558  0.95055555  0.26852672  1
  C  C21  1  0.28091874  0.54944445  0.28220997  1
  C  C22  1  0.28220997  0.95055555  0.28091874  1
  C  C23  1  0.26852672  0.54944445  0.66834558  1
  O  O24  1  0.66708996  0.06835965  0.13881880  1
  O  O25  1  0.84968034  0.18525169  0.60087644  1
  O  O26  1  0.71387087  0.31474731  0.33557234  1
  O  O27  1  0.40126969  0.06835965  0.29282156  1
  O  O28  1  0.84122024  0.55813102  0.34728652  1
  O  O29  1  0.30845071  0.37279240  0.06330628  1
  O  O30  1  0.06390132  0.12720760  0.06434169  1
  O  O31  1  0.71483085  0.04806980  0.85249913  1
  O  O32  1  0.59943107  0.45193020  0.33323895  1
  O  O33  1  0.33323895  0.04806980  0.59943107  1
  O  O34  1  0.85249913  0.45193020  0.71483085  1
  O  O35  1  0.06434169  0.37279240  0.06390132  1
  O  O36  1  0.06330628  0.12720760  0.30845071  1
  O  O37  1  0.67028305  0.82022323  0.27967988  1
  O  O38  1  0.40009589  0.67977677  0.14994017  1
  O  O39  1  0.71691078  0.55813102  0.59458246  1
  O  O40  1  0.29282156  0.43164035  0.40126969  1
  O  O41  1  0.33557234  0.18525169  0.71387087  1
  O  O42  1  0.60087644  0.31474731  0.84968034  1
  O  O43  1  0.94312429  0.87644180  0.69068703  1
  O  O44  1  0.93287217  0.62355820  0.93331751  1
  O  O45  1  0.15057995  0.53571825  0.29400850  1
  O  O46  1  0.67027325  0.96428175  0.38513831  1
  O  O47  1  0.29400850  0.96428175  0.15057995  1
  O  O48  1  0.38513831  0.53571825  0.67027325  1
  O  O49  1  0.93331751  0.87644180  0.93287217  1
  O  O50  1  0.69068703  0.62355820  0.94312429  1
  O  O51  1  0.13881880  0.43164035  0.66708996  1
  O  O52  1  0.59458246  0.94186898  0.71691078  1
  O  O53  1  0.27967988  0.67977677  0.67028305  1
  O  O54  1  0.14994017  0.82022323  0.40009589  1
  O  O55  1  0.34728652  0.94186898  0.84122024  1
