# generated using pymatgen
data_LiV(PO4)2
_symmetry_space_group_name_H-M   'P 1'
_cell_length_a   4.87252724
_cell_length_b   16.90443673
_cell_length_c   6.97139258
_cell_angle_alpha   90.00000000
_cell_angle_beta   96.24552915
_cell_angle_gamma   90.00000000
_symmetry_Int_Tables_number   1
_chemical_formula_structural   LiV(PO4)2
_chemical_formula_sum   'Li4 V4 P8 O32'
_cell_volume   570.80691929
_cell_formula_units_Z   4
loop_
 _symmetry_equiv_pos_site_id
 _symmetry_equiv_pos_as_xyz
  1  'x, y, z'
loop_
 _atom_site_type_symbol
 _atom_site_label
 _atom_site_symmetry_multiplicity
 _atom_site_fract_x
 _atom_site_fract_y
 _atom_site_fract_z
 _atom_site_occupancy
  Li  Li0  1  0.20631985  0.88659525  0.49624838  1
  Li  Li1  1  0.29368015  0.38659525  0.00375162  1
  Li  Li2  1  0.70631985  0.61340475  0.99624838  1
  Li  Li3  1  0.79368015  0.11340475  0.50375162  1
  V  V4  1  0.20116600  0.86991648  0.00832625  1
  V  V5  1  0.29883400  0.36991648  0.49167375  1
  V  V6  1  0.70116600  0.63008352  0.50832625  1
  V  V7  1  0.79883400  0.13008352  0.99167375  1
  P  P8  1  0.15482116  0.71180560  0.26429774  1
  P  P9  1  0.23705601  0.53633986  0.72530446  1
  P  P10  1  0.26294399  0.03633986  0.77469554  1
  P  P11  1  0.34517884  0.21180560  0.23570226  1
  P  P12  1  0.65482116  0.78819440  0.76429774  1
  P  P13  1  0.73705601  0.96366014  0.22530446  1
  P  P14  1  0.76294399  0.46366014  0.27469554  1
  P  P15  1  0.84517884  0.28819440  0.73570226  1
  O  O16  1  0.03608976  0.18902423  0.16934147  1
  O  O17  1  0.99285530  0.69425314  0.44473358  1
  O  O18  1  0.03070989  0.66984160  0.08840497  1
  O  O19  1  0.06932428  0.43479872  0.31728782  1
  O  O20  1  0.10257674  0.07243157  0.93764040  1
  O  O21  1  0.14050684  0.06045202  0.57857199  1
  O  O22  1  0.15613814  0.80390273  0.23327454  1
  O  O23  1  0.23728120  0.44416029  0.69585409  1
  O  O24  1  0.26271880  0.94416029  0.80414591  1
  O  O25  1  0.35949316  0.56045202  0.92142801  1
  O  O26  1  0.39742326  0.57243157  0.56235960  1
  O  O27  1  0.34386186  0.30390273  0.26672546  1
  O  O28  1  0.43067572  0.93479872  0.18271218  1
  O  O29  1  0.46929011  0.16984160  0.41159503  1
  O  O30  1  0.50714470  0.19425314  0.05526642  1
  O  O31  1  0.53608976  0.31097577  0.66934147  1
  O  O32  1  0.46391024  0.68902423  0.33065853  1
  O  O33  1  0.49285530  0.80574686  0.94473358  1
  O  O34  1  0.53070989  0.83015840  0.58840497  1
  O  O35  1  0.56932428  0.06520128  0.81728782  1
  O  O36  1  0.65613814  0.69609727  0.73327454  1
  O  O37  1  0.60257674  0.42756843  0.43764040  1
  O  O38  1  0.64050684  0.43954798  0.07857199  1
  O  O39  1  0.73728120  0.05583971  0.19585409  1
  O  O40  1  0.76271880  0.55583971  0.30414591  1
  O  O41  1  0.84386186  0.19609727  0.76672546  1
  O  O42  1  0.85949316  0.93954798  0.42142801  1
  O  O43  1  0.89742326  0.92756843  0.06235960  1
  O  O44  1  0.93067572  0.56520128  0.68271218  1
  O  O45  1  0.96929011  0.33015840  0.91159503  1
  O  O46  1  0.00714470  0.30574686  0.55526642  1
  O  O47  1  0.96391024  0.81097577  0.83065853  1
