# generated using pymatgen
data_Li4Fe2Cu3Sb3O16
_symmetry_space_group_name_H-M   'P 1'
_cell_length_a   6.14257448
_cell_length_b   6.03978913
_cell_length_c   9.70462824
_cell_angle_alpha   90.00821797
_cell_angle_beta   88.31582344
_cell_angle_gamma   119.39527117
_symmetry_Int_Tables_number   1
_chemical_formula_structural   Li4Fe2Cu3Sb3O16
_chemical_formula_sum   'Li4 Fe2 Cu3 Sb3 O16'
_cell_volume   313.50898907
_cell_formula_units_Z   1
loop_
 _symmetry_equiv_pos_site_id
 _symmetry_equiv_pos_as_xyz
  1  'x, y, z'
loop_
 _atom_site_type_symbol
 _atom_site_label
 _atom_site_symmetry_multiplicity
 _atom_site_fract_x
 _atom_site_fract_y
 _atom_site_fract_z
 _atom_site_occupancy
  Li  Li0  1  0.34206041  0.67105988  0.89866840  1
  Li  Li1  1  0.01780170  0.00853267  0.00646907  1
  Li  Li2  1  0.04026130  0.02019156  0.48532119  1
  Li  Li3  1  0.67373432  0.33672515  0.38352178  1
  Fe  Fe4  1  0.29772973  0.64902592  0.47650026  1
  Fe  Fe5  1  0.64355422  0.32152634  0.00503244  1
  Cu  Cu6  1  0.16616161  0.82950651  0.21139493  1
  Cu  Cu7  1  0.16602772  0.33672377  0.21161100  1
  Cu  Cu8  1  0.33904862  0.16973146  0.71762607  1
  Sb  Sb9  1  0.65370531  0.82683562  0.21657373  1
  Sb  Sb10  1  0.83118483  0.66195332  0.71447672  1
  Sb  Sb11  1  0.83126584  0.16934665  0.71442147  1
  O  O12  1  0.15402718  0.83299307  0.60231486  1
  O  O13  1  0.04053169  0.52055834  0.33895673  1
  O  O14  1  0.33704774  0.66903714  0.10825482  1
  O  O15  1  0.99124729  0.99518295  0.30184171  1
  O  O16  1  0.97020465  0.98508722  0.82248729  1
  O  O17  1  0.15414711  0.32099353  0.60234291  1
  O  O18  1  0.49460507  0.96622523  0.35004574  1
  O  O19  1  0.49286686  0.52703434  0.34940700  1
  O  O20  1  0.32625295  0.16281835  0.09854514  1
  O  O21  1  0.69348605  0.84679936  0.60017060  1
  O  O22  1  0.52437485  0.48441228  0.83548155  1
  O  O23  1  0.52441037  0.04016582  0.83548850  1
  O  O24  1  0.70362023  0.35186949  0.59523613  1
  O  O25  1  0.81003121  0.66417921  0.09439623  1
  O  O26  1  0.96939650  0.48465536  0.83631995  1
  O  O27  1  0.81121763  0.14712848  0.09493679  1
