# generated using pymatgen
data_Li4Ti3Mn4Cr2O18
_symmetry_space_group_name_H-M   'P 1'
_cell_length_a   9.10050039
_cell_length_b   25.28868503
_cell_length_c   2.93587057
_cell_angle_alpha   90.00001058
_cell_angle_beta   89.99997161
_cell_angle_gamma   90.00184054
_symmetry_Int_Tables_number   1
_chemical_formula_structural   Li4Ti3Mn4Cr2O18
_chemical_formula_sum   'Li8 Ti6 Mn8 Cr4 O36'
_cell_volume   675.66033675
_cell_formula_units_Z   2
loop_
 _symmetry_equiv_pos_site_id
 _symmetry_equiv_pos_as_xyz
  1  'x, y, z'
loop_
 _atom_site_type_symbol
 _atom_site_label
 _atom_site_symmetry_multiplicity
 _atom_site_fract_x
 _atom_site_fract_y
 _atom_site_fract_z
 _atom_site_occupancy
  Li  Li0  1  0.18307099  0.99522220  0.99999827  1
  Li  Li1  1  0.19948476  0.20866403  0.99999735  1
  Li  Li2  1  0.30047567  0.70868226  0.99999763  1
  Li  Li3  1  0.31689453  0.49519873  0.99999605  1
  Li  Li4  1  0.68241511  0.49715589  0.99999740  1
  Li  Li5  1  0.69392005  0.30430318  0.99999625  1
  Li  Li6  1  0.80608334  0.80430907  0.99999765  1
  Li  Li7  1  0.81756245  0.99715757  0.99999446  1
  Ti  Ti8  1  0.00462248  0.10486523  0.99999594  1
  Ti  Ti9  1  0.49541492  0.60483264  0.99999298  1
  Ti  Ti10  1  0.49713039  0.39351724  0.99999274  1
  Ti  Ti11  1  0.64667977  0.69532094  0.49999486  1
  Ti  Ti12  1  0.85331691  0.19533220  0.49999437  1
  Ti  Ti13  1  0.00285792  0.89354960  0.99999922  1
  Mn  Mn14  1  0.02386797  0.31312287  0.99999914  1
  Mn  Mn15  1  0.14147243  0.58664111  0.50000156  1
  Mn  Mn16  1  0.35857185  0.08667046  0.49999934  1
  Mn  Mn17  1  0.47616939  0.81314835  0.99999736  1
  Mn  Mn18  1  0.51219282  0.18930461  0.99999555  1
  Mn  Mn19  1  0.64037513  0.91291557  0.49999665  1
  Mn  Mn20  1  0.85963242  0.41288845  0.49999646  1
  Mn  Mn21  1  0.98781414  0.68929970  0.99999695  1
  Cr  Cr22  1  0.00004167  0.49969103  0.00000912  1
  Cr  Cr23  1  0.14698417  0.80549455  0.50001596  1
  Cr  Cr24  1  0.35301296  0.30547180  0.49998481  1
  Cr  Cr25  1  0.49990554  0.99971970  -0.00000845  1
  O  O26  1  0.99867694  0.42071846  0.99999805  1
  O  O27  1  0.00314642  0.57888210  0.00000342  1
  O  O28  1  0.03635651  0.94190540  0.50000091  1
  O  O29  1  0.05186075  0.16146267  0.49999971  1
  O  O30  1  0.11133013  0.66173178  0.49999965  1
  O  O31  1  0.11385902  0.75570090  0.00003111  1
  O  O32  1  0.15126133  0.50853333  0.50000406  1
  O  O33  1  0.14018312  0.28435094  0.49999828  1
  O  O34  1  0.18270930  0.85915589  0.00002542  1
  O  O35  1  0.21895865  0.08719828  0.99999822  1
  O  O36  1  0.28105153  0.58715763  0.00000206  1
  O  O37  1  0.31729671  0.35910131  0.00000092  1
  O  O38  1  0.35982936  0.78438170  0.50000441  1
  O  O39  1  0.34870937  0.00856118  0.50000561  1
  O  O40  1  0.38611718  0.25567551  -0.00000025  1
  O  O41  1  0.38867651  0.16175316  0.49999642  1
  O  O42  1  0.44817058  0.66142931  0.50000405  1
  O  O43  1  0.46357272  0.44185533  0.49999629  1
  O  O44  1  0.49685784  0.07890803  0.00000012  1
  O  O45  1  0.50133248  0.92073460  0.99999874  1
  O  O46  1  0.53545237  0.55895239  0.49999852  1
  O  O47  1  0.55716390  0.33954442  0.49999903  1
  O  O48  1  0.60598605  0.83810507  0.49999737  1
  O  O49  1  0.61443905  0.74288602  0.99999933  1
  O  O50  1  0.65132264  0.99052252  0.50000422  1
  O  O51  1  0.64193918  0.21022935  0.49999840  1
  O  O52  1  0.67872622  0.64218561  0.00000405  1
  O  O53  1  0.72155899  0.41170077  0.99999817  1
  O  O54  1  0.77845133  0.91175152  0.99999703  1
  O  O55  1  0.82129061  0.14219893  0.99999960  1
  O  O56  1  0.85807757  0.71021762  0.49999849  1
  O  O57  1  0.84864120  0.49049374  0.50000636  1
  O  O58  1  0.88556343  0.24289089  0.99999705  1
  O  O59  1  0.89405284  0.33807785  0.49999841  1
  O  O60  1  0.94283233  0.83957991  0.50000673  1
  O  O61  1  0.96457610  0.05899092  0.50000038  1
