# generated using pymatgen
data_LiTi2V3O10
_symmetry_space_group_name_H-M   'P 1'
_cell_length_a   5.14791884
_cell_length_b   5.12471304
_cell_length_c   7.83861264
_cell_angle_alpha   76.02543950
_cell_angle_beta   105.43500734
_cell_angle_gamma   100.76363975
_symmetry_Int_Tables_number   1
_chemical_formula_structural   LiTi2V3O10
_chemical_formula_sum   'Li1 Ti2 V3 O10'
_cell_volume   191.77139031
_cell_formula_units_Z   1
loop_
 _symmetry_equiv_pos_site_id
 _symmetry_equiv_pos_as_xyz
  1  'x, y, z'
loop_
 _atom_site_type_symbol
 _atom_site_label
 _atom_site_symmetry_multiplicity
 _atom_site_fract_x
 _atom_site_fract_y
 _atom_site_fract_z
 _atom_site_occupancy
  Li  Li0  1  0.70165785  0.50011257  0.55050923  1
  Ti  Ti1  1  0.12562627  0.03602409  0.68688045  1
  Ti  Ti2  1  0.90950882  0.02577586  0.32460059  1
  V  V3  1  0.00619943  0.49006682  0.00056230  1
  V  V4  1  0.69344289  0.96907073  0.89072293  1
  V  V5  1  0.33262199  0.97948590  0.13237064  1
  O  O6  1  0.03249849  0.22235799  0.85904390  1
  O  O7  1  0.07822058  0.79910467  0.52447429  1
  O  O8  1  0.33018693  0.78999259  0.93899951  1
  O  O9  1  0.20078077  0.24487132  0.21677963  1
  O  O10  1  0.47820536  0.18727416  0.69084450  1
  O  O11  1  0.54296116  0.80909789  0.32430907  1
  O  O12  1  0.79648198  0.73930819  0.78499322  1
  O  O13  1  0.67160033  0.19331933  0.06328239  1
  O  O14  1  0.91281438  0.24328220  0.48070452  1
  O  O15  1  0.96547677  0.77828569  0.12521184  1
