# generated using pymatgen
data_LiGaPO5
_symmetry_space_group_name_H-M   'P 1'
_cell_length_a   5.16439836
_cell_length_b   5.37031129
_cell_length_c   7.21865110
_cell_angle_alpha   105.95718584
_cell_angle_beta   108.20730675
_cell_angle_gamma   99.76790705
_symmetry_Int_Tables_number   1
_chemical_formula_structural   LiGaPO5
_chemical_formula_sum   'Li2 Ga2 P2 O10'
_cell_volume   175.54919814
_cell_formula_units_Z   2
loop_
 _symmetry_equiv_pos_site_id
 _symmetry_equiv_pos_as_xyz
  1  'x, y, z'
loop_
 _atom_site_type_symbol
 _atom_site_label
 _atom_site_symmetry_multiplicity
 _atom_site_fract_x
 _atom_site_fract_y
 _atom_site_fract_z
 _atom_site_occupancy
  Li  Li0  1  0.72725738  0.37798230  0.30568827  1
  Li  Li1  1  0.27274262  0.62201770  0.69431173  1
  Ga  Ga2  1  0.00000000  0.00000000  0.00000000  1
  Ga  Ga3  1  0.00000000  0.00000000  0.50000000  1
  P  P4  1  0.32208957  0.64566556  0.26581216  1
  P  P5  1  0.67791043  0.35433444  0.73418784  1
  O  O6  1  0.27273767  0.79644364  0.11122051  1
  O  O7  1  0.72726233  0.20355636  0.88877949  1
  O  O8  1  0.11329365  0.66069281  0.38249614  1
  O  O9  1  0.88670635  0.33930719  0.61750386  1
  O  O10  1  0.36802094  0.24501867  0.57167625  1
  O  O11  1  0.63197906  0.75498133  0.42832375  1
  O  O12  1  0.88402114  0.06780229  0.23637400  1
  O  O13  1  0.11597886  0.93219771  0.76362600  1
  O  O14  1  0.30345942  0.34312679  0.15632155  1
  O  O15  1  0.69654058  0.65687321  0.84367845  1
