# generated using pymatgen
data_Cr4Si4O13
_symmetry_space_group_name_H-M   'P 1'
_cell_length_a   10.01593094
_cell_length_b   7.77871873
_cell_length_c   6.97875707
_cell_angle_alpha   79.43470056
_cell_angle_beta   90.84111672
_cell_angle_gamma   113.35393790
_symmetry_Int_Tables_number   1
_chemical_formula_structural   Cr4Si4O13
_chemical_formula_sum   'Cr8 Si8 O26'
_cell_volume   489.70016642
_cell_formula_units_Z   2
loop_
 _symmetry_equiv_pos_site_id
 _symmetry_equiv_pos_as_xyz
  1  'x, y, z'
loop_
 _atom_site_type_symbol
 _atom_site_label
 _atom_site_symmetry_multiplicity
 _atom_site_fract_x
 _atom_site_fract_y
 _atom_site_fract_z
 _atom_site_occupancy
  Cr  Cr0  1  0.00741759  0.80947091  0.42814996  1
  Cr  Cr1  1  0.99131750  0.18445189  0.07456155  1
  Cr  Cr2  1  0.37990877  0.82078410  0.93773801  1
  Cr  Cr3  1  0.37187698  0.82314531  0.43774495  1
  Cr  Cr4  1  0.62812302  0.17685469  0.56225505  1
  Cr  Cr5  1  0.62009123  0.17921590  0.06226199  1
  Cr  Cr6  1  0.00868250  0.81554811  0.92543845  1
  Cr  Cr7  1  0.99258241  0.19052909  0.57185004  1
  Si  Si8  1  0.16691672  0.58726501  0.73758555  1
  Si  Si9  1  0.28149981  0.42601181  0.28327818  1
  Si  Si10  1  0.28896744  0.14168287  0.63065710  1
  Si  Si11  1  0.29850441  0.13296091  0.07226192  1
  Si  Si12  1  0.70149559  0.86703909  0.92773808  1
  Si  Si13  1  0.71103256  0.85831713  0.36934290  1
  Si  Si14  1  0.71850019  0.57398819  0.71672182  1
  Si  Si15  1  0.83308328  0.41273499  0.26241445  1
  O  O16  1  0.15313411  0.70336668  0.90928436  1
  O  O17  1  0.07755715  0.35544256  0.80294494  1
  O  O18  1  0.14961934  0.68547608  0.50984831  1
  O  O19  1  0.10658477  0.33860054  0.25717271  1
  O  O20  1  0.11086892  0.00759809  0.64520330  1
  O  O21  1  0.12007126  0.01806358  0.10224062  1
  O  O22  1  0.39748474  0.05472007  0.55164725  1
  O  O23  1  0.39273772  0.00472505  0.15670875  1
  O  O24  1  0.34888057  0.66936856  0.71416655  1
  O  O25  1  0.35973621  0.65412893  0.24924355  1
  O  O26  1  0.34152846  0.17743463  0.84284438  1
  O  O27  1  0.30982595  0.34843352  0.50730159  1
  O  O28  1  0.35526547  0.33444027  0.14374165  1
  O  O29  1  0.64473453  0.66555973  0.85625835  1
  O  O30  1  0.69017405  0.65156648  0.49269841  1
  O  O31  1  0.65847154  0.82256537  0.15715562  1
  O  O32  1  0.64026379  0.34587107  0.75075645  1
  O  O33  1  0.65111943  0.33063144  0.28583345  1
  O  O34  1  0.60726228  0.99527495  0.84329125  1
  O  O35  1  0.60251526  0.94527993  0.44835275  1
  O  O36  1  0.87992874  0.98193642  0.89775938  1
  O  O37  1  0.88913108  0.99240191  0.35479670  1
  O  O38  1  0.89341523  0.66139946  0.74282729  1
  O  O39  1  0.85038066  0.31452392  0.49015169  1
  O  O40  1  0.92244285  0.64455744  0.19705506  1
  O  O41  1  0.84686589  0.29663332  0.09071564  1
