# generated using pymatgen
data_Li4Fe2TeWO12
_symmetry_space_group_name_H-M   'P 1'
_cell_length_a   5.41869738
_cell_length_b   10.84776558
_cell_length_c   9.54498100
_cell_angle_alpha   28.28359606
_cell_angle_beta   51.29073356
_cell_angle_gamma   56.59523048
_symmetry_Int_Tables_number   1
_chemical_formula_structural   Li4Fe2TeWO12
_chemical_formula_sum   'Li4 Fe2 Te1 W1 O12'
_cell_volume   207.45135206
_cell_formula_units_Z   1
loop_
 _symmetry_equiv_pos_site_id
 _symmetry_equiv_pos_as_xyz
  1  'x, y, z'
loop_
 _atom_site_type_symbol
 _atom_site_label
 _atom_site_symmetry_multiplicity
 _atom_site_fract_x
 _atom_site_fract_y
 _atom_site_fract_z
 _atom_site_occupancy
  Li  Li0  1  0.29269702  0.00533204  0.28335283  1
  Li  Li1  1  0.28485316  0.49213441  0.29892461  1
  Li  Li2  1  0.78622515  0.99945990  0.78690123  1
  Li  Li3  1  0.78921387  0.50055123  0.78284609  1
  Fe  Fe4  1  0.50053174  0.00041485  0.50338067  1
  Fe  Fe5  1  0.50546474  0.49944455  0.50298960  1
  Te  Te6  1  0.99919238  0.50140067  0.99853759  1
  W  W7  1  0.00445761  0.99748854  0.00570836  1
  O  O8  1  0.37329110  0.31087168  0.11012902  1
  O  O9  1  0.23129786  0.11463797  0.63524399  1
  O  O10  1  0.12606564  0.31399560  0.73475227  1
  O  O11  1  0.88007997  0.20412476  0.21847251  1
  O  O12  1  0.36683616  0.80813681  0.12602101  1
  O  O13  1  0.73522292  0.36845114  0.37372021  1
  O  O14  1  0.22005108  0.63122327  0.62358964  1
  O  O15  1  0.63479602  0.18048730  0.86694955  1
  O  O16  1  0.11183280  0.82035353  0.73451474  1
  O  O17  1  0.87063654  0.69790855  0.23604512  1
  O  O18  1  0.73771350  0.88184631  0.36402331  1
  O  O19  1  0.62074176  0.67173790  0.88509865  1
