# generated using pymatgen
data_Li2BiS3
_symmetry_space_group_name_H-M   'P 1'
_cell_length_a   6.46885280
_cell_length_b   5.48948729
_cell_length_c   7.81044301
_cell_angle_alpha   100.40451973
_cell_angle_beta   92.23645390
_cell_angle_gamma   110.42527991
_symmetry_Int_Tables_number   1
_chemical_formula_structural   Li2BiS3
_chemical_formula_sum   'Li4 Bi2 S6'
_cell_volume   254.07097904
_cell_formula_units_Z   2
loop_
 _symmetry_equiv_pos_site_id
 _symmetry_equiv_pos_as_xyz
  1  'x, y, z'
loop_
 _atom_site_type_symbol
 _atom_site_label
 _atom_site_symmetry_multiplicity
 _atom_site_fract_x
 _atom_site_fract_y
 _atom_site_fract_z
 _atom_site_occupancy
  Li  Li0  1  0.24318332  0.85789667  0.94885628  1
  Li  Li1  1  0.06237372  0.89514732  0.31056209  1
  Li  Li2  1  0.93762628  0.10485268  0.68943791  1
  Li  Li3  1  0.75681668  0.14210333  0.05114372  1
  Bi  Bi4  1  0.47329439  0.53808744  0.25288685  1
  Bi  Bi5  1  0.52670561  0.46191256  0.74711315  1
  S  S6  1  0.08917357  0.37374734  0.47136031  1
  S  S7  1  0.44058366  0.03456024  0.24899380  1
  S  S8  1  0.80439992  0.64952956  0.04587261  1
  S  S9  1  0.19560008  0.35047044  0.95412739  1
  S  S10  1  0.55941634  0.96543976  0.75100620  1
  S  S11  1  0.91082643  0.62625266  0.52863969  1
