# generated using pymatgen
data_Na2SnPCO7
_symmetry_space_group_name_H-M   'P 1'
_cell_length_a   9.14400730
_cell_length_b   5.57687347
_cell_length_c   6.91496491
_cell_angle_alpha   90.00000000
_cell_angle_beta   90.00000000
_cell_angle_gamma   86.59731044
_symmetry_Int_Tables_number   1
_chemical_formula_structural   Na2SnPCO7
_chemical_formula_sum   'Na4 Sn2 P2 C2 O14'
_cell_volume   352.00677120
_cell_formula_units_Z   2
loop_
 _symmetry_equiv_pos_site_id
 _symmetry_equiv_pos_as_xyz
  1  'x, y, z'
loop_
 _atom_site_type_symbol
 _atom_site_label
 _atom_site_symmetry_multiplicity
 _atom_site_fract_x
 _atom_site_fract_y
 _atom_site_fract_z
 _atom_site_occupancy
  Na  Na0  1  0.08343208  0.77632347  0.25819799  1
  Na  Na1  1  0.27319426  0.26002311  0.03433268  1
  Na  Na2  1  0.72680574  0.73997689  0.53433268  1
  Na  Na3  1  0.91656792  0.22367653  0.75819799  1
  Sn  Sn4  1  0.34098375  0.78366292  0.73864876  1
  Sn  Sn5  1  0.65901625  0.21633708  0.23864876  1
  P  P6  1  0.41850191  0.72504580  0.24715306  1
  P  P7  1  0.58149809  0.27495420  0.74715306  1
  C  C8  1  0.05126903  0.68824139  0.75190966  1
  C  C9  1  0.94873097  0.31175861  0.25190966  1
  O  O10  1  0.09273524  0.91107431  0.73901648  1
  O  O11  1  0.08126466  0.36177896  0.22945350  1
  O  O12  1  0.15567409  0.52035011  0.78512675  1
  O  O13  1  0.31429240  0.77979264  0.42366872  1
  O  O14  1  0.32375102  0.82399314  0.07228411  1
  O  O15  1  0.43397885  0.15576015  0.77028537  1
  O  O16  1  0.44905560  0.44850105  0.22191091  1
  O  O17  1  0.55094440  0.55149895  0.72191091  1
  O  O18  1  0.56602115  0.84423985  0.27028537  1
  O  O19  1  0.67624898  0.17600686  0.57228411  1
  O  O20  1  0.68570760  0.22020736  0.92366872  1
  O  O21  1  0.84432591  0.47964989  0.28512675  1
  O  O22  1  0.91873534  0.63822104  0.72945350  1
  O  O23  1  0.90726476  0.08892569  0.23901648  1
