# generated using pymatgen
data_Ba2YBr7
_symmetry_space_group_name_H-M   'P 1'
_cell_length_a   7.68580571
_cell_length_b   18.23874830
_cell_length_c   12.53350347
_cell_angle_alpha   90.00000000
_cell_angle_beta   90.34591244
_cell_angle_gamma   90.00000000
_symmetry_Int_Tables_number   1
_chemical_formula_structural   Ba2YBr7
_chemical_formula_sum   'Ba8 Y4 Br28'
_cell_volume   1756.90792705
_cell_formula_units_Z   4
loop_
 _symmetry_equiv_pos_site_id
 _symmetry_equiv_pos_as_xyz
  1  'x, y, z'
loop_
 _atom_site_type_symbol
 _atom_site_label
 _atom_site_symmetry_multiplicity
 _atom_site_fract_x
 _atom_site_fract_y
 _atom_site_fract_z
 _atom_site_occupancy
  Ba  Ba0  1  0.20180661  0.51012655  0.82251590  1
  Ba  Ba1  1  0.24436725  0.77163714  0.98266443  1
  Ba  Ba2  1  0.25563275  0.27163714  0.51733557  1
  Ba  Ba3  1  0.29819339  0.01012655  0.67748410  1
  Ba  Ba4  1  0.70180661  0.98987345  0.32251590  1
  Ba  Ba5  1  0.74436725  0.72836286  0.48266443  1
  Ba  Ba6  1  0.75563275  0.22836286  0.01733557  1
  Ba  Ba7  1  0.79819339  0.48987345  0.17748410  1
  Y  Y8  1  0.23582807  0.83807376  0.35748877  1
  Y  Y9  1  0.26417193  0.33807376  0.14251123  1
  Y  Y10  1  0.73582807  0.66192624  0.85748877  1
  Y  Y11  1  0.76417193  0.16192624  0.64251123  1
  Br  Br12  1  0.03302344  0.71822447  0.76243114  1
  Br  Br13  1  0.15981945  0.70515862  0.45408281  1
  Br  Br14  1  0.04175955  0.10462946  0.51718315  1
  Br  Br15  1  0.19957608  0.47560515  0.23444478  1
  Br  Br16  1  0.00909289  0.81073062  0.19116401  1
  Br  Br17  1  0.02900775  0.38227616  0.97592898  1
  Br  Br18  1  0.20257205  0.92761066  0.88252392  1
  Br  Br19  1  0.29742795  0.42761066  0.61747608  1
  Br  Br20  1  0.47099225  0.88227616  0.52407102  1
  Br  Br21  1  0.49090711  0.31073062  0.30883599  1
  Br  Br22  1  0.45824045  0.60462946  0.98281685  1
  Br  Br23  1  0.30042392  0.97560515  0.26555522  1
  Br  Br24  1  0.46697656  0.21822447  0.73756886  1
  Br  Br25  1  0.34018055  0.20515862  0.04591719  1
  Br  Br26  1  0.65981945  0.79484138  0.95408281  1
  Br  Br27  1  0.53302344  0.78177553  0.26243114  1
  Br  Br28  1  0.69957608  0.02439485  0.73444478  1
  Br  Br29  1  0.54175955  0.39537054  0.01718315  1
  Br  Br30  1  0.50909289  0.68926938  0.69116401  1
  Br  Br31  1  0.52900775  0.11772384  0.47592898  1
  Br  Br32  1  0.70257205  0.57238934  0.38252392  1
  Br  Br33  1  0.79742795  0.07238934  0.11747608  1
  Br  Br34  1  0.97099225  0.61772384  0.02407002  1
  Br  Br35  1  0.99090711  0.18926938  0.80883599  1
  Br  Br36  1  0.80042392  0.52439485  0.76555522  1
  Br  Br37  1  0.95824045  0.89537054  0.48281685  1
  Br  Br38  1  0.84018055  0.29484138  0.54591719  1
  Br  Br39  1  0.96697656  0.28177553  0.23756886  1
