# generated using pymatgen
data_YTmO3
_symmetry_space_group_name_H-M   'P 1'
_cell_length_a   6.38378978
_cell_length_b   6.38378662
_cell_length_c   12.69969544
_cell_angle_alpha   90.00010238
_cell_angle_beta   89.99984858
_cell_angle_gamma   119.99891034
_symmetry_Int_Tables_number   1
_chemical_formula_structural   YTmO3
_chemical_formula_sum   'Y6 Tm6 O18'
_cell_volume   448.21423525
_cell_formula_units_Z   6
loop_
 _symmetry_equiv_pos_site_id
 _symmetry_equiv_pos_as_xyz
  1  'x, y, z'
loop_
 _atom_site_type_symbol
 _atom_site_label
 _atom_site_symmetry_multiplicity
 _atom_site_fract_x
 _atom_site_fract_y
 _atom_site_fract_z
 _atom_site_occupancy
  Y  Y0  1  0.33332735  0.66666749  0.23711895  1
  Y  Y1  1  0.99999683  0.00000104  0.27045175  1
  Y  Y2  1  0.99999649  0.00000415  0.77045080  1
  Y  Y3  1  0.33332668  0.66666671  0.73711989  1
  Y  Y4  1  0.66666325  0.33333291  0.73711970  1
  Y  Y5  1  0.66666127  0.33332741  0.23711867  1
  Tm  Tm6  1  0.99999252  0.66674975  0.50162003  1
  Tm  Tm7  1  0.99999455  0.33325142  0.00161833  1
  Tm  Tm8  1  0.33324007  0.33323842  0.50161690  1
  Tm  Tm9  1  0.66674920  0.66675939  0.00161398  1
  Tm  Tm10  1  0.33322847  0.99999674  0.00161356  1
  Tm  Tm11  1  0.66674839  0.00000436  0.50161677  1
  O  O12  1  0.99999646  0.69251713  0.67380134  1
  O  O13  1  0.99998456  0.63931006  0.33064275  1
  O  O14  1  0.99999488  0.36069048  0.83064065  1
  O  O15  1  0.99999203  0.30748298  0.17380079  1
  O  O16  1  0.33334130  0.66666888  0.02691041  1
  O  O17  1  0.99999120  0.00000031  0.47092900  1
  O  O18  1  0.99998840  0.00000000  0.97092786  1
  O  O19  1  0.33334224  0.66667534  0.52691172  1
  O  O20  1  0.30747120  0.30747211  0.67380174  1
  O  O21  1  0.36068096  0.36070161  0.33064195  1
  O  O22  1  0.30747895  0.00000070  0.17380119  1
  O  O23  1  0.63929633  0.63929413  0.83064272  1
  O  O24  1  0.69252100  0.69253138  0.17380296  1
  O  O25  1  0.36066667  0.99999054  0.83063503  1
  O  O26  1  0.66665690  0.33333658  0.52690926  1
  O  O27  1  0.66664404  0.33331818  0.02690883  1
  O  O28  1  0.63931127  0.00001146  0.33063600  1
  O  O29  1  0.69251754  0.99999833  0.67379947  1
