# generated using pymatgen
data_Li7(SbS)2
_symmetry_space_group_name_H-M   'P 1'
_cell_length_a   11.27963644
_cell_length_b   8.68482866
_cell_length_c   5.63030591
_cell_angle_alpha   84.88803527
_cell_angle_beta   90.37027396
_cell_angle_gamma   129.96642811
_symmetry_Int_Tables_number   1
_chemical_formula_structural   Li7(SbS)2
_chemical_formula_sum   'Li14 Sb4 S4'
_cell_volume   420.10918396
_cell_formula_units_Z   2
loop_
 _symmetry_equiv_pos_site_id
 _symmetry_equiv_pos_as_xyz
  1  'x, y, z'
loop_
 _atom_site_type_symbol
 _atom_site_label
 _atom_site_symmetry_multiplicity
 _atom_site_fract_x
 _atom_site_fract_y
 _atom_site_fract_z
 _atom_site_occupancy
  Li  Li0  1  0.06339018  0.88502878  0.48562764  1
  Li  Li1  1  0.18512544  0.44549968  0.91681339  1
  Li  Li2  1  0.32599410  0.60073270  0.34640545  1
  Li  Li3  1  0.53256477  0.91626373  0.76108980  1
  Li  Li4  1  0.34527405  0.29795143  0.50773379  1
  Li  Li5  1  0.08994517  0.95674197  0.96833576  1
  Li  Li6  1  0.37360313  0.30854715  0.01007803  1
  Li  Li7  1  0.62639687  0.69145285  0.98992197  1
  Li  Li8  1  0.91005483  0.04325803  0.03166424  1
  Li  Li9  1  0.65472595  0.70204857  0.49226621  1
  Li  Li10  1  0.46743523  0.08373627  0.23891020  1
  Li  Li11  1  0.67400590  0.39926730  0.65359455  1
  Li  Li12  1  0.81487456  0.55450032  0.08318661  1
  Li  Li13  1  0.93660982  0.11497122  0.51437236  1
  Sb  Sb14  1  0.11400578  0.66197112  0.15010157  1
  Sb  Sb15  1  0.32306098  0.98618003  0.76614085  1
  Sb  Sb16  1  0.67693902  0.01381997  0.23385915  1
  Sb  Sb17  1  0.88599422  0.33802888  0.84989843  1
  S  S18  1  0.14256805  0.19689496  0.23731623  1
  S  S19  1  0.42106186  0.57333968  0.71892228  1
  S  S20  1  0.57893814  0.42666032  0.28107772  1
  S  S21  1  0.85743195  0.80310504  0.76268377  1
