# generated using pymatgen
data_Li3Bi(BO3)2
_symmetry_space_group_name_H-M   'P 1'
_cell_length_a   6.37794359
_cell_length_b   8.39667013
_cell_length_c   10.27578504
_cell_angle_alpha   90.00000000
_cell_angle_beta   83.93176177
_cell_angle_gamma   90.00000000
_symmetry_Int_Tables_number   1
_chemical_formula_structural   Li3Bi(BO3)2
_chemical_formula_sum   'Li12 Bi4 B8 O24'
_cell_volume   547.22061590
_cell_formula_units_Z   4
loop_
 _symmetry_equiv_pos_site_id
 _symmetry_equiv_pos_as_xyz
  1  'x, y, z'
loop_
 _atom_site_type_symbol
 _atom_site_label
 _atom_site_symmetry_multiplicity
 _atom_site_fract_x
 _atom_site_fract_y
 _atom_site_fract_z
 _atom_site_occupancy
  Li  Li0  1  0.07152446  0.76806347  0.36868000  1
  Li  Li1  1  0.05830724  0.70492180  0.92756683  1
  Li  Li2  1  0.17611877  0.93894399  0.11806172  1
  Li  Li3  1  0.32388123  0.43894399  0.38193828  1
  Li  Li4  1  0.42847554  0.26806347  0.13132000  1
  Li  Li5  1  0.55830724  0.79507820  0.42756683  1
  Li  Li6  1  0.44169276  0.20492180  0.57243317  1
  Li  Li7  1  0.57152446  0.73193653  0.86868000  1
  Li  Li8  1  0.67611877  0.56105601  0.61806172  1
  Li  Li9  1  0.82388123  0.06105601  0.88193828  1
  Li  Li10  1  0.94169276  0.29507820  0.07243317  1
  Li  Li11  1  0.92847554  0.23193653  0.63132000  1
  Bi  Bi12  1  0.23179240  0.87672325  0.66728474  1
  Bi  Bi13  1  0.26820760  0.37672325  0.83271526  1
  Bi  Bi14  1  0.73179240  0.62327675  0.16728474  1
  Bi  Bi15  1  0.76820760  0.12327675  0.33271526  1
  B  B16  1  0.23551683  0.59612053  0.13708056  1
  B  B17  1  0.20068116  0.54991663  0.60166610  1
  B  B18  1  0.26448317  0.09612053  0.36291944  1
  B  B19  1  0.29931884  0.04991663  0.89833390  1
  B  B20  1  0.70068116  0.95008337  0.10166610  1
  B  B21  1  0.73551683  0.90387947  0.63708056  1
  B  B22  1  0.79931884  0.45008337  0.39833390  1
  B  B23  1  0.76448317  0.40387947  0.86291944  1
  O  O24  1  0.10062394  0.71784587  0.18582761  1
  O  O25  1  0.11083367  0.03340385  0.29044654  1
  O  O26  1  0.21248089  0.53910833  0.01368916  1
  O  O27  1  0.22295725  0.65802947  0.49874773  1
  O  O28  1  0.13285005  0.60594226  0.72924919  1
  O  O29  1  0.28751911  0.03910833  0.48631084  1
  O  O30  1  0.25906031  0.39218783  0.58625521  1
  O  O31  1  0.24093969  0.89218783  0.91374479  1
  O  O32  1  0.36714995  0.10594226  0.77075081  1
  O  O33  1  0.27704275  0.15802947  0.00125227  1
  O  O34  1  0.38916633  0.53340385  0.20955346  1
  O  O35  1  0.39937606  0.21784587  0.31417239  1
  O  O36  1  0.60062394  0.78215413  0.68582761  1
  O  O37  1  0.61083367  0.46659615  0.79044654  1
  O  O38  1  0.72295725  0.84197053  0.99874773  1
  O  O39  1  0.63285005  0.89405774  0.22924919  1
  O  O40  1  0.75906031  0.10781217  0.08625521  1
  O  O41  1  0.74093969  0.60781217  0.41374479  1
  O  O42  1  0.71248089  0.96089167  0.51368916  1
  O  O43  1  0.86714995  0.39405774  0.27075081  1
  O  O44  1  0.77704275  0.34197053  0.50125227  1
  O  O45  1  0.78751911  0.46089167  0.98631084  1
  O  O46  1  0.88916633  0.96659615  0.70955346  1
  O  O47  1  0.89937606  0.28215413  0.81417239  1
