# generated using pymatgen
data_Li4Ti4Mn4CrO18
_symmetry_space_group_name_H-M   'P 1'
_cell_length_a   9.15131018
_cell_length_b   25.22172734
_cell_length_c   2.95595706
_cell_angle_alpha   90.00034010
_cell_angle_beta   89.99979468
_cell_angle_gamma   90.00839518
_symmetry_Int_Tables_number   1
_chemical_formula_structural   Li4Ti4Mn4CrO18
_chemical_formula_sum   'Li8 Ti8 Mn8 Cr2 O36'
_cell_volume   682.26991022
_cell_formula_units_Z   2
loop_
 _symmetry_equiv_pos_site_id
 _symmetry_equiv_pos_as_xyz
  1  'x, y, z'
loop_
 _atom_site_type_symbol
 _atom_site_label
 _atom_site_symmetry_multiplicity
 _atom_site_fract_x
 _atom_site_fract_y
 _atom_site_fract_z
 _atom_site_occupancy
  Li  Li0  1  0.19106795  0.99713980  0.00000173  1
  Li  Li1  1  0.20531262  0.19479400  0.00000256  1
  Li  Li2  1  0.29456965  0.69484624  0.00000128  1
  Li  Li3  1  0.30892580  0.49721058  0.99999782  1
  Li  Li4  1  0.69119277  0.50272649  0.99999761  1
  Li  Li5  1  0.70563072  0.30532849  0.00000266  1
  Li  Li6  1  0.79431908  0.80542751  0.00000252  1
  Li  Li7  1  0.80864189  0.00256059  0.00000348  1
  Ti  Ti8  1  0.00350674  0.10309030  0.99999799  1
  Ti  Ti9  1  0.14578614  0.80517428  0.50000285  1
  Ti  Ti10  1  0.35442988  0.30488168  0.50000244  1
  Ti  Ti11  1  0.49645583  0.60326038  0.00000173  1
  Ti  Ti12  1  0.50352396  0.39681377  0.00000307  1
  Ti  Ti13  1  0.64566783  0.69510771  0.50000021  1
  Ti  Ti14  1  0.85441788  0.19480927  0.50000472  1
  Ti  Ti15  1  0.99657799  0.89679407  0.00000195  1
  Mn  Mn16  1  0.01858993  0.31378271  -0.00000251  1
  Mn  Mn17  1  0.14385956  0.58641018  0.49999148  1
  Mn  Mn18  1  0.35624806  0.08623943  0.49999046  1
  Mn  Mn19  1  0.48118352  0.81387312  0.00000353  1
  Mn  Mn20  1  0.51879475  0.18597623  0.00000448  1
  Mn  Mn21  1  0.64393435  0.91370929  0.50000183  1
  Mn  Mn22  1  0.85614665  0.41364008  0.49999355  1
  Mn  Mn23  1  0.98146879  0.68627288  -0.00000167  1
  Cr  Cr24  1  0.00003270  0.50011293  0.99999120  1
  Cr  Cr25  1  0.50002826  0.99995793  -0.00000310  1
  O  O26  1  0.99542009  0.42088371  0.99998694  1
  O  O27  1  0.00463869  0.57925006  0.99998592  1
  O  O28  1  0.04202437  0.94174830  0.49999880  1
  O  O29  1  0.05275527  0.16021084  0.49999319  1
  O  O30  1  0.11482063  0.66207752  0.49999231  1
  O  O31  1  0.10881157  0.75778494  -0.00000369  1
  O  O32  1  0.15032836  0.50784262  0.49998946  1
  O  O33  1  0.14634002  0.28982972  0.50000032  1
  O  O34  1  0.17760793  0.85775248  -0.00000045  1
  O  O35  1  0.21288625  0.08613350  0.99999433  1
  O  O36  1  0.28707963  0.58623781  0.99999755  1
  O  O37  1  0.32246135  0.35776393  0.00000349  1
  O  O38  1  0.35377774  0.78991287  0.49999813  1
  O  O39  1  0.34978991  0.00782162  0.50001236  1
  O  O40  1  0.39130929  0.25778081  -0.00000014  1
  O  O41  1  0.38524314  0.16190960  0.50001896  1
  O  O42  1  0.44730937  0.66028141  0.50000844  1
  O  O43  1  0.45796461  0.44174932  0.50000035  1
  O  O44  1  0.49552381  0.07911647  0.00002446  1
  O  O45  1  0.50449085  0.92080385  0.99998610  1
  O  O46  1  0.54189363  0.55832492  0.49999618  1
  O  O47  1  0.55268890  0.33978239  0.49999408  1
  O  O48  1  0.61471811  0.83809437  0.50000057  1
  O  O49  1  0.60879222  0.74224067  0.00000913  1
  O  O50  1  0.65024817  0.99207473  0.49999052  1
  O  O51  1  0.64605548  0.20991903  0.50000473  1
  O  O52  1  0.67752630  0.64226093  0.00000645  1
  O  O53  1  0.71274319  0.41390692  0.99999682  1
  O  O54  1  0.78707244  0.91381693  0.00002289  1
  O  O55  1  0.82246504  0.14216019  -0.00000411  1
  O  O56  1  0.85373135  0.71011217  0.50000178  1
  O  O57  1  0.84970230  0.49230740  0.49998206  1
  O  O58  1  0.89105601  0.24214535  0.00000596  1
  O  O59  1  0.88503165  0.33801205  0.50000856  1
  O  O60  1  0.94722141  0.83978689  0.50000517  1
  O  O61  1  0.95815762  0.05822371  0.49999848  1
