# generated using pymatgen
data_SrLaCl5
_symmetry_space_group_name_H-M   'P 1'
_cell_length_a   7.45478529
_cell_length_b   4.27053494
_cell_length_c   13.14124968
_cell_angle_alpha   90.00000000
_cell_angle_beta   94.28332495
_cell_angle_gamma   90.00000000
_symmetry_Int_Tables_number   1
_chemical_formula_structural   SrLaCl5
_chemical_formula_sum   'Sr2 La2 Cl10'
_cell_volume   417.19526076
_cell_formula_units_Z   2
loop_
 _symmetry_equiv_pos_site_id
 _symmetry_equiv_pos_as_xyz
  1  'x, y, z'
loop_
 _atom_site_type_symbol
 _atom_site_label
 _atom_site_symmetry_multiplicity
 _atom_site_fract_x
 _atom_site_fract_y
 _atom_site_fract_z
 _atom_site_occupancy
  Sr  Sr0  1  0.45799425  0.25000000  0.64736049  1
  Sr  Sr1  1  0.54200575  0.75000000  0.35263951  1
  La  La2  1  0.04913454  0.75000000  0.83939468  1
  La  La3  1  0.95086546  0.25000000  0.16060532  1
  Cl  Cl4  1  0.04594203  0.25000000  0.68606449  1
  Cl  Cl5  1  0.14295888  0.75000000  0.06565663  1
  Cl  Cl6  1  0.30848391  0.75000000  0.52346068  1
  Cl  Cl7  1  0.32429943  0.25000000  0.87871706  1
  Cl  Cl8  1  0.31605696  0.25000000  0.26008350  1
  Cl  Cl9  1  0.68394304  0.75000000  0.73991650  1
  Cl  Cl10  1  0.67570057  0.75000000  0.12128294  1
  Cl  Cl11  1  0.69151609  0.25000000  0.47653932  1
  Cl  Cl12  1  0.85704112  0.25000000  0.93434337  1
  Cl  Cl13  1  0.95405797  0.75000000  0.31393551  1
