# generated using pymatgen
data_LiTiNiF6
_symmetry_space_group_name_H-M   'P 1'
_cell_length_a   4.62577270
_cell_length_b   8.76178504
_cell_length_c   8.76178504
_cell_angle_alpha   119.99999966
_cell_angle_beta   90.00000000
_cell_angle_gamma   90.00000000
_symmetry_Int_Tables_number   1
_chemical_formula_structural   LiTiNiF6
_chemical_formula_sum   'Li3 Ti3 Ni3 F18'
_cell_volume   307.53893746
_cell_formula_units_Z   3
loop_
 _symmetry_equiv_pos_site_id
 _symmetry_equiv_pos_as_xyz
  1  'x, y, z'
loop_
 _atom_site_type_symbol
 _atom_site_label
 _atom_site_symmetry_multiplicity
 _atom_site_fract_x
 _atom_site_fract_y
 _atom_site_fract_z
 _atom_site_occupancy
  Li  Li0  1  0.50000000  0.31017604  0.31017604  1
  Li  Li1  1  0.50000000  0.00000000  0.68982396  1
  Li  Li2  1  0.50000000  0.68982396  0.00000000  1
  Ti  Ti3  1  -0.00000000  0.64938916  0.64938916  1
  Ti  Ti4  1  -0.00000000  0.00000000  0.35061084  1
  Ti  Ti5  1  -0.00000000  0.35061084  0.00000000  1
  Ni  Ni6  1  -0.00000000  0.00000000  -0.00000000  1
  Ni  Ni7  1  0.50918873  0.66666700  0.33333300  1
  Ni  Ni8  1  0.49081127  0.33333300  0.66666700  1
  F  F9  1  0.74344168  0.89007581  0.45679274  1
  F  F10  1  0.74344168  0.56671693  0.10992419  1
  F  F11  1  0.25655832  0.43328307  0.54320726  1
  F  F12  1  0.74344168  0.54320726  0.43328307  1
  F  F13  1  0.25655832  0.45679274  0.89007581  1
  F  F14  1  0.25655832  0.10992419  0.56671693  1
  F  F15  1  0.77106794  0.89572795  0.12276975  1
  F  F16  1  0.77106794  0.22704181  0.10427205  1
  F  F17  1  0.22893206  0.77295819  0.87723025  1
  F  F18  1  0.77106794  0.87723025  0.77295819  1
  F  F19  1  0.22893206  0.12276975  0.89572795  1
  F  F20  1  0.22893206  0.10427205  0.22704181  1
  F  F21  1  0.74010465  0.55422232  0.75877520  1
  F  F22  1  0.74010465  0.20455288  0.44577768  1
  F  F23  1  0.25989535  0.79544712  0.24122480  1
  F  F24  1  0.74010465  0.24122480  0.79544712  1
  F  F25  1  0.25989535  0.75877520  0.55422232  1
  F  F26  1  0.25989535  0.44577768  0.20455288  1
