# generated using pymatgen
data_Li4Bi2C4SO16
_symmetry_space_group_name_H-M   'P 1'
_cell_length_a   10.05380534
_cell_length_b   9.59276980
_cell_length_c   10.05380509
_cell_angle_alpha   63.15678934
_cell_angle_beta   97.95018807
_cell_angle_gamma   63.15678342
_symmetry_Int_Tables_number   1
_chemical_formula_structural   Li4Bi2C4SO16
_chemical_formula_sum   'Li8 Bi4 C8 S2 O32'
_cell_volume   696.96645812
_cell_formula_units_Z   2
loop_
 _symmetry_equiv_pos_site_id
 _symmetry_equiv_pos_as_xyz
  1  'x, y, z'
loop_
 _atom_site_type_symbol
 _atom_site_label
 _atom_site_symmetry_multiplicity
 _atom_site_fract_x
 _atom_site_fract_y
 _atom_site_fract_z
 _atom_site_occupancy
  Li  Li0  1  0.06493683  0.87012534  0.81493783  1
  Li  Li1  1  0.07285543  0.25000000  0.82285543  1
  Li  Li2  1  0.32285543  0.75000000  0.57285543  1
  Li  Li3  1  0.31493683  0.37012534  0.56493783  1
  Li  Li4  1  0.68506217  0.62987466  0.43506317  1
  Li  Li5  1  0.67714457  0.25000000  0.42714457  1
  Li  Li6  1  0.92714457  0.75000000  0.17714457  1
  Li  Li7  1  0.93506217  0.12987466  0.18506217  1
  Bi  Bi8  1  0.00000000  0.50000000  0.00000000  1
  Bi  Bi9  1  0.50000000  0.00000000  0.50000000  1
  Bi  Bi10  1  0.50000000  0.50000000  0.00000000  1
  Bi  Bi11  1  0.50000000  0.00000000  0.00000000  1
  C  C12  1  0.31912146  0.95833310  0.74968109  1
  C  C13  1  0.24968109  0.45833310  0.81912146  1
  C  C14  1  0.72254545  0.95833310  0.79198581  1
  C  C15  1  0.70801419  0.54166690  0.77745455  1
  C  C16  1  0.29198581  0.45833310  0.22254545  1
  C  C17  1  0.27745455  0.04166690  0.20801419  1
  C  C18  1  0.75031891  0.54166690  0.18087854  1
  C  C19  1  0.68087854  0.04166690  0.25031891  1
  S  S20  1  0.12500000  0.75000000  0.37500000  1
  S  S21  1  0.87500000  0.25000000  0.62500000  1
  O  O22  1  0.31245190  0.83682752  0.87364374  1
  O  O23  1  0.07461961  0.87758979  0.43206594  1
  O  O24  1  0.33167271  0.94033727  0.63133441  1
  O  O25  1  0.13133441  0.44033727  0.83167271  1
  O  O26  1  0.72799002  0.94033727  0.92832832  1
  O  O27  1  0.24951398  0.59503739  0.81780732  1
  O  O28  1  0.04779060  0.87758979  0.19034427  1
  O  O29  1  0.06793406  0.62241021  0.42538039  1
  O  O30  1  0.41284470  0.90496261  0.34455137  1
  O  O31  1  0.57167168  0.55966273  0.77200998  1
  O  O32  1  0.37364374  0.33682752  0.81245190  1
  O  O33  1  0.30965573  0.62241021  0.45220940  1
  O  O34  1  0.85072058  0.83682752  0.78952975  1
  O  O35  1  0.71047025  0.66317248  0.64927942  1
  O  O36  1  0.31780732  0.09503739  0.74951398  1
  O  O37  1  0.15544863  0.59503739  0.08715530  1
  O  O38  1  0.84455137  0.40496261  0.91284470  1
  O  O39  1  0.68219268  0.90496261  0.25048602  1
  O  O40  1  0.28952975  0.33682752  0.35072058  1
  O  O41  1  0.14927942  0.16317248  0.21047025  1
  O  O42  1  0.69034427  0.37758979  0.54779060  1
  O  O43  1  0.62635626  0.66317248  0.18754810  1
  O  O44  1  0.42832832  0.44033727  0.22799002  1
  O  O45  1  0.58715530  0.09503739  0.65544863  1
  O  O46  1  0.93206594  0.37758979  0.57461961  1
  O  O47  1  0.95220940  0.12241021  0.80965573  1
  O  O48  1  0.75048602  0.40496261  0.18219268  1
  O  O49  1  0.27200998  0.05966273  0.07167168  1
  O  O50  1  0.86866559  0.55966273  0.16832729  1
  O  O51  1  0.66832729  0.05966273  0.36866559  1
  O  O52  1  0.92538039  0.12241021  0.56793406  1
  O  O53  1  0.68754810  0.16317248  0.12635626  1
