# generated using pymatgen
data_Li2SbSO4F3
_symmetry_space_group_name_H-M   'P 1'
_cell_length_a   5.13408293
_cell_length_b   8.73965172
_cell_length_c   13.01814713
_cell_angle_alpha   90.00000000
_cell_angle_beta   90.00000000
_cell_angle_gamma   90.00000000
_symmetry_Int_Tables_number   1
_chemical_formula_structural   Li2SbSO4F3
_chemical_formula_sum   'Li8 Sb4 S4 O16 F12'
_cell_volume   584.12552071
_cell_formula_units_Z   4
loop_
 _symmetry_equiv_pos_site_id
 _symmetry_equiv_pos_as_xyz
  1  'x, y, z'
loop_
 _atom_site_type_symbol
 _atom_site_label
 _atom_site_symmetry_multiplicity
 _atom_site_fract_x
 _atom_site_fract_y
 _atom_site_fract_z
 _atom_site_occupancy
  Li  Li0  1  0.95856320  0.49263516  0.72109613  1
  Li  Li1  1  0.00410017  0.28943322  0.44606172  1
  Li  Li2  1  0.49589983  0.71056678  0.94606172  1
  Li  Li3  1  0.54143680  0.50736484  0.22109613  1
  Li  Li4  1  0.45856320  0.00736484  0.27890387  1
  Li  Li5  1  0.50410017  0.21056678  0.55393828  1
  Li  Li6  1  0.99589983  0.78943322  0.05393828  1
  Li  Li7  1  0.04143680  0.99263516  0.77890387  1
  Sb  Sb8  1  0.05680752  0.94222284  0.52609873  1
  Sb  Sb9  1  0.44319248  0.05777716  0.02609873  1
  Sb  Sb10  1  0.55680752  0.55777716  0.47390127  1
  Sb  Sb11  1  0.94319248  0.44222284  0.97390127  1
  S  S12  1  0.97284837  0.20369835  0.17780301  1
  S  S13  1  0.52715163  0.79630165  0.67780301  1
  S  S14  1  0.47284837  0.29630165  0.82219699  1
  S  S15  1  0.02715163  0.70369835  0.32219699  1
  O  O16  1  0.02350378  0.11875165  0.07604480  1
  O  O17  1  0.15573787  0.85289718  0.35363117  1
  O  O18  1  0.20713388  0.61335573  0.25944630  1
  O  O19  1  0.22502069  0.23034980  0.22909122  1
  O  O20  1  0.27497931  0.76965020  0.72909122  1
  O  O21  1  0.29286612  0.38664427  0.75944630  1
  O  O22  1  0.34426213  0.14710282  0.85363117  1
  O  O23  1  0.47649622  0.88124835  0.57604480  1
  O  O24  1  0.52350378  0.38124835  0.92395520  1
  O  O25  1  0.65573787  0.64710282  0.64636883  1
  O  O26  1  0.70713388  0.88664427  0.74055370  1
  O  O27  1  0.72502069  0.26965020  0.77090878  1
  O  O28  1  0.77497931  0.73034980  0.27090878  1
  O  O29  1  0.79286612  0.11335573  0.24055370  1
  O  O30  1  0.84426213  0.35289718  0.14636883  1
  O  O31  1  0.97649622  0.61875165  0.42395520  1
  F  F32  1  0.11014003  0.08675060  0.64639242  1
  F  F33  1  0.20803278  0.61141776  0.01953076  1
  F  F34  1  0.27532143  0.10192073  0.45513510  1
  F  F35  1  0.22467857  0.89807927  0.95513510  1
  F  F36  1  0.29196722  0.38858224  0.51953076  1
  F  F37  1  0.38985997  0.91324940  0.14639242  1
  F  F38  1  0.61014003  0.41324940  0.35360758  1
  F  F39  1  0.70803278  0.88858224  0.98046924  1
  F  F40  1  0.77532143  0.39807927  0.54486490  1
  F  F41  1  0.72467857  0.60192073  0.04486490  1
  F  F42  1  0.79196722  0.11141776  0.48046924  1
  F  F43  1  0.88985997  0.58675060  0.85360758  1
