# generated using pymatgen
data_Na6Sn2P(CO4)4
_symmetry_space_group_name_H-M   'P 1'
_cell_length_a   10.27685719
_cell_length_b   10.27685691
_cell_length_c   10.27685719
_cell_angle_alpha   60.00000242
_cell_angle_beta   119.99999874
_cell_angle_gamma   119.99999758
_symmetry_Int_Tables_number   1
_chemical_formula_structural   Na6Sn2P(CO4)4
_chemical_formula_sum   'Na12 Sn4 P2 C8 O32'
_cell_volume   767.47806915
_cell_formula_units_Z   2
loop_
 _symmetry_equiv_pos_site_id
 _symmetry_equiv_pos_as_xyz
  1  'x, y, z'
loop_
 _atom_site_type_symbol
 _atom_site_label
 _atom_site_symmetry_multiplicity
 _atom_site_fract_x
 _atom_site_fract_y
 _atom_site_fract_z
 _atom_site_occupancy
  Na  Na0  1  0.67538235  0.92538235  0.82461765  1
  Na  Na1  1  0.92538235  0.67538235  0.57461765  1
  Na  Na2  1  0.92538235  0.67538235  0.17538235  1
  Na  Na3  1  0.67538235  0.92538235  0.42538235  1
  Na  Na4  1  0.92538235  0.07461765  0.17538235  1
  Na  Na5  1  0.67538235  0.32461765  0.42538235  1
  Na  Na6  1  0.07461765  0.32461765  0.82461765  1
  Na  Na7  1  0.07461765  0.92538235  0.82461765  1
  Na  Na8  1  0.32461765  0.67538235  0.57461765  1
  Na  Na9  1  0.32461765  0.07461765  0.57461765  1
  Na  Na10  1  0.07461765  0.32461765  0.42538235  1
  Na  Na11  1  0.32461765  0.07461765  0.17538235  1
  Sn  Sn12  1  0.50000000  0.50000000  0.50000000  1
  Sn  Sn13  1  0.50000000  0.00000000  0.00000000  1
  Sn  Sn14  1  0.50000000  0.50000000  0.00000000  1
  Sn  Sn15  1  0.00000000  0.50000000  0.00000000  1
  P  P16  1  0.87500000  0.12500000  0.62500000  1
  P  P17  1  0.12500000  0.87500000  0.37500000  1
  C  C18  1  0.72574724  0.27425276  0.77425276  1
  C  C19  1  0.72574724  0.67724272  0.77425276  1
  C  C20  1  0.32275728  0.27425276  0.77425276  1
  C  C21  1  0.27425276  0.72574724  0.82275728  1
  C  C22  1  0.67724272  0.72574724  0.22574724  1
  C  C23  1  0.72574724  0.27425276  0.17724272  1
  C  C24  1  0.27425276  0.32275728  0.22574724  1
  C  C25  1  0.27425276  0.72574724  0.22574724  1
  O  O26  1  0.85511652  0.27900220  0.89860912  1
  O  O27  1  0.93696879  0.06303121  0.81090736  1
  O  O28  1  0.85511652  0.67750520  0.77900220  1
  O  O29  1  0.72099780  0.67750520  0.89860912  1
  O  O30  1  0.93696879  0.06303121  0.56303121  1
  O  O31  1  0.93696879  0.31090736  0.56303121  1
  O  O32  1  0.60139088  0.14488348  0.77900220  1
  O  O33  1  0.72099780  0.39860912  0.64488348  1
  O  O34  1  0.68909264  0.06303121  0.56303121  1
  O  O35  1  0.32249480  0.14488348  0.89860912  1
  O  O36  1  0.39860912  0.72099780  0.82249480  1
  O  O37  1  0.60139088  0.67750520  0.64488348  1
  O  O38  1  0.32249480  0.39860912  0.77900220  1
  O  O39  1  0.27900220  0.85511652  0.82249480  1
  O  O40  1  0.85511652  0.39860912  0.17750520  1
  O  O41  1  0.67750520  0.72099780  0.35511652  1
  O  O42  1  0.32249480  0.27900220  0.64488348  1
  O  O43  1  0.14488348  0.60139088  0.82249480  1
  O  O44  1  0.72099780  0.14488348  0.17750520  1
  O  O45  1  0.67750520  0.60139088  0.22099780  1
  O  O46  1  0.39860912  0.32249480  0.35511652  1
  O  O47  1  0.60139088  0.27900220  0.17750520  1
  O  O48  1  0.67750520  0.85511652  0.10139088  1
  O  O49  1  0.31090736  0.93696879  0.43696879  1
  O  O50  1  0.27900220  0.60139088  0.35511652  1
  O  O51  1  0.39860912  0.85511652  0.22099780  1
  O  O52  1  0.06303121  0.93696879  0.43696879  1
  O  O53  1  0.06303121  0.68909264  0.43696879  1
  O  O54  1  0.27900220  0.32249480  0.10139088  1
  O  O55  1  0.14488348  0.32249480  0.22099780  1
  O  O56  1  0.06303121  0.93696879  0.18909264  1
  O  O57  1  0.14488348  0.72099780  0.10139088  1
