# generated using pymatgen
data_Ho2TeO2
_symmetry_space_group_name_H-M   'P 1'
_cell_length_a   3.89464853
_cell_length_b   3.89470629
_cell_length_c   7.20659243
_cell_angle_alpha   89.99950346
_cell_angle_beta   90.00017764
_cell_angle_gamma   119.99948214
_symmetry_Int_Tables_number   1
_chemical_formula_structural   Ho2TeO2
_chemical_formula_sum   'Ho2 Te1 O2'
_cell_volume   94.66857541
_cell_formula_units_Z   1
loop_
 _symmetry_equiv_pos_site_id
 _symmetry_equiv_pos_as_xyz
  1  'x, y, z'
loop_
 _atom_site_type_symbol
 _atom_site_label
 _atom_site_symmetry_multiplicity
 _atom_site_fract_x
 _atom_site_fract_y
 _atom_site_fract_z
 _atom_site_occupancy
  Ho  Ho0  1  0.33324647  0.66667576  0.30553326  1
  Ho  Ho1  1  0.66657019  0.33332395  0.69446656  1
  Te  Te2  1  0.00019648  0.00000180  0.00000057  1
  O  O3  1  0.33323095  0.66667223  0.61946933  1
  O  O4  1  0.66655592  0.33332526  0.38053028  1
