# generated using pymatgen
data_Li3Bi(BO3)2
_symmetry_space_group_name_H-M   'P 1'
_cell_length_a   7.64171200
_cell_length_b   4.83476756
_cell_length_c   8.90827155
_cell_angle_alpha   90.76749247
_cell_angle_beta   68.87907053
_cell_angle_gamma   87.85294559
_symmetry_Int_Tables_number   1
_chemical_formula_structural   Li3Bi(BO3)2
_chemical_formula_sum   'Li6 Bi2 B4 O12'
_cell_volume   306.67095552
_cell_formula_units_Z   2
loop_
 _symmetry_equiv_pos_site_id
 _symmetry_equiv_pos_as_xyz
  1  'x, y, z'
loop_
 _atom_site_type_symbol
 _atom_site_label
 _atom_site_symmetry_multiplicity
 _atom_site_fract_x
 _atom_site_fract_y
 _atom_site_fract_z
 _atom_site_occupancy
  Li  Li0  1  0.33968871  0.04273951  0.25925028  1
  Li  Li1  1  0.59295141  0.66494356  0.37485612  1
  Li  Li2  1  0.34830029  0.76905224  0.75269300  1
  Li  Li3  1  0.65169971  0.23094776  0.24730700  1
  Li  Li4  1  0.40704859  0.33505644  0.62514388  1
  Li  Li5  1  0.66031129  0.95726049  0.74074972  1
  Bi  Bi6  1  0.95701311  0.40384447  0.80287662  1
  Bi  Bi7  1  0.04298689  0.59615553  0.19712338  1
  B  B8  1  0.25891638  0.55347653  0.45663011  1
  B  B9  1  0.71482672  0.72838870  0.05479735  1
  B  B10  1  0.28517328  0.27161130  0.94520265  1
  B  B11  1  0.74108362  0.44652347  0.54336989  1
  O  O12  1  0.18868882  0.71188044  0.36103038  1
  O  O13  1  0.21639149  0.19863543  0.10987429  1
  O  O14  1  0.19948222  0.62164825  0.62250865  1
  O  O15  1  0.39871955  0.34914751  0.39825842  1
  O  O16  1  0.60424753  0.88461299  0.18299291  1
  O  O17  1  0.21420530  0.53383323  0.92182699  1
  O  O18  1  0.78579470  0.46616677  0.07817301  1
  O  O19  1  0.39575247  0.11538701  0.81700709  1
  O  O20  1  0.60128045  0.65085249  0.60174158  1
  O  O21  1  0.80051778  0.37835175  0.37749135  1
  O  O22  1  0.78360851  0.80136457  0.89012571  1
  O  O23  1  0.81131118  0.28811956  0.63896962  1
