# generated using pymatgen
data_AlTlO3
_symmetry_space_group_name_H-M   'P 1'
_cell_length_a   5.25125971
_cell_length_b   5.36046763
_cell_length_c   7.61239149
_cell_angle_alpha   90.00000000
_cell_angle_beta   90.00000000
_cell_angle_gamma   90.00000000
_symmetry_Int_Tables_number   1
_chemical_formula_structural   AlTlO3
_chemical_formula_sum   'Al4 Tl4 O12'
_cell_volume   214.28278909
_cell_formula_units_Z   4
loop_
 _symmetry_equiv_pos_site_id
 _symmetry_equiv_pos_as_xyz
  1  'x, y, z'
loop_
 _atom_site_type_symbol
 _atom_site_label
 _atom_site_symmetry_multiplicity
 _atom_site_fract_x
 _atom_site_fract_y
 _atom_site_fract_z
 _atom_site_occupancy
  Al  Al0  1  0.00000000  0.50000000  0.00000000  1
  Al  Al1  1  0.00000000  0.50000000  0.50000000  1
  Al  Al2  1  0.50000000  0.00000000  0.00000000  1
  Al  Al3  1  0.50000000  0.00000000  0.50000000  1
  Tl  Tl4  1  0.01307766  0.96002628  0.75000000  1
  Tl  Tl5  1  0.48692234  0.46002628  0.75000000  1
  Tl  Tl6  1  0.51307766  0.53997372  0.25000000  1
  Tl  Tl7  1  0.98692234  0.03997372  0.25000000  1
  O  O8  1  0.09681819  0.46655009  0.25000000  1
  O  O9  1  0.20658624  0.20906862  0.55134949  1
  O  O10  1  0.20658624  0.20906862  0.94865051  1
  O  O11  1  0.29341376  0.70906862  0.94865051  1
  O  O12  1  0.29341376  0.70906862  0.55134949  1
  O  O13  1  0.40318181  0.96655009  0.25000000  1
  O  O14  1  0.59681819  0.03344991  0.75000000  1
  O  O15  1  0.70658624  0.29093138  0.05134949  1
  O  O16  1  0.70658624  0.29093138  0.44865051  1
  O  O17  1  0.79341376  0.79093138  0.05134949  1
  O  O18  1  0.79341376  0.79093138  0.44865051  1
  O  O19  1  0.90318181  0.53344991  0.75000000  1
