# generated using pymatgen
data_Tb2Pb2O7
_symmetry_space_group_name_H-M   'P 1'
_cell_length_a   7.38784481
_cell_length_b   7.38741070
_cell_length_c   12.90419485
_cell_angle_alpha   89.99836019
_cell_angle_beta   90.00706732
_cell_angle_gamma   90.00279441
_symmetry_Int_Tables_number   1
_chemical_formula_structural   Tb2Pb2O7
_chemical_formula_sum   'Tb8 Pb8 O28'
_cell_volume   704.27280074
_cell_formula_units_Z   4
loop_
 _symmetry_equiv_pos_site_id
 _symmetry_equiv_pos_as_xyz
  1  'x, y, z'
loop_
 _atom_site_type_symbol
 _atom_site_label
 _atom_site_symmetry_multiplicity
 _atom_site_fract_x
 _atom_site_fract_y
 _atom_site_fract_z
 _atom_site_occupancy
  Tb  Tb0  1  0.14307697  0.62465804  0.13935589  1
  Tb  Tb1  1  0.12472844  0.35683478  0.88933903  1
  Tb  Tb2  1  0.37530359  0.85691307  0.36064866  1
  Tb  Tb3  1  0.35691700  0.12471498  0.11064003  1
  Tb  Tb4  1  0.64310784  0.87534006  0.61066954  1
  Tb  Tb5  1  0.62462896  0.14311536  0.86065256  1
  Tb  Tb6  1  0.87532887  0.64310981  0.38934563  1
  Tb  Tb7  1  0.85690917  0.37529718  0.63936056  1
  Pb  Pb8  1  0.11228870  0.87425601  0.59848898  1
  Pb  Pb9  1  0.12565260  0.88768147  0.90145692  1
  Pb  Pb10  1  0.37438376  0.38771845  0.34852357  1
  Pb  Pb11  1  0.38770037  0.37442796  0.65144364  1
  Pb  Pb12  1  0.61226674  0.62571084  0.15147383  1
  Pb  Pb13  1  0.62577851  0.61225265  0.84851363  1
  Pb  Pb14  1  0.87421257  0.11226617  0.40150943  1
  Pb  Pb15  1  0.88775659  0.12567512  0.09852627  1
  O  O16  1  0.06963321  0.90393004  0.41110696  1
  O  O17  1  0.09565828  0.32505857  0.07530244  1
  O  O18  1  0.09613182  0.93035587  0.08885212  1
  O  O19  1  0.16950296  0.62983374  0.96175591  1
  O  O20  1  0.17497403  0.59557998  0.32533405  1
  O  O21  1  0.12991821  0.33044951  0.71174876  1
  O  O22  1  0.19912858  0.80080999  0.74998276  1
  O  O23  1  0.30081553  0.30083996  0.49998709  1
  O  O24  1  0.37013460  0.83041978  0.53824342  1
  O  O25  1  0.32508377  0.09555833  0.92468351  1
  O  O26  1  0.33045907  0.12988625  0.28823577  1
  O  O27  1  0.40387776  0.43033249  0.16110725  1
  O  O28  1  0.40433174  0.82500839  0.17470188  1
  O  O29  1  0.43036116  0.40391987  0.83888858  1
  O  O30  1  0.56969297  0.59615989  0.33892469  1
  O  O31  1  0.59559573  0.17499086  0.67469486  1
  O  O32  1  0.59614986  0.56970743  0.66113671  1
  O  O33  1  0.66947483  0.87014283  0.78825400  1
  O  O34  1  0.67488868  0.90436846  0.42469687  1
  O  O35  1  0.62991785  0.16955074  0.03825728  1
  O  O36  1  0.69913539  0.69917014  0.00000503  1
  O  O37  1  0.80091165  0.19915881  0.25000097  1
  O  O38  1  0.87011347  0.66958059  0.21177877  1
  O  O39  1  0.82508449  0.40435462  0.82528982  1
  O  O40  1  0.83046972  0.37013081  0.46175964  1
  O  O41  1  0.90391946  0.06963661  0.58890482  1
  O  O42  1  0.90435533  0.67491272  0.57530709  1
  O  O43  1  0.93034218  0.09608178  0.91110880  1
