# generated using pymatgen
data_Li5V2Ni5O12
_symmetry_space_group_name_H-M   'P 1'
_cell_length_a   5.13140867
_cell_length_b   5.13140821
_cell_length_c   9.78248380
_cell_angle_alpha   84.60836391
_cell_angle_beta   95.39163761
_cell_angle_gamma   58.73572499
_symmetry_Int_Tables_number   1
_chemical_formula_structural   Li5V2Ni5O12
_chemical_formula_sum   'Li5 V2 Ni5 O12'
_cell_volume   216.10084585
_cell_formula_units_Z   1
loop_
 _symmetry_equiv_pos_site_id
 _symmetry_equiv_pos_as_xyz
  1  'x, y, z'
loop_
 _atom_site_type_symbol
 _atom_site_label
 _atom_site_symmetry_multiplicity
 _atom_site_fract_x
 _atom_site_fract_y
 _atom_site_fract_z
 _atom_site_occupancy
  Li  Li0  1  0.16745344  0.67457121  0.50267928  1
  Li  Li1  1  0.32579968  0.83136981  0.99545992  1
  Li  Li2  1  0.67457121  0.16745344  0.99732072  1
  Li  Li3  1  0.83136981  0.32579968  0.50454008  1
  Li  Li4  1  0.92060894  0.92060894  0.75000000  1
  V  V5  1  0.25275140  0.25275140  0.75000000  1
  V  V6  1  0.74786918  0.74786918  0.25000000  1
  Ni  Ni7  1  0.07874366  0.07874366  0.25000000  1
  Ni  Ni8  1  0.99627518  0.50668929  0.99682165  1
  Ni  Ni9  1  0.50668929  0.99627518  0.50317835  1
  Ni  Ni10  1  0.41855172  0.41855172  0.25000000  1
  Ni  Ni11  1  0.58178587  0.58178587  0.75000000  1
  O  O12  1  0.98223724  0.21905419  0.86632823  1
  O  O13  1  0.21905419  0.98223724  0.63367177  1
  O  O14  1  0.10498317  0.39257862  0.36509333  1
  O  O15  1  0.39257862  0.10498317  0.13490667  1
  O  O16  1  0.29189362  0.51545482  0.86559593  1
  O  O17  1  0.51545482  0.29189362  0.63440407  1
  O  O18  1  0.47266854  0.71075002  0.37187707  1
  O  O19  1  0.71075002  0.47266854  0.12812293  1
  O  O20  1  0.59926929  0.89677142  0.86495975  1
  O  O21  1  0.89677142  0.59926929  0.63504025  1
  O  O22  1  0.78687947  0.02498720  0.37160821  1
  O  O23  1  0.02498720  0.78687947  0.12839179  1
