# generated using pymatgen
data_LiZn4Fe13O24
_symmetry_space_group_name_H-M   'P 1'
_cell_length_a   6.05944481
_cell_length_b   6.05944481
_cell_length_c   16.00506034
_cell_angle_alpha   78.85119677
_cell_angle_beta   79.33644020
_cell_angle_gamma   120.01713936
_symmetry_Int_Tables_number   1
_chemical_formula_structural   LiZn4Fe13O24
_chemical_formula_sum   'Li1 Zn4 Fe13 O24'
_cell_volume   470.97427548
_cell_formula_units_Z   1
loop_
 _symmetry_equiv_pos_site_id
 _symmetry_equiv_pos_as_xyz
  1  'x, y, z'
loop_
 _atom_site_type_symbol
 _atom_site_label
 _atom_site_symmetry_multiplicity
 _atom_site_fract_x
 _atom_site_fract_y
 _atom_site_fract_z
 _atom_site_occupancy
  Li  Li0  1  0.25070757  0.24924131  0.75002556  1
  Zn  Zn1  1  0.62696113  0.29061498  0.04121144  1
  Zn  Zn2  1  0.62607404  0.95820907  0.20785894  1
  Zn  Zn3  1  0.62015054  0.29265305  0.54359871  1
  Zn  Zn4  1  0.62384810  0.62459833  0.37577629  1
  Fe  Fe5  1  0.00561875  0.00297418  0.99570354  1
  Fe  Fe6  1  0.62619207  0.45861265  0.20816870  1
  Fe  Fe7  1  0.24314581  0.58183089  0.08751215  1
  Fe  Fe8  1  0.00484164  0.32841013  0.33337361  1
  Fe  Fe9  1  0.12922540  0.29582266  0.54227360  1
  Fe  Fe10  1  0.12504995  0.95747052  0.20816870  1
  Fe  Fe11  1  0.62519792  0.12204392  0.87304119  1
  Fe  Fe12  1  0.61963013  0.78622739  0.54227360  1
  Fe  Fe13  1  0.24380112  0.92210251  0.41704818  1
  Fe  Fe14  1  0.62443873  0.62858975  0.87348576  1
  Fe  Fe15  1  0.62138506  0.95390769  0.71235363  1
  Fe  Fe16  1  0.00335116  0.66447802  0.66608541  1
  Fe  Fe17  1  0.13187370  0.62871970  0.87304119  1
  O  O18  1  0.88194767  0.03130267  0.28705164  1
  O  O19  1  0.85699820  0.37324243  0.12789150  1
  O  O20  1  0.37755455  0.05404959  0.28419743  1
  O  O21  1  0.37697705  0.36323744  0.12989276  1
  O  O22  1  0.87053985  0.19849057  0.46548429  1
  O  O23  1  0.87695905  0.55245002  0.28529497  1
  O  O24  1  0.87754784  0.86609498  0.12817859  1
  O  O25  1  0.87128137  0.35434957  0.62643065  1
  O  O26  1  0.39459506  0.54395005  0.28705164  1
  O  O27  1  0.83762535  0.01949977  0.79785290  1
  O  O28  1  0.85897628  0.71047460  0.46158413  1
  O  O29  1  0.37097558  0.88721981  0.12789150  1
  O  O30  1  0.36635713  0.21785545  0.46158413  1
  O  O31  1  0.38693064  0.01983446  0.79661695  1
  O  O32  1  0.37140849  0.70166706  0.46346272  1
  O  O33  1  0.38178266  0.39538034  0.61141800  1
  O  O34  1  0.86822685  0.53371655  0.79902880  1
  O  O35  1  0.86676602  0.88526180  0.62398559  1
  O  O36  1  0.87487584  0.22099784  0.95206316  1
  O  O37  1  0.87668809  0.69985610  0.95154779  1
  O  O38  1  0.39279013  0.87585834  0.62643065  1
  O  O39  1  0.39704831  0.22021732  0.95154779  1
  O  O40  1  0.38479543  0.56666884  0.79785290  1
  O  O41  1  0.37885975  0.71181667  0.95466129  1
