# generated using pymatgen
data_Li2VSn(PO4)2
_symmetry_space_group_name_H-M   'P 1'
_cell_length_a   10.99200330
_cell_length_b   6.51254490
_cell_length_c   4.84502657
_cell_angle_alpha   90.00000000
_cell_angle_beta   89.22293713
_cell_angle_gamma   90.00000000
_symmetry_Int_Tables_number   1
_chemical_formula_structural   Li2VSn(PO4)2
_chemical_formula_sum   'Li4 V2 Sn2 P4 O16'
_cell_volume   346.80376293
_cell_formula_units_Z   2
loop_
 _symmetry_equiv_pos_site_id
 _symmetry_equiv_pos_as_xyz
  1  'x, y, z'
loop_
 _atom_site_type_symbol
 _atom_site_label
 _atom_site_symmetry_multiplicity
 _atom_site_fract_x
 _atom_site_fract_y
 _atom_site_fract_z
 _atom_site_occupancy
  Li  Li0  1  0.00000000  0.00000000  0.00000000  1
  Li  Li1  1  0.00000000  0.50000000  0.00000000  1
  Li  Li2  1  0.50000000  0.00000000  0.50000000  1
  Li  Li3  1  0.50000000  0.50000000  0.50000000  1
  V  V4  1  0.21811452  0.75000000  0.46622853  1
  V  V5  1  0.78188548  0.25000000  0.53377147  1
  Sn  Sn6  1  0.27470493  0.25000000  0.97418085  1
  Sn  Sn7  1  0.72529507  0.75000000  0.02581915  1
  P  P8  1  0.07417759  0.25000000  0.42162171  1
  P  P9  1  0.40241584  0.75000000  0.87627286  1
  P  P10  1  0.59758416  0.25000000  0.12372714  1
  P  P11  1  0.92582241  0.75000000  0.57837829  1
  O  O12  1  0.05337774  0.75000000  0.71636443  1
  O  O13  1  0.06675219  0.25000000  0.73996010  1
  O  O14  1  0.14550047  0.05675644  0.30506861  1
  O  O15  1  0.14550047  0.44324356  0.30506861  1
  O  O16  1  0.33850816  0.56199646  0.73572292  1
  O  O17  1  0.33850816  0.93800354  0.73572292  1
  O  O18  1  0.39116598  0.75000000  0.19362055  1
  O  O19  1  0.46422010  0.25000000  0.23661652  1
  O  O20  1  0.53577990  0.75000000  0.76338348  1
  O  O21  1  0.60883402  0.25000000  0.80637945  1
  O  O22  1  0.66149184  0.06199646  0.26427708  1
  O  O23  1  0.66149184  0.43800354  0.26427708  1
  O  O24  1  0.85449953  0.55675644  0.69493139  1
  O  O25  1  0.85449953  0.94324356  0.69493139  1
  O  O26  1  0.93324781  0.75000000  0.26003990  1
  O  O27  1  0.94662226  0.25000000  0.28363557  1
