# generated using pymatgen
data_Ti2Ni3Te3O16
_symmetry_space_group_name_H-M   'P 1'
_cell_length_a   6.09167677
_cell_length_b   6.07322716
_cell_length_c   9.31041103
_cell_angle_alpha   89.99979577
_cell_angle_beta   91.18763986
_cell_angle_gamma   119.89933887
_symmetry_Int_Tables_number   1
_chemical_formula_structural   Ti2Ni3Te3O16
_chemical_formula_sum   'Ti2 Ni3 Te3 O16'
_cell_volume   298.51856312
_cell_formula_units_Z   1
loop_
 _symmetry_equiv_pos_site_id
 _symmetry_equiv_pos_as_xyz
  1  'x, y, z'
loop_
 _atom_site_type_symbol
 _atom_site_label
 _atom_site_symmetry_multiplicity
 _atom_site_fract_x
 _atom_site_fract_y
 _atom_site_fract_z
 _atom_site_occupancy
  Ti  Ti0  1  0.35439040  0.67720245  0.51309256  1
  Ti  Ti1  1  0.72457117  0.36229614  0.96010700  1
  Ni  Ni2  1  0.65312646  0.82657293  0.21025595  1
  Ni  Ni3  1  0.83657076  0.66913381  0.70463106  1
  Ni  Ni4  1  0.83655437  0.16745151  0.70463878  1
  Te  Te5  1  0.15606163  0.82685220  0.21509092  1
  Te  Te6  1  0.15606850  0.32922358  0.21509177  1
  Te  Te7  1  0.34085542  0.17043992  0.71364742  1
  O  O8  1  0.19078271  0.84415871  0.59853740  1
  O  O9  1  0.02028277  0.51014789  0.33552571  1
  O  O10  1  0.30229696  0.65115410  0.09716848  1
  O  O11  1  0.00092653  0.00047169  0.32374864  1
  O  O12  1  0.02353159  0.01177031  0.80721925  1
  O  O13  1  0.19077412  0.34664166  0.59854041  1
  O  O14  1  0.45139301  0.94772773  0.33538589  1
  O  O15  1  0.45140163  0.50368005  0.33538343  1
  O  O16  1  0.30925322  0.15462913  0.10773138  1
  O  O17  1  0.65653198  0.82827375  0.59066019  1
  O  O18  1  0.51823823  0.46833976  0.84706986  1
  O  O19  1  0.51824136  0.04992055  0.84707249  1
  O  O20  1  0.64333785  0.32168103  0.60289984  1
  O  O21  1  0.84538297  0.67010439  0.10446768  1
  O  O22  1  0.97403863  0.48702642  0.84328796  1
  O  O23  1  0.84538771  0.17530128  0.10446794  1
