# generated using pymatgen
data_Pr6N8O33
_symmetry_space_group_name_H-M   'P 1'
_cell_length_a   10.01408339
_cell_length_b   9.59931142
_cell_length_c   10.86224427
_cell_angle_alpha   115.72746456
_cell_angle_beta   119.91466246
_cell_angle_gamma   87.62271835
_symmetry_Int_Tables_number   1
_chemical_formula_structural   Pr6N8O33
_chemical_formula_sum   'Pr6 N8 O33'
_cell_volume   794.59326119
_cell_formula_units_Z   1
loop_
 _symmetry_equiv_pos_site_id
 _symmetry_equiv_pos_as_xyz
  1  'x, y, z'
loop_
 _atom_site_type_symbol
 _atom_site_label
 _atom_site_symmetry_multiplicity
 _atom_site_fract_x
 _atom_site_fract_y
 _atom_site_fract_z
 _atom_site_occupancy
  Pr  Pr0  1  0.85835614  0.88006514  0.62042032  1
  Pr  Pr1  1  0.14164386  0.11993486  0.37957968  1
  Pr  Pr2  1  0.76517541  0.77629508  0.17774268  1
  Pr  Pr3  1  0.23482459  0.22370492  0.82225732  1
  Pr  Pr4  1  0.16801551  0.80378423  0.51055782  1
  Pr  Pr5  1  0.83198449  0.19621577  0.48944218  1
  N  N6  1  0.35801522  0.73664582  0.87081805  1
  N  N7  1  0.64198478  0.26335418  0.12918195  1
  N  N8  1  0.58764987  0.88828205  0.67650572  1
  N  N9  1  0.41235013  0.11171795  0.32349428  1
  N  N10  1  0.84729389  0.55447329  0.67030417  1
  N  N11  1  0.15270611  0.44552671  0.32969583  1
  N  N12  1  0.68285511  0.44285299  0.90259452  1
  N  N13  1  0.31714489  0.55714701  0.09740548  1
  O  O14  1  0.88672416  0.72062432  0.39675118  1
  O  O15  1  0.11327584  0.27937568  0.60324882  1
  O  O16  1  0.47882571  0.89318952  0.70320764  1
  O  O17  1  0.52117429  0.10681048  0.29679236  1
  O  O18  1  0.64582349  0.30463641  0.79602083  1
  O  O19  1  0.35417651  0.69536359  0.20397917  1
  O  O20  1  0.32875483  0.68805493  0.72978444  1
  O  O21  1  0.67124517  0.31194507  0.27021556  1
  O  O22  1  0.13740185  0.95347307  0.73747621  1
  O  O23  1  0.86259815  0.04652693  0.26252379  1
  O  O24  1  0.96025884  0.15343268  0.72333244  1
  O  O25  1  0.03974116  0.84656732  0.27666756  1
  O  O26  1  0.56721531  0.78723821  0.54133481  1
  O  O27  1  0.43278469  0.21276179  0.45866519  1
  O  O28  1  0.82616472  0.52045412  0.00367469  1
  O  O29  1  0.17383528  0.47954588  0.99632531  1
  O  O30  1  0.71883163  0.91990679  0.39101682  1
  O  O31  1  0.28116837  0.08009321  0.60898318  1
  O  O32  1  0.25354771  0.70919475  0.89225149  1
  O  O33  1  0.74645229  0.29080525  0.10774851  1
  O  O34  1  0.27934133  0.01469768  0.21491759  1
  O  O35  1  0.72065867  0.98530232  0.78508241  1
  O  O36  1  0.00000000  -0.00000000  0.50000000  1
  O  O37  1  0.49606535  0.81502071  0.99065337  1
  O  O38  1  0.50393465  0.18497929  0.00934663  1
  O  O39  1  0.92359454  0.50973553  0.60033900  1
  O  O40  1  0.07640546  0.49026447  0.39966100  1
  O  O41  1  0.84760579  0.70018613  0.73956084  1
  O  O42  1  0.15239421  0.29981387  0.26043916  1
  O  O43  1  0.57690208  0.51645294  0.91799774  1
  O  O44  1  0.42309792  0.48354706  0.08200226  1
  O  O45  1  0.76998491  0.45180561  0.66835796  1
  O  O46  1  0.23001509  0.54819439  0.33164204  1
