# generated using pymatgen
data_Li3CrO4
_symmetry_space_group_name_H-M   'P 1'
_cell_length_a   5.09157832
_cell_length_b   5.83664552
_cell_length_c   4.95354451
_cell_angle_alpha   90.00000000
_cell_angle_beta   109.94991936
_cell_angle_gamma   90.00000000
_symmetry_Int_Tables_number   1
_chemical_formula_structural   Li3CrO4
_chemical_formula_sum   'Li6 Cr2 O8'
_cell_volume   138.37435506
_cell_formula_units_Z   2
loop_
 _symmetry_equiv_pos_site_id
 _symmetry_equiv_pos_as_xyz
  1  'x, y, z'
loop_
 _atom_site_type_symbol
 _atom_site_label
 _atom_site_symmetry_multiplicity
 _atom_site_fract_x
 _atom_site_fract_y
 _atom_site_fract_z
 _atom_site_occupancy
  Li  Li0  1  0.00000000  0.36809520  0.75000000  1
  Li  Li1  1  0.00000000  0.63190480  0.25000000  1
  Li  Li2  1  0.50000000  0.61384999  0.75000000  1
  Li  Li3  1  0.50000000  0.12045802  0.75000000  1
  Li  Li4  1  0.50000000  0.38615001  0.25000000  1
  Li  Li5  1  0.50000000  0.87954198  0.25000000  1
  Cr  Cr6  1  0.00000000  0.84514207  0.75000000  1
  Cr  Cr7  1  0.00000000  0.15485793  0.25000000  1
  O  O8  1  0.23720856  0.64381212  0.97475124  1
  O  O9  1  0.21620594  0.89446817  0.51035645  1
  O  O10  1  0.23720856  0.35618788  0.47475124  1
  O  O11  1  0.21620594  0.10553183  0.01035645  1
  O  O12  1  0.78379406  0.89446817  0.98964355  1
  O  O13  1  0.76279144  0.64381212  0.52524876  1
  O  O14  1  0.78379406  0.10553183  0.48964355  1
  O  O15  1  0.76279144  0.35618788  0.02524876  1
