# generated using pymatgen
data_Li4Ti3Cr3(CoO8)2
_symmetry_space_group_name_H-M   'P 1'
_cell_length_a   5.90237344
_cell_length_b   5.91197091
_cell_length_c   9.58197952
_cell_angle_alpha   90.49907626
_cell_angle_beta   89.97056739
_cell_angle_gamma   119.76653971
_symmetry_Int_Tables_number   1
_chemical_formula_structural   Li4Ti3Cr3(CoO8)2
_chemical_formula_sum   'Li4 Ti3 Cr3 Co2 O16'
_cell_volume   290.22916968
_cell_formula_units_Z   1
loop_
 _symmetry_equiv_pos_site_id
 _symmetry_equiv_pos_as_xyz
  1  'x, y, z'
loop_
 _atom_site_type_symbol
 _atom_site_label
 _atom_site_symmetry_multiplicity
 _atom_site_fract_x
 _atom_site_fract_y
 _atom_site_fract_z
 _atom_site_occupancy
  Li  Li0  1  0.33326296  0.66378051  0.89287047  1
  Li  Li1  1  0.99105555  0.99544994  0.99451021  1
  Li  Li2  1  0.00140548  0.99952194  0.49746018  1
  Li  Li3  1  0.66453586  0.33296666  0.39531702  1
  Ti  Ti4  1  0.17108814  0.83490803  0.21271789  1
  Ti  Ti5  1  0.16857265  0.33969195  0.21510016  1
  Ti  Ti6  1  0.34874411  0.16808646  0.71971171  1
  Cr  Cr7  1  0.65708238  0.82901898  0.21411504  1
  Cr  Cr8  1  0.83053663  0.65922843  0.71377865  1
  Cr  Cr9  1  0.83964483  0.17124739  0.70844663  1
  Co  Co10  1  0.32928836  0.67538141  0.48859349  1
  Co  Co11  1  0.67838164  0.33678817  0.98829509  1
  O  O12  1  0.17300844  0.83842877  0.59849816  1
  O  O13  1  0.03455182  0.51919808  0.33463494  1
  O  O14  1  0.32263244  0.65902386  0.10295400  1
  O  O15  1  0.00044788  0.00321427  0.31098209  1
  O  O16  1  0.00723987  0.00424037  0.80889471  1
  O  O17  1  0.15906467  0.32696566  0.60532451  1
  O  O18  1  0.47272401  0.96316072  0.33730678  1
  O  O19  1  0.47005567  0.51724629  0.34285608  1
  O  O20  1  0.32693438  0.16359575  0.10416588  1
  O  O21  1  0.67675371  0.84936463  0.60577571  1
  O  O22  1  0.51792447  0.47310065  0.84283625  1
  O  O23  1  0.52262281  0.03615081  0.83520197  1
  O  O24  1  0.65896820  0.32688709  0.60294078  1
  O  O25  1  0.84384731  0.67286759  0.10117106  1
  O  O26  1  0.96018250  0.46916646  0.83314442  1
  O  O27  1  0.83944422  0.17162113  0.10023412  1
