# generated using pymatgen
data_Li4Ti4V4CoO18
_symmetry_space_group_name_H-M   'P 1'
_cell_length_a   9.28099891
_cell_length_b   24.36862441
_cell_length_c   2.97834795
_cell_angle_alpha   90.00004438
_cell_angle_beta   90.00001200
_cell_angle_gamma   89.99375578
_symmetry_Int_Tables_number   1
_chemical_formula_structural   Li4Ti4V4CoO18
_chemical_formula_sum   'Li8 Ti8 V8 Co2 O36'
_cell_volume   673.59858614
_cell_formula_units_Z   2
loop_
 _symmetry_equiv_pos_site_id
 _symmetry_equiv_pos_as_xyz
  1  'x, y, z'
loop_
 _atom_site_type_symbol
 _atom_site_label
 _atom_site_symmetry_multiplicity
 _atom_site_fract_x
 _atom_site_fract_y
 _atom_site_fract_z
 _atom_site_occupancy
  Li  Li0  1  0.19647600  0.99274316  0.99999990  1
  Li  Li1  1  0.18663955  0.18992396  0.99999983  1
  Li  Li2  1  0.31297910  0.68991373  0.00000032  1
  Li  Li3  1  0.30454261  0.49291250  0.99999978  1
  Li  Li4  1  0.69549528  0.50711199  0.99999988  1
  Li  Li5  1  0.68678158  0.31003817  0.99999955  1
  Li  Li6  1  0.81332660  0.81012992  0.00000036  1
  Li  Li7  1  0.80366582  0.00725061  0.00000054  1
  Ti  Ti8  1  0.98568203  0.10070355  0.99999860  1
  Ti  Ti9  1  0.16885271  0.80555678  0.49999942  1
  Ti  Ti10  1  0.33113673  0.30560489  0.49999972  1
  Ti  Ti11  1  0.51404951  0.60070521  0.00000197  1
  Ti  Ti12  1  0.48591144  0.39928699  0.99999894  1
  Ti  Ti13  1  0.66888231  0.69437584  0.50000135  1
  Ti  Ti14  1  0.83119090  0.19442617  0.49999899  1
  Ti  Ti15  1  0.01434258  0.89929086  0.00000128  1
  V  V16  1  0.98960456  0.31831836  0.00000068  1
  V  V17  1  0.16210950  0.58756406  0.49999929  1
  V  V18  1  0.33724658  0.08748554  0.50000246  1
  V  V19  1  0.51035981  0.81827009  -0.00000001  1
  V  V20  1  0.48968415  0.18170494  0.00000049  1
  V  V21  1  0.66272926  0.91252839  0.49999754  1
  V  V22  1  0.83776035  0.41251074  0.49999958  1
  V  V23  1  0.01032381  0.68164710  0.99999819  1
  Co  Co24  1  0.00007682  0.49997777  0.00000010  1
  Co  Co25  1  0.50008270  -0.00000052  0.00000165  1
  O  O26  1  0.97916207  0.40416875  0.00000192  1
  O  O27  1  0.02068133  0.59581724  0.99999921  1
  O  O28  1  0.06834147  0.94482716  0.50000082  1
  O  O29  1  0.03007520  0.15800290  0.50000076  1
  O  O30  1  0.16248711  0.66532714  0.49999872  1
  O  O31  1  0.12094693  0.75527593  0.99999949  1
  O  O32  1  0.14854200  0.51035640  0.50000083  1
  O  O33  1  0.12463039  0.29564073  0.50000032  1
  O  O34  1  0.19454951  0.85813960  -0.00000081  1
  O  O35  1  0.19192000  0.08235535  0.00000205  1
  O  O36  1  0.30777375  0.58222466  0.00000027  1
  O  O37  1  0.30553368  0.35816873  0.99999877  1
  O  O38  1  0.37549922  0.79564813  0.49999844  1
  O  O39  1  0.35070756  0.01033271  0.49999962  1
  O  O40  1  0.37929630  0.25533308  0.99999968  1
  O  O41  1  0.33795517  0.16526144  0.50000166  1
  O  O42  1  0.46993106  0.65790983  0.49999974  1
  O  O43  1  0.43154841  0.44491118  0.49999880  1
  O  O44  1  0.47916342  0.09550743  0.00000348  1
  O  O45  1  0.52080973  0.90450970  0.99999820  1
  O  O46  1  0.56836921  0.55508673  0.50000040  1
  O  O47  1  0.53013161  0.34208557  0.50000032  1
  O  O48  1  0.66202647  0.83474359  0.49999951  1
  O  O49  1  0.62090372  0.74466073  0.00000023  1
  O  O50  1  0.64936113  0.98969326  0.50000273  1
  O  O51  1  0.62457716  0.20437048  0.49999977  1
  O  O52  1  0.69451838  0.64179002  0.00000045  1
  O  O53  1  0.69207828  0.41782728  -0.00000013  1
  O  O54  1  0.80808211  0.91763248  0.00000039  1
  O  O55  1  0.80541530  0.14184339  0.99999947  1
  O  O56  1  0.87536977  0.70430227  0.49999940  1
  O  O57  1  0.85134225  0.48969569  0.49999743  1
  O  O58  1  0.87911613  0.24470970  0.99999918  1
  O  O59  1  0.83767044  0.33471904  0.50000076  1
  O  O60  1  0.96988327  0.84197219  0.49999845  1
  O  O61  1  0.93166917  0.05516870  0.49999927  1
