# generated using pymatgen
data_Li3Cr(BO3)2
_symmetry_space_group_name_H-M   'P 1'
_cell_length_a   5.21575045
_cell_length_b   6.05078569
_cell_length_c   7.57220900
_cell_angle_alpha   76.02969349
_cell_angle_beta   89.21948813
_cell_angle_gamma   87.89172810
_symmetry_Int_Tables_number   1
_chemical_formula_structural   Li3Cr(BO3)2
_chemical_formula_sum   'Li6 Cr2 B4 O12'
_cell_volume   231.74590846
_cell_formula_units_Z   2
loop_
 _symmetry_equiv_pos_site_id
 _symmetry_equiv_pos_as_xyz
  1  'x, y, z'
loop_
 _atom_site_type_symbol
 _atom_site_label
 _atom_site_symmetry_multiplicity
 _atom_site_fract_x
 _atom_site_fract_y
 _atom_site_fract_z
 _atom_site_occupancy
  Li  Li0  1  0.18765682  0.91843539  0.89973694  1
  Li  Li1  1  0.31206760  0.05063329  0.24802877  1
  Li  Li2  1  0.37275123  0.75349587  0.56484605  1
  Li  Li3  1  0.62724877  0.24650413  0.43515395  1
  Li  Li4  1  0.68793240  0.94936671  0.75197123  1
  Li  Li5  1  0.81234318  0.08156461  0.10026306  1
  Cr  Cr6  1  0.10236286  0.57110174  0.21782435  1
  Cr  Cr7  1  0.89763714  0.42889826  0.78217565  1
  B  B8  1  0.16882296  0.18311655  0.56290267  1
  B  B9  1  0.34281082  0.34108697  0.88780225  1
  B  B10  1  0.65718918  0.65891303  0.11219775  1
  B  B11  1  0.83117704  0.81688345  0.43709733  1
  O  O12  1  0.08342015  0.78992151  0.37043600  1
  O  O13  1  0.25467488  0.50845997  0.74268261  1
  O  O14  1  0.14028280  0.22743059  0.99660198  1
  O  O15  1  0.24328135  0.29910972  0.38864167  1
  O  O16  1  0.33693119  0.02841832  0.66454298  1
  O  O17  1  0.40540114  0.71490839  0.07683421  1
  O  O18  1  0.59459886  0.28509161  0.92316579  1
  O  O19  1  0.66306881  0.97158168  0.33545702  1
  O  O20  1  0.75671865  0.70089028  0.61135833  1
  O  O21  1  0.85971720  0.77256941  0.00339802  1
  O  O22  1  0.74532512  0.49154003  0.25731739  1
  O  O23  1  0.91657985  0.21007849  0.62956400  1
