# generated using pymatgen
data_Eu2NiO4
_symmetry_space_group_name_H-M   'P 1'
_cell_length_a   6.68509773
_cell_length_b   6.68389100
_cell_length_c   5.36896485
_cell_angle_alpha   90.00000000
_cell_angle_beta   66.32412562
_cell_angle_gamma   32.98181244
_symmetry_Int_Tables_number   1
_chemical_formula_structural   Eu2NiO4
_chemical_formula_sum   'Eu2 Ni1 O4'
_cell_volume   88.17359521
_cell_formula_units_Z   1
loop_
 _symmetry_equiv_pos_site_id
 _symmetry_equiv_pos_as_xyz
  1  'x, y, z'
loop_
 _atom_site_type_symbol
 _atom_site_label
 _atom_site_symmetry_multiplicity
 _atom_site_fract_x
 _atom_site_fract_y
 _atom_site_fract_z
 _atom_site_occupancy
  Eu  Eu0  1  0.27948605  0.00046485  0.35911331  1
  Eu  Eu1  1  0.72051395  0.99953515  0.63859935  1
  Ni  Ni2  1  0.00000000  0.00000000  0.00276405  1
  O  O3  1  0.50146488  0.49671605  0.00041918  1
  O  O4  1  0.49853512  0.50328395  0.50188406  1
  O  O5  1  0.34586522  0.99916886  0.83504441  1
  O  O6  1  0.65413478  0.00083114  0.18090864  1
