# generated using pymatgen
data_BaLaCl5
_symmetry_space_group_name_H-M   'P 1'
_cell_length_a   11.18832725
_cell_length_b   7.25701821
_cell_length_c   10.26859648
_cell_angle_alpha   90.00000000
_cell_angle_beta   90.00000000
_cell_angle_gamma   90.00000000
_symmetry_Int_Tables_number   1
_chemical_formula_structural   BaLaCl5
_chemical_formula_sum   'Ba4 La4 Cl20'
_cell_volume   833.74734021
_cell_formula_units_Z   4
loop_
 _symmetry_equiv_pos_site_id
 _symmetry_equiv_pos_as_xyz
  1  'x, y, z'
loop_
 _atom_site_type_symbol
 _atom_site_label
 _atom_site_symmetry_multiplicity
 _atom_site_fract_x
 _atom_site_fract_y
 _atom_site_fract_z
 _atom_site_occupancy
  Ba  Ba0  1  0.17023192  0.25000000  0.62221002  1
  Ba  Ba1  1  0.32976808  0.75000000  0.12221002  1
  Ba  Ba2  1  0.67023192  0.25000000  0.87778998  1
  Ba  Ba3  1  0.82976808  0.75000000  0.37778998  1
  La  La4  1  0.03014320  0.25000000  0.15237151  1
  La  La5  1  0.46985680  0.75000000  0.65237151  1
  La  La6  1  0.53014320  0.25000000  0.34762849  1
  La  La7  1  0.96985680  0.75000000  0.84762849  1
  Cl  Cl8  1  0.06294656  0.98172722  0.33853885  1
  Cl  Cl9  1  0.06294656  0.51827278  0.33853885  1
  Cl  Cl10  1  0.14325509  0.00067443  0.96368147  1
  Cl  Cl11  1  0.14325509  0.49932557  0.96368147  1
  Cl  Cl12  1  0.29592047  0.25000000  0.19034416  1
  Cl  Cl13  1  0.20407953  0.75000000  0.69034416  1
  Cl  Cl14  1  0.35674491  0.99932557  0.46368147  1
  Cl  Cl15  1  0.35674491  0.50067443  0.46368147  1
  Cl  Cl16  1  0.43705344  0.01827278  0.83853885  1
  Cl  Cl17  1  0.43705344  0.48172722  0.83853885  1
  Cl  Cl18  1  0.56294656  0.98172722  0.16146115  1
  Cl  Cl19  1  0.56294656  0.51827278  0.16146115  1
  Cl  Cl20  1  0.64325509  0.00067443  0.53631853  1
  Cl  Cl21  1  0.64325509  0.49932557  0.53631853  1
  Cl  Cl22  1  0.79592047  0.25000000  0.30965584  1
  Cl  Cl23  1  0.70407953  0.75000000  0.80965584  1
  Cl  Cl24  1  0.85674491  0.50067443  0.03631853  1
  Cl  Cl25  1  0.85674491  0.99932557  0.03631853  1
  Cl  Cl26  1  0.93705344  0.48172722  0.66146115  1
  Cl  Cl27  1  0.93705344  0.01827278  0.66146115  1
