# generated using pymatgen
data_Li3NbV3O8
_symmetry_space_group_name_H-M   'P 1'
_cell_length_a   10.63112433
_cell_length_b   10.60169169
_cell_length_c   15.03109607
_cell_angle_alpha   19.33695697
_cell_angle_beta   19.34727746
_cell_angle_gamma   33.32153237
_symmetry_Int_Tables_number   1
_chemical_formula_structural   Li3NbV3O8
_chemical_formula_sum   'Li3 Nb1 V3 O8'
_cell_volume   161.09061902
_cell_formula_units_Z   1
loop_
 _symmetry_equiv_pos_site_id
 _symmetry_equiv_pos_as_xyz
  1  'x, y, z'
loop_
 _atom_site_type_symbol
 _atom_site_label
 _atom_site_symmetry_multiplicity
 _atom_site_fract_x
 _atom_site_fract_y
 _atom_site_fract_z
 _atom_site_occupancy
  Li  Li0  1  0.00001231  0.49999549  0.49999673  1
  Li  Li1  1  0.49999187  0.00001357  0.49999964  1
  Li  Li2  1  0.50001299  0.50001299  0.49998171  1
  Nb  Nb3  1  0.99998025  0.99998434  0.00002686  1
  V  V4  1  0.00000785  0.50000430  0.99999170  1
  V  V5  1  0.50000081  0.99999503  0.00000189  1
  V  V6  1  0.49999597  0.50000223  -0.00000054  1
  O  O7  1  0.00031937  0.97762480  0.27419005  1
  O  O8  1  0.00009154  0.52333611  0.24219102  1
  O  O9  1  0.52892482  0.01508787  0.22934862  1
  O  O10  1  0.99968867  0.02237864  0.72580310  1
  O  O11  1  0.47157915  0.48636553  0.28672407  1
  O  O12  1  0.99990144  0.47666215  0.75781375  1
  O  O13  1  0.47107625  0.98491892  0.77063883  1
  O  O14  1  0.52841772  0.51361802  0.71329259  1
