# generated using pymatgen
data_Ag2Hg3
_symmetry_space_group_name_H-M   'P 1'
_cell_length_a   8.95583782
_cell_length_b   8.93220587
_cell_length_c   14.60412779
_cell_angle_alpha   90.55386685
_cell_angle_beta   90.35920860
_cell_angle_gamma   109.79762549
_symmetry_Int_Tables_number   1
_chemical_formula_structural   Ag2Hg3
_chemical_formula_sum   'Ag20 Hg30'
_cell_volume   1099.10454969
_cell_formula_units_Z   10
loop_
 _symmetry_equiv_pos_site_id
 _symmetry_equiv_pos_as_xyz
  1  'x, y, z'
loop_
 _atom_site_type_symbol
 _atom_site_label
 _atom_site_symmetry_multiplicity
 _atom_site_fract_x
 _atom_site_fract_y
 _atom_site_fract_z
 _atom_site_occupancy
  Ag  Ag0  1  0.33130280  0.99599545  0.00017367  1
  Ag  Ag1  1  0.81851645  0.18661488  0.17410621  1
  Ag  Ag2  1  0.35904217  0.35418311  0.99778413  1
  Ag  Ag3  1  0.64183751  0.64280995  0.00057882  1
  Ag  Ag4  1  0.67412725  0.31703921  0.32439478  1
  Ag  Ag5  1  0.00804537  0.33627569  0.99820884  1
  Ag  Ag6  1  0.83056472  0.82855863  0.16584330  1
  Ag  Ag7  1  0.83690152  0.50383635  0.49585304  1
  Ag  Ag8  1  0.33057998  0.33382853  0.32935827  1
  Ag  Ag9  1  0.14564837  0.14481977  0.49950218  1
  Ag  Ag10  1  0.85559618  0.85866839  0.50144185  1
  Ag  Ag11  1  0.17891553  0.82070693  0.17729756  1
  Ag  Ag12  1  0.32165431  0.67211236  0.32170042  1
  Ag  Ag13  1  0.69327859  0.33254998  0.67907845  1
  Ag  Ag14  1  0.81716863  0.17485604  0.82566233  1
  Ag  Ag15  1  0.49764972  0.83484153  0.49822073  1
  Ag  Ag16  1  0.32870899  0.33459165  0.66724782  1
  Ag  Ag17  1  0.83449454  0.83319819  0.82957894  1
  Ag  Ag18  1  0.32198098  0.68104344  0.67945358  1
  Ag  Ag19  1  0.17545171  0.82083135  0.82361374  1
  Hg  Hg20  1  0.76912455  0.99982351  0.00077720  1
  Hg  Hg21  1  0.47908477  0.20833663  0.16098924  1
  Hg  Hg22  1  0.11983681  0.12152218  0.11939334  1
  Hg  Hg23  1  0.92621114  0.62666667  0.29608557  1
  Hg  Hg24  1  0.38831708  0.01792760  0.34623319  1
  Hg  Hg25  1  0.52455782  0.55123787  0.18354908  1
  Hg  Hg26  1  0.28188932  0.64771408  0.01660604  1
  Hg  Hg27  1  0.81189011  0.17405101  0.53429873  1
  Hg  Hg28  1  0.05026045  0.00195349  0.31665302  1
  Hg  Hg29  1  0.12192173  0.45791097  0.18201131  1
  Hg  Hg30  1  0.52002115  0.88556982  0.15461084  1
  Hg  Hg31  1  0.50263654  0.26842592  0.50278639  1
  Hg  Hg32  1  0.98523770  0.74364494  0.00699080  1
  Hg  Hg33  1  0.61231711  0.61608800  0.38614138  1
  Hg  Hg34  1  0.71115291  0.97945445  0.34021405  1
  Hg  Hg35  1  0.32073550  0.99942877  0.63269232  1
  Hg  Hg36  1  0.99907324  0.32631453  0.36675329  1
  Hg  Hg37  1  0.97910388  0.68312762  0.66154062  1
  Hg  Hg38  1  0.25011950  0.49392603  0.50981559  1
  Hg  Hg39  1  0.61916838  0.61918402  0.61723241  1
  Hg  Hg40  1  0.46076521  0.14759299  0.81990779  1
  Hg  Hg41  1  0.88695669  0.51641810  0.84140419  1
  Hg  Hg42  1  0.01276082  0.07615939  0.68378140  1
  Hg  Hg43  1  0.54719907  0.50812705  0.81702860  1
  Hg  Hg44  1  0.14541632  0.77820743  0.47359085  1
  Hg  Hg45  1  0.67735894  0.31483920  0.99543109  1
  Hg  Hg46  1  0.64157047  0.95138648  0.68253606  1
  Hg  Hg47  1  0.11662457  0.11003298  0.88481097  1
  Hg  Hg48  1  0.18994277  0.45445102  0.82252016  1
  Hg  Hg49  1  0.49825514  0.82519981  0.86761081  1
