# generated using pymatgen
data_NiP4
_symmetry_space_group_name_H-M   'P 1'
_cell_length_a   5.20631564
_cell_length_b   5.90323123
_cell_length_c   11.33127867
_cell_angle_alpha   88.51986293
_cell_angle_beta   93.27894442
_cell_angle_gamma   116.08336204
_symmetry_Int_Tables_number   1
_chemical_formula_structural   NiP4
_chemical_formula_sum   'Ni4 P16'
_cell_volume   312.27624705
_cell_formula_units_Z   4
loop_
 _symmetry_equiv_pos_site_id
 _symmetry_equiv_pos_as_xyz
  1  'x, y, z'
loop_
 _atom_site_type_symbol
 _atom_site_label
 _atom_site_symmetry_multiplicity
 _atom_site_fract_x
 _atom_site_fract_y
 _atom_site_fract_z
 _atom_site_occupancy
  Ni  Ni0  1  0.99484461  0.49983289  0.00114409  1
  Ni  Ni1  1  0.07782617  0.15558274  0.25018769  1
  Ni  Ni2  1  0.49873735  0.49985271  0.50016677  1
  Ni  Ni3  1  0.92022622  0.84012893  0.74996962  1
  P  P4  1  0.06663021  0.51886452  0.78999080  1
  P  P5  1  0.23228494  0.85745086  0.28585678  1
  P  P6  1  0.33180737  0.79792722  0.47733311  1
  P  P7  1  0.04395595  0.18336025  0.45297798  1
  P  P8  1  0.13348006  0.18235712  0.04660982  1
  P  P9  1  0.45816974  0.79699298  0.02357580  1
  P  P10  1  0.45147385  0.51847370  0.71140947  1
  P  P11  1  0.62376593  0.85635893  0.21516995  1
  P  P12  1  0.37384727  0.13852096  0.78428223  1
  P  P13  1  0.54607563  0.47842508  0.29021248  1
  P  P14  1  0.53208537  0.20192272  0.97608946  1
  P  P15  1  0.85853862  0.81665657  0.95287476  1
  P  P16  1  0.95279602  0.81802564  0.54676210  1
  P  P17  1  0.66417538  0.20247800  0.52379987  1
  P  P18  1  0.76770118  0.14028063  0.71468444  1
  P  P19  1  0.93066312  0.47743756  0.21253778  1
