# generated using pymatgen
data_Nd6N8O33
_symmetry_space_group_name_H-M   'P 1'
_cell_length_a   9.86538541
_cell_length_b   9.59501131
_cell_length_c   11.07150143
_cell_angle_alpha   118.34872757
_cell_angle_beta   118.69575957
_cell_angle_gamma   88.17341473
_symmetry_Int_Tables_number   1
_chemical_formula_structural   Nd6N8O33
_chemical_formula_sum   'Nd6 N8 O33'
_cell_volume   782.50490634
_cell_formula_units_Z   1
loop_
 _symmetry_equiv_pos_site_id
 _symmetry_equiv_pos_as_xyz
  1  'x, y, z'
loop_
 _atom_site_type_symbol
 _atom_site_label
 _atom_site_symmetry_multiplicity
 _atom_site_fract_x
 _atom_site_fract_y
 _atom_site_fract_z
 _atom_site_occupancy
  Nd  Nd0  1  0.86174032  0.87842027  0.61786803  1
  Nd  Nd1  1  0.13825968  0.12157973  0.38213197  1
  Nd  Nd2  1  0.75716113  0.76893464  0.17876305  1
  Nd  Nd3  1  0.24283887  0.23106536  0.82123695  1
  Nd  Nd4  1  0.16187380  0.80226543  0.49457580  1
  Nd  Nd5  1  0.83812620  0.19773457  0.50542420  1
  N  N6  1  0.37025243  0.74510639  0.87625913  1
  N  N7  1  0.62974757  0.25489361  0.12374087  1
  N  N8  1  0.58754431  0.88818101  0.67240713  1
  N  N9  1  0.41245569  0.11181899  0.32759287  1
  N  N10  1  0.85499728  0.56348384  0.67558712  1
  N  N11  1  0.14500272  0.43651616  0.32441288  1
  N  N12  1  0.68435977  0.42964623  0.90105264  1
  N  N13  1  0.31564023  0.57035377  0.09894736  1
  O  O14  1  0.88122425  0.71377035  0.38891638  1
  O  O15  1  0.11877575  0.28622965  0.61108362  1
  O  O16  1  0.47233785  0.89220163  0.69243208  1
  O  O17  1  0.52766215  0.10779837  0.30756792  1
  O  O18  1  0.65520553  0.28949255  0.79102679  1
  O  O19  1  0.34479447  0.71050745  0.20897321  1
  O  O20  1  0.33276143  0.69114622  0.73349330  1
  O  O21  1  0.66723857  0.30885378  0.26650670  1
  O  O22  1  0.14174298  0.95344466  0.72722485  1
  O  O23  1  0.85825702  0.04655534  0.27277515  1
  O  O24  1  0.96910717  0.15561530  0.72867736  1
  O  O25  1  0.03089283  0.84438470  0.27132264  1
  O  O26  1  0.56842632  0.78921035  0.53458853  1
  O  O27  1  0.43157368  0.21078965  0.46541147  1
  O  O28  1  0.82689466  0.51740321  0.01197089  1
  O  O29  1  0.17310534  0.48259679  0.98802911  1
  O  O30  1  0.71796292  0.91698411  0.39735703  1
  O  O31  1  0.28203708  0.08301589  0.60264297  1
  O  O32  1  0.26844518  0.72413302  0.90588404  1
  O  O33  1  0.73155482  0.27586698  0.09411596  1
  O  O34  1  0.27541012  0.01722083  0.21183716  1
  O  O35  1  0.72458988  0.98277917  0.78816284  1
  O  O36  1  0.00000000  -0.00000000  0.50000000  1
  O  O37  1  0.51420483  0.82274084  0.99104224  1
  O  O38  1  0.48579517  0.17725916  0.00895776  1
  O  O39  1  0.92057110  0.51138440  0.59320548  1
  O  O40  1  0.07942890  0.48861560  0.40679452  1
  O  O41  1  0.85449741  0.71299071  0.74273788  1
  O  O42  1  0.14550259  0.28700929  0.25726212  1
  O  O43  1  0.57075180  0.49569290  0.91081668  1
  O  O44  1  0.42924820  0.50430710  0.08918332  1
  O  O45  1  0.78868814  0.46424908  0.68818725  1
  O  O46  1  0.21131186  0.53575092  0.31181275  1
