# generated using pymatgen
data_Li2AlCoO4
_symmetry_space_group_name_H-M   'P 1'
_cell_length_a   6.19974319
_cell_length_b   11.03989403
_cell_length_c   5.18502317
_cell_angle_alpha   90.00257499
_cell_angle_beta   89.99996860
_cell_angle_gamma   89.99995567
_symmetry_Int_Tables_number   1
_chemical_formula_structural   Li2AlCoO4
_chemical_formula_sum   'Li8 Al4 Co4 O16'
_cell_volume   354.88635878
_cell_formula_units_Z   4
loop_
 _symmetry_equiv_pos_site_id
 _symmetry_equiv_pos_as_xyz
  1  'x, y, z'
loop_
 _atom_site_type_symbol
 _atom_site_label
 _atom_site_symmetry_multiplicity
 _atom_site_fract_x
 _atom_site_fract_y
 _atom_site_fract_z
 _atom_site_occupancy
  Li  Li0  1  0.98982314  0.33091330  0.19499776  1
  Li  Li1  1  0.98983033  0.83088452  0.30498306  1
  Li  Li2  1  0.51017734  0.33091357  0.19499764  1
  Li  Li3  1  0.51017068  0.83088491  0.30498663  1
  Li  Li4  1  0.48987677  0.16910276  0.69494969  1
  Li  Li5  1  0.48987762  0.66908439  0.80508358  1
  Li  Li6  1  0.01012260  0.66908345  0.80508553  1
  Li  Li7  1  0.01012338  0.16910202  0.69495014  1
  Al  Al8  1  0.25000030  0.07898424  0.18216043  1
  Al  Al9  1  0.24999943  0.57896319  0.31785623  1
  Al  Al10  1  0.75000253  0.42103964  0.68217027  1
  Al  Al11  1  0.74999908  0.92103415  0.81781809  1
  Co  Co12  1  0.24999989  0.41865229  0.82081018  1
  Co  Co13  1  0.24999830  0.91865859  0.67916931  1
  Co  Co14  1  0.74999987  0.08134282  0.32078121  1
  Co  Co15  1  0.74999891  0.58134614  0.17924217  1
  O  O16  1  0.01457224  0.15889965  0.28393359  1
  O  O17  1  0.01458252  0.65888417  0.21605775  1
  O  O18  1  0.25000060  0.07180597  0.83909825  1
  O  O19  1  0.24999965  0.43124883  0.18640609  1
  O  O20  1  0.25000011  0.93125612  0.31359061  1
  O  O21  1  0.24999996  0.57180596  0.66091072  1
  O  O22  1  0.48542786  0.15890040  0.28393389  1
  O  O23  1  0.48541574  0.65888498  0.21605889  1
  O  O24  1  0.51457076  0.84110265  0.71605694  1
  O  O25  1  0.51458204  0.34112172  0.78392327  1
  O  O26  1  0.75000060  0.06874610  0.68639495  1
  O  O27  1  0.75000109  0.42819319  0.33910407  1
  O  O28  1  0.74999996  0.56876011  0.81362169  1
  O  O29  1  0.74999989  0.92817795  0.16088688  1
  O  O30  1  0.98541904  0.34112046  0.78392346  1
  O  O31  1  0.98542776  0.84110177  0.71605704  1
