# generated using pymatgen
data_Li4Co2C4SO16
_symmetry_space_group_name_H-M   'P 1'
_cell_length_a   9.56484310
_cell_length_b   9.22603983
_cell_length_c   9.56484266
_cell_angle_alpha   61.62136789
_cell_angle_beta   94.76559256
_cell_angle_gamma   61.62136748
_symmetry_Int_Tables_number   1
_chemical_formula_structural   Li4Co2C4SO16
_chemical_formula_sum   'Li8 Co4 C8 S2 O32'
_cell_volume   599.07053320
_cell_formula_units_Z   2
loop_
 _symmetry_equiv_pos_site_id
 _symmetry_equiv_pos_as_xyz
  1  'x, y, z'
loop_
 _atom_site_type_symbol
 _atom_site_label
 _atom_site_symmetry_multiplicity
 _atom_site_fract_x
 _atom_site_fract_y
 _atom_site_fract_z
 _atom_site_occupancy
  Li  Li0  1  0.08002417  0.83995167  0.83002417  1
  Li  Li1  1  0.08068527  0.25000000  0.83068527  1
  Li  Li2  1  0.33068527  0.75000000  0.58068527  1
  Li  Li3  1  0.33002417  0.33995167  0.58002417  1
  Li  Li4  1  0.66997583  0.66004833  0.41997583  1
  Li  Li5  1  0.66931473  0.25000000  0.41931473  1
  Li  Li6  1  0.91931473  0.75000000  0.16931473  1
  Li  Li7  1  0.91997583  0.16004833  0.16997583  1
  Co  Co8  1  0.00000000  0.50000000  0.00000000  1
  Co  Co9  1  0.50000000  0.00000000  0.50000000  1
  Co  Co10  1  0.50000000  0.50000000  0.00000000  1
  Co  Co11  1  0.50000000  0.00000000  0.00000000  1
  C  C12  1  0.34607472  0.93864204  0.76977547  1
  C  C13  1  0.26977547  0.43864204  0.84607472  1
  C  C14  1  0.71528324  0.93864204  0.79158249  1
  C  C15  1  0.70841751  0.56135796  0.78471676  1
  C  C16  1  0.29158249  0.43864204  0.21528324  1
  C  C17  1  0.28471676  0.06135796  0.20841751  1
  C  C18  1  0.73022453  0.56135796  0.15392528  1
  C  C19  1  0.65392528  0.06135796  0.23022453  1
  S  S20  1  0.12500000  0.75000000  0.37500000  1
  S  S21  1  0.87500000  0.25000000  0.62500000  1
  O  O22  1  0.33937211  0.79916206  0.89082809  1
  O  O23  1  0.06816961  0.88572357  0.43295911  1
  O  O24  1  0.35671857  0.94542843  0.63371381  1
  O  O25  1  0.13371381  0.44542843  0.85671857  1
  O  O26  1  0.69785300  0.94542843  0.92085776  1
  O  O27  1  0.28545256  0.57424379  0.83822111  1
  O  O28  1  0.04610682  0.88572357  0.18131733  1
  O  O29  1  0.06704089  0.61427643  0.43183039  1
  O  O30  1  0.41246490  0.92575621  0.35969735  1
  O  O31  1  0.57914224  0.55457157  0.80214700  1
  O  O32  1  0.39082809  0.29916206  0.83937211  1
  O  O33  1  0.31868267  0.61427643  0.45389318  1
  O  O34  1  0.86146583  0.79916206  0.81000985  1
  O  O35  1  0.68999015  0.70083794  0.63853417  1
  O  O36  1  0.33822111  0.07424379  0.78545256  1
  O  O37  1  0.14030265  0.57424379  0.08753510  1
  O  O38  1  0.85969735  0.42575621  0.91246490  1
  O  O39  1  0.66177889  0.92575621  0.21454744  1
  O  O40  1  0.31000985  0.29916206  0.36146583  1
  O  O41  1  0.13853417  0.20083794  0.18999015  1
  O  O42  1  0.68131733  0.38572357  0.54610682  1
  O  O43  1  0.60917191  0.70083794  0.16062789  1
  O  O44  1  0.42085776  0.44542843  0.19785300  1
  O  O45  1  0.58753510  0.07424379  0.64030265  1
  O  O46  1  0.93295911  0.38572357  0.56816961  1
  O  O47  1  0.95389318  0.11427643  0.81868267  1
  O  O48  1  0.71454744  0.42575621  0.16177889  1
  O  O49  1  0.30214700  0.05457157  0.07914224  1
  O  O50  1  0.86628619  0.55457157  0.14328143  1
  O  O51  1  0.64328143  0.05457157  0.36628619  1
  O  O52  1  0.93183039  0.11427643  0.56704089  1
  O  O53  1  0.66062789  0.20083794  0.10917191  1
