# generated using pymatgen
data_LiVBO4
_symmetry_space_group_name_H-M   'P 1'
_cell_length_a   9.29340251
_cell_length_b   8.33552456
_cell_length_c   5.22500395
_cell_angle_alpha   90.00000000
_cell_angle_beta   90.00000000
_cell_angle_gamma   123.88014914
_symmetry_Int_Tables_number   1
_chemical_formula_structural   LiVBO4
_chemical_formula_sum   'Li4 V4 B4 O16'
_cell_volume   336.03142842
_cell_formula_units_Z   4
loop_
 _symmetry_equiv_pos_site_id
 _symmetry_equiv_pos_as_xyz
  1  'x, y, z'
loop_
 _atom_site_type_symbol
 _atom_site_label
 _atom_site_symmetry_multiplicity
 _atom_site_fract_x
 _atom_site_fract_y
 _atom_site_fract_z
 _atom_site_occupancy
  Li  Li0  1  0.25014401  0.54942633  0.75824987  1
  Li  Li1  1  0.29928332  0.54942633  0.25824987  1
  Li  Li2  1  0.70071668  0.45057367  0.25824987  1
  Li  Li3  1  0.74985599  0.45057367  0.75824987  1
  V  V4  1  0.10209133  0.80432944  0.46911823  1
  V  V5  1  0.29776089  0.19567056  0.96911823  1
  V  V6  1  0.70223911  0.80432944  0.96911823  1
  V  V7  1  0.89790867  0.19567056  0.46911823  1
  B  B8  1  0.17728888  0.78755496  0.02355704  1
  B  B9  1  0.61026508  0.78755496  0.52355704  1
  B  B10  1  0.38973492  0.21244504  0.52355704  1
  B  B11  1  0.82271112  0.21244504  0.02355704  1
  O  O12  1  0.14717023  0.92820917  0.10743494  1
  O  O13  1  0.18552423  0.74037152  0.77785086  1
  O  O14  1  0.19573681  0.69953414  0.23474379  1
  O  O15  1  0.11306781  0.35025234  0.49553628  1
  O  O16  1  0.23718454  0.35025234  0.99553628  1
  O  O17  1  0.21896106  0.07179083  0.60743494  1
  O  O18  1  0.50379733  0.69953414  0.73474379  1
  O  O19  1  0.55484729  0.74037152  0.27785086  1
  O  O20  1  0.44515271  0.25962848  0.27785086  1
  O  O21  1  0.49620267  0.30046586  0.73474379  1
  O  O22  1  0.78103894  0.92820917  0.60743494  1
  O  O23  1  0.76281546  0.64974766  0.99553628  1
  O  O24  1  0.88693219  0.64974766  0.49553628  1
  O  O25  1  0.80426319  0.30046586  0.23474379  1
  O  O26  1  0.81447577  0.25962848  0.77785086  1
  O  O27  1  0.85282977  0.07179083  0.10743494  1
