# generated using pymatgen
data_RbLi2Ni2(BO3)3
_symmetry_space_group_name_H-M   'P 1'
_cell_length_a   6.37065610
_cell_length_b   5.00429520
_cell_length_c   12.90653433
_cell_angle_alpha   90.00000000
_cell_angle_beta   91.65427513
_cell_angle_gamma   90.00000000
_symmetry_Int_Tables_number   1
_chemical_formula_structural   RbLi2Ni2(BO3)3
_chemical_formula_sum   'Rb2 Li4 Ni4 B6 O18'
_cell_volume   411.29712983
_cell_formula_units_Z   2
loop_
 _symmetry_equiv_pos_site_id
 _symmetry_equiv_pos_as_xyz
  1  'x, y, z'
loop_
 _atom_site_type_symbol
 _atom_site_label
 _atom_site_symmetry_multiplicity
 _atom_site_fract_x
 _atom_site_fract_y
 _atom_site_fract_z
 _atom_site_occupancy
  Rb  Rb0  1  0.00000000  0.20951140  0.75000000  1
  Rb  Rb1  1  0.00000000  0.79048860  0.25000000  1
  Li  Li2  1  0.49609177  0.17314611  0.86748977  1
  Li  Li3  1  0.50390823  0.17314611  0.63251023  1
  Li  Li4  1  0.49609177  0.82685389  0.36748977  1
  Li  Li5  1  0.50390823  0.82685389  0.13251023  1
  Ni  Ni6  1  0.23171968  0.68441556  0.56560546  1
  Ni  Ni7  1  0.23171968  0.31558444  0.06560546  1
  Ni  Ni8  1  0.76828032  0.68441556  0.93439454  1
  Ni  Ni9  1  0.76828032  0.31558444  0.43439454  1
  B  B10  1  0.19336892  0.81722192  0.95889377  1
  B  B11  1  0.19336892  0.18277808  0.45889377  1
  B  B12  1  0.50000000  0.66472190  0.75000000  1
  B  B13  1  0.50000000  0.33527810  0.25000000  1
  B  B14  1  0.80663108  0.81722192  0.54110623  1
  B  B15  1  0.80663108  0.18277808  0.04110623  1
  O  O16  1  0.04290916  0.70351869  0.89330481  1
  O  O17  1  0.04290916  0.29648131  0.39330481  1
  O  O18  1  0.24128220  0.08662615  0.94982000  1
  O  O19  1  0.24128220  0.91337385  0.44982000  1
  O  O20  1  0.29985166  0.33199054  0.53346369  1
  O  O21  1  0.29985166  0.66800946  0.03346369  1
  O  O22  1  0.40336351  0.81953891  0.67120379  1
  O  O23  1  0.40336351  0.18046109  0.17120379  1
  O  O24  1  0.50000000  0.39755844  0.75000000  1
  O  O25  1  0.50000000  0.60244156  0.25000000  1
  O  O26  1  0.59663649  0.81953891  0.82879621  1
  O  O27  1  0.59663649  0.18046109  0.32879621  1
  O  O28  1  0.70014834  0.33199054  0.96653631  1
  O  O29  1  0.70014834  0.66800946  0.46653631  1
  O  O30  1  0.75871780  0.08662615  0.55018000  1
  O  O31  1  0.75871780  0.91337385  0.05018000  1
  O  O32  1  0.95709084  0.70351869  0.60669519  1
  O  O33  1  0.95709084  0.29648131  0.10669519  1
