# generated using pymatgen
data_Tb2WO6
_symmetry_space_group_name_H-M   'P 1'
_cell_length_a   5.65900121
_cell_length_b   5.42258667
_cell_length_c   8.26117300
_cell_angle_alpha   90.02321735
_cell_angle_beta   95.39127520
_cell_angle_gamma   90.07846186
_symmetry_Int_Tables_number   1
_chemical_formula_structural   Tb2WO6
_chemical_formula_sum   'Tb4 W2 O12'
_cell_volume   252.38415079
_cell_formula_units_Z   2
loop_
 _symmetry_equiv_pos_site_id
 _symmetry_equiv_pos_as_xyz
  1  'x, y, z'
loop_
 _atom_site_type_symbol
 _atom_site_label
 _atom_site_symmetry_multiplicity
 _atom_site_fract_x
 _atom_site_fract_y
 _atom_site_fract_z
 _atom_site_occupancy
  Tb  Tb0  1  0.24433127  0.53482130  0.36655975  1
  Tb  Tb1  1  0.27385983  0.03500440  0.63567081  1
  Tb  Tb2  1  0.74676080  0.97739022  0.36603620  1
  Tb  Tb3  1  0.77161425  0.47762761  0.63641508  1
  W  W4  1  -0.00009703  0.93563161  0.97888957  1
  W  W5  1  0.51996266  0.43435270  0.02345335  1
  O  O6  1  0.04893797  0.84450304  0.19711958  1
  O  O7  1  0.26028483  0.79151742  0.90185518  1
  O  O8  1  0.01061162  0.25971999  0.47747117  1
  O  O9  1  0.50759089  0.75970933  0.52495437  1
  O  O10  1  0.25889759  0.28910556  0.10002643  1
  O  O11  1  0.46986091  0.34481958  0.80553395  1
  O  O12  1  0.55343274  0.67027140  0.18968013  1
  O  O13  1  0.77306861  0.69788663  0.90661253  1
  O  O14  1  0.51063841  0.25455441  0.47415550  1
  O  O15  1  0.74654012  0.19789941  0.09640155  1
  O  O16  1  0.00755457  0.75448529  0.52783718  1
  O  O17  1  0.96454997  0.17080008  0.81283767  1
