# generated using pymatgen
data_KAl2Si4(HO6)2
_symmetry_space_group_name_H-M   'P 1'
_cell_length_a   5.25650841
_cell_length_b   5.28205777
_cell_length_c   20.75477171
_cell_angle_alpha   86.98563398
_cell_angle_beta   83.93344248
_cell_angle_gamma   60.15987773
_symmetry_Int_Tables_number   1
_chemical_formula_structural   KAl2Si4(HO6)2
_chemical_formula_sum   'K2 Al4 Si8 H4 O24'
_cell_volume   497.05854188
_cell_formula_units_Z   2
loop_
 _symmetry_equiv_pos_site_id
 _symmetry_equiv_pos_as_xyz
  1  'x, y, z'
loop_
 _atom_site_type_symbol
 _atom_site_label
 _atom_site_symmetry_multiplicity
 _atom_site_fract_x
 _atom_site_fract_y
 _atom_site_fract_z
 _atom_site_occupancy
  K  K0  1  0.09667002  0.80665996  0.75000000  1
  K  K1  1  0.90332998  0.19334004  0.25000000  1
  Al  Al2  1  0.32912464  0.83482155  0.00036887  1
  Al  Al3  1  0.67087536  0.16517845  0.99963113  1
  Al  Al4  1  0.83605381  0.83482155  0.49963113  1
  Al  Al5  1  0.16394619  0.16517845  0.50036887  1
  Si  Si6  1  0.46891451  0.13650222  0.63176518  1
  Si  Si7  1  0.53108549  0.86349778  0.36823482  1
  Si  Si8  1  0.39458327  0.13650222  0.86823482  1
  Si  Si9  1  0.60541673  0.86349778  0.13176518  1
  Si  Si10  1  0.70742801  0.48073145  0.86778610  1
  Si  Si11  1  0.29257199  0.51926855  0.13221390  1
  Si  Si12  1  0.81184054  0.48073145  0.63221390  1
  Si  Si13  1  0.18815946  0.51926855  0.36778610  1
  H  H14  1  0.27138418  0.70543488  0.56300757  1
  H  H15  1  0.72861582  0.29456512  0.43699243  1
  H  H16  1  0.02318093  0.70543488  0.93699243  1
  H  H17  1  0.97681907  0.29456512  0.06300757  1
  O  O18  1  0.59815659  0.27676932  0.83433787  1
  O  O19  1  0.40184341  0.72323068  0.16566213  1
  O  O20  1  0.12507409  0.27676932  0.66566213  1
  O  O21  1  0.87492591  0.72323068  0.33433787  1
  O  O22  1  0.09920909  0.88170289  0.54897636  1
  O  O23  1  0.90079091  0.11829711  0.45102364  1
  O  O24  1  0.01908802  0.88170289  0.95102364  1
  O  O25  1  0.98091198  0.11829711  0.04897636  1
  O  O26  1  0.53227143  0.81012304  0.83485612  1
  O  O27  1  0.46772857  0.18987696  0.16514388  1
  O  O28  1  0.65760553  0.81012304  0.66514388  1
  O  O29  1  0.34239447  0.18987696  0.33485612  1
  O  O30  1  0.48288454  0.10536799  0.55272331  1
  O  O31  1  0.51711546  0.89463201  0.44727669  1
  O  O32  1  0.41174747  0.10536799  0.94727669  1
  O  O33  1  0.58825253  0.89463201  0.05272331  1
  O  O34  1  0.63029240  0.49604930  0.94699917  1
  O  O35  1  0.36970760  0.50395070  0.05300083  1
  O  O36  1  0.87365831  0.49604930  0.55300083  1
  O  O37  1  0.12634169  0.50395070  0.44699917  1
  O  O38  1  0.59153043  0.34712847  0.65533938  1
  O  O39  1  0.40846957  0.65287153  0.34466062  1
  O  O40  1  0.06134110  0.34712847  0.84466062  1
  O  O41  1  0.93865890  0.65287153  0.15533938  1
