# generated using pymatgen
data_Li4Co5Sb3O16
_symmetry_space_group_name_H-M   'P 1'
_cell_length_a   6.00592971
_cell_length_b   6.00529138
_cell_length_c   9.71541830
_cell_angle_alpha   90.04177623
_cell_angle_beta   90.46508298
_cell_angle_gamma   119.97272410
_symmetry_Int_Tables_number   1
_chemical_formula_structural   Li4Co5Sb3O16
_chemical_formula_sum   'Li4 Co5 Sb3 O16'
_cell_volume   303.53224477
_cell_formula_units_Z   1
loop_
 _symmetry_equiv_pos_site_id
 _symmetry_equiv_pos_as_xyz
  1  'x, y, z'
loop_
 _atom_site_type_symbol
 _atom_site_label
 _atom_site_symmetry_multiplicity
 _atom_site_fract_x
 _atom_site_fract_y
 _atom_site_fract_z
 _atom_site_occupancy
  Li  Li0  1  0.33564215  0.66778703  0.87774917  1
  Li  Li1  1  0.95957044  0.97957701  0.99022169  1
  Li  Li2  1  0.97331336  0.98671945  0.50518870  1
  Li  Li3  1  0.66216412  0.33118201  0.39870826  1
  Co  Co4  1  0.34330328  0.67211731  0.50677812  1
  Co  Co5  1  0.66570582  0.83268943  0.21697635  1
  Co  Co6  1  0.69935048  0.34956296  0.98139394  1
  Co  Co7  1  0.83180984  0.66235395  0.71423051  1
  Co  Co8  1  0.83191312  0.16956304  0.71415058  1
  Sb  Sb9  1  0.17335560  0.83432142  0.21496610  1
  Sb  Sb10  1  0.17310955  0.33881900  0.21500984  1
  Sb  Sb11  1  0.33974837  0.16998108  0.71539139  1
  O  O12  1  0.15286529  0.83867816  0.60425587  1
  O  O13  1  0.02696347  0.51385631  0.33533171  1
  O  O14  1  0.32014674  0.65959488  0.09671989  1
  O  O15  1  0.01600951  0.00821855  0.32197704  1
  O  O16  1  0.99190997  0.99628921  0.80901141  1
  O  O17  1  0.15279400  0.31414944  0.60427784  1
  O  O18  1  0.47929495  0.96881298  0.33575605  1
  O  O19  1  0.47915299  0.51079220  0.33582116  1
  O  O20  1  0.31649510  0.15790364  0.09713857  1
  O  O21  1  0.68050857  0.84057078  0.61498619  1
  O  O22  1  0.52897290  0.49101218  0.83279115  1
  O  O23  1  0.52880165  0.03783834  0.83256672  1
  O  O24  1  0.67534263  0.33757710  0.60934308  1
  O  O25  1  0.85017284  0.68277461  0.10351531  1
  O  O26  1  0.96173057  0.48060787  0.81994443  1
  O  O27  1  0.84984969  0.16695105  0.10363692  1
