# generated using pymatgen
data_MgMnO3
_symmetry_space_group_name_H-M   'P 1'
_cell_length_a   5.00810116
_cell_length_b   5.22758938
_cell_length_c   7.30440528
_cell_angle_alpha   90.00000000
_cell_angle_beta   90.00000000
_cell_angle_gamma   90.00000000
_symmetry_Int_Tables_number   1
_chemical_formula_structural   MgMnO3
_chemical_formula_sum   'Mg4 Mn4 O12'
_cell_volume   191.23149553
_cell_formula_units_Z   4
loop_
 _symmetry_equiv_pos_site_id
 _symmetry_equiv_pos_as_xyz
  1  'x, y, z'
loop_
 _atom_site_type_symbol
 _atom_site_label
 _atom_site_symmetry_multiplicity
 _atom_site_fract_x
 _atom_site_fract_y
 _atom_site_fract_z
 _atom_site_occupancy
  Mg  Mg0  1  0.01751127  0.93514445  0.75000000  1
  Mg  Mg1  1  0.48248873  0.43514445  0.75000000  1
  Mg  Mg2  1  0.51751127  0.56485555  0.25000000  1
  Mg  Mg3  1  0.98248873  0.06485555  0.25000000  1
  Mn  Mn4  1  0.00000000  0.50000000  0.00000000  1
  Mn  Mn5  1  0.00000000  0.50000000  0.50000000  1
  Mn  Mn6  1  0.50000000  0.00000000  0.50000000  1
  Mn  Mn7  1  0.50000000  0.00000000  0.00000000  1
  O  O8  1  0.12682159  0.44321468  0.25000000  1
  O  O9  1  0.18706553  0.19299295  0.56640355  1
  O  O10  1  0.18706553  0.19299295  0.93359645  1
  O  O11  1  0.31293447  0.69299295  0.56640355  1
  O  O12  1  0.31293447  0.69299295  0.93359645  1
  O  O13  1  0.37317841  0.94321468  0.25000000  1
  O  O14  1  0.62682159  0.05678532  0.75000000  1
  O  O15  1  0.68706553  0.30700705  0.06640355  1
  O  O16  1  0.68706553  0.30700705  0.43359645  1
  O  O17  1  0.81293447  0.80700705  0.06640355  1
  O  O18  1  0.81293447  0.80700705  0.43359645  1
  O  O19  1  0.87317841  0.55678532  0.75000000  1
