# generated using pymatgen
data_LiMnPO4
_symmetry_space_group_name_H-M   'P 1'
_cell_length_a   5.27885118
_cell_length_b   7.79658124
_cell_length_c   8.82378381
_cell_angle_alpha   89.29442449
_cell_angle_beta   88.69506472
_cell_angle_gamma   82.06415034
_symmetry_Int_Tables_number   1
_chemical_formula_structural   LiMnPO4
_chemical_formula_sum   'Li4 Mn4 P4 O16'
_cell_volume   359.57380702
_cell_formula_units_Z   4
loop_
 _symmetry_equiv_pos_site_id
 _symmetry_equiv_pos_as_xyz
  1  'x, y, z'
loop_
 _atom_site_type_symbol
 _atom_site_label
 _atom_site_symmetry_multiplicity
 _atom_site_fract_x
 _atom_site_fract_y
 _atom_site_fract_z
 _atom_site_occupancy
  Li  Li0  1  0.18424494  0.96148804  0.37530079  1
  Li  Li1  1  0.20643601  0.47888139  0.20438686  1
  Li  Li2  1  0.79356399  0.52111861  0.79561314  1
  Li  Li3  1  0.81575506  0.03851196  0.62469921  1
  Mn  Mn4  1  0.28385102  0.19687032  0.89968165  1
  Mn  Mn5  1  0.30566432  0.66266324  0.59247057  1
  Mn  Mn6  1  0.69433568  0.33733676  0.40752943  1
  Mn  Mn7  1  0.71614898  0.80312968  0.10031835  1
  P  P8  1  0.22923507  0.28484621  0.55784482  1
  P  P9  1  0.23003405  0.76990729  0.91590966  1
  P  P10  1  0.76996595  0.23009271  0.08409034  1
  P  P11  1  0.77076493  0.71515379  0.44215518  1
  O  O12  1  0.03618126  0.17863273  0.48187716  1
  O  O13  1  0.04019917  0.29251526  0.07900690  1
  O  O14  1  0.12703051  0.34674144  0.71580518  1
  O  O15  1  0.26366766  0.44477194  0.45270527  1
  O  O16  1  0.20957305  0.95316674  0.84133771  1
  O  O17  1  0.41453921  0.64229127  0.81470669  1
  O  O18  1  0.33650682  0.76735789  0.07922699  1
  O  O19  1  0.49754770  0.17700248  0.56502326  1
  O  O20  1  0.50245230  0.82299752  0.43497674  1
  O  O21  1  0.66349318  0.23264211  0.92077301  1
  O  O22  1  0.58546079  0.35770873  0.18529331  1
  O  O23  1  0.79042695  0.04683326  0.15866229  1
  O  O24  1  0.73633234  0.55522806  0.54729473  1
  O  O25  1  0.87296949  0.65325856  0.28419482  1
  O  O26  1  0.95980083  0.70748474  0.92099310  1
  O  O27  1  0.96381874  0.82136727  0.51812284  1
