# generated using pymatgen
data_Li5Nb2Co5O12
_symmetry_space_group_name_H-M   'P 1'
_cell_length_a   5.25917002
_cell_length_b   5.25917038
_cell_length_c   10.06804556
_cell_angle_alpha   84.35703939
_cell_angle_beta   95.64296258
_cell_angle_gamma   58.58720902
_symmetry_Int_Tables_number   1
_chemical_formula_structural   Li5Nb2Co5O12
_chemical_formula_sum   'Li5 Nb2 Co5 O12'
_cell_volume   232.80799467
_cell_formula_units_Z   1
loop_
 _symmetry_equiv_pos_site_id
 _symmetry_equiv_pos_as_xyz
  1  'x, y, z'
loop_
 _atom_site_type_symbol
 _atom_site_label
 _atom_site_symmetry_multiplicity
 _atom_site_fract_x
 _atom_site_fract_y
 _atom_site_fract_z
 _atom_site_occupancy
  Li  Li0  1  0.17205349  0.68521516  0.50619689  1
  Li  Li1  1  0.32319297  0.82050119  0.99155682  1
  Li  Li2  1  0.68521516  0.17205349  0.99380311  1
  Li  Li3  1  0.82050119  0.32319297  0.50844318  1
  Li  Li4  1  0.92449804  0.92449804  0.75000000  1
  Nb  Nb5  1  0.25626319  0.25626319  0.75000000  1
  Nb  Nb6  1  0.74265274  0.74265274  0.25000000  1
  Co  Co7  1  0.07557668  0.07557668  0.25000000  1
  Co  Co8  1  0.00670383  0.50296245  0.99934164  1
  Co  Co9  1  0.50296245  0.00670383  0.50065836  1
  Co  Co10  1  0.41136001  0.41136001  0.25000000  1
  Co  Co11  1  0.58630661  0.58630660  0.75000000  1
  O  O12  1  0.97836764  0.21546234  0.86831225  1
  O  O13  1  0.21546234  0.97836764  0.63168775  1
  O  O14  1  0.10841009  0.36882350  0.36968498  1
  O  O15  1  0.36882350  0.10841009  0.13031502  1
  O  O16  1  0.29825724  0.52542331  0.86934166  1
  O  O17  1  0.52542331  0.29825724  0.63065834  1
  O  O18  1  0.47162990  0.71006692  0.37328170  1
  O  O19  1  0.71006692  0.47162990  0.12671830  1
  O  O20  1  0.61783377  0.88700264  0.86873137  1
  O  O21  1  0.88700264  0.61783377  0.63126863  1
  O  O22  1  0.80003366  0.01140163  0.37174259  1
  O  O23  1  0.01140163  0.80003366  0.12825741  1
