# generated using pymatgen
data_Li8MnO6
_symmetry_space_group_name_H-M   'P 1'
_cell_length_a   5.54002178
_cell_length_b   5.54018553
_cell_length_c   11.03183724
_cell_angle_alpha   89.99093275
_cell_angle_beta   89.99360590
_cell_angle_gamma   120.00141108
_symmetry_Int_Tables_number   1
_chemical_formula_structural   Li8MnO6
_chemical_formula_sum   'Li16 Mn2 O12'
_cell_volume   293.22977492
_cell_formula_units_Z   2
loop_
 _symmetry_equiv_pos_site_id
 _symmetry_equiv_pos_as_xyz
  1  'x, y, z'
loop_
 _atom_site_type_symbol
 _atom_site_label
 _atom_site_symmetry_multiplicity
 _atom_site_fract_x
 _atom_site_fract_y
 _atom_site_fract_z
 _atom_site_occupancy
  Li  Li0  1  0.99995219  0.69176088  0.76647460  1
  Li  Li1  1  0.00005545  0.61627504  0.13135022  1
  Li  Li2  1  0.00000240  0.38373305  0.63135505  1
  Li  Li3  1  0.00003258  0.30824255  0.26648214  1
  Li  Li4  1  0.33335976  0.66667711  0.40335465  1
  Li  Li5  1  0.33326051  0.66663881  0.90335668  1
  Li  Li6  1  0.30818352  0.30821698  0.76648571  1
  Li  Li7  1  0.38377043  0.38375797  0.13136036  1
  Li  Li8  1  0.61625534  0.61627866  0.63134215  1
  Li  Li9  1  0.30826022  0.00001670  0.26648762  1
  Li  Li10  1  0.69180104  0.69178222  0.26647188  1
  Li  Li11  1  0.38373249  0.00002425  0.63133980  1
  Li  Li12  1  0.66661101  0.33327406  0.90335747  1
  Li  Li13  1  0.66666123  0.33333807  0.40335404  1
  Li  Li14  1  0.61625544  0.00004530  0.13134179  1
  Li  Li15  1  0.69173567  0.99998479  0.76647218  1
  Mn  Mn16  1  0.99993772  0.99998723  0.99151508  1
  Mn  Mn17  1  0.00005706  -0.00003129  0.49147503  1
  O  O18  1  0.99984267  0.69123594  0.94894923  1
  O  O19  1  0.99996683  0.30869244  0.44899044  1
  O  O20  1  0.33337445  0.66669492  0.21874395  1
  O  O21  1  0.00016181  0.00012969  0.16959692  1
  O  O22  1  0.00002023  0.00013135  0.66956392  1
  O  O23  1  0.33330007  0.66666102  0.71873864  1
  O  O24  1  0.30864933  0.30869033  0.94902388  1
  O  O25  1  0.30862161  0.99990604  0.44895383  1
  O  O26  1  0.69134182  0.69127438  0.44891734  1
  O  O27  1  0.66662596  0.33334109  0.71873813  1
  O  O28  1  0.66672024  0.33335710  0.21874168  1
  O  O29  1  0.69124893  0.99988233  0.94892659  1
