# generated using pymatgen
data_Li6Ni2P(CO4)4
_symmetry_space_group_name_H-M   'P 1'
_cell_length_a   9.32611702
_cell_length_b   9.32611649
_cell_length_c   9.32611692
_cell_angle_alpha   90.00000370
_cell_angle_beta   60.00000321
_cell_angle_gamma   60.00000168
_symmetry_Int_Tables_number   1
_chemical_formula_structural   Li6Ni2P(CO4)4
_chemical_formula_sum   'Li12 Ni4 P2 C8 O32'
_cell_volume   573.57151204
_cell_formula_units_Z   2
loop_
 _symmetry_equiv_pos_site_id
 _symmetry_equiv_pos_as_xyz
  1  'x, y, z'
loop_
 _atom_site_type_symbol
 _atom_site_label
 _atom_site_symmetry_multiplicity
 _atom_site_fract_x
 _atom_site_fract_y
 _atom_site_fract_z
 _atom_site_occupancy
  Li  Li0  1  0.75000000  0.65739386  0.90739386  1
  Li  Li1  1  0.68521228  0.90739386  0.65739386  1
  Li  Li2  1  0.75000000  0.65739386  0.34260614  1
  Li  Li3  1  0.75000000  0.09260614  0.90739386  1
  Li  Li4  1  0.81478772  0.34260614  0.09260614  1
  Li  Li5  1  0.25000000  0.90739386  0.65739386  1
  Li  Li6  1  0.18521228  0.65739386  0.90739386  1
  Li  Li7  1  0.75000000  0.09260614  0.34260614  1
  Li  Li8  1  0.25000000  0.90739386  0.09260614  1
  Li  Li9  1  0.25000000  0.34260614  0.65739386  1
  Li  Li10  1  0.31478772  0.09260614  0.34260614  1
  Li  Li11  1  0.25000000  0.34260614  0.09260614  1
  Ni  Ni12  1  0.50000000  0.50000000  0.50000000  1
  Ni  Ni13  1  0.50000000  0.50000000  0.00000000  1
  Ni  Ni14  1  0.00000000  0.50000000  0.50000000  1
  Ni  Ni15  1  0.00000000  0.00000000  0.50000000  1
  P  P16  1  0.75000000  0.87500000  0.12500000  1
  P  P17  1  0.25000000  0.12500000  0.87500000  1
  C  C18  1  0.94617726  0.27691137  0.72308863  1
  C  C19  1  0.55382274  0.66926488  0.72308863  1
  C  C20  1  0.94617726  0.27691137  0.33073512  1
  C  C21  1  0.55382274  0.27691137  0.72308863  1
  C  C22  1  0.44617726  0.72308863  0.27691137  1
  C  C23  1  0.05382274  0.72308863  0.66926488  1
  C  C24  1  0.44617726  0.33073512  0.27691137  1
  C  C25  1  0.05382274  0.72308863  0.27691137  1
  O  O26  1  0.91993163  0.86809206  0.67034119  1
  O  O27  1  0.91993163  0.71197631  0.40972718  1
  O  O28  1  0.80224913  0.40972718  0.86809206  1
  O  O29  1  0.69775087  0.67034119  0.71197631  1
  O  O30  1  0.95836488  0.13190794  0.71197631  1
  O  O31  1  0.88555162  0.94277531  0.05722469  1
  O  O32  1  0.95836488  0.40972718  0.32965881  1
  O  O33  1  0.61444838  0.94277531  0.32832693  1
  O  O34  1  0.88555162  0.67167307  0.05722469  1
  O  O35  1  0.41993163  0.67034119  0.86809206  1
  O  O36  1  0.54163512  0.67034119  0.59027282  1
  O  O37  1  0.61444838  0.94277531  0.05722469  1
  O  O38  1  0.54163512  0.28802369  0.86809206  1
  O  O39  1  0.80224913  0.28802369  0.32965881  1
  O  O40  1  0.69775087  0.13190794  0.59027282  1
  O  O41  1  0.58006837  0.59027282  0.28802369  1
  O  O42  1  0.41993163  0.40972718  0.71197631  1
  O  O43  1  0.30224913  0.86809206  0.40972718  1
  O  O44  1  0.19775087  0.71197631  0.67034119  1
  O  O45  1  0.45836488  0.71197631  0.13190794  1
  O  O46  1  0.38555162  0.05722469  0.94277531  1
  O  O47  1  0.45836488  0.32965881  0.40972718  1
  O  O48  1  0.58006837  0.32965881  0.13190794  1
  O  O49  1  0.11444838  0.32832693  0.94277531  1
  O  O50  1  0.38555162  0.05722469  0.67167307  1
  O  O51  1  0.04163512  0.59027282  0.67034119  1
  O  O52  1  0.11444838  0.05722469  0.94277531  1
  O  O53  1  0.04163512  0.86809206  0.28802369  1
  O  O54  1  0.30224913  0.32965881  0.28802369  1
  O  O55  1  0.19775087  0.59027282  0.13190794  1
  O  O56  1  0.08006837  0.28802369  0.59027282  1
  O  O57  1  0.08006837  0.13190794  0.32965881  1
