# generated using pymatgen
data_Li2Ti(BO3)2
_symmetry_space_group_name_H-M   'P 1'
_cell_length_a   5.17088526
_cell_length_b   8.95214126
_cell_length_c   9.99448311
_cell_angle_alpha   89.50972310
_cell_angle_beta   92.68373499
_cell_angle_gamma   91.10036476
_symmetry_Int_Tables_number   1
_chemical_formula_structural   Li2Ti(BO3)2
_chemical_formula_sum   'Li8 Ti4 B8 O24'
_cell_volume   462.04333627
_cell_formula_units_Z   4
loop_
 _symmetry_equiv_pos_site_id
 _symmetry_equiv_pos_as_xyz
  1  'x, y, z'
loop_
 _atom_site_type_symbol
 _atom_site_label
 _atom_site_symmetry_multiplicity
 _atom_site_fract_x
 _atom_site_fract_y
 _atom_site_fract_z
 _atom_site_occupancy
  Li  Li0  1  0.31603593  0.49048887  0.42101154  1
  Li  Li1  1  0.36052564  0.46894845  0.81357721  1
  Li  Li2  1  0.65114165  0.52900499  0.16610787  1
  Li  Li3  1  0.69510937  0.52298734  0.60722452  1
  Li  Li4  1  0.66196213  0.85458196  0.11129756  1
  Li  Li5  1  0.85502703  0.03834793  0.91254391  1
  Li  Li6  1  0.82943827  0.34230508  0.38537620  1
  Li  Li7  1  0.85592363  0.02362723  0.32115665  1
  Ti  Ti8  1  0.14587865  0.31957314  0.12202334  1
  Ti  Ti9  1  0.34616104  0.82311081  0.36893928  1
  Ti  Ti10  1  0.63719745  0.17872760  0.63129256  1
  Ti  Ti11  1  0.87442535  0.70658009  0.87288786  1
  B  B12  1  0.17809139  0.31330529  0.61224871  1
  B  B13  1  0.16271747  0.65713890  0.13077361  1
  B  B14  1  0.32085947  0.80072341  0.88707129  1
  B  B15  1  0.33999646  0.16123170  0.37256562  1
  B  B16  1  0.65344547  0.84238983  0.62896428  1
  B  B17  1  0.65980723  0.18299839  0.12642145  1
  B  B18  1  0.84494924  0.35710124  0.86746374  1
  B  B19  1  0.82472440  0.67738668  0.37260810  1
  O  O20  1  0.08516753  0.33749604  0.93276087  1
  O  O21  1  0.09251133  0.66690813  0.38826181  1
  O  O22  1  0.10518673  0.88889564  0.88922021  1
  O  O23  1  0.22634944  0.01802125  0.35755520  1
  O  O24  1  0.19575338  0.28506036  0.33341328  1
  O  O25  1  0.23964823  0.65212742  0.86541518  1
  O  O26  1  0.27725581  0.16991882  0.63269006  1
  O  O27  1  0.32127277  0.77376585  0.17382297  1
  O  O28  1  0.27357317  0.51342495  0.14307387  1
  O  O29  1  0.35258166  0.43001827  0.61412052  1
  O  O30  1  0.43256733  0.81576961  0.55144280  1
  O  O31  1  0.39316661  0.17792507  0.10623653  1
  O  O32  1  0.57906835  0.83960717  0.91066132  1
  O  O33  1  0.59583052  0.17300781  0.42219090  1
  O  O34  1  0.67145610  0.55182193  0.38075615  1
  O  O35  1  0.74420831  0.49763219  0.85160101  1
  O  O36  1  0.71079742  0.23210451  0.81804080  1
  O  O37  1  0.72005051  0.81831556  0.34355630  1
  O  O38  1  0.77997565  0.32498645  0.15283391  1
  O  O39  1  0.78562633  0.72304023  0.68467179  1
  O  O40  1  0.74425306  0.98712536  0.65150620  1
  O  O41  1  0.80636170  0.06143364  0.12398687  1
  O  O42  1  0.91180223  0.33146558  0.58933461  1
  O  O43  1  0.90911956  0.67176926  0.08129454  1
