# generated using pymatgen
data_Li8Cr2O9
_symmetry_space_group_name_H-M   'P 1'
_cell_length_a   14.74196842
_cell_length_b   8.67394588
_cell_length_c   5.73663757
_cell_angle_alpha   70.44694410
_cell_angle_beta   78.83040465
_cell_angle_gamma   85.52130203
_symmetry_Int_Tables_number   1
_chemical_formula_structural   Li8Cr2O9
_chemical_formula_sum   'Li32 Cr8 O36'
_cell_volume   678.08415772
_cell_formula_units_Z   4
loop_
 _symmetry_equiv_pos_site_id
 _symmetry_equiv_pos_as_xyz
  1  'x, y, z'
loop_
 _atom_site_type_symbol
 _atom_site_label
 _atom_site_symmetry_multiplicity
 _atom_site_fract_x
 _atom_site_fract_y
 _atom_site_fract_z
 _atom_site_occupancy
  Li  Li0  1  0.03322981  0.11818454  0.77546781  1
  Li  Li1  1  0.05356226  0.63271805  0.54542811  1
  Li  Li2  1  0.04488446  0.63088020  0.03352899  1
  Li  Li3  1  0.04274915  0.12274305  0.31613039  1
  Li  Li4  1  0.15766240  0.41260662  0.84866959  1
  Li  Li5  1  0.15301390  0.84820192  0.12886621  1
  Li  Li6  1  0.23979394  0.62988879  0.96571023  1
  Li  Li7  1  0.24124372  0.63108481  0.42414731  1
  Li  Li8  1  0.25510915  0.11826753  0.67010033  1
  Li  Li9  1  0.25593780  0.11587800  0.21717594  1
  Li  Li10  1  0.34166268  0.33967980  0.78763605  1
  Li  Li11  1  0.35035119  0.89636670  0.50787481  1
  Li  Li12  1  0.45672277  0.62990844  0.85853174  1
  Li  Li13  1  0.45873856  0.12088002  0.58974313  1
  Li  Li14  1  0.47014096  0.62399417  0.30824347  1
  Li  Li15  1  0.54749370  0.88209978  0.91199011  1
  Li  Li16  1  0.45250630  0.11790022  0.08800989  1
  Li  Li17  1  0.52985904  0.37600583  0.69175653  1
  Li  Li18  1  0.54126144  0.87911998  0.41025687  1
  Li  Li19  1  0.54327723  0.37009156  0.14146826  1
  Li  Li20  1  0.64964881  0.10363330  0.49212519  1
  Li  Li21  1  0.65833732  0.66032020  0.21236395  1
  Li  Li22  1  0.74406220  0.88412200  0.78282406  1
  Li  Li23  1  0.74489085  0.88173247  0.32989967  1
  Li  Li24  1  0.75875628  0.36891519  0.57585269  1
  Li  Li25  1  0.76020606  0.37011121  0.03428977  1
  Li  Li26  1  0.84698610  0.15179808  0.87113379  1
  Li  Li27  1  0.84233760  0.58739338  0.15133041  1
  Li  Li28  1  0.95725085  0.87725695  0.68386961  1
  Li  Li29  1  0.95511554  0.36911980  0.96647101  1
  Li  Li30  1  0.94643774  0.36728195  0.45457189  1
  Li  Li31  1  0.96677019  0.88181546  0.22453219  1
  Cr  Cr32  1  0.14924472  0.87481065  0.62283508  1
  Cr  Cr33  1  0.13965959  0.37658990  0.37107721  1
  Cr  Cr34  1  0.35628262  0.87110003  0.02161996  1
  Cr  Cr35  1  0.35368672  0.35770963  0.27796814  1
  Cr  Cr36  1  0.64631328  0.64229037  0.72203186  1
  Cr  Cr37  1  0.64371738  0.12889997  0.97838004  1
  Cr  Cr38  1  0.86034041  0.62341010  0.62892279  1
  Cr  Cr39  1  0.85075528  0.12518935  0.37716492  1
  O  O40  1  0.05991709  0.88152999  0.88934159  1
  O  O41  1  0.06645564  0.88170709  0.41659895  1
  O  O42  1  0.06868250  0.35679215  0.66046080  1
  O  O43  1  0.06250477  0.36704309  0.17176046  1
  O  O44  1  0.15387334  0.64908030  0.72887134  1
  O  O45  1  0.13985351  0.59875704  0.25907159  1
  O  O46  1  0.15138204  0.12071479  0.49011542  1
  O  O47  1  0.24587060  0.87593839  0.80844303  1
  O  O48  1  0.25114999  0.87375727  0.32554073  1
  O  O49  1  0.25365131  0.37981231  0.53656364  1
  O  O50  1  0.24839021  0.37408101  0.10164382  1
  O  O51  1  0.34166778  0.09062661  0.91400639  1
  O  O52  1  0.34534176  0.64896636  0.13059679  1
  O  O53  1  0.35871977  0.14700473  0.37820523  1
  O  O54  1  0.44056467  0.87050992  0.74003083  1
  O  O55  1  0.42910055  0.39189122  0.97700556  1
  O  O56  1  0.44340741  0.86498983  0.21057866  1
  O  O57  1  0.43683520  0.38717566  0.45434571  1
  O  O58  1  0.56316480  0.61282434  0.54565429  1
  O  O59  1  0.55659259  0.13501017  0.78942134  1
  O  O60  1  0.57089945  0.60810878  0.02299444  1
  O  O61  1  0.55943533  0.12949008  0.25996917  1
  O  O62  1  0.64128023  0.85299527  0.62179477  1
  O  O63  1  0.65465824  0.35103364  0.86940321  1
  O  O64  1  0.65833222  0.90937339  0.08599361  1
  O  O65  1  0.75160979  0.62591899  0.89835618  1
  O  O66  1  0.74634869  0.62018769  0.46343636  1
  O  O67  1  0.74885001  0.12624273  0.67445927  1
  O  O68  1  0.75412940  0.12406161  0.19155697  1
  O  O69  1  0.84861796  0.87928521  0.50988458  1
  O  O70  1  0.86014649  0.40124296  0.74092841  1
  O  O71  1  0.84612666  0.35091970  0.27112866  1
  O  O72  1  0.93749523  0.63295691  0.82823954  1
  O  O73  1  0.93131750  0.64320785  0.33953920  1
  O  O74  1  0.93354436  0.11829291  0.58340105  1
  O  O75  1  0.94008291  0.11847001  0.11065841  1
