# generated using pymatgen
data_TiMn3O8
_symmetry_space_group_name_H-M   'P 1'
_cell_length_a   10.38293375
_cell_length_b   10.38292341
_cell_length_c   14.71643910
_cell_angle_alpha   19.12146628
_cell_angle_beta   19.12143917
_cell_angle_gamma   32.96067764
_symmetry_Int_Tables_number   1
_chemical_formula_structural   TiMn3O8
_chemical_formula_sum   'Ti1 Mn3 O8'
_cell_volume   147.42903919
_cell_formula_units_Z   1
loop_
 _symmetry_equiv_pos_site_id
 _symmetry_equiv_pos_as_xyz
  1  'x, y, z'
loop_
 _atom_site_type_symbol
 _atom_site_label
 _atom_site_symmetry_multiplicity
 _atom_site_fract_x
 _atom_site_fract_y
 _atom_site_fract_z
 _atom_site_occupancy
  Ti  Ti0  1  0.00000427  0.00000164  0.99999801  1
  Mn  Mn1  1  0.99999254  0.50000385  0.00000284  1
  Mn  Mn2  1  0.50000302  0.00000644  0.99999605  1
  Mn  Mn3  1  0.49999966  0.49999344  0.00000305  1
  O  O4  1  0.99985844  0.99985866  0.26830757  1
  O  O5  1  0.99985658  0.49175509  0.27359486  1
  O  O6  1  0.49175258  0.99984715  0.27360358  1
  O  O7  1  0.00014681  0.00014857  0.73168338  1
  O  O8  1  0.50795311  0.50795245  0.25739998  1
  O  O9  1  0.00014352  0.50824554  0.72640211  1
  O  O10  1  0.50824212  0.00013639  0.72641010  1
  O  O11  1  0.49204837  0.49204977  0.74259847  1
