# generated using pymatgen
data_Li3Mn3O8
_symmetry_space_group_name_H-M   'P 1'
_cell_length_a   5.78866208
_cell_length_b   5.78885517
_cell_length_c   9.94500810
_cell_angle_alpha   90.00395236
_cell_angle_beta   89.99836763
_cell_angle_gamma   120.00123963
_symmetry_Int_Tables_number   1
_chemical_formula_structural   Li3Mn3O8
_chemical_formula_sum   'Li6 Mn6 O16'
_cell_volume   288.60325739
_cell_formula_units_Z   2
loop_
 _symmetry_equiv_pos_site_id
 _symmetry_equiv_pos_as_xyz
  1  'x, y, z'
loop_
 _atom_site_type_symbol
 _atom_site_label
 _atom_site_symmetry_multiplicity
 _atom_site_fract_x
 _atom_site_fract_y
 _atom_site_fract_z
 _atom_site_occupancy
  Li  Li0  1  0.33343756  0.66663908  0.50459545  1
  Li  Li1  1  0.33320762  0.66661292  0.88979063  1
  Li  Li2  1  0.00012783  0.00010362  0.99737605  1
  Li  Li3  1  0.99988215  0.99998098  0.49745579  1
  Li  Li4  1  0.66655755  0.33320027  0.00447171  1
  Li  Li5  1  0.66679651  0.33341129  0.38987169  1
  Mn  Mn6  1  0.16759802  0.83243736  0.21405271  1
  Mn  Mn7  1  0.16760670  0.33521527  0.21406881  1
  Mn  Mn8  1  0.66485095  0.83243844  0.21404577  1
  Mn  Mn9  1  0.33519128  0.16760789  0.71408002  1
  Mn  Mn10  1  0.83237944  0.66479937  0.71408607  1
  Mn  Mn11  1  0.83237161  0.16761906  0.71410181  1
  O  O12  1  0.15532832  0.84463984  0.61172471  1
  O  O13  1  0.03077030  0.51541106  0.32046405  1
  O  O14  1  0.33335239  0.66667888  0.10910336  1
  O  O15  1  0.00001610  0.00003436  0.31431474  1
  O  O16  1  0.99998445  0.00001888  0.81431228  1
  O  O17  1  0.15532810  0.31071947  0.61173009  1
  O  O18  1  0.48460229  0.96925260  0.32043123  1
  O  O19  1  0.48461910  0.51537894  0.32043740  1
  O  O20  1  0.31071933  0.15537390  0.11169275  1
  O  O21  1  0.68931903  0.84467411  0.61167875  1
  O  O22  1  0.51538480  0.48466379  0.82043874  1
  O  O23  1  0.51536886  0.03073530  0.82044628  1
  O  O24  1  0.66664484  0.33332267  0.60911264  1
  O  O25  1  0.84465137  0.68926686  0.11174052  1
  O  O26  1  0.96925430  0.48465185  0.82047248  1
  O  O27  1  0.84464921  0.15541393  0.11174548  1
