# generated using pymatgen
data_Mn13Fe3O32
_symmetry_space_group_name_H-M   'P 1'
_cell_length_a   8.30055338
_cell_length_b   10.15296785
_cell_length_c   8.30055338
_cell_angle_alpha   66.52728482
_cell_angle_beta   89.49453076
_cell_angle_gamma   114.33208926
_symmetry_Int_Tables_number   1
_chemical_formula_structural   Mn13Fe3O32
_chemical_formula_sum   'Mn13 Fe3 O32'
_cell_volume   571.99648872
_cell_formula_units_Z   1
loop_
 _symmetry_equiv_pos_site_id
 _symmetry_equiv_pos_as_xyz
  1  'x, y, z'
loop_
 _atom_site_type_symbol
 _atom_site_label
 _atom_site_symmetry_multiplicity
 _atom_site_fract_x
 _atom_site_fract_y
 _atom_site_fract_z
 _atom_site_occupancy
  Mn  Mn0  1  0.25000000  0.00000000  0.75000000  1
  Mn  Mn1  1  0.75000000  0.00000000  0.25000000  1
  Mn  Mn2  1  0.37512635  0.24988488  0.87469311  1
  Mn  Mn3  1  0.87489307  0.25027624  0.37471345  1
  Mn  Mn4  1  0.62498969  0.25027624  0.62461683  1
  Mn  Mn5  1  0.12457799  0.24988488  0.12524147  1
  Mn  Mn6  1  0.75000000  0.50000000  0.25000000  1
  Mn  Mn7  1  0.99941035  0.49983089  0.49957946  1
  Mn  Mn8  1  0.50058965  0.50016911  0.00042054  1
  Mn  Mn9  1  0.87501031  0.74972376  0.87538317  1
  Mn  Mn10  1  0.37542201  0.75011512  0.37475853  1
  Mn  Mn11  1  0.62510693  0.74972376  0.12528655  1
  Mn  Mn12  1  0.12487365  0.75011512  0.62530689  1
  Fe  Fe13  1  0.49993722  0.00000000  0.00006278  1
  Fe  Fe14  1  0.00006278  0.00000000  0.49993722  1
  Fe  Fe15  1  0.25000000  0.50000000  0.75000000  1
  O  O16  1  0.49144155  0.01643189  0.75193199  1
  O  O17  1  0.76836488  0.01643189  0.47500967  1
  O  O18  1  0.99210797  0.01747875  0.25050755  1
  O  O19  1  0.26798530  0.01747875  0.97462922  1
  O  O20  1  0.88253376  0.23466821  0.14807648  1
  O  O21  1  0.38274470  0.23466821  0.64786554  1
  O  O22  1  0.10431220  0.24180491  0.36151222  1
  O  O23  1  0.60331713  0.24180491  0.86250730  1
  O  O24  1  0.36726137  0.26583484  0.10142653  1
  O  O25  1  0.14684582  0.26166433  0.88518249  1
  O  O26  1  0.86747836  0.26523864  0.60223972  1
  O  O27  1  0.64850446  0.26541185  0.38309161  1
  O  O28  1  0.97699908  0.48433210  0.27398131  1
  O  O29  1  0.25799651  0.48396397  0.99634710  1
  O  O30  1  0.48031106  0.48396397  0.77403255  1
  O  O31  1  0.75831341  0.48433210  0.49266698  1
  O  O32  1  0.24200349  0.51603603  0.50365290  1
  O  O33  1  0.01968894  0.51603603  0.72596745  1
  O  O34  1  0.52300092  0.51566790  0.22601869  1
  O  O35  1  0.74168659  0.51566790  0.00733302  1
  O  O36  1  0.35315418  0.73833567  0.61481751  1
  O  O37  1  0.85149554  0.73458815  0.11690839  1
  O  O38  1  0.13273863  0.73416516  0.39857347  1
  O  O39  1  0.63252164  0.73476136  0.89776028  1
  O  O40  1  0.11725530  0.76533179  0.85213446  1
  O  O41  1  0.89668287  0.75819509  0.63749270  1
  O  O42  1  0.39568780  0.75819509  0.13848778  1
  O  O43  1  0.61746624  0.76533179  0.35192352  1
  O  O44  1  0.00855845  0.98356811  0.74806801  1
  O  O45  1  0.73163512  0.98356811  0.02499033  1
  O  O46  1  0.23201470  0.98252125  0.52537078  1
  O  O47  1  0.50789203  0.98252125  0.24949245  1
