# generated using pymatgen
data_Li2NiBO4
_symmetry_space_group_name_H-M   'P 1'
_cell_length_a   6.40343428
_cell_length_b   5.11604431
_cell_length_c   10.54040516
_cell_angle_alpha   90.00000000
_cell_angle_beta   95.73974291
_cell_angle_gamma   90.00000000
_symmetry_Int_Tables_number   1
_chemical_formula_structural   Li2NiBO4
_chemical_formula_sum   'Li8 Ni4 B4 O16'
_cell_volume   343.57513026
_cell_formula_units_Z   4
loop_
 _symmetry_equiv_pos_site_id
 _symmetry_equiv_pos_as_xyz
  1  'x, y, z'
loop_
 _atom_site_type_symbol
 _atom_site_label
 _atom_site_symmetry_multiplicity
 _atom_site_fract_x
 _atom_site_fract_y
 _atom_site_fract_z
 _atom_site_occupancy
  Li  Li0  1  0.09869478  0.34916358  0.79327093  1
  Li  Li1  1  0.09869478  0.15083642  0.29327093  1
  Li  Li2  1  0.21999926  0.17100173  0.56952545  1
  Li  Li3  1  0.21999926  0.32899827  0.06952545  1
  Li  Li4  1  0.78000074  0.67100173  0.93047455  1
  Li  Li5  1  0.78000074  0.82899827  0.43047455  1
  Li  Li6  1  0.90130522  0.84916358  0.70672907  1
  Li  Li7  1  0.90130522  0.65083642  0.20672907  1
  Ni  Ni8  1  0.50117906  0.14460181  0.84580551  1
  Ni  Ni9  1  0.49882094  0.64460181  0.65419449  1
  Ni  Ni10  1  0.50117906  0.35539819  0.34580551  1
  Ni  Ni11  1  0.49882094  0.85539819  0.15419449  1
  B  B12  1  0.19457110  0.82226831  0.93940606  1
  B  B13  1  0.19457110  0.67773169  0.43940606  1
  B  B14  1  0.80542890  0.32226831  0.56059394  1
  B  B15  1  0.80542890  0.17773169  0.06059394  1
  O  O16  1  0.05186782  0.69722951  0.85876291  1
  O  O17  1  0.05186782  0.80277049  0.35876291  1
  O  O18  1  0.24705239  0.08780103  0.92131417  1
  O  O19  1  0.24705239  0.41219897  0.42131417  1
  O  O20  1  0.29163873  0.80716714  0.54569066  1
  O  O21  1  0.38190755  0.35245360  0.71480237  1
  O  O22  1  0.29163873  0.69283286  0.04569066  1
  O  O23  1  0.38190755  0.14754640  0.21480237  1
  O  O24  1  0.61809245  0.85245360  0.78519763  1
  O  O25  1  0.70836127  0.30716714  0.95430934  1
  O  O26  1  0.61809245  0.64754640  0.28519763  1
  O  O27  1  0.70836127  0.19283286  0.45430934  1
  O  O28  1  0.75294761  0.58780103  0.57868583  1
  O  O29  1  0.75294761  0.91219897  0.07868583  1
  O  O30  1  0.94813218  0.19722951  0.64123709  1
  O  O31  1  0.94813218  0.30277049  0.14123709  1
