# generated using pymatgen
data_Ti2Sb2O7
_symmetry_space_group_name_H-M   'P 1'
_cell_length_a   7.76440956
_cell_length_b   13.26402271
_cell_length_c   5.67750230
_cell_angle_alpha   90.00000000
_cell_angle_beta   90.00000000
_cell_angle_gamma   97.74720724
_symmetry_Int_Tables_number   1
_chemical_formula_structural   Ti2Sb2O7
_chemical_formula_sum   'Ti8 Sb8 O28'
_cell_volume   579.37369482
_cell_formula_units_Z   4
loop_
 _symmetry_equiv_pos_site_id
 _symmetry_equiv_pos_as_xyz
  1  'x, y, z'
loop_
 _atom_site_type_symbol
 _atom_site_label
 _atom_site_symmetry_multiplicity
 _atom_site_fract_x
 _atom_site_fract_y
 _atom_site_fract_z
 _atom_site_occupancy
  Ti  Ti0  1  0.06418274  0.31351479  0.24169013  1
  Ti  Ti1  1  0.02837869  0.12262779  0.75488044  1
  Ti  Ti2  1  0.40284559  0.66344179  0.74534888  1
  Ti  Ti3  1  0.46595814  0.88585909  0.26545711  1
  Ti  Ti4  1  0.53404186  0.11414091  0.76545711  1
  Ti  Ti5  1  0.59715441  0.33655821  0.24534888  1
  Ti  Ti6  1  0.97162131  0.87737221  0.25488044  1
  Ti  Ti7  1  0.93581726  0.68648521  0.74169013  1
  Sb  Sb8  1  0.19986020  0.92559861  0.72109248  1
  Sb  Sb9  1  0.13454881  0.56504045  0.24463492  1
  Sb  Sb10  1  0.33408656  0.13514291  0.24850182  1
  Sb  Sb11  1  0.34724475  0.39680433  0.66599572  1
  Sb  Sb12  1  0.65275525  0.60319567  0.16599572  1
  Sb  Sb13  1  0.66591344  0.86485709  0.74850182  1
  Sb  Sb14  1  0.86545119  0.43495955  0.74463492  1
  Sb  Sb15  1  0.80013980  0.07440139  0.22109248  1
  O  O16  1  0.03043227  0.20136179  0.50369546  1
  O  O17  1  0.08274277  0.41385333  0.52666411  1
  O  O18  1  0.17706039  0.69289044  0.71322501  1
  O  O19  1  0.22461602  0.89214621  0.36001636  1
  O  O20  1  0.11993315  0.43464014  0.06040107  1
  O  O21  1  0.01430045  0.01300912  0.10151002  1
  O  O22  1  0.09843476  0.21931520  0.00666948  1
  O  O23  1  0.37553602  0.60476732  0.04513357  1
  O  O24  1  0.45546632  0.81789273  0.99023470  1
  O  O25  1  0.33370263  0.32275303  0.34217835  1
  O  O26  1  0.27335508  0.08406538  0.75306718  1
  O  O27  1  0.39301141  0.54653150  0.56295478  1
  O  O28  1  0.51443922  0.97642321  0.62863250  1
  O  O29  1  0.50094882  0.78079352  0.51635791  1
  O  O30  1  0.49905118  0.21920648  0.01635791  1
  O  O31  1  0.48556078  0.02357679  0.12863250  1
  O  O32  1  0.60698859  0.45346850  0.06295478  1
  O  O33  1  0.72664492  0.91593462  0.25306718  1
  O  O34  1  0.66629737  0.67724697  0.84217835  1
  O  O35  1  0.54453368  0.18210727  0.49023470  1
  O  O36  1  0.62446398  0.39523268  0.54513357  1
  O  O37  1  0.90156524  0.78068480  0.50666948  1
  O  O38  1  0.98569955  0.98699088  0.60151002  1
  O  O39  1  0.88006685  0.56535986  0.56040107  1
  O  O40  1  0.77538398  0.10785379  0.86001636  1
  O  O41  1  0.82293961  0.30710956  0.21322501  1
  O  O42  1  0.91725723  0.58614667  0.02666411  1
  O  O43  1  0.96956773  0.79863821  0.00369546  1
