# generated using pymatgen
data_Y2Hf2O7
_symmetry_space_group_name_H-M   'P 1'
_cell_length_a   7.31412580
_cell_length_b   7.31421657
_cell_length_c   12.52360611
_cell_angle_alpha   90.00011083
_cell_angle_beta   90.00019619
_cell_angle_gamma   89.99999538
_symmetry_Int_Tables_number   1
_chemical_formula_structural   Y2Hf2O7
_chemical_formula_sum   'Y8 Hf8 O28'
_cell_volume   669.97660995
_cell_formula_units_Z   4
loop_
 _symmetry_equiv_pos_site_id
 _symmetry_equiv_pos_as_xyz
  1  'x, y, z'
loop_
 _atom_site_type_symbol
 _atom_site_label
 _atom_site_symmetry_multiplicity
 _atom_site_fract_x
 _atom_site_fract_y
 _atom_site_fract_z
 _atom_site_occupancy
  Y  Y0  1  0.13697981  0.62533415  0.13405791  1
  Y  Y1  1  0.12535635  0.36301934  0.88405308  1
  Y  Y2  1  0.37464540  0.86301915  0.36594740  1
  Y  Y3  1  0.36302075  0.12534181  0.11594553  1
  Y  Y4  1  0.63698532  0.87465533  0.61594291  1
  Y  Y5  1  0.62535000  0.13698519  0.86594365  1
  Y  Y6  1  0.87465511  0.63697548  0.38405369  1
  Y  Y7  1  0.86302637  0.37465856  0.63405380  1
  Hf  Hf8  1  0.09897227  0.87159941  0.59465189  1
  Hf  Hf9  1  0.12839092  0.90104696  0.90534809  1
  Hf  Hf10  1  0.37161373  0.40103308  0.34465421  1
  Hf  Hf11  1  0.40104264  0.37161262  0.65534039  1
  Hf  Hf12  1  0.59897352  0.62839753  0.15534661  1
  Hf  Hf13  1  0.62840082  0.59896745  0.84465286  1
  Hf  Hf14  1  0.87161302  0.09895055  0.40534682  1
  Hf  Hf15  1  0.90102106  0.12839131  0.09465415  1
  O  O16  1  0.06971179  0.90892349  0.41532800  1
  O  O17  1  0.08176660  0.32592740  0.07379915  1
  O  O18  1  0.09105764  0.93027446  0.08467233  1
  O  O19  1  0.15290546  0.64027586  0.95306475  1
  O  O20  1  0.17407568  0.58174031  0.32379793  1
  O  O21  1  0.14028955  0.34713045  0.70305819  1
  O  O22  1  0.14317284  0.85679227  0.75001430  1
  O  O23  1  0.35680749  0.35679013  0.49999923  1
  O  O24  1  0.35971859  0.84711637  0.54694676  1
  O  O25  1  0.32592298  0.08173860  0.92619944  1
  O  O26  1  0.34709513  0.14027929  0.29693951  1
  O  O27  1  0.40894585  0.43027800  0.16532582  1
  O  O28  1  0.41824487  0.82592967  0.17620296  1
  O  O29  1  0.43029425  0.40893747  0.83467597  1
  O  O30  1  0.56971594  0.59107271  0.33467650  1
  O  O31  1  0.58175142  0.17407113  0.67620034  1
  O  O32  1  0.59107131  0.56971638  0.66532231  1
  O  O33  1  0.65289716  0.85972334  0.79693946  1
  O  O34  1  0.67406518  0.91826173  0.42619943  1
  O  O35  1  0.64028215  0.15285838  0.04694073  1
  O  O36  1  0.64320668  0.64320229  -0.00000071  1
  O  O37  1  0.85682003  0.14317386  0.25000208  1
  O  O38  1  0.85971964  0.65286429  0.20305731  1
  O  O39  1  0.82593398  0.41825976  0.82379428  1
  O  O40  1  0.84709959  0.35971501  0.45306049  1
  O  O41  1  0.90894214  0.06971690  0.58467831  1
  O  O42  1  0.91824885  0.67406806  0.57379291  1
  O  O43  1  0.93029315  0.09107449  0.91532320  1
