# generated using pymatgen
data_Li2Cr2SnO6
_symmetry_space_group_name_H-M   'P 1'
_cell_length_a   5.30888801
_cell_length_b   5.30888844
_cell_length_c   10.21076603
_cell_angle_alpha   90.00000000
_cell_angle_beta   90.00000000
_cell_angle_gamma   120.62656517
_symmetry_Int_Tables_number   1
_chemical_formula_structural   Li2Cr2SnO6
_chemical_formula_sum   'Li4 Cr4 Sn2 O12'
_cell_volume   247.63917583
_cell_formula_units_Z   2
loop_
 _symmetry_equiv_pos_site_id
 _symmetry_equiv_pos_as_xyz
  1  'x, y, z'
loop_
 _atom_site_type_symbol
 _atom_site_label
 _atom_site_symmetry_multiplicity
 _atom_site_fract_x
 _atom_site_fract_y
 _atom_site_fract_z
 _atom_site_occupancy
  Li  Li0  1  0.16153092  0.66153092  0.75000000  1
  Li  Li1  1  0.33846908  0.83846908  0.25000000  1
  Li  Li2  1  0.66153092  0.16153092  0.75000000  1
  Li  Li3  1  0.83846908  0.33846908  0.25000000  1
  Cr  Cr4  1  0.16365342  0.83634658  0.50000000  1
  Cr  Cr5  1  0.33634658  0.66365342  0.00000000  1
  Cr  Cr6  1  0.66365342  0.33634658  0.00000000  1
  Cr  Cr7  1  0.83634658  0.16365342  0.50000000  1
  Sn  Sn8  1  0.00000000  0.00000000  0.00000000  1
  Sn  Sn9  1  0.50000000  0.50000000  0.50000000  1
  O  O10  1  0.00761739  0.65515364  0.10695771  1
  O  O11  1  0.99238261  0.34484636  0.89304229  1
  O  O12  1  0.15515364  0.50761739  0.39304229  1
  O  O13  1  0.49238261  0.84484636  0.60695771  1
  O  O14  1  0.16091478  0.16091478  0.60018026  1
  O  O15  1  0.33908522  0.33908522  0.10018026  1
  O  O16  1  0.66091478  0.66091478  0.89981974  1
  O  O17  1  0.34484636  0.99238261  0.89304229  1
  O  O18  1  0.83908522  0.83908522  0.39981974  1
  O  O19  1  0.50761739  0.15515364  0.39304229  1
  O  O20  1  0.84484636  0.49238261  0.60695771  1
  O  O21  1  0.65515364  0.00761739  0.10695771  1
