# generated using pymatgen
data_HoWO5
_symmetry_space_group_name_H-M   'P 1'
_cell_length_a   5.30875144
_cell_length_b   6.57042449
_cell_length_c   12.64908958
_cell_angle_alpha   90.00000000
_cell_angle_beta   90.00000000
_cell_angle_gamma   109.31023044
_symmetry_Int_Tables_number   1
_chemical_formula_structural   HoWO5
_chemical_formula_sum   'Ho4 W4 O20'
_cell_volume   416.38812521
_cell_formula_units_Z   4
loop_
 _symmetry_equiv_pos_site_id
 _symmetry_equiv_pos_as_xyz
  1  'x, y, z'
loop_
 _atom_site_type_symbol
 _atom_site_label
 _atom_site_symmetry_multiplicity
 _atom_site_fract_x
 _atom_site_fract_y
 _atom_site_fract_z
 _atom_site_occupancy
  Ho  Ho0  1  0.14580695  0.78505693  0.44439326  1
  Ho  Ho1  1  0.85419305  0.21494307  0.55560674  1
  Ho  Ho2  1  0.35419305  0.71494307  0.94439326  1
  Ho  Ho3  1  0.64580695  0.28505693  0.05560674  1
  W  W4  1  0.95336345  0.84681158  0.13883444  1
  W  W5  1  0.04663655  0.15318842  0.86116556  1
  W  W6  1  0.54663655  0.65318842  0.63883444  1
  W  W7  1  0.45336345  0.34681158  0.36116556  1
  O  O8  1  0.04580692  0.56107703  0.08735933  1
  O  O9  1  0.95419308  0.43892297  0.91264067  1
  O  O10  1  0.45419308  0.93892297  0.58735933  1
  O  O11  1  0.54580692  0.06107703  0.41264067  1
  O  O12  1  0.85618212  0.84417366  0.57146315  1
  O  O13  1  0.14381788  0.15582634  0.42853685  1
  O  O14  1  0.64381788  0.65582634  0.07146315  1
  O  O15  1  0.35618212  0.34417366  0.92853685  1
  O  O16  1  0.27132629  0.97238091  0.06474076  1
  O  O17  1  0.72867371  0.02761909  0.93525924  1
  O  O18  1  0.22867371  0.52761909  0.56474076  1
  O  O19  1  0.77132629  0.47238091  0.43525924  1
  O  O20  1  0.99863289  0.79170771  0.27593989  1
  O  O21  1  0.00136711  0.20829229  0.72406011  1
  O  O22  1  0.50136711  0.70829229  0.77593989  1
  O  O23  1  0.49863289  0.29170771  0.22406011  1
  O  O24  1  0.15581587  0.92079480  0.85151935  1
  O  O25  1  0.84418413  0.07920520  0.14848065  1
  O  O26  1  0.34418413  0.57920520  0.35151935  1
  O  O27  1  0.65581587  0.42079480  0.64848065  1
