# generated using pymatgen
data_Na3NiBSO7
_symmetry_space_group_name_H-M   'P 1'
_cell_length_a   8.96410741
_cell_length_b   6.74605816
_cell_length_c   5.24783099
_cell_angle_alpha   90.00000000
_cell_angle_beta   88.73727554
_cell_angle_gamma   90.00000000
_symmetry_Int_Tables_number   1
_chemical_formula_structural   Na3NiBSO7
_chemical_formula_sum   'Na6 Ni2 B2 S2 O14'
_cell_volume   317.27181649
_cell_formula_units_Z   2
loop_
 _symmetry_equiv_pos_site_id
 _symmetry_equiv_pos_as_xyz
  1  'x, y, z'
loop_
 _atom_site_type_symbol
 _atom_site_label
 _atom_site_symmetry_multiplicity
 _atom_site_fract_x
 _atom_site_fract_y
 _atom_site_fract_z
 _atom_site_occupancy
  Na  Na0  1  0.06455264  0.25000000  0.75137876  1
  Na  Na1  1  0.24214394  0.99240536  0.24604500  1
  Na  Na2  1  0.24214394  0.50759464  0.24604500  1
  Na  Na3  1  0.75785606  0.49240536  0.75395500  1
  Na  Na4  1  0.75785606  0.00759464  0.75395500  1
  Na  Na5  1  0.93544736  0.75000000  0.24862124  1
  Ni  Ni6  1  0.33606995  0.75000000  0.77026326  1
  Ni  Ni7  1  0.66393005  0.25000000  0.22973674  1
  B  B8  1  0.06626916  0.75000000  0.73492667  1
  B  B9  1  0.93373084  0.25000000  0.26507333  1
  S  S10  1  0.41938988  0.25000000  0.70978100  1
  S  S11  1  0.58061012  0.75000000  0.29021900  1
  O  O12  1  0.08438513  0.25000000  0.28797543  1
  O  O13  1  0.13914748  0.75000000  0.96828513  1
  O  O14  1  0.16630523  0.75000000  0.52580664  1
  O  O15  1  0.32684391  0.07345308  0.77807141  1
  O  O16  1  0.32684391  0.42654692  0.77807141  1
  O  O17  1  0.45363133  0.25000000  0.42802245  1
  O  O18  1  0.43832547  0.75000000  0.15035841  1
  O  O19  1  0.56167453  0.25000000  0.84964159  1
  O  O20  1  0.54636867  0.75000000  0.57197755  1
  O  O21  1  0.67315609  0.57345308  0.22192859  1
  O  O22  1  0.67315609  0.92654692  0.22192859  1
  O  O23  1  0.83369477  0.25000000  0.47419336  1
  O  O24  1  0.86085252  0.25000000  0.03171487  1
  O  O25  1  0.91561487  0.75000000  0.71202457  1
