# generated using pymatgen
data_Cr2(WO4)3
_symmetry_space_group_name_H-M   'P 1'
_cell_length_a   9.51460874
_cell_length_b   13.09150124
_cell_length_c   9.43805761
_cell_angle_alpha   90.00000000
_cell_angle_beta   90.00000000
_cell_angle_gamma   90.00000000
_symmetry_Int_Tables_number   1
_chemical_formula_structural   Cr2(WO4)3
_chemical_formula_sum   'Cr8 W12 O48'
_cell_volume   1175.60928930
_cell_formula_units_Z   4
loop_
 _symmetry_equiv_pos_site_id
 _symmetry_equiv_pos_as_xyz
  1  'x, y, z'
loop_
 _atom_site_type_symbol
 _atom_site_label
 _atom_site_symmetry_multiplicity
 _atom_site_fract_x
 _atom_site_fract_y
 _atom_site_fract_z
 _atom_site_occupancy
  Cr  Cr0  1  0.03722642  0.62062807  0.24972304  1
  Cr  Cr1  1  0.03722642  0.87937193  0.74972304  1
  Cr  Cr2  1  0.46277358  0.12062807  0.74972304  1
  Cr  Cr3  1  0.46277358  0.37937193  0.24972304  1
  Cr  Cr4  1  0.53722642  0.87937193  0.25027696  1
  Cr  Cr5  1  0.53722642  0.62062807  0.75027696  1
  Cr  Cr6  1  0.96277358  0.12062807  0.25027696  1
  Cr  Cr7  1  0.96277358  0.37937193  0.75027696  1
  W  W8  1  0.11390983  0.35534694  0.39694360  1
  W  W9  1  0.11390983  0.14465306  0.89694360  1
  W  W10  1  0.25000000  0.00000000  0.46974439  1
  W  W11  1  0.25000000  0.50000000  0.96974439  1
  W  W12  1  0.38609017  0.64465306  0.39694360  1
  W  W13  1  0.38609017  0.85534694  0.89694360  1
  W  W14  1  0.61390983  0.14465306  0.10305640  1
  W  W15  1  0.61390983  0.35534694  0.60305640  1
  W  W16  1  0.75000000  0.00000000  0.53025561  1
  W  W17  1  0.75000000  0.50000000  0.03025561  1
  W  W18  1  0.88609017  0.85534694  0.10305640  1
  W  W19  1  0.88609017  0.64465306  0.60305640  1
  O  O20  1  0.00203907  0.76153749  0.18114382  1
  O  O21  1  0.00203907  0.73846251  0.68114382  1
  O  O22  1  0.07085055  0.02048388  0.82521666  1
  O  O23  1  0.07085055  0.47951612  0.32521666  1
  O  O24  1  0.09166415  0.14624209  0.08745933  1
  O  O25  1  0.09166415  0.35375791  0.58745933  1
  O  O26  1  0.12596739  0.06896589  0.36091247  1
  O  O27  1  0.12596739  0.43103411  0.86091247  1
  O  O28  1  0.16090379  0.59159074  0.08191014  1
  O  O29  1  0.16090379  0.90840926  0.58191014  1
  O  O30  1  0.20329557  0.82771251  0.85914728  1
  O  O31  1  0.20329557  0.67228749  0.35914728  1
  O  O32  1  0.29670443  0.17228749  0.85914728  1
  O  O33  1  0.29670443  0.32771251  0.35914728  1
  O  O34  1  0.33909621  0.09159074  0.58191014  1
  O  O35  1  0.33909621  0.40840926  0.08191014  1
  O  O36  1  0.37403261  0.56896589  0.86091247  1
  O  O37  1  0.37403261  0.93103411  0.36091247  1
  O  O38  1  0.40833585  0.64624209  0.58745933  1
  O  O39  1  0.40833585  0.85375791  0.08745933  1
  O  O40  1  0.42914945  0.52048388  0.32521666  1
  O  O41  1  0.42914945  0.97951612  0.82521666  1
  O  O42  1  0.49796093  0.26153749  0.68114382  1
  O  O43  1  0.49796093  0.23846251  0.18114382  1
  O  O44  1  0.50203907  0.73846251  0.31885618  1
  O  O45  1  0.50203907  0.76153749  0.81885618  1
  O  O46  1  0.57085055  0.02048388  0.17478334  1
  O  O47  1  0.57085055  0.47951612  0.67478334  1
  O  O48  1  0.59166415  0.35375791  0.41254067  1
  O  O49  1  0.59166415  0.14624209  0.91254067  1
  O  O50  1  0.62596739  0.06896589  0.63908753  1
  O  O51  1  0.62596739  0.43103411  0.13908753  1
  O  O52  1  0.66090379  0.90840926  0.41808986  1
  O  O53  1  0.66090379  0.59159074  0.91808986  1
  O  O54  1  0.70329557  0.67228749  0.64085272  1
  O  O55  1  0.70329557  0.82771251  0.14085272  1
  O  O56  1  0.79670443  0.17228749  0.14085272  1
  O  O57  1  0.79670443  0.32771251  0.64085272  1
  O  O58  1  0.83909621  0.40840926  0.91808986  1
  O  O59  1  0.83909621  0.09159074  0.41808986  1
  O  O60  1  0.87403261  0.93103411  0.63908753  1
  O  O61  1  0.87403261  0.56896589  0.13908753  1
  O  O62  1  0.90833585  0.85375791  0.91254067  1
  O  O63  1  0.90833585  0.64624209  0.41254067  1
  O  O64  1  0.92914945  0.97951612  0.17478334  1
  O  O65  1  0.92914945  0.52048388  0.67478334  1
  O  O66  1  0.99796093  0.23846251  0.81885618  1
  O  O67  1  0.99796093  0.26153749  0.31885618  1
