# generated using pymatgen
data_LiNb8O10
_symmetry_space_group_name_H-M   'P 1'
_cell_length_a   13.59639441
_cell_length_b   13.59639441
_cell_length_c   13.59639441
_cell_angle_alpha   153.82467100
_cell_angle_beta   153.82467100
_cell_angle_gamma   37.35449179
_symmetry_Int_Tables_number   1
_chemical_formula_structural   LiNb8O10
_chemical_formula_sum   'Li2 Nb16 O20'
_cell_volume   488.36942297
_cell_formula_units_Z   2
loop_
 _symmetry_equiv_pos_site_id
 _symmetry_equiv_pos_as_xyz
  1  'x, y, z'
loop_
 _atom_site_type_symbol
 _atom_site_label
 _atom_site_symmetry_multiplicity
 _atom_site_fract_x
 _atom_site_fract_y
 _atom_site_fract_z
 _atom_site_occupancy
  Li  Li0  1  0.62651819  0.62651819  0.00000000  1
  Li  Li1  1  0.37651819  0.87651819  0.50000000  1
  Nb  Nb2  1  0.92617603  0.17207635  0.24590032  1
  Nb  Nb3  1  0.75259941  0.00852347  0.25592507  1
  Nb  Nb4  1  0.43027571  0.17617603  0.25409968  1
  Nb  Nb5  1  0.24667434  0.00259941  0.24407493  1
  Nb  Nb6  1  0.75616406  0.50040167  0.25576239  1
  Nb  Nb7  1  0.92207635  0.17617603  0.74590032  1
  Nb  Nb8  1  0.75852347  0.00259941  0.75592507  1
  Nb  Nb9  1  0.57268314  0.32686446  0.24581867  1
  Nb  Nb10  1  0.25040167  0.49463828  0.24423761  1
  Nb  Nb11  1  0.75259941  0.49667434  0.74407493  1
  Nb  Nb12  1  0.07686446  0.33104579  0.25418133  1
  Nb  Nb13  1  0.25040167  0.00616406  0.75576239  1
  Nb  Nb14  1  0.92617603  0.68027571  0.75409968  1
  Nb  Nb15  1  0.08104579  0.32686446  0.75418133  1
  Nb  Nb16  1  0.24463828  0.50040167  0.74423761  1
  Nb  Nb17  1  0.07686446  0.82268314  0.74581867  1
  O  O18  1  0.83847379  0.11121576  0.27274197  1
  O  O19  1  0.31573282  0.08847379  0.22725803  1
  O  O20  1  0.68690247  0.41460733  0.27229514  1
  O  O21  1  0.85207526  0.58404352  0.26803175  1
  O  O22  1  0.86121576  0.08847379  0.77274197  1
  O  O23  1  0.66890265  0.93724026  0.26833761  1
  O  O24  1  0.16460733  0.39231220  0.22770486  1
  O  O25  1  0.33404352  0.56601177  0.23196825  1
  O  O26  1  0.83847379  0.56573282  0.72725803  1
  O  O27  1  0.50150055  0.75164277  0.25014222  1
  O  O28  1  0.50150055  0.25135733  0.74985778  1
  O  O29  1  0.33404352  0.10207526  0.76803175  1
  O  O30  1  0.66890265  0.40056504  0.73166239  1
  O  O31  1  0.14231220  0.41460733  0.72770486  1
  O  O32  1  0.31601177  0.58404352  0.73196825  1
  O  O33  1  0.15056504  0.91890265  0.23166239  1
  O  O34  1  0.68724026  0.91890265  0.76833761  1
  O  O35  1  0.50164277  0.75150055  0.75014222  1
  O  O36  1  0.00135733  0.75150055  0.24985778  1
  O  O37  1  0.16460733  0.93690247  0.77229514  1
