# generated using pymatgen
data_Na2Fe2C4SO16
_symmetry_space_group_name_H-M   'P 1'
_cell_length_a   9.92589999
_cell_length_b   9.86701282
_cell_length_c   9.86701263
_cell_angle_alpha   90.58256145
_cell_angle_beta   59.86181050
_cell_angle_gamma   120.13818885
_symmetry_Int_Tables_number   1
_chemical_formula_structural   Na2Fe2C4SO16
_chemical_formula_sum   'Na4 Fe4 C8 S2 O32'
_cell_volume   683.89685902
_cell_formula_units_Z   2
loop_
 _symmetry_equiv_pos_site_id
 _symmetry_equiv_pos_as_xyz
  1  'x, y, z'
loop_
 _atom_site_type_symbol
 _atom_site_label
 _atom_site_symmetry_multiplicity
 _atom_site_fract_x
 _atom_site_fract_y
 _atom_site_fract_z
 _atom_site_occupancy
  Na  Na0  1  0.25000000  0.91416750  0.83583250  1
  Na  Na1  1  0.25000000  0.33583250  0.41416750  1
  Na  Na2  1  0.75000000  0.66416750  0.58583250  1
  Na  Na3  1  0.75000000  0.08583250  0.16416750  1
  Fe  Fe4  1  0.00000000  0.50000000  0.00000000  1
  Fe  Fe5  1  0.00000000  0.50000000  0.50000000  1
  Fe  Fe6  1  0.50000000  0.50000000  0.00000000  1
  Fe  Fe7  1  0.50000000  0.00000000  0.00000000  1
  C  C8  1  0.07949872  0.71679470  0.21135715  1
  C  C9  1  0.07949872  0.36270401  0.20914313  1
  C  C10  1  0.42050128  0.71135815  0.21679470  1
  C  C11  1  0.42050128  0.70914313  0.86270401  1
  C  C12  1  0.57949872  0.29085687  0.13729599  1
  C  C13  1  0.57949872  0.28864285  0.78320530  1
  C  C14  1  0.92050128  0.63729599  0.79085687  1
  C  C15  1  0.92050128  0.28320530  0.78864185  1
  S  S16  1  0.25000000  0.12500000  0.62500000  1
  S  S17  1  0.75000000  0.87500000  0.37500000  1
  O  O18  1  0.05564093  0.68940514  0.09370076  1
  O  O19  1  0.22252460  0.85756223  0.18429909  1
  O  O20  1  0.05564093  0.36623579  0.35065831  1
  O  O21  1  0.22252460  0.36496137  0.09317631  1
  O  O22  1  0.04152481  0.64752812  0.81491127  1
  O  O23  1  0.27747540  0.68429909  0.35756223  1
  O  O24  1  0.04152481  0.39399669  0.64356492  1
  O  O25  1  0.54152481  0.85643508  0.10600331  1
  O  O26  1  0.44435907  0.59370076  0.18940514  1
  O  O27  1  0.12659591  0.06211856  0.56415800  1
  O  O28  1  0.45847519  0.31491127  0.14752812  1
  O  O29  1  0.62659591  0.93584200  0.43788144  1
  O  O30  1  0.27747540  0.59317631  0.86496137  1
  O  O31  1  0.44435907  0.85065831  0.86623579  1
  O  O32  1  0.12659591  0.06447635  0.80924609  1
  O  O33  1  0.37340409  0.30924609  0.56447635  1
  O  O34  1  0.62659591  0.69075391  0.43552365  1
  O  O35  1  0.87340409  0.93552365  0.19075391  1
  O  O36  1  0.55564093  0.14934169  0.13376421  1
  O  O37  1  0.72252460  0.40682369  0.13503863  1
  O  O38  1  0.37340409  0.06415800  0.56211856  1
  O  O39  1  0.54152481  0.68508873  0.85247188  1
  O  O40  1  0.87340409  0.93788144  0.43584200  1
  O  O41  1  0.55564093  0.40629924  0.81059486  1
  O  O42  1  0.45847519  0.14356492  0.89399569  1
  O  O43  1  0.95847519  0.60600431  0.35643508  1
  O  O44  1  0.72252460  0.31570091  0.64243777  1
  O  O45  1  0.95847519  0.35247188  0.18508873  1
  O  O46  1  0.77747540  0.63503863  0.90682369  1
  O  O47  1  0.94435907  0.63376421  0.64934169  1
  O  O48  1  0.77747540  0.14243777  0.81570091  1
  O  O49  1  0.94435907  0.31059486  0.90629924  1
