# generated using pymatgen
data_Sr2LaI7
_symmetry_space_group_name_H-M   'P 1'
_cell_length_a   8.39234880
_cell_length_b   14.80282907
_cell_length_c   15.28727035
_cell_angle_alpha   90.00000000
_cell_angle_beta   100.23024079
_cell_angle_gamma   90.00000000
_symmetry_Int_Tables_number   1
_chemical_formula_structural   Sr2LaI7
_chemical_formula_sum   'Sr8 La4 I28'
_cell_volume   1868.95271080
_cell_formula_units_Z   4
loop_
 _symmetry_equiv_pos_site_id
 _symmetry_equiv_pos_as_xyz
  1  'x, y, z'
loop_
 _atom_site_type_symbol
 _atom_site_label
 _atom_site_symmetry_multiplicity
 _atom_site_fract_x
 _atom_site_fract_y
 _atom_site_fract_z
 _atom_site_occupancy
  Sr  Sr0  1  0.22230770  0.46706083  0.74950098  1
  Sr  Sr1  1  0.24984458  0.87289216  0.67174963  1
  Sr  Sr2  1  0.23768788  0.20322401  0.16890545  1
  Sr  Sr3  1  0.37872818  0.62725531  0.25557432  1
  Sr  Sr4  1  0.62127182  0.12725531  0.74442568  1
  Sr  Sr5  1  0.76231212  0.70322401  0.83109455  1
  Sr  Sr6  1  0.75015542  0.37289216  0.32825037  1
  Sr  Sr7  1  0.77769230  0.96706083  0.25049902  1
  La  La8  1  0.15191996  0.15125445  0.55551602  1
  La  La9  1  0.16520810  0.92986186  0.05414575  1
  La  La10  1  0.83479190  0.42986186  0.94585425  1
  La  La11  1  0.84808004  0.65125445  0.44448398  1
  I  I12  1  0.11158706  0.31697151  0.88638769  1
  I  I13  1  0.05926116  0.59554265  0.99427675  1
  I  I14  1  0.02457299  0.47281843  0.51346252  1
  I  I15  1  0.10798486  0.83358092  0.86449600  1
  I  I16  1  0.16358176  0.73070643  0.39354774  1
  I  I17  1  0.11238360  0.25143488  0.36889094  1
  I  I18  1  0.21221909  0.07983463  0.75556872  1
  I  I19  1  0.17680879  0.00262045  0.25614753  1
  I  I20  1  0.38930289  0.66252286  0.69181660  1
  I  I21  1  0.39559942  0.41013607  0.18779789  1
  I  I22  1  0.39022653  0.31078236  0.63193215  1
  I  I23  1  0.57329643  0.28053166  0.88798616  1
  I  I24  1  0.46559642  0.02307275  0.55774303  1
  I  I25  1  0.53784979  0.56483978  0.93849770  1
  I  I26  1  0.46215021  0.06483978  0.06150230  1
  I  I27  1  0.53440358  0.52307275  0.44225697  1
  I  I28  1  0.42670357  0.78053166  0.11201384  1
  I  I29  1  0.60977347  0.81078236  0.36806785  1
  I  I30  1  0.60440058  0.91013607  0.81220211  1
  I  I31  1  0.61069711  0.16252286  0.30818340  1
  I  I32  1  0.82319121  0.50262045  0.74385247  1
  I  I33  1  0.78778091  0.57983463  0.24443128  1
  I  I34  1  0.88761640  0.75143488  0.63110906  1
  I  I35  1  0.83641824  0.23070643  0.60645226  1
  I  I36  1  0.89201514  0.33358092  0.13550400  1
  I  I37  1  0.97542701  0.97281843  0.48653748  1
  I  I38  1  0.94073884  0.09554265  0.00572325  1
  I  I39  1  0.88841294  0.81697151  0.11361231  1
