# generated using pymatgen
data_Li2Zr2O5
_symmetry_space_group_name_H-M   'P 1'
_cell_length_a   10.37499177
_cell_length_b   3.93065625
_cell_length_c   11.38285954
_cell_angle_alpha   90.00000000
_cell_angle_beta   105.84195589
_cell_angle_gamma   90.00000000
_symmetry_Int_Tables_number   1
_chemical_formula_structural   Li2Zr2O5
_chemical_formula_sum   'Li8 Zr8 O20'
_cell_volume   446.56795967
_cell_formula_units_Z   4
loop_
 _symmetry_equiv_pos_site_id
 _symmetry_equiv_pos_as_xyz
  1  'x, y, z'
loop_
 _atom_site_type_symbol
 _atom_site_label
 _atom_site_symmetry_multiplicity
 _atom_site_fract_x
 _atom_site_fract_y
 _atom_site_fract_z
 _atom_site_occupancy
  Li  Li0  1  0.09348092  0.25956546  0.04764824  1
  Li  Li1  1  0.25424247  0.29676229  0.32994331  1
  Li  Li2  1  0.24575753  0.79676229  0.17005669  1
  Li  Li3  1  0.40651908  0.75956546  0.45235176  1
  Li  Li4  1  0.59348092  0.24043454  0.54764824  1
  Li  Li5  1  0.75424247  0.20323771  0.82994331  1
  Li  Li6  1  0.74575753  0.70323771  0.67005669  1
  Li  Li7  1  0.90651908  0.74043454  0.95235176  1
  Zr  Zr8  1  0.18615604  0.68476650  0.85537565  1
  Zr  Zr9  1  0.03365648  0.86100423  0.36432099  1
  Zr  Zr10  1  0.31384396  0.18476650  0.64462435  1
  Zr  Zr11  1  0.53365648  0.63899577  0.86432099  1
  Zr  Zr12  1  0.46634352  0.36100423  0.13567901  1
  Zr  Zr13  1  0.68615604  0.81523350  0.35537565  1
  Zr  Zr14  1  0.96634352  0.13899577  0.63567901  1
  Zr  Zr15  1  0.81384396  0.31523350  0.14462435  1
  O  O16  1  0.10379247  0.74815511  0.98903605  1
  O  O17  1  0.17195413  0.17622525  0.78565244  1
  O  O18  1  0.00010271  0.33963051  0.29121264  1
  O  O19  1  0.11865920  0.13350665  0.53215922  1
  O  O20  1  0.38134080  0.63350665  0.96784078  1
  O  O21  1  0.21484855  0.79860113  0.33893120  1
  O  O22  1  0.32804587  0.67622525  0.71434756  1
  O  O23  1  0.39620753  0.24815511  0.51096395  1
  O  O24  1  0.28515145  0.29860113  0.16106880  1
  O  O25  1  0.50010271  0.16036949  0.79121264  1
  O  O26  1  0.49989729  0.83963051  0.20878736  1
  O  O27  1  0.71484855  0.70139887  0.83893120  1
  O  O28  1  0.60379247  0.75184489  0.48903605  1
  O  O29  1  0.67195413  0.32377475  0.28565244  1
  O  O30  1  0.78515145  0.20139887  0.66106880  1
  O  O31  1  0.61865920  0.36649335  0.03215922  1
  O  O32  1  0.88134080  0.86649335  0.46784078  1
  O  O33  1  -0.00010271  0.66036949  0.70878736  1
  O  O34  1  0.82804587  0.82377475  0.21434756  1
  O  O35  1  0.89620753  0.25184489  0.01096395  1
