# generated using pymatgen
data_Nb18P3O50
_symmetry_space_group_name_H-M   'P 1'
_cell_length_a   11.66357954
_cell_length_b   7.72673619
_cell_length_c   11.65994314
_cell_angle_alpha   101.03782223
_cell_angle_beta   91.99850944
_cell_angle_gamma   79.42416169
_symmetry_Int_Tables_number   1
_chemical_formula_structural   Nb18P3O50
_chemical_formula_sum   'Nb18 P3 O50'
_cell_volume   1013.85137880
_cell_formula_units_Z   1
loop_
 _symmetry_equiv_pos_site_id
 _symmetry_equiv_pos_as_xyz
  1  'x, y, z'
loop_
 _atom_site_type_symbol
 _atom_site_label
 _atom_site_symmetry_multiplicity
 _atom_site_fract_x
 _atom_site_fract_y
 _atom_site_fract_z
 _atom_site_occupancy
  Nb  Nb0  1  0.87928077  0.61197385  0.32032243  1
  Nb  Nb1  1  0.88094291  0.11037763  0.31895254  1
  Nb  Nb2  1  0.56253421  0.65485946  0.19208854  1
  Nb  Nb3  1  0.56043195  0.16099740  0.19904790  1
  Nb  Nb4  1  0.80032898  0.94088459  0.55959727  1
  Nb  Nb5  1  0.81198952  0.43623417  0.56151569  1
  Nb  Nb6  1  0.31815809  0.95380007  0.12427100  1
  Nb  Nb7  1  0.32050489  0.44891758  0.11419326  1
  Nb  Nb8  1  0.99907436  0.49970098  0.00110768  1
  Nb  Nb9  1  0.00062653  0.99892991  0.99933100  1
  Nb  Nb10  1  0.68065744  0.54628612  0.87831017  1
  Nb  Nb11  1  0.68030202  0.04635098  0.88034272  1
  Nb  Nb12  1  0.19357096  0.56178286  0.43489541  1
  Nb  Nb13  1  0.19838086  0.05900272  0.44131495  1
  Nb  Nb14  1  0.43679602  0.84317725  0.80858745  1
  Nb  Nb15  1  0.44178711  0.33839706  0.79835937  1
  Nb  Nb16  1  0.11696546  0.89222386  0.67934855  1
  Nb  Nb17  1  0.12432830  0.39071076  0.68223635  1
  P  P18  1  0.46291070  0.38698181  0.50814411  1
  P  P19  1  0.49519160  0.86464343  0.46264593  1
  P  P20  1  0.54238549  0.62435952  0.53637030  1
  O  O21  1  0.93491459  0.56287996  0.16710956  1
  O  O22  1  0.93355972  0.05812368  0.16633849  1
  O  O23  1  0.61297876  0.60481489  0.03400784  1
  O  O24  1  0.61210955  0.11259010  0.04051921  1
  O  O25  1  0.85676564  0.87810481  0.36355770  1
  O  O26  1  0.86303771  0.37493471  0.36376406  1
  O  O27  1  0.70796908  0.63504152  0.26156090  1
  O  O28  1  0.70757994  0.14080435  0.26513878  1
  O  O29  1  0.95767422  0.93683975  0.61419679  1
  O  O30  1  0.96899949  0.40982611  0.60884651  1
  O  O31  1  0.51393224  0.92725462  0.18555069  1
  O  O32  1  0.50927865  0.42517930  0.19005381  1
  O  O33  1  0.83148841  0.68247942  0.51383483  1
  O  O34  1  0.79971402  0.18211238  0.50880030  1
  O  O35  1  0.36245690  0.69360707  0.13109375  1
  O  O36  1  0.36395934  0.19828181  0.14492723  1
  O  O37  1  0.61153517  0.93240491  0.48043279  1
  O  O38  1  0.66180528  0.53075402  0.48078573  1
  O  O39  1  0.16692074  0.97684220  0.06634467  1
  O  O40  1  0.16583631  0.47394917  0.06499951  1
  O  O41  1  0.47085698  0.75886711  0.34000296  1
  O  O42  1  0.48622501  0.26685152  0.38910557  1
  O  O43  1  0.73323789  0.98471621  0.70609584  1
  O  O44  1  0.74164905  0.48505857  0.70682047  1
  O  O45  1  0.99979382  0.74930102  0.99830165  1
  O  O46  1  0.99890854  0.25090889  0.00074977  1
  O  O47  1  0.26250258  0.00956752  0.29189268  1
  O  O48  1  0.26301340  0.51214377  0.29078906  1
  O  O49  1  0.53956331  0.71161147  0.66554496  1
  O  O50  1  0.49934206  0.30456428  0.61763117  1
  O  O51  1  0.83256702  0.52356875  0.93463176  1
  O  O52  1  0.83277542  0.02584698  0.93257690  1
  O  O53  1  0.33996942  0.50450019  0.52628062  1
  O  O54  1  0.38318589  0.99319065  0.50738203  1
  O  O55  1  0.63805273  0.80406222  0.86676597  1
  O  O56  1  0.63526246  0.30037464  0.85424367  1
  O  O57  1  0.18636348  0.31494445  0.48821879  1
  O  O58  1  0.18892605  0.81910566  0.48957514  1
  O  O59  1  0.48365260  0.57595782  0.82871021  1
  O  O60  1  0.49057815  0.07336779  0.80050170  1
  O  O61  1  0.03504028  0.57852772  0.38594255  1
  O  O62  1  0.03955115  0.07900179  0.38768175  1
  O  O63  1  0.29315324  0.86280339  0.73684024  1
  O  O64  1  0.29144189  0.36802712  0.73763576  1
  O  O65  1  0.13249393  0.62918884  0.63792614  1
  O  O66  1  0.14612887  0.12297369  0.63568669  1
  O  O67  1  0.38864544  0.90167788  0.96513379  1
  O  O68  1  0.38611582  0.37678469  0.95874884  1
  O  O69  1  0.06614561  0.94191543  0.83281298  1
  O  O70  1  0.06519800  0.43817114  0.83292361  1
