# generated using pymatgen
data_CaLaI5
_symmetry_space_group_name_H-M   'P 1'
_cell_length_a   19.00277405
_cell_length_b   4.47663416
_cell_length_c   15.54323268
_cell_angle_alpha   90.00000000
_cell_angle_beta   90.00000000
_cell_angle_gamma   90.00000000
_symmetry_Int_Tables_number   1
_chemical_formula_structural   CaLaI5
_chemical_formula_sum   'Ca4 La4 I20'
_cell_volume   1322.23898326
_cell_formula_units_Z   4
loop_
 _symmetry_equiv_pos_site_id
 _symmetry_equiv_pos_as_xyz
  1  'x, y, z'
loop_
 _atom_site_type_symbol
 _atom_site_label
 _atom_site_symmetry_multiplicity
 _atom_site_fract_x
 _atom_site_fract_y
 _atom_site_fract_z
 _atom_site_occupancy
  Ca  Ca0  1  0.15567011  0.75000000  0.74621984  1
  Ca  Ca1  1  0.34432989  0.25000000  0.24621984  1
  Ca  Ca2  1  0.65567011  0.75000000  0.75378016  1
  Ca  Ca3  1  0.84432989  0.25000000  0.25378016  1
  La  La4  1  0.09327629  0.75000000  0.23909932  1
  La  La5  1  0.40672371  0.25000000  0.73909932  1
  La  La6  1  0.59327629  0.75000000  0.26090068  1
  La  La7  1  0.90672371  0.25000000  0.76090068  1
  I  I8  1  0.03140936  0.25000000  0.36142199  1
  I  I9  1  0.05525263  0.25000000  0.85741926  1
  I  I10  1  0.15382993  0.25000000  0.61068122  1
  I  I11  1  0.15674691  0.25000000  0.11777198  1
  I  I12  1  0.23788038  0.75000000  0.34433075  1
  I  I13  1  0.26211962  0.25000000  0.84433075  1
  I  I14  1  0.34325309  0.75000000  0.61777198  1
  I  I15  1  0.34617007  0.75000000  0.11068122  1
  I  I16  1  0.44474737  0.75000000  0.35741926  1
  I  I17  1  0.46859064  0.75000000  0.86142199  1
  I  I18  1  0.53140936  0.25000000  0.13857801  1
  I  I19  1  0.55525263  0.25000000  0.64258074  1
  I  I20  1  0.65382993  0.25000000  0.88931878  1
  I  I21  1  0.65674691  0.25000000  0.38222802  1
  I  I22  1  0.73788038  0.75000000  0.15566925  1
  I  I23  1  0.76211962  0.25000000  0.65566925  1
  I  I24  1  0.84325309  0.75000000  0.88222802  1
  I  I25  1  0.84617007  0.75000000  0.38931878  1
  I  I26  1  0.94474737  0.75000000  0.14258074  1
  I  I27  1  0.96859064  0.75000000  0.63857801  1
