# generated using pymatgen
data_Ba3La2Cl12
_symmetry_space_group_name_H-M   'P 1'
_cell_length_a   9.31874111
_cell_length_b   10.09916245
_cell_length_c   13.57781777
_cell_angle_alpha   109.55155627
_cell_angle_beta   111.18988115
_cell_angle_gamma   94.20303519
_symmetry_Int_Tables_number   1
_chemical_formula_structural   Ba3La2Cl12
_chemical_formula_sum   'Ba6 La4 Cl24'
_cell_volume   1094.95070266
_cell_formula_units_Z   2
loop_
 _symmetry_equiv_pos_site_id
 _symmetry_equiv_pos_as_xyz
  1  'x, y, z'
loop_
 _atom_site_type_symbol
 _atom_site_label
 _atom_site_symmetry_multiplicity
 _atom_site_fract_x
 _atom_site_fract_y
 _atom_site_fract_z
 _atom_site_occupancy
  Ba  Ba0  1  0.22079100  0.76974029  0.63259799  1
  Ba  Ba1  1  0.20175813  0.30692326  0.20721207  1
  Ba  Ba2  1  0.58818856  0.21285499  0.97053559  1
  Ba  Ba3  1  0.41181144  0.78714501  0.02946441  1
  Ba  Ba4  1  0.79824187  0.69307674  0.79278793  1
  Ba  Ba5  1  0.77920900  0.23025971  0.36740201  1
  La  La6  1  0.00564953  0.22891232  0.79609603  1
  La  La7  1  0.36665745  0.27952852  0.57655298  1
  La  La8  1  0.63334255  0.72047148  0.42344702  1
  La  La9  1  0.99435047  0.77108768  0.20390397  1
  Cl  Cl10  1  0.13272330  0.67253816  0.79743287  1
  Cl  Cl11  1  0.21947048  0.45541495  0.98640778  1
  Cl  Cl12  1  0.07556315  0.23606656  0.61070705  1
  Cl  Cl13  1  0.22511543  0.06277018  0.83824880  1
  Cl  Cl14  1  0.16275495  0.42963731  0.46520052  1
  Cl  Cl15  1  0.08658582  0.85100704  0.05299911  1
  Cl  Cl16  1  0.24313592  0.64778971  0.29846929  1
  Cl  Cl17  1  0.16483230  0.04835454  0.36591882  1
  Cl  Cl18  1  0.54471204  0.88163819  0.86973974  1
  Cl  Cl19  1  0.46941786  0.52119378  0.76991044  1
  Cl  Cl20  1  0.44475401  0.08664429  0.68163573  1
  Cl  Cl21  1  0.51512558  0.70073909  0.58164803  1
  Cl  Cl22  1  0.48487442  0.29926091  0.41835197  1
  Cl  Cl23  1  0.55524599  0.91335571  0.31836427  1
  Cl  Cl24  1  0.53058214  0.47880622  0.23008956  1
  Cl  Cl25  1  0.45528796  0.11836181  0.13026026  1
  Cl  Cl26  1  0.83516770  0.95164546  0.63408118  1
  Cl  Cl27  1  0.75686408  0.35221029  0.70153071  1
  Cl  Cl28  1  0.91341418  0.14899296  0.94700089  1
  Cl  Cl29  1  0.83724505  0.57036269  0.53479948  1
  Cl  Cl30  1  0.77488457  0.93722982  0.16175120  1
  Cl  Cl31  1  0.92443685  0.76393344  0.38929295  1
  Cl  Cl32  1  0.78052952  0.54458505  0.01359222  1
  Cl  Cl33  1  0.86727670  0.32746184  0.20256713  1
