# generated using pymatgen
data_TmTe3O8
_symmetry_space_group_name_H-M   'P 1'
_cell_length_a   5.57862640
_cell_length_b   6.85995284
_cell_length_c   9.95029726
_cell_angle_alpha   105.36465010
_cell_angle_beta   106.27958240
_cell_angle_gamma   66.00804975
_symmetry_Int_Tables_number   1
_chemical_formula_structural   TmTe3O8
_chemical_formula_sum   'Tm2 Te6 O16'
_cell_volume   328.95527491
_cell_formula_units_Z   2
loop_
 _symmetry_equiv_pos_site_id
 _symmetry_equiv_pos_as_xyz
  1  'x, y, z'
loop_
 _atom_site_type_symbol
 _atom_site_label
 _atom_site_symmetry_multiplicity
 _atom_site_fract_x
 _atom_site_fract_y
 _atom_site_fract_z
 _atom_site_occupancy
  Tm  Tm0  1  0.56086699  0.75000000  0.75000000  1
  Tm  Tm1  1  0.43913301  0.25000000  0.25000000  1
  Te  Te2  1  0.13430254  0.91676191  0.35609140  1
  Te  Te3  1  0.69497205  0.58323809  0.14390860  1
  Te  Te4  1  0.00000000  0.50000000  0.50000000  1
  Te  Te5  1  0.30502795  0.41676191  0.85609140  1
  Te  Te6  1  0.00000000  0.00000000  0.00000000  1
  Te  Te7  1  0.86569746  0.08323809  0.64390860  1
  O  O8  1  0.36626379  0.91413863  0.13273215  1
  O  O9  1  0.21740018  0.94170164  0.58575917  1
  O  O10  1  0.15554269  0.99495406  0.82954094  1
  O  O11  1  0.78168535  0.80702452  0.59607123  1
  O  O12  1  0.14767027  0.58586137  0.36726785  1
  O  O13  1  0.42665736  0.44170164  0.08575917  1
  O  O14  1  0.99263864  0.69297548  0.90392877  1
  O  O15  1  0.67904318  0.49495406  0.32954094  1
  O  O16  1  0.32095682  0.50504594  0.67045906  1
  O  O17  1  0.00736136  0.30702452  0.09607123  1
  O  O18  1  0.57334264  0.55829836  0.91424083  1
  O  O19  1  0.85232973  0.41413863  0.63273215  1
  O  O20  1  0.21831465  0.19297548  0.40392877  1
  O  O21  1  0.84445731  0.00504594  0.17045906  1
  O  O22  1  0.78259982  0.05829836  0.41424083  1
  O  O23  1  0.63373621  0.08586137  0.86726785  1
