# generated using pymatgen
data_K3RuF12
_symmetry_space_group_name_H-M   'P 1'
_cell_length_a   6.83730942
_cell_length_b   8.99382743
_cell_length_c   8.05227694
_cell_angle_alpha   123.94969936
_cell_angle_beta   93.19581619
_cell_angle_gamma   84.27092291
_symmetry_Int_Tables_number   1
_chemical_formula_structural   K3RuF12
_chemical_formula_sum   'K3 Ru1 F12'
_cell_volume   408.70025522
_cell_formula_units_Z   1
loop_
 _symmetry_equiv_pos_site_id
 _symmetry_equiv_pos_as_xyz
  1  'x, y, z'
loop_
 _atom_site_type_symbol
 _atom_site_label
 _atom_site_symmetry_multiplicity
 _atom_site_fract_x
 _atom_site_fract_y
 _atom_site_fract_z
 _atom_site_occupancy
  K  K0  1  0.50000000  -0.00000000  0.00000000  1
  K  K1  1  -0.00000000  0.50000000  0.50000000  1
  K  K2  1  -0.00000000  -0.00000000  0.50000000  1
  Ru  Ru3  1  -0.00000000  -0.00000000  0.00000000  1
  F  F4  1  0.95020959  0.48481759  0.80425109  1
  F  F5  1  0.04979041  0.51518241  0.19574891  1
  F  F6  1  0.83394847  0.96333983  0.17456733  1
  F  F7  1  0.04979041  0.31943350  0.80425109  1
  F  F8  1  0.16605153  0.03666017  0.82543267  1
  F  F9  1  0.95020959  0.68056650  0.19574891  1
  F  F10  1  0.17807070  0.77814066  0.82457610  1
  F  F11  1  0.16605153  0.21122750  0.17456733  1
  F  F12  1  0.82192930  0.22185934  0.17542390  1
  F  F13  1  0.83394847  0.78877250  0.82543267  1
  F  F14  1  0.82192930  0.04643544  0.82457610  1
  F  F15  1  0.17807070  0.95356456  0.17542390  1
