# generated using pymatgen
data_Li2FeSi3O8
_symmetry_space_group_name_H-M   'P 1'
_cell_length_a   6.34066539
_cell_length_b   6.25473100
_cell_length_c   5.14754451
_cell_angle_alpha   73.72935607
_cell_angle_beta   106.23635359
_cell_angle_gamma   103.45331434
_symmetry_Int_Tables_number   1
_chemical_formula_structural   Li2FeSi3O8
_chemical_formula_sum   'Li2 Fe1 Si3 O8'
_cell_volume   185.49888093
_cell_formula_units_Z   1
loop_
 _symmetry_equiv_pos_site_id
 _symmetry_equiv_pos_as_xyz
  1  'x, y, z'
loop_
 _atom_site_type_symbol
 _atom_site_label
 _atom_site_symmetry_multiplicity
 _atom_site_fract_x
 _atom_site_fract_y
 _atom_site_fract_z
 _atom_site_occupancy
  Li  Li0  1  0.84966555  0.63246500  0.28559782  1
  Li  Li1  1  0.12312651  0.30832276  0.80180582  1
  Fe  Fe2  1  0.62743640  0.29753677  0.66217853  1
  Si  Si3  1  0.81770061  0.11811420  0.30577250  1
  Si  Si4  1  0.39819232  0.75291051  0.31544498  1
  Si  Si5  1  0.19694491  0.88814788  0.70823757  1
  O  O6  1  0.86787429  0.19964362  0.99883866  1
  O  O7  1  0.18209526  0.75666988  0.03570085  1
  O  O8  1  0.88118381  0.32297679  0.46341794  1
  O  O9  1  0.54073448  0.56311476  0.34704429  1
  O  O10  1  0.32484327  0.14202945  0.70227921  1
  O  O11  1  0.54985336  0.00687109  0.28312038  1
  O  O12  1  0.94579769  0.89637199  0.49749318  1
  O  O13  1  0.29315153  0.71342630  0.59306729  1
