# generated using pymatgen
data_Ba2LaCl7
_symmetry_space_group_name_H-M   'P 1'
_cell_length_a   7.29198342
_cell_length_b   14.21327641
_cell_length_c   12.46936528
_cell_angle_alpha   90.00000000
_cell_angle_beta   92.56435632
_cell_angle_gamma   90.00000000
_symmetry_Int_Tables_number   1
_chemical_formula_structural   Ba2LaCl7
_chemical_formula_sum   'Ba8 La4 Cl28'
_cell_volume   1291.06795071
_cell_formula_units_Z   4
loop_
 _symmetry_equiv_pos_site_id
 _symmetry_equiv_pos_as_xyz
  1  'x, y, z'
loop_
 _atom_site_type_symbol
 _atom_site_label
 _atom_site_symmetry_multiplicity
 _atom_site_fract_x
 _atom_site_fract_y
 _atom_site_fract_z
 _atom_site_occupancy
  Ba  Ba0  1  0.23099373  0.46487810  0.73077948  1
  Ba  Ba1  1  0.27589186  0.85713268  0.61881381  1
  Ba  Ba2  1  0.26106549  0.22089718  0.12019324  1
  Ba  Ba3  1  0.29323200  0.62143220  0.21544367  1
  Ba  Ba4  1  0.70676800  0.12143220  0.78455633  1
  Ba  Ba5  1  0.73893451  0.72089718  0.87980676  1
  Ba  Ba6  1  0.72410814  0.35713268  0.38118619  1
  Ba  Ba7  1  0.76900627  0.96487810  0.26922052  1
  La  La8  1  0.19483794  0.15236716  0.54281071  1
  La  La9  1  0.21519830  0.92698218  0.03453494  1
  La  La10  1  0.78480170  0.42698218  0.96546506  1
  La  La11  1  0.80516206  0.65236716  0.45718929  1
  Cl  Cl12  1  0.04189338  0.30106851  0.88649826  1
  Cl  Cl13  1  0.04983806  0.57140950  0.97885023  1
  Cl  Cl14  1  0.02893228  0.49308208  0.50062770  1
  Cl  Cl15  1  0.10183413  0.84402430  0.84729589  1
  Cl  Cl16  1  0.10189748  0.75846176  0.38955206  1
  Cl  Cl17  1  0.09426865  0.23120606  0.34987947  1
  Cl  Cl18  1  0.19631135  0.07754749  0.74928336  1
  Cl  Cl19  1  0.21853676  0.99635025  0.24439301  1
  Cl  Cl20  1  0.39740808  0.66599523  0.72156675  1
  Cl  Cl21  1  0.39356268  0.41028438  0.21655943  1
  Cl  Cl22  1  0.43040388  0.30071143  0.60554223  1
  Cl  Cl23  1  0.51499067  0.29508786  0.90212554  1
  Cl  Cl24  1  0.50268725  0.03822109  0.53893094  1
  Cl  Cl25  1  0.51128264  0.55980554  0.98801061  1
  Cl  Cl26  1  0.48871736  0.05980554  0.01198939  1
  Cl  Cl27  1  0.49731275  0.53822109  0.46106906  1
  Cl  Cl28  1  0.48500933  0.79508786  0.09787446  1
  Cl  Cl29  1  0.56959612  0.80071143  0.39445777  1
  Cl  Cl30  1  0.60643732  0.91028438  0.78344057  1
  Cl  Cl31  1  0.60259192  0.16599523  0.27843325  1
  Cl  Cl32  1  0.78146324  0.49635025  0.75560699  1
  Cl  Cl33  1  0.80368865  0.57754749  0.25071664  1
  Cl  Cl34  1  0.90573135  0.73120606  0.65012053  1
  Cl  Cl35  1  0.89810252  0.25846176  0.61044794  1
  Cl  Cl36  1  0.89816587  0.34402430  0.15270411  1
  Cl  Cl37  1  0.97106772  0.99308208  0.49937230  1
  Cl  Cl38  1  0.95016194  0.07140950  0.02114977  1
  Cl  Cl39  1  0.95810662  0.80106851  0.11350174  1
