# generated using pymatgen
data_Co3NiO8
_symmetry_space_group_name_H-M   'P 1'
_cell_length_a   5.59453898
_cell_length_b   5.59464052
_cell_length_c   8.52457256
_cell_angle_alpha   89.98848061
_cell_angle_beta   90.00575438
_cell_angle_gamma   120.00060731
_symmetry_Int_Tables_number   1
_chemical_formula_structural   Co3NiO8
_chemical_formula_sum   'Co6 Ni2 O16'
_cell_volume   231.06654322
_cell_formula_units_Z   2
loop_
 _symmetry_equiv_pos_site_id
 _symmetry_equiv_pos_as_xyz
  1  'x, y, z'
loop_
 _atom_site_type_symbol
 _atom_site_label
 _atom_site_symmetry_multiplicity
 _atom_site_fract_x
 _atom_site_fract_y
 _atom_site_fract_z
 _atom_site_occupancy
  Co  Co0  1  0.16805975  0.83191211  0.20769068  1
  Co  Co1  1  0.16801558  0.33604122  0.20771170  1
  Co  Co2  1  0.66386584  0.83190894  0.20770753  1
  Co  Co3  1  0.33613416  0.16804410  0.70770753  1
  Co  Co4  1  0.83194025  0.66385236  0.70769068  1
  Co  Co5  1  0.83198442  0.16802564  0.70771170  1
  Ni  Ni6  1  0.33331260  0.66670122  0.48340475  1
  Ni  Ni7  1  0.66668740  0.33338962  0.98340475  1
  O  O8  1  0.16566212  0.83441209  0.60397421  1
  O  O9  1  0.03996278  0.51993138  0.34078300  1
  O  O10  1  0.33332169  0.66668060  0.09418828  1
  O  O11  1  -0.00002486  0.99984272  0.32251891  1
  O  O12  1  0.00002486  0.99986758  0.82251891  1
  O  O13  1  0.16567323  0.33145949  0.60418043  1
  O  O14  1  0.48006913  0.96007238  0.34078091  1
  O  O15  1  0.47996053  0.51997985  0.34081159  1
  O  O16  1  0.33139962  0.16579701  0.10410702  1
  O  O17  1  0.66860038  0.83439739  0.60410702  1
  O  O18  1  0.51993087  0.48000325  0.84078091  1
  O  O19  1  0.52003947  0.04001931  0.84081159  1
  O  O20  1  0.66667831  0.33335891  0.59418828  1
  O  O21  1  0.83433788  0.66874998  0.10397421  1
  O  O22  1  0.96003722  0.47996859  0.84078300  1
  O  O23  1  0.83432677  0.16578626  0.10418043  1
