# generated using pymatgen
data_Li3Cu3TeO8
_symmetry_space_group_name_H-M   'P 1'
_cell_length_a   10.43842516
_cell_length_b   10.43330113
_cell_length_c   14.73999168
_cell_angle_alpha   19.60721507
_cell_angle_beta   19.62350169
_cell_angle_gamma   33.83295267
_symmetry_Int_Tables_number   1
_chemical_formula_structural   Li3Cu3TeO8
_chemical_formula_sum   'Li3 Cu3 Te1 O8'
_cell_volume   156.40482351
_cell_formula_units_Z   1
loop_
 _symmetry_equiv_pos_site_id
 _symmetry_equiv_pos_as_xyz
  1  'x, y, z'
loop_
 _atom_site_type_symbol
 _atom_site_label
 _atom_site_symmetry_multiplicity
 _atom_site_fract_x
 _atom_site_fract_y
 _atom_site_fract_z
 _atom_site_occupancy
  Li  Li0  1  -0.00000067  0.50000077  0.49999946  1
  Li  Li1  1  0.49999985  0.00000057  0.50000021  1
  Li  Li2  1  0.49999935  0.50000045  0.50000052  1
  Cu  Cu3  1  -0.00000027  0.49999845  0.00000112  1
  Cu  Cu4  1  0.49999631  0.99999351  0.00000382  1
  Cu  Cu5  1  0.49999854  0.49999780  0.00000451  1
  Te  Te6  1  0.00000150  0.00000247  -0.00000237  1
  O  O7  1  0.00003978  0.00007499  0.26826318  1
  O  O8  1  0.99848751  0.54759577  0.22527012  1
  O  O9  1  0.54812582  0.99915981  0.22462032  1
  O  O10  1  0.99995889  0.99992431  0.73173863  1
  O  O11  1  0.45148869  0.45223369  0.31991440  1
  O  O12  1  0.00151510  0.45240670  0.77472680  1
  O  O13  1  0.45187630  0.00084437  0.77537532  1
  O  O14  1  0.54851230  0.54776634  0.68008497  1
