# generated using pymatgen
data_Li2Si2NiO6
_symmetry_space_group_name_H-M   'P 1'
_cell_length_a   5.54444843
_cell_length_b   5.54444843
_cell_length_c   9.48728244
_cell_angle_alpha   91.20729622
_cell_angle_beta   88.79270378
_cell_angle_gamma   62.74105984
_symmetry_Int_Tables_number   1
_chemical_formula_structural   Li2Si2NiO6
_chemical_formula_sum   'Li4 Si4 Ni2 O12'
_cell_volume   259.04650514
_cell_formula_units_Z   2
loop_
 _symmetry_equiv_pos_site_id
 _symmetry_equiv_pos_as_xyz
  1  'x, y, z'
loop_
 _atom_site_type_symbol
 _atom_site_label
 _atom_site_symmetry_multiplicity
 _atom_site_fract_x
 _atom_site_fract_y
 _atom_site_fract_z
 _atom_site_occupancy
  Li  Li0  1  0.61253579  0.75104910  0.88316964  1
  Li  Li1  1  0.24895090  0.38746421  0.38316964  1
  Li  Li2  1  0.75104910  0.61253579  0.61683036  1
  Li  Li3  1  0.38746421  0.24895090  0.11683036  1
  Si  Si4  1  0.14496771  0.80753931  0.63115874  1
  Si  Si5  1  0.19246069  0.85503229  0.13115874  1
  Si  Si6  1  0.80753931  0.14496771  0.86884126  1
  Si  Si7  1  0.85503229  0.19246069  0.36884126  1
  Ni  Ni8  1  0.26206867  0.26206867  0.75000000  1
  Ni  Ni9  1  0.73793133  0.73793133  0.25000000  1
  O  O10  1  0.38131543  0.87032642  0.69630981  1
  O  O11  1  0.12967358  0.61868457  0.19630981  1
  O  O12  1  0.23086373  0.49247851  0.58672256  1
  O  O13  1  0.50752149  0.76913627  0.08672256  1
  O  O14  1  0.89037302  0.89037302  0.75000000  1
  O  O15  1  0.00000000  0.00000000  0.50000000  1
  O  O16  1  0.10962698  0.10962698  0.25000000  1
  O  O17  1  0.00000000  0.00000000  0.00000000  1
  O  O18  1  0.49247851  0.23086373  0.91327744  1
  O  O19  1  0.76913627  0.50752149  0.41327744  1
  O  O20  1  0.87032642  0.38131543  0.80369019  1
  O  O21  1  0.61868457  0.12967358  0.30369019  1
