# generated using pymatgen
data_Li4Mn3VO8
_symmetry_space_group_name_H-M   'P 1'
_cell_length_a   10.47667581
_cell_length_b   10.39687193
_cell_length_c   14.71678367
_cell_angle_alpha   19.50364266
_cell_angle_beta   19.51135174
_cell_angle_gamma   33.72539262
_symmetry_Int_Tables_number   1
_chemical_formula_structural   Li4Mn3VO8
_chemical_formula_sum   'Li4 Mn3 V1 O8'
_cell_volume   153.84063912
_cell_formula_units_Z   1
loop_
 _symmetry_equiv_pos_site_id
 _symmetry_equiv_pos_as_xyz
  1  'x, y, z'
loop_
 _atom_site_type_symbol
 _atom_site_label
 _atom_site_symmetry_multiplicity
 _atom_site_fract_x
 _atom_site_fract_y
 _atom_site_fract_z
 _atom_site_occupancy
  Li  Li0  1  0.00032505  0.00019891  0.49961034  1
  Li  Li1  1  -0.00001014  0.50019991  0.49985480  1
  Li  Li2  1  0.50025422  0.00005991  0.49981260  1
  Li  Li3  1  0.49988329  0.49998516  0.50012212  1
  Mn  Mn4  1  0.00017285  0.49969538  0.00006997  1
  Mn  Mn5  1  0.49973458  0.00026059  0.00002940  1
  Mn  Mn6  1  0.50063137  0.50072279  -0.00095208  1
  V  V7  1  -0.00049436  -0.00049849  0.00066821  1
  O  O8  1  0.98311325  0.99824592  0.27370699  1
  O  O9  1  0.04838311  0.52349159  0.21027625  1
  O  O10  1  0.48443426  0.94125904  0.30481688  1
  O  O11  1  0.01677257  0.00191372  0.72639455  1
  O  O12  1  0.47056269  0.53259845  0.25333252  1
  O  O13  1  0.95162975  0.47625547  0.78985580  1
  O  O14  1  0.51515379  0.05877953  0.69547799  1
  O  O15  1  0.52945372  0.46683112  0.74692365  1
