# generated using pymatgen
data_Mn3Cr3(TeO8)2
_symmetry_space_group_name_H-M   'P 1'
_cell_length_a   5.95573412
_cell_length_b   5.96728108
_cell_length_c   9.21617472
_cell_angle_alpha   89.99802901
_cell_angle_beta   89.76617448
_cell_angle_gamma   120.06312191
_symmetry_Int_Tables_number   1
_chemical_formula_structural   Mn3Cr3(TeO8)2
_chemical_formula_sum   'Mn3 Cr3 Te2 O16'
_cell_volume   283.47298049
_cell_formula_units_Z   1
loop_
 _symmetry_equiv_pos_site_id
 _symmetry_equiv_pos_as_xyz
  1  'x, y, z'
loop_
 _atom_site_type_symbol
 _atom_site_label
 _atom_site_symmetry_multiplicity
 _atom_site_fract_x
 _atom_site_fract_y
 _atom_site_fract_z
 _atom_site_occupancy
  Mn  Mn0  1  0.66239420  0.83119534  0.21075017  1
  Mn  Mn1  1  0.83304781  0.66507235  0.70966772  1
  Mn  Mn2  1  0.83297604  0.16793295  0.70962408  1
  Cr  Cr3  1  0.16843693  0.83089447  0.21056893  1
  Cr  Cr4  1  0.16844724  0.33755389  0.21057028  1
  Cr  Cr5  1  0.33990736  0.16997653  0.71141047  1
  Te  Te6  1  0.32960909  0.66482245  0.48670893  1
  Te  Te7  1  0.66468420  0.33233137  0.98869314  1
  O  O8  1  0.17260899  0.82895169  0.59632422  1
  O  O9  1  0.04236542  0.52118850  0.34554098  1
  O  O10  1  0.34365652  0.67182677  0.10930096  1
  O  O11  1  0.99111335  0.99555146  0.30340700  1
  O  O12  1  0.99121180  0.99561686  0.80184997  1
  O  O13  1  0.17267432  0.34373914  0.59632373  1
  O  O14  1  0.48262694  0.95804062  0.34268011  1
  O  O15  1  0.48265606  0.52464764  0.34268243  1
  O  O16  1  0.34230718  0.17116095  0.09570680  1
  O  O17  1  0.64740850  0.82371476  0.59774453  1
  O  O18  1  0.52108672  0.47821942  0.84487625  1
  O  O19  1  0.52100650  0.04286307  0.84492009  1
  O  O20  1  0.67918182  0.33960546  0.61167116  1
  O  O21  1  0.82513359  0.65511331  0.09764872  1
  O  O22  1  0.96029637  0.48018112  0.84941395  1
  O  O23  1  0.82516105  0.17000187  0.09763739  1
