# generated using pymatgen
data_MnFe(PO4)2
_symmetry_space_group_name_H-M   'P 1'
_cell_length_a   8.49985262
_cell_length_b   8.60346205
_cell_length_c   8.60346242
_cell_angle_alpha   60.00000095
_cell_angle_beta   59.59594856
_cell_angle_gamma   59.59594408
_symmetry_Int_Tables_number   1
_chemical_formula_structural   MnFe(PO4)2
_chemical_formula_sum   'Mn3 Fe3 P6 O24'
_cell_volume   442.14364297
_cell_formula_units_Z   3
loop_
 _symmetry_equiv_pos_site_id
 _symmetry_equiv_pos_as_xyz
  1  'x, y, z'
loop_
 _atom_site_type_symbol
 _atom_site_label
 _atom_site_symmetry_multiplicity
 _atom_site_fract_x
 _atom_site_fract_y
 _atom_site_fract_z
 _atom_site_occupancy
  Mn  Mn0  1  0.07446671  0.64184476  0.64184476  1
  Mn  Mn1  1  0.43296178  0.85567941  0.85567941  1
  Mn  Mn2  1  0.92696476  0.35767875  0.35767875  1
  Fe  Fe3  1  0.99965228  0.00011624  0.00011624  1
  Fe  Fe4  1  0.56358648  0.14547117  0.14547117  1
  Fe  Fe5  1  0.50249646  0.49916751  0.49916751  1
  P  P6  1  0.24529694  0.25103195  0.54579232  1
  P  P7  1  0.24529694  0.95787879  0.25103195  1
  P  P8  1  0.24529694  0.54579232  0.95787879  1
  P  P9  1  0.75472531  0.45707896  0.03922718  1
  P  P10  1  0.75472531  0.03922718  0.74896855  1
  P  P11  1  0.75472531  0.74896855  0.45707896  1
  O  O12  1  0.06041617  0.11578868  0.31187754  1
  O  O13  1  0.06041617  0.51191761  0.11578868  1
  O  O14  1  0.06041617  0.31187754  0.51191761  1
  O  O15  1  0.21820445  0.09218227  0.74836229  1
  O  O16  1  0.43120235  0.18561788  0.38949102  1
  O  O17  1  0.27049547  0.41176262  0.56003172  1
  O  O18  1  0.21820445  0.94124999  0.09218227  1
  O  O19  1  0.27049547  0.75771020  0.41176262  1
  O  O20  1  0.56759647  0.60923441  0.00620321  1
  O  O21  1  0.27049547  0.56003172  0.75771020  1
  O  O22  1  0.78323394  0.25476327  0.05232482  1
  O  O23  1  0.56759647  0.00620321  0.81696691  1
  O  O24  1  0.43120235  0.99368975  0.18561788  1
  O  O25  1  0.21820445  0.74836229  0.94124999  1
  O  O26  1  0.72953018  0.44417863  0.23820286  1
  O  O27  1  0.43120235  0.38949102  0.99368975  1
  O  O28  1  0.72953018  0.23820286  0.58808833  1
  O  O29  1  0.78323394  0.05232482  0.90967697  1
  O  O30  1  0.72953018  0.58808833  0.44417863  1
  O  O31  1  0.56759647  0.81696691  0.60923441  1
  O  O32  1  0.78323394  0.90967697  0.25476327  1
  O  O33  1  0.93925556  0.68083685  0.49690720  1
  O  O34  1  0.93925556  0.49690720  0.88300038  1
  O  O35  1  0.93925556  0.88300038  0.68083685  1
