# generated using pymatgen
data_La6Mn3O14
_symmetry_space_group_name_H-M   'P 1'
_cell_length_a   5.57201534
_cell_length_b   5.59630245
_cell_length_c   20.35164424
_cell_angle_alpha   90.10229318
_cell_angle_beta   89.99965759
_cell_angle_gamma   90.00140529
_symmetry_Int_Tables_number   1
_chemical_formula_structural   La6Mn3O14
_chemical_formula_sum   'La12 Mn6 O28'
_cell_volume   634.61786096
_cell_formula_units_Z   2
loop_
 _symmetry_equiv_pos_site_id
 _symmetry_equiv_pos_as_xyz
  1  'x, y, z'
loop_
 _atom_site_type_symbol
 _atom_site_label
 _atom_site_symmetry_multiplicity
 _atom_site_fract_x
 _atom_site_fract_y
 _atom_site_fract_z
 _atom_site_occupancy
  La  La0  1  0.22245729  0.75217974  0.32329637  1
  La  La1  1  0.23696629  0.76461276  0.68323022  1
  La  La2  1  0.27088892  0.75785511  0.49147065  1
  La  La3  1  0.22918764  0.25783905  0.99147178  1
  La  La4  1  0.26303680  0.26460062  0.18323638  1
  La  La5  1  0.27753218  0.25218912  0.82328355  1
  La  La6  1  0.73797434  0.73766210  0.18090344  1
  La  La7  1  0.74585463  0.71802573  0.82259732  1
  La  La8  1  0.74243642  0.77244108  0.99000995  1
  La  La9  1  0.75759124  0.27254867  0.49002079  1
  La  La10  1  0.75417938  0.21802589  0.32261680  1
  La  La11  1  0.76199024  0.23771723  0.68089599  1
  Mn  Mn12  1  0.24843829  0.75112423  0.09656938  1
  Mn  Mn13  1  0.24492169  0.75432176  0.90196017  1
  Mn  Mn14  1  0.25510071  0.25430440  0.40196469  1
  Mn  Mn15  1  0.25155502  0.25116162  0.59655246  1
  Mn  Mn16  1  0.74628689  0.74560793  0.59777107  1
  Mn  Mn17  1  0.75372897  0.24552170  0.09775521  1
  O  O18  1  0.00175969  0.00392505  0.11842798  1
  O  O19  1  0.00163916  0.49262566  0.09977085  1
  O  O20  1  0.01424366  0.01600350  0.41424743  1
  O  O21  1  0.00848876  0.48756492  0.40246598  1
  O  O22  1  0.99778365  0.99151335  0.58187316  1
  O  O23  1  0.99672418  0.50128105  0.60015976  1
  O  O24  1  0.00816423  0.98793538  0.88898886  1
  O  O25  1  0.01029713  0.50914538  0.90276065  1
  O  O26  1  0.20395598  0.79702853  0.99644313  1
  O  O27  1  0.22221027  0.21996607  0.29982790  1
  O  O28  1  0.20411866  0.19602449  0.70713809  1
  O  O29  1  0.29586553  0.69602083  0.20715480  1
  O  O30  1  0.27778739  0.71996352  0.79980497  1
  O  O31  1  0.29606381  0.29702229  0.49643956  1
  O  O32  1  0.50322574  0.00128728  0.10017161  1
  O  O33  1  0.50224294  0.49149611  0.08186871  1
  O  O34  1  0.49187359  0.48793867  0.38901541  1
  O  O35  1  0.48969923  0.00913402  0.40277233  1
  O  O36  1  0.49835841  0.99268104  0.59976255  1
  O  O37  1  0.49821777  0.50397125  0.61841197  1
  O  O38  1  0.49155290  0.98755537  0.90244785  1
  O  O39  1  0.48577056  0.51598104  0.91423576  1
  O  O40  1  0.69402327  0.69261569  0.50829218  1
  O  O41  1  0.70792506  0.28992897  0.20088257  1
  O  O42  1  0.68458094  0.31977133  0.78571262  1
  O  O43  1  0.81545627  0.81975395  0.28573265  1
  O  O44  1  0.79202872  0.78993054  0.70086153  1
  O  O45  1  0.80599756  0.19257897  0.00828088  1
