# generated using pymatgen
data_Li4Mn2V3Cr3O16
_symmetry_space_group_name_H-M   'P 1'
_cell_length_a   5.87935307
_cell_length_b   5.93721621
_cell_length_c   9.64238475
_cell_angle_alpha   90.16693214
_cell_angle_beta   87.45315480
_cell_angle_gamma   120.24957369
_symmetry_Int_Tables_number   1
_chemical_formula_structural   Li4Mn2V3Cr3O16
_chemical_formula_sum   'Li4 Mn2 V3 Cr3 O16'
_cell_volume   290.39559219
_cell_formula_units_Z   1
loop_
 _symmetry_equiv_pos_site_id
 _symmetry_equiv_pos_as_xyz
  1  'x, y, z'
loop_
 _atom_site_type_symbol
 _atom_site_label
 _atom_site_symmetry_multiplicity
 _atom_site_fract_x
 _atom_site_fract_y
 _atom_site_fract_z
 _atom_site_occupancy
  Li  Li0  1  0.32689655  0.66357862  0.89501413  1
  Li  Li1  1  0.01928415  0.00931505  0.99460687  1
  Li  Li2  1  0.00950993  0.00412803  0.49474822  1
  Li  Li3  1  0.66655351  0.33374938  0.39564223  1
  Mn  Mn4  1  0.32664016  0.66299483  0.48657691  1
  Mn  Mn5  1  0.66292739  0.33166086  0.98885990  1
  V  V6  1  0.82265841  0.66031191  0.71454832  1
  V  V7  1  0.66465800  0.83468042  0.20916032  1
  V  V8  1  0.82388408  0.16266814  0.71412465  1
  Cr  Cr9  1  0.17220216  0.83158768  0.21566122  1
  Cr  Cr10  1  0.17266652  0.34088780  0.21588909  1
  Cr  Cr11  1  0.33786155  0.16829901  0.71191458  1
  O  O12  1  0.15712676  0.82915697  0.60267363  1
  O  O13  1  0.02778815  0.51488506  0.33255654  1
  O  O14  1  0.36100274  0.68015929  0.10493547  1
  O  O15  1  0.98231192  0.99162966  0.31030895  1
  O  O16  1  0.98742575  0.99337698  0.81077683  1
  O  O17  1  0.15564264  0.32477313  0.60353141  1
  O  O18  1  0.48577422  0.95734528  0.33694638  1
  O  O19  1  0.48408635  0.52923578  0.33895219  1
  O  O20  1  0.33246791  0.16613910  0.09803472  1
  O  O21  1  0.68548113  0.84209293  0.60589174  1
  O  O22  1  0.51889853  0.48473542  0.83338913  1
  O  O23  1  0.51927291  0.03446916  0.83365733  1
  O  O24  1  0.68083245  0.34016871  0.60307789  1
  O  O25  1  0.83173953  0.68300417  0.10657821  1
  O  O26  1  0.95222546  0.47638215  0.84341912  1
  O  O27  1  0.83217911  0.14888249  0.10636203  1
