# generated using pymatgen
data_BaCa2I6
_symmetry_space_group_name_H-M   'P 1'
_cell_length_a   7.68349759
_cell_length_b   13.13591991
_cell_length_c   8.73252292
_cell_angle_alpha   93.73704344
_cell_angle_beta   90.00000000
_cell_angle_gamma   72.99462703
_symmetry_Int_Tables_number   1
_chemical_formula_structural   BaCa2I6
_chemical_formula_sum   'Ba2 Ca4 I12'
_cell_volume   840.87598950
_cell_formula_units_Z   2
loop_
 _symmetry_equiv_pos_site_id
 _symmetry_equiv_pos_as_xyz
  1  'x, y, z'
loop_
 _atom_site_type_symbol
 _atom_site_label
 _atom_site_symmetry_multiplicity
 _atom_site_fract_x
 _atom_site_fract_y
 _atom_site_fract_z
 _atom_site_occupancy
  Ba  Ba0  1  0.74939394  0.00000000  0.75000000  1
  Ba  Ba1  1  0.25060606  0.00000000  0.25000000  1
  Ca  Ca2  1  0.40341341  0.65322908  0.87053863  1
  Ca  Ca3  1  0.94335751  0.65322908  0.37053863  1
  Ca  Ca4  1  0.05664249  0.34677092  0.62946137  1
  Ca  Ca5  1  0.59658659  0.34677092  0.12946137  1
  I  I6  1  0.49368711  0.86350555  0.91898423  1
  I  I7  1  0.64280735  0.86350555  0.41898423  1
  I  I8  1  0.13429502  0.77475850  0.61755902  1
  I  I9  1  0.09094647  0.77475850  0.11755902  1
  I  I10  1  0.75936392  0.56546470  0.64322255  1
  I  I11  1  0.67517038  0.56546470  0.14322255  1
  I  I12  1  0.32482962  0.43453430  0.85677745  1
  I  I13  1  0.24063608  0.43453430  0.35677745  1
  I  I14  1  0.90905353  0.22524150  0.88244098  1
  I  I15  1  0.86570498  0.22524150  0.38244098  1
  I  I16  1  0.35719265  0.13649445  0.58101577  1
  I  I17  1  0.50631289  0.13649445  0.08101577  1
