# generated using pymatgen
data_Li2Ti2VO6
_symmetry_space_group_name_H-M   'P 1'
_cell_length_a   5.19986086
_cell_length_b   5.19986064
_cell_length_c   10.42233430
_cell_angle_alpha   90.00000000
_cell_angle_beta   90.00000000
_cell_angle_gamma   120.59153435
_symmetry_Int_Tables_number   1
_chemical_formula_structural   Li2Ti2VO6
_chemical_formula_sum   'Li4 Ti4 V2 O12'
_cell_volume   242.58244971
_cell_formula_units_Z   2
loop_
 _symmetry_equiv_pos_site_id
 _symmetry_equiv_pos_as_xyz
  1  'x, y, z'
loop_
 _atom_site_type_symbol
 _atom_site_label
 _atom_site_symmetry_multiplicity
 _atom_site_fract_x
 _atom_site_fract_y
 _atom_site_fract_z
 _atom_site_occupancy
  Li  Li0  1  0.16235631  0.66235631  0.75000000  1
  Li  Li1  1  0.33764369  0.83764369  0.25000000  1
  Li  Li2  1  0.66235631  0.16235631  0.75000000  1
  Li  Li3  1  0.83764369  0.33764369  0.25000000  1
  Ti  Ti4  1  0.16082269  0.83917731  0.50000000  1
  Ti  Ti5  1  0.33917731  0.66082269  0.00000000  1
  Ti  Ti6  1  0.66082269  0.33917731  0.00000000  1
  Ti  Ti7  1  0.83917731  0.16082269  0.50000000  1
  V  V8  1  0.00000000  0.00000000  0.00000000  1
  V  V9  1  0.50000000  0.50000000  0.50000000  1
  O  O10  1  0.00439314  0.64062768  0.10718315  1
  O  O11  1  0.99560686  0.35937232  0.89281685  1
  O  O12  1  0.14062768  0.50439314  0.39281685  1
  O  O13  1  0.49560686  0.85937232  0.60718315  1
  O  O14  1  0.14578039  0.14578039  0.60135076  1
  O  O15  1  0.35421961  0.35421961  0.10135076  1
  O  O16  1  0.64578039  0.64578039  0.89864924  1
  O  O17  1  0.35937232  0.99560686  0.89281685  1
  O  O18  1  0.85421961  0.85421961  0.39864924  1
  O  O19  1  0.50439314  0.14062768  0.39281685  1
  O  O20  1  0.85937232  0.49560686  0.60718315  1
  O  O21  1  0.64062768  0.00439314  0.10718315  1
