# generated using pymatgen
data_Re2H6PbC(NO5)2
_symmetry_space_group_name_H-M   'P 1'
_cell_length_a   10.79627980
_cell_length_b   7.83763970
_cell_length_c   14.42631353
_cell_angle_alpha   90.00000000
_cell_angle_beta   101.32358692
_cell_angle_gamma   90.00000000
_symmetry_Int_Tables_number   1
_chemical_formula_structural   Re2H6PbC(NO5)2
_chemical_formula_sum   'Re8 H24 Pb4 C4 N8 O40'
_cell_volume   1196.95386272
_cell_formula_units_Z   4
loop_
 _symmetry_equiv_pos_site_id
 _symmetry_equiv_pos_as_xyz
  1  'x, y, z'
loop_
 _atom_site_type_symbol
 _atom_site_label
 _atom_site_symmetry_multiplicity
 _atom_site_fract_x
 _atom_site_fract_y
 _atom_site_fract_z
 _atom_site_occupancy
  Re  Re0  1  0.01682244  0.74831270  0.59181603  1
  Re  Re1  1  0.01682244  0.75168730  0.09181603  1
  Re  Re2  1  0.49622425  0.61041179  0.73495313  1
  Re  Re3  1  0.49622425  0.88958821  0.23495313  1
  Re  Re4  1  0.50377575  0.11041179  0.76504687  1
  Re  Re5  1  0.50377575  0.38958821  0.26504687  1
  Re  Re6  1  0.98317756  0.24831270  0.90818397  1
  Re  Re7  1  0.98317756  0.25168730  0.40818397  1
  H  H8  1  0.16377668  0.89093214  0.77022475  1
  H  H9  1  0.14228618  0.38516731  0.67163101  1
  H  H10  1  0.19772981  0.60704658  0.81627038  1
  H  H11  1  0.14651857  0.18906298  0.64776577  1
  H  H12  1  0.26020300  0.04666666  0.82994381  1
  H  H13  1  0.30358885  0.55532332  0.91982797  1
  H  H14  1  0.16377668  0.60906786  0.27022475  1
  H  H15  1  0.14228618  0.11483269  0.17163101  1
  H  H16  1  0.19772981  0.89295342  0.31627038  1
  H  H17  1  0.14651857  0.31093702  0.14776577  1
  H  H18  1  0.26020300  0.45333334  0.32994381  1
  H  H19  1  0.30358885  0.94467668  0.41982797  1
  H  H20  1  0.69641115  0.05532332  0.58017203  1
  H  H21  1  0.73979700  0.54666666  0.67005619  1
  H  H22  1  0.85348143  0.68906298  0.85223423  1
  H  H23  1  0.80227019  0.10704658  0.68372962  1
  H  H24  1  0.85771382  0.88516731  0.82836899  1
  H  H25  1  0.83622332  0.39093214  0.72977525  1
  H  H26  1  0.69641115  0.44467668  0.08017203  1
  H  H27  1  0.73979700  0.95333334  0.17005619  1
  H  H28  1  0.85348143  0.81093702  0.35223423  1
  H  H29  1  0.80227019  0.39295342  0.18372962  1
  H  H30  1  0.85771382  0.61483269  0.32836899  1
  H  H31  1  0.83622332  0.10906786  0.22977525  1
  Pb  Pb32  1  0.35757799  0.33965320  0.53835769  1
  Pb  Pb33  1  0.35757799  0.16034680  0.03835769  1
  Pb  Pb34  1  0.64242201  0.83965320  0.96164231  1
  Pb  Pb35  1  0.64242201  0.66034680  0.46164231  1
  C  C36  1  0.29012503  0.81083386  0.88957971  1
  C  C37  1  0.29012503  0.68916614  0.38957971  1
  C  C38  1  0.70987497  0.31083386  0.61042029  1
  C  C39  1  0.70987497  0.18916614  0.11042029  1
  N  N40  1  0.22561924  0.92604610  0.82947534  1
  N  N41  1  0.25946262  0.64511940  0.87520442  1
  N  N42  1  0.22561924  0.57395390  0.32947534  1
  N  N43  1  0.25946262  0.85488060  0.37520442  1
  N  N44  1  0.74053738  0.14511940  0.62479558  1
  N  N45  1  0.77438076  0.42604610  0.67052466  1
  N  N46  1  0.74053738  0.35488060  0.12479558  1
  N  N47  1  0.77438076  0.07395390  0.17052466  1
  O  O48  1  0.05436509  0.61258204  0.69044798  1
  O  O49  1  0.08038013  0.95146221  0.62245927  1
  O  O50  1  0.14981829  0.26751216  0.94249248  1
  O  O51  1  0.08019047  0.66444482  0.50014001  1
  O  O52  1  0.05436509  0.88741796  0.19044798  1
  O  O53  1  0.19935919  0.29189165  0.66218039  1
  O  O54  1  0.08038013  0.54853779  0.12245927  1
  O  O55  1  0.14981829  0.23248784  0.44249248  1
  O  O56  1  0.08019047  0.83555518  0.00014101  1
  O  O57  1  0.19935919  0.20810835  0.16218039  1
  O  O58  1  0.37706286  0.85916293  0.95929225  1
  O  O59  1  0.33881199  0.66127340  0.69082912  1
  O  O60  1  0.40734039  0.20121424  0.83733358  1
  O  O61  1  0.44851588  0.09185060  0.64071257  1
  O  O62  1  0.37706286  0.64083707  0.45929225  1
  O  O63  1  0.33881199  0.83872660  0.19082912  1
  O  O64  1  0.49705578  0.39056005  0.70335277  1
  O  O65  1  0.40734039  0.29878576  0.33733358  1
  O  O66  1  0.50294422  0.89056005  0.79664723  1
  O  O67  1  0.44851588  0.40814940  0.14071257  1
  O  O68  1  0.55148412  0.59185060  0.85928743  1
  O  O69  1  0.49705578  0.10943995  0.20335277  1
  O  O70  1  0.59265961  0.70121424  0.66266642  1
  O  O71  1  0.50294422  0.60943995  0.29664723  1
  O  O72  1  0.66118801  0.16127340  0.80917088  1
  O  O73  1  0.62293714  0.35916293  0.54070775  1
  O  O74  1  0.55148412  0.90814940  0.35928743  1
  O  O75  1  0.59265961  0.79878576  0.16266642  1
  O  O76  1  0.66118801  0.33872660  0.30917088  1
  O  O77  1  0.62293714  0.14083707  0.04070775  1
  O  O78  1  0.80064081  0.79189165  0.83781961  1
  O  O79  1  0.91980953  0.16444482  -0.00014001  1
  O  O80  1  0.85018171  0.76751216  0.55750752  1
  O  O81  1  0.91961987  0.45146221  0.87754073  1
  O  O82  1  0.80064081  0.70810835  0.33781961  1
  O  O83  1  0.94563491  0.11258204  0.80955202  1
  O  O84  1  0.91980953  0.33555518  0.49985899  1
  O  O85  1  0.85018171  0.73248784  0.05750752  1
  O  O86  1  0.91961987  0.04853779  0.37754073  1
  O  O87  1  0.94563491  0.38741796  0.30955202  1
