# generated using pymatgen
data_LiFeSiO4
_symmetry_space_group_name_H-M   'P 1'
_cell_length_a   5.91403060
_cell_length_b   5.69458631
_cell_length_c   5.69458631
_cell_angle_alpha   59.02692248
_cell_angle_beta   58.71685027
_cell_angle_gamma   58.71685027
_symmetry_Int_Tables_number   1
_chemical_formula_structural   LiFeSiO4
_chemical_formula_sum   'Li2 Fe2 Si2 O8'
_cell_volume   131.95440111
_cell_formula_units_Z   2
loop_
 _symmetry_equiv_pos_site_id
 _symmetry_equiv_pos_as_xyz
  1  'x, y, z'
loop_
 _atom_site_type_symbol
 _atom_site_label
 _atom_site_symmetry_multiplicity
 _atom_site_fract_x
 _atom_site_fract_y
 _atom_site_fract_z
 _atom_site_occupancy
  Li  Li0  1  0.50000000  0.50000000  0.00000000  1
  Li  Li1  1  0.50000000  0.00000000  0.50000000  1
  Fe  Fe2  1  0.00000000  0.50000000  0.50000000  1
  Fe  Fe3  1  0.50000000  0.50000000  0.50000000  1
  Si  Si4  1  0.11641826  0.13358174  0.13358174  1
  Si  Si5  1  0.88358174  0.86641826  0.86641826  1
  O  O6  1  0.23329569  0.24899887  0.24899887  1
  O  O7  1  0.76870657  0.24899887  0.24899887  1
  O  O8  1  0.24368432  0.76366918  0.24896217  1
  O  O9  1  0.24368432  0.24896217  0.76366918  1
  O  O10  1  0.75631568  0.75103783  0.23633082  1
  O  O11  1  0.75631568  0.23633082  0.75103783  1
  O  O12  1  0.23129343  0.75100113  0.75100113  1
  O  O13  1  0.76670431  0.75100113  0.75100113  1
