# generated using pymatgen
data_Mn3H18C8(N6O)6
_symmetry_space_group_name_H-M   'P 1'
_cell_length_a   9.74264270
_cell_length_b   12.15428732
_cell_length_c   15.04101819
_cell_angle_alpha   113.83085929
_cell_angle_beta   108.89707514
_cell_angle_gamma   90.00000000
_symmetry_Int_Tables_number   1
_chemical_formula_structural   Mn3H18C8(N6O)6
_chemical_formula_sum   'Mn6 H36 C16 N72 O12'
_cell_volume   1523.69529971
_cell_formula_units_Z   2
loop_
 _symmetry_equiv_pos_site_id
 _symmetry_equiv_pos_as_xyz
  1  'x, y, z'
loop_
 _atom_site_type_symbol
 _atom_site_label
 _atom_site_symmetry_multiplicity
 _atom_site_fract_x
 _atom_site_fract_y
 _atom_site_fract_z
 _atom_site_occupancy
  Mn  Mn0  1  0.18681881  0.68681881  0.37363762  1
  Mn  Mn1  1  0.81318119  0.31318119  0.62636238  1
  Mn  Mn2  1  0.31318119  0.81318119  0.62636238  1
  Mn  Mn3  1  0.68681881  0.18681881  0.37363762  1
  Mn  Mn4  1  -0.00000000  0.00000000  0.00000000  1
  Mn  Mn5  1  0.50000000  0.50000000  0.00000000  1
  H  H6  1  0.51750832  0.25000000  0.50000000  1
  H  H7  1  0.48249168  0.75000000  0.50000000  1
  H  H8  1  0.98249168  0.25000000  0.50000000  1
  H  H9  1  0.01750832  0.75000000  0.50000000  1
  H  H10  1  0.12499626  0.36675412  0.06038946  1
  H  H11  1  0.87500374  0.63324588  0.93961054  1
  H  H12  1  0.93539319  0.69363534  0.06038946  1
  H  H13  1  0.37500374  0.80636466  0.93961054  1
  H  H14  1  0.06460681  0.30636466  0.93961054  1
  H  H15  1  0.62499626  0.19363534  0.06038946  1
  H  H16  1  0.56460681  0.13324588  0.93961054  1
  H  H17  1  0.43539319  0.86675412  0.06038946  1
  H  H18  1  0.57554275  0.56426308  0.78747222  1
  H  H19  1  0.42445725  0.43573692  0.21252778  1
  H  H20  1  0.21192948  0.22320914  0.78747222  1
  H  H21  1  0.92445725  0.27679086  0.21252778  1
  H  H22  1  0.78807052  0.77679086  0.21252778  1
  H  H23  1  0.07554275  0.72320914  0.78747222  1
  H  H24  1  0.28807052  0.93573692  0.21252778  1
  H  H25  1  0.71192948  0.06426308  0.78747222  1
  H  H26  1  0.37546653  0.39596768  0.65737257  1
  H  H27  1  0.62453347  0.60403232  0.34262743  1
  H  H28  1  0.28190604  0.26140489  0.65737257  1
  H  H29  1  0.12453347  0.23859511  0.34262743  1
  H  H30  1  0.71809396  0.73859511  0.34262743  1
  H  H31  1  0.87546653  0.76140489  0.65737257  1
  H  H32  1  0.21809396  0.10403232  0.34262743  1
  H  H33  1  0.78190604  0.89596768  0.65737257  1
  H  H34  1  0.30719245  0.31590267  1.00000000  1
  H  H35  1  0.69280755  0.68409733  0.00000000  1
  H  H36  1  0.19280755  0.81590267  1.00000000  1
  H  H37  1  0.80719245  0.18409733  0.00000000  1
  H  H38  1  0.45603154  0.26623007  0.00000000  1
  H  H39  1  0.54396846  0.73376993  1.00000000  1
  H  H40  1  0.04396846  0.76623007  0.00000000  1
  H  H41  1  0.95603154  0.23376993  1.00000000  1
  C  C42  1  0.40064271  0.26260039  0.20428663  1
  C  C43  1  0.59935729  0.73739961  0.79571337  1
  C  C44  1  0.80364392  0.94168624  0.20428663  1
  C  C45  1  0.09935729  0.55831376  0.79571337  1
  C  C46  1  0.19635608  0.05831376  0.79571337  1
  C  C47  1  0.90064271  0.44168624  0.20428663  1
  C  C48  1  0.69635608  0.23739961  0.79571337  1
  C  C49  1  0.30364392  0.76260039  0.20428663  1
  C  C50  1  0.38341670  0.58304826  0.69195161  1
  C  C51  1  0.61658330  0.41695174  0.30804839  1
  C  C52  1  0.30853492  0.10890336  0.69195161  1
  C  C53  1  0.11658330  0.39109664  0.30804839  1
  C  C54  1  0.69146508  0.89109664  0.30804839  1
  C  C55  1  0.88341670  0.60890336  0.69195161  1
  C  C56  1  0.19146508  0.91695174  0.30804839  1
  C  C57  1  0.80853492  0.08304826  0.69195161  1
  N  N58  1  0.52055398  0.62510280  0.76251208  1
  N  N59  1  0.47944602  0.37489720  0.23748792  1
  N  N60  1  0.24195809  0.13740927  0.76251208  1
  N  N61  1  0.97944602  0.36259073  0.23748792  1
  N  N62  1  0.75804191  0.86259073  0.23748792  1
  N  N63  1  0.02055398  0.63740927  0.76251208  1
  N  N64  1  0.25804191  0.87489720  0.23748792  1
  N  N65  1  0.74195809  0.12510280  0.76251208  1
  N  N66  1  0.21690064  0.48966392  0.34870353  1
  N  N67  1  0.78309936  0.51033608  0.65129647  1
  N  N68  1  0.13180289  0.85903961  0.34870353  1
  N  N69  1  0.28309936  0.64096039  0.65129647  1
  N  N70  1  0.86819711  0.14096039  0.65129647  1
  N  N71  1  0.71690064  0.35903961  0.34870353  1
  N  N72  1  0.36819711  0.01033608  0.65129647  1
  N  N73  1  0.63180289  0.98966392  0.34870353  1
  N  N74  1  0.44374733  0.17622800  0.23741136  1
  N  N75  1  0.55625267  0.82377200  0.76258864  1
  N  N76  1  0.79366402  0.06118336  0.23741136  1
  N  N77  1  0.05625267  0.43881664  0.76258864  1
  N  N78  1  0.20633598  0.93881664  0.76258864  1
  N  N79  1  0.94374733  0.56118336  0.23741136  1
  N  N80  1  0.70633598  0.32377200  0.76258864  1
  N  N81  1  0.29366402  0.67622800  0.23741136  1
  N  N82  1  0.22053176  0.12059602  0.12382303  1
  N  N83  1  0.77946824  0.87940398  0.87617697  1
  N  N84  1  0.90329127  0.00322701  0.12382303  1
  N  N85  1  0.27946824  0.49677299  0.87617697  1
  N  N86  1  0.09670873  0.99677299  0.87617697  1
  N  N87  1  0.72053176  0.50322701  0.12382303  1
  N  N88  1  0.59670873  0.37940398  0.87617697  1
  N  N89  1  0.40329127  0.62059602  0.12382303  1
  N  N90  1  0.31722794  0.36548331  0.41555356  1
  N  N91  1  0.68277206  0.63451669  0.58444644  1
  N  N92  1  0.09832562  0.05007025  0.41555356  1
  N  N93  1  0.18277206  0.44992975  0.58444644  1
  N  N94  1  0.90167438  0.94992975  0.58444644  1
  N  N95  1  0.81722794  0.55007025  0.41555356  1
  N  N96  1  0.40167438  0.13451669  0.58444644  1
  N  N97  1  0.59832562  0.86548331  0.41555356  1
  N  N98  1  0.64115675  0.41281032  0.81504785  1
  N  N99  1  0.35884325  0.58718968  0.18495215  1
  N  N100  1  0.17389109  0.40223753  0.81504785  1
  N  N101  1  0.85884325  0.09776247  0.18495215  1
  N  N102  1  0.82610891  0.59776247  0.18495215  1
  N  N103  1  0.14115675  0.90223753  0.81504785  1
  N  N104  1  0.32610891  0.08718968  0.18495215  1
  N  N105  1  0.67389109  0.91281032  0.81504785  1
  N  N106  1  0.26393997  0.23133186  0.13377362  1
  N  N107  1  0.73606003  0.76866814  0.86622638  1
  N  N108  1  0.86983365  0.90244176  0.13377362  1
  N  N109  1  0.23606003  0.59755824  0.86622638  1
  N  N110  1  0.13016635  0.09755824  0.86622638  1
  N  N111  1  0.76393997  0.40244176  0.13377362  1
  N  N112  1  0.63016635  0.26866814  0.86622638  1
  N  N113  1  0.36983365  0.73133186  0.13377362  1
  N  N114  1  0.33915490  0.46931786  0.41439881  1
  N  N115  1  0.66084510  0.53068214  0.58560119  1
  N  N116  1  0.07524391  0.94508095  0.41439881  1
  N  N117  1  0.16084510  0.55491905  0.58560119  1
  N  N118  1  0.92475609  0.05491905  0.58560119  1
  N  N119  1  0.83915490  0.44508095  0.41439881  1
  N  N120  1  0.42475609  0.03068214  0.58560119  1
  N  N121  1  0.57524391  0.96931786  0.41439881  1
  N  N122  1  0.17759955  0.31386096  0.34821420  1
  N  N123  1  0.82240045  0.68613904  0.65178580  1
  N  N124  1  0.17061465  0.03435324  0.34821420  1
  N  N125  1  0.32240045  0.46564676  0.65178580  1
  N  N126  1  0.82938535  0.96564676  0.65178580  1
  N  N127  1  0.67759955  0.53435324  0.34821420  1
  N  N128  1  0.32938535  0.18613904  0.65178580  1
  N  N129  1  0.67061465  0.81386096  0.34821420  1
  O  O130  1  0.40311417  0.33775058  1.00000000  1
  O  O131  1  0.59688583  0.66224942  0.00000000  1
  O  O132  1  0.09688583  0.83775058  1.00000000  1
  O  O133  1  0.90311417  0.16224942  0.00000000  1
  O  O134  1  0.03625843  0.35018642  1.00000000  1
  O  O135  1  0.96374157  0.64981358  0.00000000  1
  O  O136  1  0.46374157  0.85018642  1.00000000  1
  O  O137  1  0.53625843  0.14981358  0.00000000  1
  O  O138  1  0.61675042  0.25000000  0.50000000  1
  O  O139  1  0.38324958  0.75000000  0.50000000  1
  O  O140  1  0.88324958  0.25000000  0.50000000  1
  O  O141  1  0.11675042  0.75000000  0.50000000  1
