# generated using pymatgen
data_Fe3(OF2)2
_symmetry_space_group_name_H-M   'P 1'
_cell_length_a   4.75776108
_cell_length_b   4.78914781
_cell_length_c   9.47782219
_cell_angle_alpha   90.00464704
_cell_angle_beta   89.99956386
_cell_angle_gamma   88.81763144
_symmetry_Int_Tables_number   1
_chemical_formula_structural   Fe3(OF2)2
_chemical_formula_sum   'Fe6 O4 F8'
_cell_volume   215.91208260
_cell_formula_units_Z   2
loop_
 _symmetry_equiv_pos_site_id
 _symmetry_equiv_pos_as_xyz
  1  'x, y, z'
loop_
 _atom_site_type_symbol
 _atom_site_label
 _atom_site_symmetry_multiplicity
 _atom_site_fract_x
 _atom_site_fract_y
 _atom_site_fract_z
 _atom_site_occupancy
  Fe  Fe0  1  0.02488042  0.01087252  0.99222912  1
  Fe  Fe1  1  0.02511368  0.01066685  0.34109279  1
  Fe  Fe2  1  0.01776129  0.96764508  0.66671333  1
  Fe  Fe3  1  0.47959128  0.47020004  0.16663083  1
  Fe  Fe4  1  0.46866093  0.50824791  0.84347686  1
  Fe  Fe5  1  0.46848465  0.50800577  0.48983830  1
  O  O6  1  0.19625681  0.79830394  0.51020944  1
  O  O7  1  0.19632283  0.79853781  0.82318750  1
  O  O8  1  0.31818820  0.31322362  0.00022852  1
  O  O9  1  0.31809025  0.31328226  0.33297106  1
  F  F10  1  0.21356783  0.79685983  0.16658037  1
  F  F11  1  0.30275574  0.30298501  0.66669905  1
  F  F12  1  0.69782388  0.69658866  0.00172367  1
  F  F13  1  0.69788474  0.69641673  0.33160837  1
  F  F14  1  0.68937423  0.68864808  0.66673958  1
  F  F15  1  0.80523222  0.20191634  0.16664610  1
  F  F16  1  0.79001231  0.20886391  0.81643469  1
  F  F17  1  0.78999871  0.20873963  0.51699243  1
