# generated using pymatgen
data_LiFePO4
_symmetry_space_group_name_H-M   'P 1'
_cell_length_a   8.48817367
_cell_length_b   7.54977952
_cell_length_c   15.00624923
_cell_angle_alpha   90.00000000
_cell_angle_beta   89.60176454
_cell_angle_gamma   90.00000000
_symmetry_Int_Tables_number   1
_chemical_formula_structural   LiFePO4
_chemical_formula_sum   'Li12 Fe12 P12 O48'
_cell_volume   961.63484200
_cell_formula_units_Z   12
loop_
 _symmetry_equiv_pos_site_id
 _symmetry_equiv_pos_as_xyz
  1  'x, y, z'
loop_
 _atom_site_type_symbol
 _atom_site_label
 _atom_site_symmetry_multiplicity
 _atom_site_fract_x
 _atom_site_fract_y
 _atom_site_fract_z
 _atom_site_occupancy
  Li  Li0  1  0.05019758  0.73897025  0.09288982  1
  Li  Li1  1  0.08917311  0.77190984  0.73110592  1
  Li  Li2  1  0.11043018  0.73121629  0.42328217  1
  Li  Li3  1  0.38956982  0.23121629  0.07671783  1
  Li  Li4  1  0.41082689  0.27190984  0.76889408  1
  Li  Li5  1  0.44980242  0.23897025  0.40711018  1
  Li  Li6  1  0.55019758  0.76102975  0.59288982  1
  Li  Li7  1  0.58917311  0.72809016  0.23110592  1
  Li  Li8  1  0.61043018  0.76878371  0.92328217  1
  Li  Li9  1  0.88956982  0.26878371  0.57671783  1
  Li  Li10  1  0.91082689  0.22809016  0.26889408  1
  Li  Li11  1  0.94980242  0.26102975  0.90711018  1
  Fe  Fe12  1  0.22834942  0.01636279  0.56558207  1
  Fe  Fe13  1  0.24308318  0.97376162  0.90909148  1
  Fe  Fe14  1  0.24010174  0.07733916  0.25280984  1
  Fe  Fe15  1  0.25989826  0.57733916  0.24719016  1
  Fe  Fe16  1  0.25691682  0.47376162  0.59090852  1
  Fe  Fe17  1  0.27165058  0.51636279  0.93441793  1
  Fe  Fe18  1  0.72834942  0.48363721  0.06558207  1
  Fe  Fe19  1  0.74308318  0.52623838  0.40909148  1
  Fe  Fe20  1  0.74010174  0.42266084  0.75280984  1
  Fe  Fe21  1  0.75989826  0.92266084  0.74719016  1
  Fe  Fe22  1  0.75691682  0.02623838  0.09090852  1
  Fe  Fe23  1  0.77165058  0.98363721  0.43441793  1
  P  P24  1  0.05177823  0.31996313  0.09076518  1
  P  P25  1  0.08458672  0.18114536  0.72949762  1
  P  P26  1  0.10390647  0.32352073  0.42533084  1
  P  P27  1  0.39609353  0.82352073  0.07466916  1
  P  P28  1  0.41541328  0.68114536  0.77050238  1
  P  P29  1  0.44822177  0.81996313  0.40923482  1
  P  P30  1  0.55177823  0.18003687  0.59076518  1
  P  P31  1  0.58458672  0.31885464  0.22949762  1
  P  P32  1  0.60390647  0.17647927  0.92533084  1
  P  P33  1  0.89609353  0.67647927  0.57466916  1
  P  P34  1  0.91541328  0.81885464  0.27050238  1
  P  P35  1  0.94822177  0.68003687  0.90923482  1
  O  O36  1  0.04130335  0.50570166  0.89023497  1
  O  O37  1  0.05140367  0.63844462  0.62346122  1
  O  O38  1  0.05052912  0.80671044  0.96554648  1
  O  O39  1  0.07306161  0.72331972  0.29153117  1
  O  O40  1  0.07737375  0.19667980  0.50626556  1
  O  O41  1  0.08024417  0.00407748  0.67543343  1
  O  O42  1  0.10035799  0.14028023  0.83002481  1
  O  O43  1  0.09143804  0.23723112  0.18349983  1
  O  O44  1  0.17902057  0.49721691  0.46122291  1
  O  O45  1  0.20911644  0.36624127  0.04224253  1
  O  O46  1  0.22820529  0.24250039  0.35916420  1
  O  O47  1  0.22608802  0.29137017  0.69439703  1
  O  O48  1  0.27179471  0.74250039  0.14083580  1
  O  O49  1  0.27391198  0.79137017  0.80560297  1
  O  O50  1  0.29088356  0.86624127  0.45775747  1
  O  O51  1  0.32097943  0.99721691  0.03877709  1
  O  O52  1  0.40856196  0.73723112  0.31650017  1
  O  O53  1  0.39964201  0.64028023  0.66997519  1
  O  O54  1  0.41975583  0.50407748  0.82456657  1
  O  O55  1  0.42693839  0.22331972  0.20846883  1
  O  O56  1  0.42262625  0.69667980  0.99373444  1
  O  O57  1  0.44947088  0.30671044  0.53445352  1
  O  O58  1  0.44859633  0.13844462  0.87653878  1
  O  O59  1  0.45869665  0.00570166  0.60976503  1
  O  O60  1  0.54130335  0.99429834  0.39023497  1
  O  O61  1  0.55140367  0.86155538  0.12346122  1
  O  O62  1  0.55052912  0.69328956  0.46554648  1
  O  O63  1  0.57737375  0.30332020  0.00626556  1
  O  O64  1  0.57306161  0.77668028  0.79153117  1
  O  O65  1  0.58024417  0.49592252  0.17543343  1
  O  O66  1  0.60035799  0.35971977  0.33002481  1
  O  O67  1  0.59143804  0.26276888  0.68349983  1
  O  O68  1  0.67902057  0.00278309  0.96122291  1
  O  O69  1  0.70911644  0.13375873  0.54224253  1
  O  O70  1  0.72608802  0.20862983  0.19439703  1
  O  O71  1  0.72820529  0.25749961  0.85916420  1
  O  O72  1  0.77391198  0.70862983  0.30560297  1
  O  O73  1  0.77179471  0.75749961  0.64083580  1
  O  O74  1  0.79088356  0.63375873  0.95775747  1
  O  O75  1  0.82097943  0.50278309  0.53877709  1
  O  O76  1  0.90856196  0.76276888  0.81650017  1
  O  O77  1  0.89964201  0.85971977  0.16997519  1
  O  O78  1  0.91975583  0.99592252  0.32456657  1
  O  O79  1  0.92262625  0.80332020  0.49373444  1
  O  O80  1  0.92693839  0.27668028  0.70846883  1
  O  O81  1  0.94947088  0.19328956  0.03445352  1
  O  O82  1  0.94859633  0.36155538  0.37653878  1
  O  O83  1  0.95869665  0.49429834  0.10976503  1
