# generated using pymatgen
data_LiCr(PO3)3
_symmetry_space_group_name_H-M   'P 1'
_cell_length_a   7.90931494
_cell_length_b   8.80286467
_cell_length_c   12.76470282
_cell_angle_alpha   90.00000000
_cell_angle_beta   90.00000000
_cell_angle_gamma   90.00000000
_symmetry_Int_Tables_number   1
_chemical_formula_structural   LiCr(PO3)3
_chemical_formula_sum   'Li4 Cr4 P12 O36'
_cell_volume   888.73769877
_cell_formula_units_Z   4
loop_
 _symmetry_equiv_pos_site_id
 _symmetry_equiv_pos_as_xyz
  1  'x, y, z'
loop_
 _atom_site_type_symbol
 _atom_site_label
 _atom_site_symmetry_multiplicity
 _atom_site_fract_x
 _atom_site_fract_y
 _atom_site_fract_z
 _atom_site_occupancy
  Li  Li0  1  0.00994395  0.37346601  0.98862654  1
  Li  Li1  1  0.49005605  0.62653399  0.48862654  1
  Li  Li2  1  0.50994395  0.12653399  0.01137346  1
  Li  Li3  1  0.99005605  0.87346601  0.51137346  1
  Cr  Cr4  1  0.13743051  0.20782560  0.62811996  1
  Cr  Cr5  1  0.36256949  0.79217440  0.12811996  1
  Cr  Cr6  1  0.63743051  0.29217440  0.37188004  1
  Cr  Cr7  1  0.86256949  0.70782560  0.87188004  1
  P  P8  1  0.20825627  0.00341514  0.33912609  1
  P  P9  1  0.15849205  0.48050368  0.18924070  1
  P  P10  1  0.24716105  0.67114896  0.89273155  1
  P  P11  1  0.25283895  0.32885104  0.39273155  1
  P  P12  1  0.34150795  0.51949632  0.68924070  1
  P  P13  1  0.29174373  0.99658486  0.83912609  1
  P  P14  1  0.70825627  0.49658486  0.66087391  1
  P  P15  1  0.65849205  0.01949632  0.81075930  1
  P  P16  1  0.74716105  0.82885104  0.10726845  1
  P  P17  1  0.75283895  0.17114896  0.60726845  1
  P  P18  1  0.84150795  0.98050368  0.31075930  1
  P  P19  1  0.79174373  0.50341514  0.16087391  1
  O  O20  1  0.97837842  0.56846845  0.18870370  1
  O  O21  1  0.08406431  0.58150275  0.90655011  1
  O  O22  1  0.13972565  0.39615471  0.30142204  1
  O  O23  1  0.20971836  0.39889794  0.70275158  1
  O  O24  1  0.18889729  0.83518447  0.84834612  1
  O  O25  1  0.28088067  0.92903392  0.24408995  1
  O  O26  1  0.20491162  0.92257848  0.44188020  1
  O  O27  1  0.17016045  0.36788072  0.10244048  1
  O  O28  1  0.13683442  0.31209522  0.48434844  1
  O  O29  1  0.36316558  0.68790478  0.98434844  1
  O  O30  1  0.32983955  0.63211928  0.60244048  1
  O  O31  1  0.29508838  0.07742252  0.94188020  1
  O  O32  1  0.21911933  0.07096608  0.74408995  1
  O  O33  1  0.31110271  0.16481553  0.34834712  1
  O  O34  1  0.29028164  0.60110206  0.20275158  1
  O  O35  1  0.36027435  0.60384529  0.80142204  1
  O  O36  1  0.41593569  0.41849725  0.40655011  1
  O  O37  1  0.52162158  0.43153155  0.68870370  1
  O  O38  1  0.47837842  0.93153155  0.81129630  1
  O  O39  1  0.58406431  0.91849725  0.09344989  1
  O  O40  1  0.63972565  0.10384529  0.69857796  1
  O  O41  1  0.70971836  0.10110206  0.29724842  1
  O  O42  1  0.68889729  0.66481553  0.15165288  1
  O  O43  1  0.78088067  0.57096608  0.75591005  1
  O  O44  1  0.70491162  0.57742152  0.55811980  1
  O  O45  1  0.67016045  0.13211928  0.89755952  1
  O  O46  1  0.63683442  0.18790478  0.51565156  1
  O  O47  1  0.86316558  0.81209522  0.01565156  1
  O  O48  1  0.82983955  0.86788072  0.39755952  1
  O  O49  1  0.79508838  0.42257848  0.05811980  1
  O  O50  1  0.71911933  0.42903392  0.25591005  1
  O  O51  1  0.81110271  0.33518447  0.65165388  1
  O  O52  1  0.79028164  0.89889794  0.79724842  1
  O  O53  1  0.86027435  0.89615471  0.19857796  1
  O  O54  1  0.91593569  0.08150275  0.59344989  1
  O  O55  1  0.02162158  0.06846845  0.31129630  1
