# generated using pymatgen
data_Li6CoCu3(PO4)4
_symmetry_space_group_name_H-M   'P 1'
_cell_length_a   5.07791608
_cell_length_b   6.26020455
_cell_length_c   10.45222691
_cell_angle_alpha   89.98179893
_cell_angle_beta   90.92786824
_cell_angle_gamma   89.86443538
_symmetry_Int_Tables_number   1
_chemical_formula_structural   Li6CoCu3(PO4)4
_chemical_formula_sum   'Li6 Co1 Cu3 P4 O16'
_cell_volume   332.21916180
_cell_formula_units_Z   1
loop_
 _symmetry_equiv_pos_site_id
 _symmetry_equiv_pos_as_xyz
  1  'x, y, z'
loop_
 _atom_site_type_symbol
 _atom_site_label
 _atom_site_symmetry_multiplicity
 _atom_site_fract_x
 _atom_site_fract_y
 _atom_site_fract_z
 _atom_site_occupancy
  Li  Li0  1  0.10329563  0.48896809  0.11464001  1
  Li  Li1  1  0.10308212  0.01105291  0.11482641  1
  Li  Li2  1  0.38021025  0.49400499  0.63289840  1
  Li  Li3  1  0.37971915  0.00594974  0.63244097  1
  Li  Li4  1  0.64213638  0.99649854  0.35814091  1
  Li  Li5  1  0.64203955  0.50385928  0.35827236  1
  Co  Co6  1  0.92146161  0.24302716  0.72380813  1
  Cu  Cu7  1  0.14442100  0.75012498  0.34113758  1
  Cu  Cu8  1  0.33828515  0.75108228  0.83577599  1
  Cu  Cu9  1  0.64740806  0.25012748  0.13887842  1
  P  P10  1  0.13058933  0.25002203  0.41140758  1
  P  P11  1  0.38541947  0.25134355  0.88839548  1
  P  P12  1  0.59830312  0.75013598  0.10260567  1
  P  P13  1  0.87177706  0.74954006  0.59862718  1
  O  O14  1  0.20963412  0.25012621  0.55622661  1
  O  O15  1  0.17605956  0.75061456  0.61750421  1
  O  O16  1  0.25510383  0.05169623  0.34352059  1
  O  O17  1  0.25480789  0.44808311  0.34353550  1
  O  O18  1  0.25689169  0.05938398  0.81251863  1
  O  O19  1  0.25696776  0.44524795  0.81543843  1
  O  O20  1  0.29913500  0.75000871  0.13443553  1
  O  O21  1  0.28536800  0.24884613  0.02945642  1
  O  O22  1  0.64237992  0.75051496  0.95959890  1
  O  O23  1  0.68652242  0.25005096  0.88475148  1
  O  O24  1  0.73468285  0.55077294  0.16950726  1
  O  O25  1  0.73441408  0.94895248  0.16955471  1
  O  O26  1  0.75089353  0.95623613  0.65681508  1
  O  O27  1  0.75382434  0.54290530  0.65626563  1
  O  O28  1  0.82957289  0.25004608  0.39500837  1
  O  O29  1  0.80085925  0.75077719  0.45054756  1
