# generated using pymatgen
data_TiFe3(PO4)6
_symmetry_space_group_name_H-M   'P 1'
_cell_length_a   8.93821018
_cell_length_b   8.93820979
_cell_length_c   8.93820968
_cell_angle_alpha   58.54705127
_cell_angle_beta   58.54705280
_cell_angle_gamma   58.54704845
_symmetry_Int_Tables_number   1
_chemical_formula_structural   TiFe3(PO4)6
_chemical_formula_sum   'Ti1 Fe3 P6 O24'
_cell_volume   488.15799946
_cell_formula_units_Z   1
loop_
 _symmetry_equiv_pos_site_id
 _symmetry_equiv_pos_as_xyz
  1  'x, y, z'
loop_
 _atom_site_type_symbol
 _atom_site_label
 _atom_site_symmetry_multiplicity
 _atom_site_fract_x
 _atom_site_fract_y
 _atom_site_fract_z
 _atom_site_occupancy
  Ti  Ti0  1  0.85986981  0.85986981  0.85986981  1
  Fe  Fe1  1  0.14302366  0.14302366  0.14302366  1
  Fe  Fe2  1  0.35809825  0.35809825  0.35809825  1
  Fe  Fe3  1  0.64256979  0.64256979  0.64256979  1
  P  P4  1  0.03356602  0.75077840  0.46579909  1
  P  P5  1  0.46579909  0.03356602  0.75077840  1
  P  P6  1  0.75077840  0.46579909  0.03356602  1
  P  P7  1  0.25250351  0.53234538  0.96552326  1
  P  P8  1  0.53234538  0.96552326  0.25250351  1
  P  P9  1  0.96552326  0.25250351  0.53234538  1
  O  O10  1  0.13694480  0.27216100  0.51097425  1
  O  O11  1  0.27216100  0.51097425  0.13694480  1
  O  O12  1  0.06253058  0.92093330  0.28870047  1
  O  O13  1  0.51097425  0.13694480  0.27216100  1
  O  O14  1  0.20934364  0.57734613  0.44712759  1
  O  O15  1  0.99367030  0.78696322  0.63682637  1
  O  O16  1  0.28870047  0.06253058  0.92093330  1
  O  O17  1  0.44712759  0.20934364  0.57734613  1
  O  O18  1  0.57734613  0.44712759  0.20934364  1
  O  O19  1  0.22837487  0.36103774  0.99258093  1
  O  O20  1  0.07904110  0.70795137  0.93061109  1
  O  O21  1  0.36103774  0.99258093  0.22837487  1
  O  O22  1  0.63682637  0.99367030  0.78696322  1
  O  O23  1  0.92093330  0.28870047  0.06253058  1
  O  O24  1  0.78696322  0.63682637  0.99367030  1
  O  O25  1  0.42445754  0.55756151  0.79090800  1
  O  O26  1  0.55756151  0.79090800  0.42445754  1
  O  O27  1  0.70795137  0.93061109  0.07904110  1
  O  O28  1  0.99258093  0.22837487  0.36103774  1
  O  O29  1  0.79090800  0.42445754  0.55756151  1
  O  O30  1  0.49124301  0.86329976  0.72533325  1
  O  O31  1  0.93061109  0.07904110  0.70795137  1
  O  O32  1  0.72533325  0.49124301  0.86329976  1
  O  O33  1  0.86329976  0.72533325  0.49124301  1
