# generated using pymatgen
data_Li3V4FeO12
_symmetry_space_group_name_H-M   'P 1'
_cell_length_a   6.91493630
_cell_length_b   6.91493648
_cell_length_c   5.86094232
_cell_angle_alpha   74.12592391
_cell_angle_beta   105.87407467
_cell_angle_gamma   97.06540269
_symmetry_Int_Tables_number   1
_chemical_formula_structural   Li3V4FeO12
_chemical_formula_sum   'Li3 V4 Fe1 O12'
_cell_volume   258.92999871
_cell_formula_units_Z   1
loop_
 _symmetry_equiv_pos_site_id
 _symmetry_equiv_pos_as_xyz
  1  'x, y, z'
loop_
 _atom_site_type_symbol
 _atom_site_label
 _atom_site_symmetry_multiplicity
 _atom_site_fract_x
 _atom_site_fract_y
 _atom_site_fract_z
 _atom_site_occupancy
  Li  Li0  1  0.09655060  0.09655060  0.75000000  1
  Li  Li1  1  0.24627834  0.24627834  0.25000000  1
  Li  Li2  1  0.76098657  0.76098657  0.75000000  1
  V  V3  1  0.20109251  0.60940452  0.76868304  1
  V  V4  1  0.38897897  0.80170861  0.26984706  1
  V  V5  1  0.60940452  0.20109251  0.73131696  1
  V  V6  1  0.80170861  0.38897897  0.23015294  1
  Fe  Fe7  1  0.91564603  0.91564603  0.25000000  1
  O  O8  1  0.01532223  0.78158699  0.64485190  1
  O  O9  1  0.10063766  0.37175606  0.82596228  1
  O  O10  1  0.20801175  0.97903488  0.16747802  1
  O  O11  1  0.36123931  0.64088033  0.56497676  1
  O  O12  1  0.37175606  0.10063766  0.67403772  1
  O  O13  1  0.35134567  0.63964292  0.05941713  1
  O  O14  1  0.64088033  0.36123931  0.93502324  1
  O  O15  1  0.63413562  0.89575942  0.32725121  1
  O  O16  1  0.63964292  0.35134567  0.44058287  1
  O  O17  1  0.78158699  0.01532223  0.85514810  1
  O  O18  1  0.89575942  0.63413562  0.17274879  1
  O  O19  1  0.97903488  0.20801175  0.33252198  1
