# generated using pymatgen
data_Na5VO4
_symmetry_space_group_name_H-M   'P 1'
_cell_length_a   10.76935109
_cell_length_b   6.02926663
_cell_length_c   18.21928503
_cell_angle_alpha   90.00000000
_cell_angle_beta   90.00000000
_cell_angle_gamma   90.00000000
_symmetry_Int_Tables_number   1
_chemical_formula_structural   Na5VO4
_chemical_formula_sum   'Na40 V8 O32'
_cell_volume   1183.00166446
_cell_formula_units_Z   8
loop_
 _symmetry_equiv_pos_site_id
 _symmetry_equiv_pos_as_xyz
  1  'x, y, z'
loop_
 _atom_site_type_symbol
 _atom_site_label
 _atom_site_symmetry_multiplicity
 _atom_site_fract_x
 _atom_site_fract_y
 _atom_site_fract_z
 _atom_site_occupancy
  Na  Na0  1  0.06277396  0.08869562  0.43609994  1
  Na  Na1  1  0.06277396  0.41130438  0.93609994  1
  Na  Na2  1  0.07516543  0.59952452  0.75250908  1
  Na  Na3  1  0.07516543  0.90047548  0.25250908  1
  Na  Na4  1  0.16782864  0.90828421  0.00314283  1
  Na  Na5  1  0.16782864  0.59171579  0.50314283  1
  Na  Na6  1  0.17713454  0.10790776  0.82726106  1
  Na  Na7  1  0.17713454  0.39209224  0.32726106  1
  Na  Na8  1  0.19569898  0.58040142  0.14133969  1
  Na  Na9  1  0.19569898  0.91959858  0.64133969  1
  Na  Na10  1  0.30430102  0.08040142  0.14133969  1
  Na  Na11  1  0.30430102  0.41959858  0.64133969  1
  Na  Na12  1  0.32286546  0.60790776  0.82726106  1
  Na  Na13  1  0.32286546  0.89209224  0.32726106  1
  Na  Na14  1  0.33217136  0.40828421  0.00314283  1
  Na  Na15  1  0.33217136  0.09171579  0.50314283  1
  Na  Na16  1  0.42483457  0.40047548  0.25250908  1
  Na  Na17  1  0.42483457  0.09952452  0.75250908  1
  Na  Na18  1  0.43722604  0.91130438  0.93609994  1
  Na  Na19  1  0.43722604  0.58869562  0.43609994  1
  Na  Na20  1  0.56277396  0.08869562  0.06390006  1
  Na  Na21  1  0.56277396  0.41130438  0.56390006  1
  Na  Na22  1  0.57516543  0.90047548  0.24749092  1
  Na  Na23  1  0.57516543  0.59952452  0.74749092  1
  Na  Na24  1  0.66782864  0.59171579  0.99685717  1
  Na  Na25  1  0.66782864  0.90828421  0.49685717  1
  Na  Na26  1  0.67713454  0.39209224  0.17273894  1
  Na  Na27  1  0.67713454  0.10790776  0.67273894  1
  Na  Na28  1  0.69569898  0.58040142  0.35866031  1
  Na  Na29  1  0.69569898  0.91959858  0.85866031  1
  Na  Na30  1  0.80430102  0.08040142  0.35866031  1
  Na  Na31  1  0.80430102  0.41959858  0.85866031  1
  Na  Na32  1  0.82286546  0.60790776  0.67273894  1
  Na  Na33  1  0.82286546  0.89209224  0.17273894  1
  Na  Na34  1  0.83217136  0.40828421  0.49685717  1
  Na  Na35  1  0.83217136  0.09171579  0.99685717  1
  Na  Na36  1  0.92483457  0.09952452  0.74749092  1
  Na  Na37  1  0.92483457  0.40047548  0.24749092  1
  Na  Na38  1  0.93722604  0.91130438  0.56390006  1
  Na  Na39  1  0.93722604  0.58869562  0.06390006  1
  V  V40  1  0.03991714  0.17270060  0.12231141  1
  V  V41  1  0.03991714  0.32729940  0.62231141  1
  V  V42  1  0.46008286  0.67270060  0.12231141  1
  V  V43  1  0.46008286  0.82729940  0.62231141  1
  V  V44  1  0.53991714  0.17270060  0.37768859  1
  V  V45  1  0.53991714  0.32729940  0.87768859  1
  V  V46  1  0.96008286  0.67270060  0.37768859  1
  V  V47  1  0.96008286  0.82729940  0.87768859  1
  O  O48  1  0.04792150  0.85534640  0.12026282  1
  O  O49  1  0.04792150  0.64465360  0.62026282  1
  O  O50  1  0.12423442  0.26594714  0.21236935  1
  O  O51  1  0.12423442  0.23405286  0.71236935  1
  O  O52  1  0.13639045  0.30755770  0.04537525  1
  O  O53  1  0.13639045  0.19244230  0.54537525  1
  O  O54  1  0.13468747  0.76234096  0.37465406  1
  O  O55  1  0.13468747  0.73765904  0.87465406  1
  O  O56  1  0.36531253  0.26234096  0.37465406  1
  O  O57  1  0.36531253  0.23765904  0.87465406  1
  O  O58  1  0.36360955  0.80755770  0.04537525  1
  O  O59  1  0.36360955  0.69244230  0.54537525  1
  O  O60  1  0.37576558  0.73405286  0.71236935  1
  O  O61  1  0.37576558  0.76594714  0.21236935  1
  O  O62  1  0.45207850  0.35534640  0.12026282  1
  O  O63  1  0.45207850  0.14465360  0.62026282  1
  O  O64  1  0.54792150  0.85534640  0.37973718  1
  O  O65  1  0.54792150  0.64465360  0.87973718  1
  O  O66  1  0.62423442  0.23405286  0.78763065  1
  O  O67  1  0.62423442  0.26594714  0.28763065  1
  O  O68  1  0.63639045  0.19244230  0.95462475  1
  O  O69  1  0.63639045  0.30755770  0.45462475  1
  O  O70  1  0.63468747  0.76234096  0.12534594  1
  O  O71  1  0.63468747  0.73765904  0.62534594  1
  O  O72  1  0.86531253  0.23765904  0.62534594  1
  O  O73  1  0.86531253  0.26234096  0.12534594  1
  O  O74  1  0.86360955  0.80755770  0.45462475  1
  O  O75  1  0.86360955  0.69244230  0.95462475  1
  O  O76  1  0.87576558  0.73405286  0.78763065  1
  O  O77  1  0.87576558  0.76594714  0.28763065  1
  O  O78  1  0.95207850  0.35534640  0.37973718  1
  O  O79  1  0.95207850  0.14465360  0.87973718  1
