# generated using pymatgen
data_LiMnF3
_symmetry_space_group_name_H-M   'P 1'
_cell_length_a   8.00754176
_cell_length_b   7.02957855
_cell_length_c   12.27668268
_cell_angle_alpha   93.87286020
_cell_angle_beta   73.97252151
_cell_angle_gamma   88.24827583
_symmetry_Int_Tables_number   1
_chemical_formula_structural   LiMnF3
_chemical_formula_sum   'Li10 Mn10 F30'
_cell_volume   661.79841863
_cell_formula_units_Z   10
loop_
 _symmetry_equiv_pos_site_id
 _symmetry_equiv_pos_as_xyz
  1  'x, y, z'
loop_
 _atom_site_type_symbol
 _atom_site_label
 _atom_site_symmetry_multiplicity
 _atom_site_fract_x
 _atom_site_fract_y
 _atom_site_fract_z
 _atom_site_occupancy
  Li  Li0  1  0.08610867  0.84701051  0.34938302  1
  Li  Li1  1  0.26332105  0.74218863  0.08569757  1
  Li  Li2  1  0.25938354  0.37127865  0.52797063  1
  Li  Li3  1  0.19791911  0.49949224  0.86183495  1
  Li  Li4  1  0.45865634  0.30268298  0.25886463  1
  Li  Li5  1  0.54134366  0.69731702  0.74113537  1
  Li  Li6  1  0.80208089  0.50050776  0.13816505  1
  Li  Li7  1  0.74061646  0.62872135  0.47202937  1
  Li  Li8  1  0.73667895  0.25781137  0.91430243  1
  Li  Li9  1  0.91389133  0.15298949  0.65061598  1
  Mn  Mn10  1  0.09826554  0.95811166  0.84556849  1
  Mn  Mn11  1  0.06741649  0.42642990  0.32316099  1
  Mn  Mn12  1  0.31128448  0.87838053  0.55943089  1
  Mn  Mn13  1  0.51416005  0.80729838  0.26605217  1
  Mn  Mn14  1  0.27790964  0.24137523  0.02438124  1
  Mn  Mn15  1  0.72209036  0.75862477  0.97561876  1
  Mn  Mn16  1  0.48583995  0.19270162  0.73394783  1
  Mn  Mn17  1  0.68871552  0.12161947  0.44056911  1
  Mn  Mn18  1  0.93258351  0.57357010  0.67683901  1
  Mn  Mn19  1  0.90173446  0.04188834  0.15443151  1
  F  F20  1  0.15485697  0.96087929  0.02805008  1
  F  F21  1  0.06303011  0.96587045  0.67987374  1
  F  F22  1  0.14505836  0.66511020  0.22506596  1
  F  F23  1  0.28682745  0.90311736  0.39303778  1
  F  F24  1  0.26920665  0.52484965  0.99384172  1
  F  F25  1  0.48053334  0.83332776  0.10025890  1
  F  F26  1  0.02635764  0.68052385  0.85309831  1
  F  F27  1  0.21424119  0.61673685  0.60805211  1
  F  F28  1  0.37988890  0.90818090  0.72953856  1
  F  F29  1  0.02602513  0.32637339  0.55772949  1
  F  F30  1  0.28590590  0.23455152  0.18718775  1
  F  F31  1  0.58732808  0.82858434  0.44205392  1
  F  F32  1  0.28608010  0.40376221  0.38041165  1
  F  F33  1  0.80618435  0.77592602  0.13740102  1
  F  F34  1  0.58116338  0.52420288  0.24023755  1
  F  F35  1  0.41883662  0.47579712  0.75976245  1
  F  F36  1  0.19381565  0.22407398  0.86259898  1
  F  F37  1  0.71391990  0.59623779  0.61958835  1
  F  F38  1  0.41267192  0.17141566  0.55794608  1
  F  F39  1  0.71409410  0.76544748  0.81281225  1
  F  F40  1  0.97397487  0.67362661  0.44227051  1
  F  F41  1  0.62011110  0.09181910  0.27046144  1
  F  F42  1  0.78575881  0.38326315  0.39194789  1
  F  F43  1  0.97364236  0.31947615  0.14690169  1
  F  F44  1  0.51946666  0.16667224  0.89974110  1
  F  F45  1  0.73079335  0.47515035  0.00615828  1
  F  F46  1  0.71317255  0.09688264  0.60696222  1
  F  F47  1  0.85494164  0.33488980  0.77493404  1
  F  F48  1  0.93696989  0.03412955  0.32012626  1
  F  F49  1  0.84514303  0.03912071  0.97194992  1
