# generated using pymatgen
data_Li2Mn3(SiO3)4
_symmetry_space_group_name_H-M   'P 1'
_cell_length_a   7.67262835
_cell_length_b   10.38862029
_cell_length_c   14.09274176
_cell_angle_alpha   90.00000000
_cell_angle_beta   90.00000000
_cell_angle_gamma   90.00000000
_symmetry_Int_Tables_number   1
_chemical_formula_structural   Li2Mn3(SiO3)4
_chemical_formula_sum   'Li8 Mn12 Si16 O48'
_cell_volume   1123.30457806
_cell_formula_units_Z   4
loop_
 _symmetry_equiv_pos_site_id
 _symmetry_equiv_pos_as_xyz
  1  'x, y, z'
loop_
 _atom_site_type_symbol
 _atom_site_label
 _atom_site_symmetry_multiplicity
 _atom_site_fract_x
 _atom_site_fract_y
 _atom_site_fract_z
 _atom_site_occupancy
  Li  Li0  1  0.03227606  0.75000000  0.14037740  1
  Li  Li1  1  0.23638338  0.75000000  0.49515009  1
  Li  Li2  1  0.26361662  0.25000000  0.99515009  1
  Li  Li3  1  0.46772394  0.25000000  0.64037740  1
  Li  Li4  1  0.53227606  0.75000000  0.35962260  1
  Li  Li5  1  0.73638338  0.75000000  0.00484991  1
  Li  Li6  1  0.76361662  0.25000000  0.50484991  1
  Li  Li7  1  0.96772394  0.25000000  0.85962260  1
  Mn  Mn8  1  0.00000000  0.00000000  0.00000000  1
  Mn  Mn9  1  0.00000000  0.50000000  0.00000000  1
  Mn  Mn10  1  0.22977437  0.75000000  0.71531684  1
  Mn  Mn11  1  0.29210640  0.75000000  0.93945485  1
  Mn  Mn12  1  0.20789360  0.25000000  0.43945485  1
  Mn  Mn13  1  0.27022563  0.25000000  0.21531684  1
  Mn  Mn14  1  0.50000000  0.00000000  0.50000000  1
  Mn  Mn15  1  0.50000000  0.50000000  0.50000000  1
  Mn  Mn16  1  0.72977437  0.75000000  0.78468316  1
  Mn  Mn17  1  0.70789360  0.25000000  0.06054515  1
  Mn  Mn18  1  0.79210640  0.75000000  0.56054515  1
  Mn  Mn19  1  0.77022563  0.25000000  0.28468316  1
  Si  Si20  1  0.18022035  0.03730182  0.62292368  1
  Si  Si21  1  0.18022035  0.46269818  0.62292368  1
  Si  Si22  1  0.22044920  0.53870145  0.33353877  1
  Si  Si23  1  0.22044920  0.96129855  0.33353877  1
  Si  Si24  1  0.27955080  0.03870145  0.83353877  1
  Si  Si25  1  0.27955080  0.46129855  0.83353877  1
  Si  Si26  1  0.31977965  0.53730182  0.12292368  1
  Si  Si27  1  0.31977965  0.96269818  0.12292368  1
  Si  Si28  1  0.68022035  0.03730182  0.87707632  1
  Si  Si29  1  0.68022035  0.46269818  0.87707632  1
  Si  Si30  1  0.72044920  0.53870145  0.16646123  1
  Si  Si31  1  0.72044920  0.96129855  0.16646123  1
  Si  Si32  1  0.77955080  0.03870145  0.66646123  1
  Si  Si33  1  0.77955080  0.46129855  0.66646123  1
  Si  Si34  1  0.81977965  0.53730182  0.37707632  1
  Si  Si35  1  0.81977965  0.96269818  0.37707632  1
  O  O36  1  0.02719934  0.57849332  0.37651922  1
  O  O37  1  0.02719934  0.92150668  0.37651922  1
  O  O38  1  0.13685376  0.39006806  0.90048399  1
  O  O39  1  0.13685376  0.10993194  0.90048399  1
  O  O40  1  0.21116488  0.88373742  0.60812478  1
  O  O41  1  0.21116488  0.61626258  0.60812478  1
  O  O42  1  0.22013520  0.61409408  0.03803587  1
  O  O43  1  0.22013520  0.88590592  0.03803587  1
  O  O44  1  0.24226004  0.11829234  0.32820922  1
  O  O45  1  0.24226004  0.38170766  0.32820922  1
  O  O46  1  0.22987302  0.59241952  0.22270002  1
  O  O47  1  0.22987302  0.90758048  0.22270002  1
  O  O48  1  0.27012698  0.40758048  0.72270002  1
  O  O49  1  0.27012698  0.09241952  0.72270002  1
  O  O50  1  0.25773996  0.61829234  0.82820922  1
  O  O51  1  0.25773996  0.88170766  0.82820922  1
  O  O52  1  0.27986480  0.11409408  0.53803587  1
  O  O53  1  0.27986480  0.38590592  0.53803587  1
  O  O54  1  0.28883512  0.11626258  0.10812478  1
  O  O55  1  0.28883512  0.38373742  0.10812478  1
  O  O56  1  0.36314624  0.60993194  0.40048399  1
  O  O57  1  0.36314624  0.89006806  0.40048399  1
  O  O58  1  0.47280066  0.07849332  0.87651922  1
  O  O59  1  0.47280066  0.42150668  0.87651922  1
  O  O60  1  0.52719934  0.92150668  0.12348078  1
  O  O61  1  0.52719934  0.57849332  0.12348078  1
  O  O62  1  0.63685376  0.10993194  0.59951601  1
  O  O63  1  0.63685376  0.39006806  0.59951601  1
  O  O64  1  0.71116488  0.61626258  0.89187522  1
  O  O65  1  0.71116488  0.88373742  0.89187522  1
  O  O66  1  0.72013520  0.61409408  0.46196413  1
  O  O67  1  0.72013520  0.88590592  0.46196413  1
  O  O68  1  0.74226004  0.11829234  0.17179078  1
  O  O69  1  0.74226004  0.38170766  0.17179078  1
  O  O70  1  0.72987302  0.59241952  0.27729998  1
  O  O71  1  0.72987302  0.90758048  0.27729998  1
  O  O72  1  0.77012698  0.09241952  0.77729998  1
  O  O73  1  0.77012698  0.40758048  0.77729998  1
  O  O74  1  0.75773996  0.61829234  0.67179078  1
  O  O75  1  0.75773996  0.88170766  0.67179078  1
  O  O76  1  0.77986480  0.11409408  0.96196413  1
  O  O77  1  0.77986480  0.38590592  0.96196413  1
  O  O78  1  0.78883512  0.11626258  0.39187522  1
  O  O79  1  0.78883512  0.38373742  0.39187522  1
  O  O80  1  0.86314624  0.60993194  0.09951601  1
  O  O81  1  0.86314624  0.89006806  0.09951601  1
  O  O82  1  0.97280066  0.07849332  0.62348078  1
  O  O83  1  0.97280066  0.42150668  0.62348078  1
