# generated using pymatgen
data_DyWO5
_symmetry_space_group_name_H-M   'P 1'
_cell_length_a   5.30479547
_cell_length_b   6.58880581
_cell_length_c   12.72170917
_cell_angle_alpha   90.00000000
_cell_angle_beta   90.00000000
_cell_angle_gamma   109.02630514
_symmetry_Int_Tables_number   1
_chemical_formula_structural   DyWO5
_chemical_formula_sum   'Dy4 W4 O20'
_cell_volume   420.36076466
_cell_formula_units_Z   4
loop_
 _symmetry_equiv_pos_site_id
 _symmetry_equiv_pos_as_xyz
  1  'x, y, z'
loop_
 _atom_site_type_symbol
 _atom_site_label
 _atom_site_symmetry_multiplicity
 _atom_site_fract_x
 _atom_site_fract_y
 _atom_site_fract_z
 _atom_site_occupancy
  Dy  Dy0  1  0.14605991  0.78407749  0.44429630  1
  Dy  Dy1  1  0.85394009  0.21592251  0.55570370  1
  Dy  Dy2  1  0.35394009  0.71592251  0.94429630  1
  Dy  Dy3  1  0.64605991  0.28407749  0.05570370  1
  W  W4  1  0.95484759  0.84640630  0.13924794  1
  W  W5  1  0.04515241  0.15359370  0.86075206  1
  W  W6  1  0.54515241  0.65359370  0.63924794  1
  W  W7  1  0.45484759  0.34640630  0.36075206  1
  O  O8  1  0.04499711  0.56378314  0.08856240  1
  O  O9  1  0.95500289  0.43621686  0.91143760  1
  O  O10  1  0.45500289  0.93621686  0.58856240  1
  O  O11  1  0.54499711  0.06378314  0.41143760  1
  O  O12  1  0.85320490  0.84341202  0.57080207  1
  O  O13  1  0.14679510  0.15658798  0.42919793  1
  O  O14  1  0.64679510  0.65658798  0.07080207  1
  O  O15  1  0.35320490  0.34341202  0.92919793  1
  O  O16  1  0.27137544  0.97241147  0.06465351  1
  O  O17  1  0.72862456  0.02758853  0.93534649  1
  O  O18  1  0.22862456  0.52758853  0.56465351  1
  O  O19  1  0.77137544  0.47241147  0.43534649  1
  O  O20  1  0.99867040  0.79271948  0.27520292  1
  O  O21  1  0.00132960  0.20728052  0.72479708  1
  O  O22  1  0.50132960  0.70728052  0.77520292  1
  O  O23  1  0.49867040  0.29271948  0.22479708  1
  O  O24  1  0.15780226  0.92244680  0.85161728  1
  O  O25  1  0.84219774  0.07755320  0.14838272  1
  O  O26  1  0.34219774  0.57755320  0.35161728  1
  O  O27  1  0.65780226  0.42244680  0.64838272  1
