# generated using pymatgen
data_Li2Mn2CoO6
_symmetry_space_group_name_H-M   'P 1'
_cell_length_a   5.08687220
_cell_length_b   5.08687229
_cell_length_c   10.27505938
_cell_angle_alpha   90.00000000
_cell_angle_beta   90.00000000
_cell_angle_gamma   120.26211738
_symmetry_Int_Tables_number   1
_chemical_formula_structural   Li2Mn2CoO6
_chemical_formula_sum   'Li4 Mn4 Co2 O12'
_cell_volume   229.64842675
_cell_formula_units_Z   2
loop_
 _symmetry_equiv_pos_site_id
 _symmetry_equiv_pos_as_xyz
  1  'x, y, z'
loop_
 _atom_site_type_symbol
 _atom_site_label
 _atom_site_symmetry_multiplicity
 _atom_site_fract_x
 _atom_site_fract_y
 _atom_site_fract_z
 _atom_site_occupancy
  Li  Li0  1  0.16951245  0.66951245  0.75000000  1
  Li  Li1  1  0.33048755  0.83048755  0.25000000  1
  Li  Li2  1  0.66951245  0.16951245  0.75000000  1
  Li  Li3  1  0.83048755  0.33048755  0.25000000  1
  Mn  Mn4  1  0.16331004  0.83668996  0.50000000  1
  Mn  Mn5  1  0.33668996  0.66331004  0.00000000  1
  Mn  Mn6  1  0.66331004  0.33668996  0.00000000  1
  Mn  Mn7  1  0.83668996  0.16331004  0.50000000  1
  Co  Co8  1  0.00000000  0.00000000  0.00000000  1
  Co  Co9  1  0.50000000  0.50000000  0.50000000  1
  O  O10  1  0.00348392  0.63905905  0.10519257  1
  O  O11  1  0.99651608  0.36094095  0.89480743  1
  O  O12  1  0.13905905  0.50348392  0.39480743  1
  O  O13  1  0.49651608  0.86094095  0.60519257  1
  O  O14  1  0.14772162  0.14772162  0.59912982  1
  O  O15  1  0.35227838  0.35227838  0.09912982  1
  O  O16  1  0.64772162  0.64772162  0.90087018  1
  O  O17  1  0.36094095  0.99651608  0.89480743  1
  O  O18  1  0.85227838  0.85227838  0.40087018  1
  O  O19  1  0.50348392  0.13905905  0.39480743  1
  O  O20  1  0.86094095  0.49651608  0.60519257  1
  O  O21  1  0.63905905  0.00348392  0.10519257  1
