# generated using pymatgen
data_Mn2CrO6
_symmetry_space_group_name_H-M   'P 1'
_cell_length_a   15.00209551
_cell_length_b   9.55325275
_cell_length_c   9.55325302
_cell_angle_alpha   17.52168674
_cell_angle_beta   17.06692008
_cell_angle_gamma   17.06691532
_symmetry_Int_Tables_number   1
_chemical_formula_structural   Mn2CrO6
_chemical_formula_sum   'Mn2 Cr1 O6'
_cell_volume   104.63261062
_cell_formula_units_Z   1
loop_
 _symmetry_equiv_pos_site_id
 _symmetry_equiv_pos_as_xyz
  1  'x, y, z'
loop_
 _atom_site_type_symbol
 _atom_site_label
 _atom_site_symmetry_multiplicity
 _atom_site_fract_x
 _atom_site_fract_y
 _atom_site_fract_z
 _atom_site_occupancy
  Mn  Mn0  1  0.99792951  0.00128913  0.00128913  1
  Mn  Mn1  1  0.33540349  0.99871087  0.99871087  1
  Cr  Cr2  1  0.66666700  0.00000000  0.00000000  1
  O  O3  1  0.24025090  0.26861497  0.26861497  1
  O  O4  1  0.57956800  0.26406747  0.26406747  1
  O  O5  1  0.09308210  0.73138503  0.73138503  1
  O  O6  1  0.91368716  0.26393497  0.26393497  1
  O  O7  1  0.41964584  0.73606503  0.73606503  1
  O  O8  1  0.75376500  0.73593253  0.73593253  1
