# generated using pymatgen
data_Fe10O11F9
_symmetry_space_group_name_H-M   'P 1'
_cell_length_a   4.75564520
_cell_length_b   4.76464422
_cell_length_c   15.31217878
_cell_angle_alpha   90.00000000
_cell_angle_beta   90.00000000
_cell_angle_gamma   93.81205915
_symmetry_Int_Tables_number   1
_chemical_formula_structural   Fe10O11F9
_chemical_formula_sum   'Fe10 O11 F9'
_cell_volume   346.19036132
_cell_formula_units_Z   1
loop_
 _symmetry_equiv_pos_site_id
 _symmetry_equiv_pos_as_xyz
  1  'x, y, z'
loop_
 _atom_site_type_symbol
 _atom_site_label
 _atom_site_symmetry_multiplicity
 _atom_site_fract_x
 _atom_site_fract_y
 _atom_site_fract_z
 _atom_site_occupancy
  Fe  Fe0  1  0.00354655  0.98486219  0.99394577  1
  Fe  Fe1  1  0.99911059  0.99746989  0.20000000  1
  Fe  Fe2  1  0.00354655  0.98486219  0.40605423  1
  Fe  Fe3  1  0.04216132  0.00100070  0.60105403  1
  Fe  Fe4  1  0.04216132  0.00100070  0.79894597  1
  Fe  Fe5  1  0.50323213  0.49311312  0.10034631  1
  Fe  Fe6  1  0.46140615  0.51696236  0.49278035  1
  Fe  Fe7  1  0.50323213  0.49311312  0.29965369  1
  Fe  Fe8  1  0.45819658  0.51047144  0.70000000  1
  Fe  Fe9  1  0.46140615  0.51696236  0.90721965  1
  O  O10  1  0.19042356  0.80830596  0.49938154  1
  O  O11  1  0.20043801  0.81292179  0.70000000  1
  O  O12  1  0.19042356  0.80830596  0.90061846  1
  O  O13  1  0.29786443  0.29658112  0.00672028  1
  O  O14  1  0.30423140  0.29541287  0.20000000  1
  O  O15  1  0.29786443  0.29658112  0.39327972  1
  O  O16  1  0.31397500  0.31818651  0.59685171  1
  O  O17  1  0.31397500  0.31818651  0.80314829  1
  O  O18  1  0.69346505  0.69277281  0.00456867  1
  O  O19  1  0.69921655  0.69235165  0.20000000  1
  O  O20  1  0.69346505  0.69277281  0.39543133  1
  F  F21  1  0.19004831  0.80125708  0.10136254  1
  F  F22  1  0.19004831  0.80125708  0.29863746  1
  F  F23  1  0.70132513  0.70738736  0.60026929  1
  F  F24  1  0.70132513  0.70738736  0.79973071  1
  F  F25  1  0.80913616  0.18516668  0.09958567  1
  F  F26  1  0.80642456  0.19166449  0.50107312  1
  F  F27  1  0.80913616  0.18516668  0.30041433  1
  F  F28  1  0.80642456  0.19166449  0.89892688  1
  F  F29  1  0.81279514  0.19685259  0.70000000  1
