# generated using pymatgen
data_Li4Ti2Co3Sn3O16
_symmetry_space_group_name_H-M   'P 1'
_cell_length_a   6.02700379
_cell_length_b   6.02580349
_cell_length_c   9.54432013
_cell_angle_alpha   90.00049322
_cell_angle_beta   89.10660035
_cell_angle_gamma   119.99092942
_symmetry_Int_Tables_number   1
_chemical_formula_structural   Li4Ti2Co3Sn3O16
_chemical_formula_sum   'Li4 Ti2 Co3 Sn3 O16'
_cell_volume   300.16593094
_cell_formula_units_Z   1
loop_
 _symmetry_equiv_pos_site_id
 _symmetry_equiv_pos_as_xyz
  1  'x, y, z'
loop_
 _atom_site_type_symbol
 _atom_site_label
 _atom_site_symmetry_multiplicity
 _atom_site_fract_x
 _atom_site_fract_y
 _atom_site_fract_z
 _atom_site_occupancy
  Li  Li0  1  0.34666212  0.67333580  0.88503991  1
  Li  Li1  1  0.97043461  0.98524018  0.98957587  1
  Li  Li2  1  0.97993167  0.98999236  0.50217196  1
  Li  Li3  1  0.66832953  0.33418143  0.40199399  1
  Ti  Ti4  1  0.35368945  0.67686407  0.50183776  1
  Ti  Ti5  1  0.69452884  0.34727464  0.98543242  1
  Co  Co6  1  0.65890296  0.82945940  0.21439049  1
  Co  Co7  1  0.82993524  0.65712388  0.71410981  1
  Co  Co8  1  0.82993816  0.17283577  0.71410891  1
  Sn  Sn9  1  0.17384389  0.83195796  0.21537646  1
  Sn  Sn10  1  0.17384387  0.34189764  0.21539215  1
  Sn  Sn11  1  0.33771350  0.16886474  0.71458107  1
  O  O12  1  0.15526892  0.82203821  0.59731396  1
  O  O13  1  0.02743823  0.51373692  0.34556531  1
  O  O14  1  0.33809892  0.66905281  0.09449604  1
  O  O15  1  0.99311134  0.99655664  0.31341817  1
  O  O16  1  0.97808455  0.98904318  0.80401414  1
  O  O17  1  0.15526733  0.33324035  0.59730334  1
  O  O18  1  0.47430015  0.95919992  0.35566420  1
  O  O19  1  0.47430645  0.51512772  0.35565895  1
  O  O20  1  0.33195194  0.16598374  0.08675279  1
  O  O21  1  0.66062040  0.83029550  0.60469530  1
  O  O22  1  0.53672310  0.49288502  0.84099563  1
  O  O23  1  0.53672212  0.04385664  0.84100126  1
  O  O24  1  0.68752719  0.34378588  0.61102985  1
  O  O25  1  0.83835366  0.65841995  0.08829642  1
  O  O26  1  0.95614171  0.47809412  0.82930860  1
  O  O27  1  0.83833213  0.17995455  0.08831422  1
