# generated using pymatgen
data_LiCrPO4F
_symmetry_space_group_name_H-M   'P 1'
_cell_length_a   10.76743508
_cell_length_b   6.20612152
_cell_length_c   11.01661466
_cell_angle_alpha   89.76452774
_cell_angle_beta   89.81252219
_cell_angle_gamma   90.10313500
_symmetry_Int_Tables_number   1
_chemical_formula_structural   LiCrPO4F
_chemical_formula_sum   'Li8 Cr8 P8 O32 F8'
_cell_volume   736.16300665
_cell_formula_units_Z   8
loop_
 _symmetry_equiv_pos_site_id
 _symmetry_equiv_pos_as_xyz
  1  'x, y, z'
loop_
 _atom_site_type_symbol
 _atom_site_label
 _atom_site_symmetry_multiplicity
 _atom_site_fract_x
 _atom_site_fract_y
 _atom_site_fract_z
 _atom_site_occupancy
  Li  Li0  1  0.22626617  0.24625556  0.09353384  1
  Li  Li1  1  0.23846260  0.51606597  0.33158554  1
  Li  Li2  1  0.43188385  0.24901277  0.77174406  1
  Li  Li3  1  0.72440532  0.25495545  0.40500274  1
  Li  Li4  1  0.72801267  0.99087810  0.18359396  1
  Li  Li5  1  0.76660905  0.50555321  0.67257404  1
  Li  Li6  1  0.77698655  0.75492759  0.90552379  1
  Li  Li7  1  0.96268113  0.24148195  0.73323635  1
  Cr  Cr8  1  0.00107837  0.99776250  0.00263816  1
  Cr  Cr9  1  0.99985893  0.50453987  0.00325530  1
  Cr  Cr10  1  0.00508216  0.99350904  0.49716385  1
  Cr  Cr11  1  0.00061708  0.50090419  0.49799053  1
  Cr  Cr12  1  0.49513539  0.99695262  0.49827778  1
  Cr  Cr13  1  0.49586059  0.50370560  0.49736371  1
  Cr  Cr14  1  0.49944835  0.99969836  0.00027396  1
  Cr  Cr15  1  0.50112566  0.50657267  0.00334240  1
  P  P16  1  0.04064753  0.74546882  0.74092087  1
  P  P17  1  0.24160129  0.74717671  0.08280101  1
  P  P18  1  0.26214332  0.25023488  0.57051913  1
  P  P19  1  0.46526668  0.25893322  0.23738904  1
  P  P20  1  0.53945968  0.74415364  0.75891942  1
  P  P21  1  0.74116004  0.75341645  0.42153462  1
  P  P22  1  0.76090561  0.25623429  0.92308366  1
  P  P23  1  0.96491779  0.24057147  0.26255759  1
  O  O24  1  0.01549772  0.24849593  0.12416131  1
  O  O25  1  0.02363157  0.04024985  0.32165517  1
  O  O26  1  0.01980882  0.44729583  0.32176863  1
  O  O27  1  0.11777847  0.25061506  0.53252482  1
  O  O28  1  0.17639616  0.72794953  0.74810920  1
  O  O29  1  0.17974056  0.54327719  0.02465514  1
  O  O30  1  0.17991878  0.95516505  0.02875268  1
  O  O31  1  0.24387006  0.74041140  0.21746518  1
  O  O32  1  0.27470947  0.26364657  0.70494253  1
  O  O33  1  0.31795993  0.04447807  0.51283488  1
  O  O34  1  0.31594047  0.45073870  0.49878906  1
  O  O35  1  0.32492193  0.26697715  0.23858281  1
  O  O36  1  0.37995307  0.75277384  0.02692701  1
  O  O37  1  0.48094573  0.54538714  0.82394686  1
  O  O38  1  0.49378121  0.95524593  0.82050965  1
  O  O39  1  0.48982113  0.74713055  0.62361589  1
  O  O40  1  0.51766782  0.25299913  0.37426443  1
  O  O41  1  0.52271745  0.05414784  0.17617219  1
  O  O42  1  0.52410027  0.45987978  0.17685951  1
  O  O43  1  0.61991466  0.25359409  0.96491423  1
  O  O44  1  0.68048316  0.72623780  0.75941834  1
  O  O45  1  0.68332444  0.54544255  0.48510414  1
  O  O46  1  0.67946822  0.95882430  0.47694665  1
  O  O47  1  0.73849112  0.74808147  0.28653181  1
  O  O48  1  0.77836382  0.25719066  0.78690704  1
  O  O49  1  0.81603563  0.04751080  0.98439488  1
  O  O50  1  0.81801567  0.46089176  0.98193725  1
  O  O51  1  0.82394908  0.22946590  0.25945904  1
  O  O52  1  0.87965353  0.75031027  0.47357782  1
  O  O53  1  0.96938076  0.54748277  0.67880869  1
  O  O54  1  0.98572928  0.95099303  0.67755782  1
  O  O55  1  0.97776988  0.75211004  0.87775496  1
  F  F56  1  0.03262989  0.25127701  0.89468516  1
  F  F57  1  0.11466033  0.74220155  0.48638414  1
  F  F58  1  0.38669544  0.25156783  0.98533925  1
  F  F59  1  0.46645786  0.75001249  0.39205316  1
  F  F60  1  0.52972252  0.25227816  0.60643799  1
  F  F61  1  0.61766900  0.75694925  0.01272383  1
  F  F62  1  0.88554491  0.24793751  0.51364805  1
  F  F63  1  0.96246639  0.75201132  0.10705447  1
