# generated using pymatgen
data_Fe2Sn(PO4)3
_symmetry_space_group_name_H-M   'P 1'
_cell_length_a   8.80649722
_cell_length_b   8.80649728
_cell_length_c   8.80649744
_cell_angle_alpha   59.07005514
_cell_angle_beta   59.07005288
_cell_angle_gamma   59.07005043
_symmetry_Int_Tables_number   1
_chemical_formula_structural   Fe2Sn(PO4)3
_chemical_formula_sum   'Fe4 Sn2 P6 O24'
_cell_volume   472.70139311
_cell_formula_units_Z   2
loop_
 _symmetry_equiv_pos_site_id
 _symmetry_equiv_pos_as_xyz
  1  'x, y, z'
loop_
 _atom_site_type_symbol
 _atom_site_label
 _atom_site_symmetry_multiplicity
 _atom_site_fract_x
 _atom_site_fract_y
 _atom_site_fract_z
 _atom_site_occupancy
  Fe  Fe0  1  0.14806363  0.14806363  0.14806363  1
  Fe  Fe1  1  0.35193637  0.35193637  0.35193637  1
  Fe  Fe2  1  0.64806363  0.64806363  0.64806363  1
  Fe  Fe3  1  0.85193637  0.85193637  0.85193637  1
  Sn  Sn4  1  0.00000000  0.00000000  0.00000000  1
  Sn  Sn5  1  0.50000000  0.50000000  0.50000000  1
  P  P6  1  0.04064685  0.75000000  0.45935315  1
  P  P7  1  0.45935315  0.04064685  0.75000000  1
  P  P8  1  0.75000000  0.45935315  0.04064685  1
  P  P9  1  0.25000000  0.54064685  0.95935315  1
  P  P10  1  0.54064685  0.95935315  0.25000000  1
  P  P11  1  0.95935315  0.25000000  0.54064685  1
  O  O12  1  0.11480587  0.30532049  0.50703143  1
  O  O13  1  0.30532049  0.50703143  0.11480587  1
  O  O14  1  0.06025413  0.91660183  0.26547674  1
  O  O15  1  0.50703143  0.11480587  0.30532049  1
  O  O16  1  0.00703143  0.80532049  0.61480587  1
  O  O17  1  0.23452326  0.58339817  0.43974587  1
  O  O18  1  0.26547674  0.06025413  0.91660183  1
  O  O19  1  0.43974587  0.23452326  0.58339817  1
  O  O20  1  0.19467951  0.38519413  0.99296857  1
  O  O21  1  0.58339817  0.43974587  0.23452326  1
  O  O22  1  0.08339817  0.73452326  0.93974587  1
  O  O23  1  0.38519413  0.99296857  0.19467951  1
  O  O24  1  0.61480587  0.00703143  0.80532049  1
  O  O25  1  0.91660183  0.26547674  0.06025413  1
  O  O26  1  0.41660183  0.56025413  0.76547674  1
  O  O27  1  0.80532049  0.61480587  0.00703143  1
  O  O28  1  0.56025413  0.76547674  0.41660183  1
  O  O29  1  0.73452326  0.93974587  0.08339817  1
  O  O30  1  0.76547674  0.41660183  0.56025413  1
  O  O31  1  0.99296857  0.19467951  0.38519413  1
  O  O32  1  0.49296857  0.88519413  0.69467951  1
  O  O33  1  0.93974587  0.08339817  0.73452326  1
  O  O34  1  0.69467951  0.49296857  0.88519413  1
  O  O35  1  0.88519413  0.69467951  0.49296857  1
