# generated using pymatgen
data_Li4Ti4Mn4CoO18
_symmetry_space_group_name_H-M   'P 1'
_cell_length_a   9.10539759
_cell_length_b   25.05867803
_cell_length_c   2.93899585
_cell_angle_alpha   89.99992523
_cell_angle_beta   90.00008944
_cell_angle_gamma   89.94703102
_symmetry_Int_Tables_number   1
_chemical_formula_structural   Li4Ti4Mn4CoO18
_chemical_formula_sum   'Li8 Ti8 Mn8 Co2 O36'
_cell_volume   670.58812320
_cell_formula_units_Z   2
loop_
 _symmetry_equiv_pos_site_id
 _symmetry_equiv_pos_as_xyz
  1  'x, y, z'
loop_
 _atom_site_type_symbol
 _atom_site_label
 _atom_site_symmetry_multiplicity
 _atom_site_fract_x
 _atom_site_fract_y
 _atom_site_fract_z
 _atom_site_occupancy
  Li  Li0  1  0.19944884  0.98940047  0.99999932  1
  Li  Li1  1  0.20539142  0.19385954  0.00000033  1
  Li  Li2  1  0.29482148  0.69414627  0.99999905  1
  Li  Li3  1  0.30085203  0.48930148  0.99999993  1
  Li  Li4  1  0.69916430  0.51071048  0.99999931  1
  Li  Li5  1  0.70523829  0.30593043  0.00000028  1
  Li  Li6  1  0.79451325  0.80620004  0.99999932  1
  Li  Li7  1  0.80050330  0.01050422  0.00000008  1
  Ti  Ti8  1  0.00369816  0.10212838  0.00000027  1
  Ti  Ti9  1  0.14610034  0.80528583  0.50000007  1
  Ti  Ti10  1  0.35400792  0.30525213  0.49999994  1
  Ti  Ti11  1  0.49654197  0.60224194  0.00000085  1
  Ti  Ti12  1  0.50353689  0.39776342  0.99999954  1
  Ti  Ti13  1  0.64592559  0.69476683  0.50000005  1
  Ti  Ti14  1  0.85394049  0.19469706  0.49999915  1
  Ti  Ti15  1  0.99632320  0.89783994  0.99999885  1
  Mn  Mn16  1  0.01766787  0.31496107  0.00000355  1
  Mn  Mn17  1  0.14218969  0.58301964  0.49999387  1
  Mn  Mn18  1  0.35770634  0.08307991  0.49999962  1
  Mn  Mn19  1  0.48219639  0.81485107  0.00000082  1
  Mn  Mn20  1  0.51783726  0.18509262  0.00000091  1
  Mn  Mn21  1  0.64227983  0.91691404  0.50000357  1
  Mn  Mn22  1  0.85769264  0.41697943  0.50000927  1
  Mn  Mn23  1  0.98238241  0.68506521  0.99999630  1
  Co  Co24  1  0.99996619  0.50000014  0.99999949  1
  Co  Co25  1  0.50001363  -0.00000106  0.99999945  1
  O  O26  1  0.99741355  0.42362048  -0.00000014  1
  O  O27  1  0.00245325  0.57639719  0.99999733  1
  O  O28  1  0.05164438  0.94201969  0.50000086  1
  O  O29  1  0.05298476  0.15905650  0.49999998  1
  O  O30  1  0.11553871  0.65994609  0.49999779  1
  O  O31  1  0.11077373  0.75718700  0.00000094  1
  O  O32  1  0.14112292  0.50507553  0.49999810  1
  O  O33  1  0.14444734  0.29043275  0.50000133  1
  O  O34  1  0.17864895  0.85762421  0.00000078  1
  O  O35  1  0.21053810  0.08217521  0.00000294  1
  O  O36  1  0.28837510  0.58213798  0.99999933  1
  O  O37  1  0.32144860  0.35775169  0.00000018  1
  O  O38  1  0.35545888  0.79024913  0.50000093  1
  O  O39  1  0.35892042  0.00513998  0.49999684  1
  O  O40  1  0.38914742  0.25725874  0.00000164  1
  O  O41  1  0.38423049  0.15981384  0.50000166  1
  O  O42  1  0.44711342  0.65906366  0.49999823  1
  O  O43  1  0.44850685  0.44203622  0.50000108  1
  O  O44  1  0.49784883  0.07625636  0.99999290  1
  O  O45  1  0.50213537  0.92375920  0.00000404  1
  O  O46  1  0.55153604  0.55797239  0.50000038  1
  O  O47  1  0.55296111  0.34096690  0.50000134  1
  O  O48  1  0.61568836  0.84020903  0.50000185  1
  O  O49  1  0.61099416  0.74276372  0.99999962  1
  O  O50  1  0.64109784  0.99482297  0.49999982  1
  O  O51  1  0.64462418  0.20968787  0.50000265  1
  O  O52  1  0.67858940  0.64226091  -0.00000038  1
  O  O53  1  0.71145960  0.41787830  0.00000128  1
  O  O54  1  0.78942447  0.91782974  0.99999696  1
  O  O55  1  0.82139868  0.14233576  0.99999892  1
  O  O56  1  0.85568048  0.70955073  0.49999692  1
  O  O57  1  0.85886045  0.49491287  0.50000020  1
  O  O58  1  0.88916571  0.24279119  0.00000009  1
  O  O59  1  0.88439806  0.34010467  0.50000065  1
  O  O60  1  0.94697738  0.84095344  0.50000078  1
  O  O61  1  0.94845332  0.05796753  0.49999899  1
