# generated using pymatgen
data_Li4Cr2Co3Sn3O16
_symmetry_space_group_name_H-M   'P 1'
_cell_length_a   5.94828996
_cell_length_b   6.00709489
_cell_length_c   9.54484770
_cell_angle_alpha   89.71804955
_cell_angle_beta   89.40434987
_cell_angle_gamma   119.97591346
_symmetry_Int_Tables_number   1
_chemical_formula_structural   Li4Cr2Co3Sn3O16
_chemical_formula_sum   'Li4 Cr2 Co3 Sn3 O16'
_cell_volume   295.39866749
_cell_formula_units_Z   1
loop_
 _symmetry_equiv_pos_site_id
 _symmetry_equiv_pos_as_xyz
  1  'x, y, z'
loop_
 _atom_site_type_symbol
 _atom_site_label
 _atom_site_symmetry_multiplicity
 _atom_site_fract_x
 _atom_site_fract_y
 _atom_site_fract_z
 _atom_site_occupancy
  Li  Li0  1  0.35535954  0.68001610  0.88604007  1
  Li  Li1  1  0.94865829  0.97413248  0.99165274  1
  Li  Li2  1  0.96824278  0.98730171  0.50319644  1
  Li  Li3  1  0.67561087  0.33775351  0.39904598  1
  Cr  Cr4  1  0.33575941  0.66373521  0.49034702  1
  Cr  Cr5  1  0.67786956  0.33747845  0.98138275  1
  Co  Co6  1  0.66138187  0.83039445  0.21680228  1
  Co  Co7  1  0.83172802  0.66371434  0.71115226  1
  Co  Co8  1  0.83260614  0.17341223  0.71455581  1
  Sn  Sn9  1  0.17146607  0.83317322  0.21271247  1
  Sn  Sn10  1  0.17142987  0.33817909  0.21304403  1
  Sn  Sn11  1  0.33876464  0.17025875  0.71279964  1
  O  O12  1  0.14460412  0.82328696  0.59949259  1
  O  O13  1  0.03937795  0.51987921  0.35071594  1
  O  O14  1  0.35682072  0.67806061  0.09904905  1
  O  O15  1  0.97987350  0.98990431  0.31717010  1
  O  O16  1  0.97816483  0.98781757  0.80712793  1
  O  O17  1  0.15333427  0.32134897  0.59607743  1
  O  O18  1  0.49482853  0.96422268  0.34365699  1
  O  O19  1  0.49578634  0.53107622  0.34300183  1
  O  O20  1  0.32590858  0.16337260  0.08719618  1
  O  O21  1  0.66826669  0.82615215  0.61469048  1
  O  O22  1  0.54366595  0.49873458  0.83980383  1
  O  O23  1  0.53658857  0.04443070  0.84108447  1
  O  O24  1  0.69117402  0.34714875  0.60738388  1
  O  O25  1  0.82850415  0.67071341  0.10100637  1
  O  O26  1  0.96538270  0.48653722  0.82682514  1
  O  O27  1  0.82884204  0.15806452  0.10082333  1
