# generated using pymatgen
data_Ba3(YI6)2
_symmetry_space_group_name_H-M   'P 1'
_cell_length_a   14.51142638
_cell_length_b   13.84487002
_cell_length_c   15.29443087
_cell_angle_alpha   90.00000000
_cell_angle_beta   87.35725928
_cell_angle_gamma   90.00000000
_symmetry_Int_Tables_number   1
_chemical_formula_structural   Ba3(YI6)2
_chemical_formula_sum   'Ba12 Y8 I48'
_cell_volume   3069.51788236
_cell_formula_units_Z   4
loop_
 _symmetry_equiv_pos_site_id
 _symmetry_equiv_pos_as_xyz
  1  'x, y, z'
loop_
 _atom_site_type_symbol
 _atom_site_label
 _atom_site_symmetry_multiplicity
 _atom_site_fract_x
 _atom_site_fract_y
 _atom_site_fract_z
 _atom_site_occupancy
  Ba  Ba0  1  0.02905910  0.21751243  0.80705383  1
  Ba  Ba1  1  0.01467351  0.60258999  0.70969480  1
  Ba  Ba2  1  0.19029624  0.98214390  0.52013950  1
  Ba  Ba3  1  0.30970376  0.48214390  0.97986050  1
  Ba  Ba4  1  0.48532649  0.10258999  0.79030520  1
  Ba  Ba5  1  0.47094090  0.71751243  0.69294617  1
  Ba  Ba6  1  0.52905910  0.28248757  0.30705383  1
  Ba  Ba7  1  0.51467351  0.89741001  0.20969480  1
  Ba  Ba8  1  0.69029624  0.51785610  0.02013950  1
  Ba  Ba9  1  0.80970376  0.01785610  0.47986050  1
  Ba  Ba10  1  0.98532649  0.39741001  0.29030520  1
  Ba  Ba11  1  0.97094090  0.78248757  0.19294617  1
  Y  Y12  1  0.19057916  0.84907968  0.93403582  1
  Y  Y13  1  0.19074482  0.17923803  0.14525767  1
  Y  Y14  1  0.30942084  0.34907968  0.56596418  1
  Y  Y15  1  0.30925518  0.67923803  0.35474233  1
  Y  Y16  1  0.69074482  0.32076197  0.64525767  1
  Y  Y17  1  0.69057916  0.65092032  0.43403582  1
  Y  Y18  1  0.80925518  0.82076197  0.85474233  1
  Y  Y19  1  0.80942084  0.15092032  0.06596418  1
  I  I20  1  0.99103175  0.74667965  0.92369729  1
  I  I21  1  0.00185373  0.11906675  0.59074767  1
  I  I22  1  0.10149236  0.44833770  0.86035096  1
  I  I23  1  0.12227193  0.42939804  0.54596928  1
  I  I24  1  0.08069523  0.16558874  0.31653370  1
  I  I25  1  0.11645578  0.61712470  0.31590725  1
  I  I26  1  0.11938723  0.97471583  0.08983930  1
  I  I27  1  0.13337911  0.98125010  0.79620247  1
  I  I28  1  0.18500579  0.68797932  0.06777015  1
  I  I29  1  0.22400497  0.38664710  0.19032098  1
  I  I30  1  0.26362540  0.22468117  0.95975540  1
  I  I31  1  0.24314893  0.70299024  0.79825725  1
  I  I32  1  0.25685107  0.20299024  0.70174275  1
  I  I33  1  0.23637460  0.72468117  0.54024460  1
  I  I34  1  0.27599503  0.88664710  0.30967902  1
  I  I35  1  0.31499421  0.18797932  0.43222985  1
  I  I36  1  0.36662089  0.48125010  0.70379753  1
  I  I37  1  0.38061277  0.47471583  0.41016070  1
  I  I38  1  0.38354422  0.11712470  0.18409275  1
  I  I39  1  0.37772807  0.92939804  0.95403072  1
  I  I40  1  0.41930477  0.66558874  0.18346630  1
  I  I41  1  0.39850764  0.94833770  0.63964904  1
  I  I42  1  0.49814627  0.61906675  0.90925233  1
  I  I43  1  0.50896825  0.24667965  0.57630271  1
  I  I44  1  0.49103175  0.75332035  0.42369729  1
  I  I45  1  0.50185373  0.38093325  0.09074767  1
  I  I46  1  0.60149236  0.05166230  0.36035096  1
  I  I47  1  0.58069523  0.33441126  0.81653370  1
  I  I48  1  0.62227193  0.07060196  0.04596928  1
  I  I49  1  0.61645578  0.88287530  0.81590725  1
  I  I50  1  0.61938723  0.52528417  0.58983930  1
  I  I51  1  0.63337911  0.51874990  0.29620247  1
  I  I52  1  0.68500579  0.81202068  0.56777015  1
  I  I53  1  0.72400497  0.11335290  0.69032098  1
  I  I54  1  0.76362540  0.27531883  0.45975540  1
  I  I55  1  0.74314893  0.79700976  0.29825725  1
  I  I56  1  0.75685107  0.29700976  0.20174275  1
  I  I57  1  0.73637460  0.77531883  0.04024460  1
  I  I58  1  0.77599503  0.61335290  0.80967902  1
  I  I59  1  0.81499421  0.31202068  0.93222985  1
  I  I60  1  0.86662089  0.01874990  0.20379753  1
  I  I61  1  0.88061277  0.02528417  0.91016070  1
  I  I62  1  0.88354422  0.38287530  0.68409275  1
  I  I63  1  0.91930477  0.83441126  0.68346630  1
  I  I64  1  0.87772807  0.57060196  0.45403072  1
  I  I65  1  0.89850764  0.55166230  0.13964904  1
  I  I66  1  0.99814627  0.88093325  0.40925233  1
  I  I67  1  0.00896825  0.25332035  0.07630271  1
