# generated using pymatgen
data_Li4Fe3Ni2Sn3O16
_symmetry_space_group_name_H-M   'P 1'
_cell_length_a   6.08236900
_cell_length_b   6.09485571
_cell_length_c   9.75177399
_cell_angle_alpha   90.00333305
_cell_angle_beta   89.02946322
_cell_angle_gamma   120.03703853
_symmetry_Int_Tables_number   1
_chemical_formula_structural   Li4Fe3Ni2Sn3O16
_chemical_formula_sum   'Li4 Fe3 Ni2 Sn3 O16'
_cell_volume   312.89986877
_cell_formula_units_Z   1
loop_
 _symmetry_equiv_pos_site_id
 _symmetry_equiv_pos_as_xyz
  1  'x, y, z'
loop_
 _atom_site_type_symbol
 _atom_site_label
 _atom_site_symmetry_multiplicity
 _atom_site_fract_x
 _atom_site_fract_y
 _atom_site_fract_z
 _atom_site_occupancy
  Li  Li0  1  0.34821258  0.67416519  0.88495332  1
  Li  Li1  1  0.96660244  0.98339764  0.99551649  1
  Li  Li2  1  0.97190880  0.98597697  0.50153859  1
  Li  Li3  1  0.67970982  0.33997498  0.39468689  1
  Fe  Fe4  1  0.66421111  0.83203682  0.21785311  1
  Fe  Fe5  1  0.83359248  0.66224720  0.71517924  1
  Fe  Fe6  1  0.83369860  0.17148666  0.71526819  1
  Ni  Ni7  1  0.33235715  0.66592393  0.49277702  1
  Ni  Ni8  1  0.66526724  0.33248608  0.98800108  1
  Sn  Sn9  1  0.17201710  0.83234552  0.21378939  1
  Sn  Sn10  1  0.17193833  0.33985154  0.21371445  1
  Sn  Sn11  1  0.34047008  0.17017310  0.71224476  1
  O  O12  1  0.14664876  0.83188692  0.60018198  1
  O  O13  1  0.03883004  0.51966176  0.34215725  1
  O  O14  1  0.34255017  0.67121780  0.09603256  1
  O  O15  1  0.00019068  0.00028238  0.31950839  1
  O  O16  1  -0.00615854  -0.00288571  0.81388765  1
  O  O17  1  0.14644973  0.31463456  0.60024218  1
  O  O18  1  0.49907535  0.96691108  0.33520856  1
  O  O19  1  0.49867384  0.53166125  0.33531870  1
  O  O20  1  0.31544795  0.15753183  0.09190499  1
  O  O21  1  0.67177470  0.83552592  0.61292933  1
  O  O22  1  0.53431405  0.49248109  0.83601416  1
  O  O23  1  0.53435752  0.04168031  0.83593450  1
  O  O24  1  0.67809651  0.33878656  0.60017847  1
  O  O25  1  0.82691095  0.67903726  0.10615863  1
  O  O26  1  0.96572610  0.48315580  0.83067868  1
  O  O27  1  0.82712546  0.14866657  0.10598144  1
