# generated using pymatgen
data_LiNb7V12O48
_symmetry_space_group_name_H-M   'P 1'
_cell_length_a   5.19911814
_cell_length_b   10.63797313
_cell_length_c   17.88376696
_cell_angle_alpha   89.91483812
_cell_angle_beta   88.32268410
_cell_angle_gamma   89.79950727
_symmetry_Int_Tables_number   1
_chemical_formula_structural   LiNb7V12O48
_chemical_formula_sum   'Li1 Nb7 V12 O48'
_cell_volume   988.68598599
_cell_formula_units_Z   1
loop_
 _symmetry_equiv_pos_site_id
 _symmetry_equiv_pos_as_xyz
  1  'x, y, z'
loop_
 _atom_site_type_symbol
 _atom_site_label
 _atom_site_symmetry_multiplicity
 _atom_site_fract_x
 _atom_site_fract_y
 _atom_site_fract_z
 _atom_site_occupancy
  Li  Li0  1  0.25182282  0.27011036  0.79695004  1
  Nb  Nb1  1  0.23326579  0.75369734  0.29559168  1
  Nb  Nb2  1  0.22416563  0.06904161  0.97369260  1
  Nb  Nb3  1  0.42179099  0.74586643  0.74974356  1
  Nb  Nb4  1  0.58404387  0.24639652  0.24739497  1
  Nb  Nb5  1  0.76302245  0.06430159  0.53232109  1
  Nb  Nb6  1  0.75549609  0.43789123  0.53127154  1
  Nb  Nb7  1  0.77479525  0.56894602  0.01920381  1
  V  V8  1  0.24001956  0.74983334  0.94354064  1
  V  V9  1  0.22279414  0.03512179  0.66344818  1
  V  V10  1  0.21646031  0.46557060  0.66150021  1
  V  V11  1  0.28199054  0.52272996  0.15398557  1
  V  V12  1  0.29136437  0.97289944  0.15749222  1
  V  V13  1  0.29024616  0.25053542  0.44386682  1
  V  V14  1  0.71278413  0.75082475  0.55696968  1
  V  V15  1  0.72376050  0.46703634  0.83664356  1
  V  V16  1  0.71635779  0.02336267  0.84347089  1
  V  V17  1  0.76029417  0.53257844  0.34116759  1
  V  V18  1  0.76505237  0.96840344  0.34369551  1
  V  V19  1  0.75941784  0.24718287  0.05617064  1
  O  O20  1  0.04079488  0.22696591  0.99749668  1
  O  O21  1  0.03601119  0.62646664  0.35617901  1
  O  O22  1  0.04040182  0.87644042  0.36212606  1
  O  O23  1  0.13575912  0.62921903  0.21456115  1
  O  O24  1  0.11240427  0.86666392  0.21833860  1
  O  O25  1  0.09022451  0.12693427  0.46621004  1
  O  O26  1  0.08946831  0.37373455  0.46556891  1
  O  O27  1  0.11895395  0.00866870  0.07600994  1
  O  O28  1  0.05755624  0.50167419  0.08388974  1
  O  O29  1  0.18922992  0.74552960  0.84822579  1
  O  O30  1  0.18885105  0.61581934  0.70225075  1
  O  O31  1  0.18921762  0.88725619  0.70408380  1
  O  O32  1  0.37327458  0.11659347  0.20760425  1
  O  O33  1  0.37016666  0.38276650  0.20089900  1
  O  O34  1  0.38547158  0.25086657  0.34796188  1
  O  O35  1  0.43666971  0.48033243  0.58020437  1
  O  O36  1  0.44685650  0.02391724  0.58344379  1
  O  O37  1  0.38198424  0.89021542  0.96499113  1
  O  O38  1  0.45781852  0.63500413  0.96864740  1
  O  O39  1  0.36708049  0.12627156  0.72189671  1
  O  O40  1  0.39374513  0.37534252  0.71183342  1
  O  O41  1  0.43851746  0.10650639  0.88403642  1
  O  O42  1  0.47880753  0.37543661  0.86040716  1
  O  O43  1  0.46853469  0.75061879  0.50304172  1
  O  O44  1  0.58084190  0.25041602  0.50329341  1
  O  O45  1  0.54941732  0.59746415  0.11557071  1
  O  O46  1  0.55086075  0.89948052  0.13198127  1
  O  O47  1  0.53466053  0.63003417  0.30065090  1
  O  O48  1  0.53509491  0.87152496  0.30424760  1
  O  O49  1  0.54118638  0.13560801  0.03276321  1
  O  O50  1  0.61963103  0.38792276  0.03594843  1
  O  O51  1  0.63020476  0.01762623  0.42720152  1
  O  O52  1  0.63088462  0.48445073  0.42629165  1
  O  O53  1  0.61512600  0.75190060  0.65320326  1
  O  O54  1  0.62021880  0.61509364  0.79127155  1
  O  O55  1  0.62247059  0.88303192  0.79780950  1
  O  O56  1  0.81064810  0.10690522  0.29130616  1
  O  O57  1  0.80412430  0.39573629  0.28870867  1
  O  O58  1  0.80664993  0.24340912  0.15431948  1
  O  O59  1  0.88388130  0.50591133  0.92547868  1
  O  O60  1  0.93526129  0.00269607  0.91957342  1
  O  O61  1  0.88875814  0.60681363  0.53719436  1
  O  O62  1  0.88961090  0.89390359  0.53639023  1
  O  O63  1  0.87950146  0.11105368  0.78473744  1
  O  O64  1  0.94016574  0.39018587  0.78311605  1
  O  O65  1  0.94515602  0.10978807  0.61907987  1
  O  O66  1  0.94054041  0.38883187  0.61749976  1
  O  O67  1  0.95890211  0.72704400  0.00263339  1
