# generated using pymatgen
data_Li2FeCo3O8
_symmetry_space_group_name_H-M   'P 1'
_cell_length_a   5.73522385
_cell_length_b   5.73522435
_cell_length_c   5.73522435
_cell_angle_alpha   59.66879169
_cell_angle_beta   59.66879105
_cell_angle_gamma   59.66879254
_symmetry_Int_Tables_number   1
_chemical_formula_structural   Li2FeCo3O8
_chemical_formula_sum   'Li2 Fe1 Co3 O8'
_cell_volume   132.39020648
_cell_formula_units_Z   1
loop_
 _symmetry_equiv_pos_site_id
 _symmetry_equiv_pos_as_xyz
  1  'x, y, z'
loop_
 _atom_site_type_symbol
 _atom_site_label
 _atom_site_symmetry_multiplicity
 _atom_site_fract_x
 _atom_site_fract_y
 _atom_site_fract_z
 _atom_site_occupancy
  Li  Li0  1  0.12301523  0.12301523  0.12301523  1
  Li  Li1  1  0.49888290  0.49888290  0.49888290  1
  Fe  Fe2  1  0.88115368  0.88115368  0.88115368  1
  Co  Co3  1  0.01114933  0.49839484  0.49839484  1
  Co  Co4  1  0.49839484  0.49839484  0.01114933  1
  Co  Co5  1  0.49839484  0.01114933  0.49839484  1
  O  O6  1  0.26454850  0.26454850  0.26454850  1
  O  O7  1  0.24598830  0.71189059  0.24598830  1
  O  O8  1  0.24598830  0.24598830  0.71189059  1
  O  O9  1  0.71189059  0.24598830  0.24598830  1
  O  O10  1  0.28586115  0.74668277  0.74668277  1
  O  O11  1  0.74668277  0.74668277  0.28586115  1
  O  O12  1  0.74668277  0.28586115  0.74668277  1
  O  O13  1  0.74136681  0.74136681  0.74136681  1
