# generated using pymatgen
data_Li9Cr4C8(SO16)2
_symmetry_space_group_name_H-M   'P 1'
_cell_length_a   9.50280037
_cell_length_b   9.50280025
_cell_length_c   9.31181197
_cell_angle_alpha   60.99066761
_cell_angle_beta   119.00933204
_cell_angle_gamma   86.97253173
_symmetry_Int_Tables_number   1
_chemical_formula_structural   Li9Cr4C8(SO16)2
_chemical_formula_sum   'Li9 Cr4 C8 S2 O32'
_cell_volume   595.79159945
_cell_formula_units_Z   1
loop_
 _symmetry_equiv_pos_site_id
 _symmetry_equiv_pos_as_xyz
  1  'x, y, z'
loop_
 _atom_site_type_symbol
 _atom_site_label
 _atom_site_symmetry_multiplicity
 _atom_site_fract_x
 _atom_site_fract_y
 _atom_site_fract_z
 _atom_site_occupancy
  Li  Li0  1  0.08452661  0.65669415  0.15757760  1
  Li  Li1  1  0.65669415  0.08452661  0.34242240  1
  Li  Li2  1  0.08064335  0.66227234  0.76125797  1
  Li  Li3  1  0.33498792  0.92174393  0.24503220  1
  Li  Li4  1  0.66227234  0.08064335  0.73874203  1
  Li  Li5  1  0.92174393  0.33498792  0.25496780  1
  Li  Li6  1  0.33552264  0.91956290  0.66868018  1
  Li  Li7  1  0.91956290  0.33552264  0.83131982  1
  Li  Li8  1  0.91341105  0.91341105  0.25000000  1
  Cr  Cr9  1  0.49868412  0.00280123  0.99746420  1
  Cr  Cr10  1  0.50168994  0.50074706  0.00119496  1
  Cr  Cr11  1  0.00280123  0.49868412  0.50253580  1
  Cr  Cr12  1  0.50074706  0.50168994  0.49880504  1
  C  C13  1  0.34497802  0.72881507  0.06109626  1
  C  C14  1  0.28918883  0.28250730  0.55620621  1
  C  C15  1  0.72881507  0.34497802  0.43890374  1
  C  C16  1  0.71770962  0.71495920  0.05617978  1
  C  C17  1  0.27210523  0.65957538  0.55813481  1
  C  C18  1  0.28250730  0.28918883  0.94379379  1
  C  C19  1  0.71495920  0.71770962  0.44382022  1
  C  C20  1  0.65957538  0.27210523  0.94186519  1
  S  S21  1  0.11786993  0.11786993  0.25000000  1
  S  S22  1  0.87473444  0.87473444  0.75000000  1
  O  O23  1  0.05835622  0.05132748  0.12191644  1
  O  O24  1  0.04259579  0.31104413  0.11336659  1
  O  O25  1  0.05132748  0.05835622  0.37808356  1
  O  O26  1  0.40967379  0.13900480  0.08523273  1
  O  O27  1  0.31104413  0.04259579  0.38663341  1
  O  O28  1  0.13900480  0.40967379  0.41476727  1
  O  O29  1  0.65792840  0.28962151  0.07118415  1
  O  O30  1  0.30364785  0.13681018  0.69389602  1
  O  O31  1  0.33999382  0.60326729  0.20115162  1
  O  O32  1  0.60326729  0.33999382  0.29884838  1
  O  O33  1  0.13681018  0.30364785  0.80610398  1
  O  O34  1  0.34822506  0.86840387  0.04895880  1
  O  O35  1  0.42624658  0.29864298  0.56207927  1
  O  O36  1  0.70428753  0.57886819  0.05989118  1
  O  O37  1  0.12324575  0.67056706  0.53197035  1
  O  O38  1  0.28962151  0.65792840  0.42881585  1
  O  O39  1  0.71203294  0.34353187  0.57073675  1
  O  O40  1  0.86840387  0.34822506  0.45104120  1
  O  O41  1  0.29864298  0.42624658  0.93792073  1
  O  O42  1  0.67056706  0.12324575  0.96802965  1
  O  O43  1  0.57886819  0.70428753  0.44010882  1
  O  O44  1  0.86232140  0.70175164  0.19734198  1
  O  O45  1  0.39797910  0.65643797  0.70319215  1
  O  O46  1  0.65643797  0.39797910  0.79680785  1
  O  O47  1  0.70175164  0.86232140  0.30265802  1
  O  O48  1  0.34353187  0.71203294  0.92926325  1
  O  O49  1  0.86415687  0.59086216  0.58478795  1
  O  O50  1  0.68001972  0.95125703  0.61292500  1
  O  O51  1  0.59086216  0.86415687  0.91521205  1
  O  O52  1  0.95125703  0.68001972  0.88707500  1
  O  O53  1  0.93544565  0.93068213  0.61739697  1
  O  O54  1  0.93068213  0.93544565  0.88260303  1
