# generated using pymatgen
data_CrFe3Sn2(PO4)6
_symmetry_space_group_name_H-M   'P 1'
_cell_length_a   8.81845541
_cell_length_b   8.81845594
_cell_length_c   8.81845584
_cell_angle_alpha   58.87249052
_cell_angle_beta   58.87249032
_cell_angle_gamma   58.87249318
_symmetry_Int_Tables_number   1
_chemical_formula_structural   CrFe3Sn2(PO4)6
_chemical_formula_sum   'Cr1 Fe3 Sn2 P6 O24'
_cell_volume   472.43096624
_cell_formula_units_Z   1
loop_
 _symmetry_equiv_pos_site_id
 _symmetry_equiv_pos_as_xyz
  1  'x, y, z'
loop_
 _atom_site_type_symbol
 _atom_site_label
 _atom_site_symmetry_multiplicity
 _atom_site_fract_x
 _atom_site_fract_y
 _atom_site_fract_z
 _atom_site_occupancy
  Cr  Cr0  1  0.85512695  0.85512695  0.85512695  1
  Fe  Fe1  1  0.14861998  0.14861998  0.14861998  1
  Fe  Fe2  1  0.35062847  0.35062847  0.35062847  1
  Fe  Fe3  1  0.64816607  0.64816607  0.64816607  1
  Sn  Sn4  1  0.00299628  0.00299628  0.00299628  1
  Sn  Sn5  1  0.49918868  0.49918868  0.49918868  1
  P  P6  1  0.74924256  0.46359428  0.03927298  1
  P  P7  1  0.24881854  0.54076720  0.95721428  1
  P  P8  1  0.54076720  0.95721428  0.24881854  1
  P  P9  1  0.95721428  0.24881854  0.54076720  1
  P  P10  1  0.03927298  0.74924256  0.46359428  1
  P  P11  1  0.46359428  0.03927298  0.74924256  1
  O  O12  1  0.11423536  0.30094797  0.50947536  1
  O  O13  1  0.30094797  0.50947536  0.11423536  1
  O  O14  1  0.05933515  0.91746471  0.26989979  1
  O  O15  1  0.50947536  0.11423536  0.30094797  1
  O  O16  1  0.00640341  0.80145328  0.61983325  1
  O  O17  1  0.23506948  0.58295271  0.44170728  1
  O  O18  1  0.26989979  0.05933515  0.91746471  1
  O  O19  1  0.44170728  0.23506948  0.58295271  1
  O  O20  1  0.19599127  0.38353131  0.99221433  1
  O  O21  1  0.58295271  0.44170728  0.23506948  1
  O  O22  1  0.08175767  0.73332993  0.93645390  1
  O  O23  1  0.38353131  0.99221433  0.19599127  1
  O  O24  1  0.61983325  0.00640341  0.80145328  1
  O  O25  1  0.91746471  0.26989979  0.05933515  1
  O  O26  1  0.41572315  0.56079413  0.76378052  1
  O  O27  1  0.80145328  0.61983325  0.00640341  1
  O  O28  1  0.56079413  0.76378052  0.41572315  1
  O  O29  1  0.73332993  0.93645390  0.08175767  1
  O  O30  1  0.76378052  0.41572315  0.56079413  1
  O  O31  1  0.99221433  0.19599127  0.38353131  1
  O  O32  1  0.49443227  0.88679585  0.69277964  1
  O  O33  1  0.93645390  0.08175767  0.73332993  1
  O  O34  1  0.69277964  0.49443227  0.88679585  1
  O  O35  1  0.88679585  0.69277964  0.49443227  1
