# generated using pymatgen
data_Li10Mn2Fe3Co3O16
_symmetry_space_group_name_H-M   'P 1'
_cell_length_a   6.03510502
_cell_length_b   6.05396225
_cell_length_c   9.86041643
_cell_angle_alpha   90.05499602
_cell_angle_beta   90.26569742
_cell_angle_gamma   58.17046490
_symmetry_Int_Tables_number   1
_chemical_formula_structural   Li10Mn2Fe3Co3O16
_chemical_formula_sum   'Li10 Mn2 Fe3 Co3 O16'
_cell_volume   306.08332622
_cell_formula_units_Z   1
loop_
 _symmetry_equiv_pos_site_id
 _symmetry_equiv_pos_as_xyz
  1  'x, y, z'
loop_
 _atom_site_type_symbol
 _atom_site_label
 _atom_site_symmetry_multiplicity
 _atom_site_fract_x
 _atom_site_fract_y
 _atom_site_fract_z
 _atom_site_occupancy
  Li  Li0  1  0.98722341  0.98248270  0.97513255  1
  Li  Li1  1  0.01255138  0.00597351  0.48524696  1
  Li  Li2  1  0.19899127  0.20831534  0.53435366  1
  Li  Li3  1  0.60591361  0.18838901  0.55428388  1
  Li  Li4  1  0.31038305  0.31132882  0.76748773  1
  Li  Li5  1  0.81569829  0.37878513  0.05163010  1
  Li  Li6  1  0.17052697  0.61771052  0.55598351  1
  Li  Li7  1  0.37951663  0.82425506  0.04877500  1
  Li  Li8  1  0.78818073  0.79731045  0.04012313  1
  Li  Li9  1  0.67441223  0.67439148  0.26909038  1
  Mn  Mn10  1  0.33416051  0.32494223  0.02134242  1
  Mn  Mn11  1  0.65045004  0.65354241  0.52656876  1
  Fe  Fe12  1  0.66974720  0.17570353  0.27926555  1
  Fe  Fe13  1  0.17607979  0.67017733  0.27789875  1
  Fe  Fe14  1  0.81248011  0.81106163  0.77797145  1
  Co  Co15  1  0.17525731  0.17395019  0.27967870  1
  Co  Co16  1  0.81707926  0.31686409  0.78016341  1
  Co  Co17  1  0.32149685  0.80913906  0.78159753  1
  O  O18  1  0.00458931  0.00593413  0.16545887  1
  O  O19  1  0.99344173  0.96194634  0.67345941  1
  O  O20  1  0.15774773  0.12827078  0.89566085  1
  O  O21  1  0.50096202  0.02754467  0.15331299  1
  O  O22  1  0.02947304  0.49894943  0.14740731  1
  O  O23  1  0.34146731  0.34416715  0.39857595  1
  O  O24  1  0.64816236  0.13958847  0.90406122  1
  O  O25  1  0.50164361  0.50260374  0.16245007  1
  O  O26  1  0.83242802  0.34060994  0.40701690  1
  O  O27  1  0.15499345  0.64824545  0.89561935  1
  O  O28  1  0.48056484  0.49896452  0.66691061  1
  O  O29  1  0.96098294  0.50251035  0.64886331  1
  O  O30  1  0.34391035  0.83381791  0.40377130  1
  O  O31  1  0.64487887  0.66237467  0.89459551  1
  O  O32  1  0.48613435  0.96039914  0.65712597  1
  O  O33  1  0.85074144  0.85104583  0.39596388  1
