# generated using pymatgen
data_LiFe2F5
_symmetry_space_group_name_H-M   'P 1'
_cell_length_a   8.94423888
_cell_length_b   6.91209707
_cell_length_c   6.34362292
_cell_angle_alpha   90.00000000
_cell_angle_beta   95.70732967
_cell_angle_gamma   90.00000000
_symmetry_Int_Tables_number   1
_chemical_formula_structural   LiFe2F5
_chemical_formula_sum   'Li4 Fe8 F20'
_cell_volume   390.24052198
_cell_formula_units_Z   4
loop_
 _symmetry_equiv_pos_site_id
 _symmetry_equiv_pos_as_xyz
  1  'x, y, z'
loop_
 _atom_site_type_symbol
 _atom_site_label
 _atom_site_symmetry_multiplicity
 _atom_site_fract_x
 _atom_site_fract_y
 _atom_site_fract_z
 _atom_site_occupancy
  Li  Li0  1  0.19714582  0.88928995  0.00040161  1
  Li  Li1  1  0.19714582  0.61071005  0.50040161  1
  Li  Li2  1  0.80285418  0.38928995  0.49959839  1
  Li  Li3  1  0.80285418  0.11071005  -0.00040161  1
  Fe  Fe4  1  0.14469008  0.36471073  0.01757239  1
  Fe  Fe5  1  0.14469008  0.13528927  0.51757239  1
  Fe  Fe6  1  0.47276570  0.36127001  0.76582195  1
  Fe  Fe7  1  0.52723430  0.86127001  0.73417805  1
  Fe  Fe8  1  0.47276570  0.13872999  0.26582195  1
  Fe  Fe9  1  0.52723430  0.63872999  0.23417805  1
  Fe  Fe10  1  0.85530992  0.86471073  0.48242761  1
  Fe  Fe11  1  0.85530992  0.63528927  0.98242761  1
  F  F12  1  0.09179144  0.66065975  0.01744277  1
  F  F13  1  0.13417257  0.10829260  0.83545783  1
  F  F14  1  0.09179144  0.83934025  0.51744277  1
  F  F15  1  0.13417257  0.39170740  0.33545783  1
  F  F16  1  0.25003995  0.43138903  0.73076959  1
  F  F17  1  0.25003995  0.06861097  0.23076959  1
  F  F18  1  0.41503432  0.67079556  0.51699763  1
  F  F19  1  0.39205921  0.09060004  0.61682656  1
  F  F20  1  0.41503432  0.82920444  0.01699763  1
  F  F21  1  0.39205921  0.40939996  0.11682656  1
  F  F22  1  0.60794079  0.59060004  0.88317344  1
  F  F23  1  0.58496568  0.17079556  0.98300237  1
  F  F24  1  0.60794079  0.90939996  0.38317344  1
  F  F25  1  0.58496568  0.32920444  0.48300237  1
  F  F26  1  0.74996005  0.93138903  0.76923041  1
  F  F27  1  0.74996005  0.56861097  0.26923041  1
  F  F28  1  0.86582743  0.60829260  0.66454217  1
  F  F29  1  0.90820856  0.16065975  0.48255723  1
  F  F30  1  0.86582743  0.89170740  0.16454217  1
  F  F31  1  0.90820856  0.33934025  0.98255723  1
