# generated using pymatgen
data_LiFeF3
_symmetry_space_group_name_H-M   'P 1'
_cell_length_a   6.89802927
_cell_length_b   7.90953666
_cell_length_c   16.50510519
_cell_angle_alpha   88.57321065
_cell_angle_beta   83.46222227
_cell_angle_gamma   90.86812764
_symmetry_Int_Tables_number   1
_chemical_formula_structural   LiFeF3
_chemical_formula_sum   'Li14 Fe14 F42'
_cell_volume   894.24194333
_cell_formula_units_Z   14
loop_
 _symmetry_equiv_pos_site_id
 _symmetry_equiv_pos_as_xyz
  1  'x, y, z'
loop_
 _atom_site_type_symbol
 _atom_site_label
 _atom_site_symmetry_multiplicity
 _atom_site_fract_x
 _atom_site_fract_y
 _atom_site_fract_z
 _atom_site_occupancy
  Li  Li0  1  0.21800736  0.83595161  0.03279047  1
  Li  Li1  1  0.12213027  0.22245050  0.75524308  1
  Li  Li2  1  0.25846493  0.29249036  0.56992902  1
  Li  Li3  1  0.32370368  0.45113387  0.30891631  1
  Li  Li4  1  0.43503596  0.53465499  0.12135783  1
  Li  Li5  1  0.32020771  0.92639893  0.83788070  1
  Li  Li6  1  0.48756494  0.84351253  0.60006436  1
  Li  Li7  1  0.51243506  0.15648747  0.39993564  1
  Li  Li8  1  0.67979229  0.07360107  0.16211930  1
  Li  Li9  1  0.56496404  0.46534501  0.87864217  1
  Li  Li10  1  0.67629632  0.54886613  0.69108369  1
  Li  Li11  1  0.74153507  0.70750964  0.43007098  1
  Li  Li12  1  0.87786973  0.77754950  0.24475692  1
  Li  Li13  1  0.78199264  0.16404839  0.96720953  1
  Fe  Fe14  1  0.05310404  0.04291022  0.39107111  1
  Fe  Fe15  1  0.16682861  0.14194832  0.18724722  1
  Fe  Fe16  1  0.04708725  0.54331704  0.90047420  1
  Fe  Fe17  1  0.23162561  0.70163472  0.48824862  1
  Fe  Fe18  1  0.16387313  0.62580621  0.69517605  1
  Fe  Fe19  1  0.40926547  0.82107799  0.28479139  1
  Fe  Fe20  1  0.29602648  0.18779377  0.96054296  1
  Fe  Fe21  1  0.70397352  0.81220623  0.03945704  1
  Fe  Fe22  1  0.59073453  0.17892201  0.71520861  1
  Fe  Fe23  1  0.83612687  0.37419379  0.30482395  1
  Fe  Fe24  1  0.76837439  0.29836528  0.51175138  1
  Fe  Fe25  1  0.95291275  0.45668296  0.09952580  1
  Fe  Fe26  1  0.83317139  0.85805168  0.81275278  1
  Fe  Fe27  1  0.94689596  0.95708978  0.60892889  1
  F  F28  1  0.00608002  0.68102973  0.01791404  1
  F  F29  1  0.07648900  0.93544252  0.27382072  1
  F  F30  1  0.03339493  0.16755167  0.52158155  1
  F  F31  1  0.16815802  0.06092872  0.07328659  1
  F  F32  1  0.12212498  0.27310304  0.30781921  1
  F  F33  1  0.05609302  0.44464341  0.77706877  1
  F  F34  1  0.22317307  0.37722400  0.12061005  1
  F  F35  1  0.15535214  0.51702929  0.57748551  1
  F  F36  1  0.12791853  0.76605304  0.80935907  1
  F  F37  1  0.25034464  0.64078711  0.37255629  1
  F  F38  1  0.20867314  0.85681644  0.60010236  1
  F  F39  1  0.42747207  0.74397465  0.07323505  1
  F  F40  1  0.41615504  0.60596302  0.22772663  1
  F  F41  1  0.32272025  0.20369830  0.66905995  1
  F  F42  1  0.22838877  0.14897627  0.84316052  1
  F  F43  1  0.32910140  0.98082305  0.39416216  1
  F  F44  1  0.35538333  0.93150510  0.94313129  1
  F  F45  1  0.43022364  0.05209154  0.22413509  1
  F  F46  1  0.31081563  0.49130250  0.92363631  1
  F  F47  1  0.48588351  0.27348448  0.49793505  1
  F  F48  1  0.55085865  0.33864823  0.32507655  1
  F  F49  1  0.44914135  0.66135177  0.67492345  1
  F  F50  1  0.51411649  0.72651552  0.50206495  1
  F  F51  1  0.68918437  0.50869750  0.07636369  1
  F  F52  1  0.56977636  0.94790846  0.77586491  1
  F  F53  1  0.64461667  0.06849490  0.05686871  1
  F  F54  1  0.67089860  0.01917695  0.60583784  1
  F  F55  1  0.77161123  0.85102373  0.15683948  1
  F  F56  1  0.67727975  0.79630170  0.33094005  1
  F  F57  1  0.58384496  0.39403698  0.77227337  1
  F  F58  1  0.57252793  0.25602535  0.92676495  1
  F  F59  1  0.79132686  0.14318356  0.39989764  1
  F  F60  1  0.74965536  0.35921289  0.62744371  1
  F  F61  1  0.87208147  0.23394696  0.19064093  1
  F  F62  1  0.84464786  0.48297071  0.42251449  1
  F  F63  1  0.77682693  0.62277600  0.87938995  1
  F  F64  1  0.94390698  0.55535659  0.22293123  1
  F  F65  1  0.87787502  0.72689696  0.69218079  1
  F  F66  1  0.83184198  0.93907128  0.92671341  1
  F  F67  1  0.96660507  0.83244833  0.47841845  1
  F  F68  1  0.92351100  0.06455748  0.72617928  1
  F  F69  1  0.99391998  0.31897027  0.98208596  1
