# generated using pymatgen
data_ErMnGa
_symmetry_space_group_name_H-M   'P 1'
_cell_length_a   7.09823723
_cell_length_b   8.14375064
_cell_length_c   8.14375064
_cell_angle_alpha   60.23369022
_cell_angle_beta   64.16322651
_cell_angle_gamma   64.16322651
_symmetry_Int_Tables_number   1
_chemical_formula_structural   ErMnGa
_chemical_formula_sum   'Er6 Mn6 Ga6'
_cell_volume   352.99181634
_cell_formula_units_Z   6
loop_
 _symmetry_equiv_pos_site_id
 _symmetry_equiv_pos_as_xyz
  1  'x, y, z'
loop_
 _atom_site_type_symbol
 _atom_site_label
 _atom_site_symmetry_multiplicity
 _atom_site_fract_x
 _atom_site_fract_y
 _atom_site_fract_z
 _atom_site_occupancy
  Er  Er0  1  0.76044883  0.96913795  0.46913795  1
  Er  Er1  1  0.19872472  0.03086205  0.53086205  1
  Er  Er2  1  0.33725215  0.24887046  0.74887046  1
  Er  Er3  1  0.33499308  0.75112954  0.25112954  1
  Er  Er4  1  0.14971836  0.55148614  0.05148614  1
  Er  Er5  1  0.75269063  0.44851386  0.94851386  1
  Mn  Mn6  1  0.98744130  0.00000000  -0.00000000  1
  Mn  Mn7  1  0.98744130  0.50000000  0.50000000  1
  Mn  Mn8  1  0.51653757  0.59958859  0.63416692  1
  Mn  Mn9  1  0.75029308  0.40041141  0.36583308  1
  Mn  Mn10  1  0.75029308  0.86583308  0.90041141  1
  Mn  Mn11  1  0.51653757  0.13416692  0.09958859  1
  Ga  Ga12  1  0.73007957  0.76941111  0.26941111  1
  Ga  Ga13  1  0.76890179  0.23058889  0.73058889  1
  Ga  Ga14  1  0.42217651  0.82783702  0.83693345  1
  Ga  Ga15  1  0.08694698  0.17216298  0.16306655  1
  Ga  Ga16  1  0.08694698  0.66306655  0.67216298  1
  Ga  Ga17  1  0.42217651  0.33693345  0.32783702  1
