# generated using pymatgen
data_Li3V5O12
_symmetry_space_group_name_H-M   'P 1'
_cell_length_a   6.90331420
_cell_length_b   6.90331489
_cell_length_c   5.78647555
_cell_angle_alpha   74.18605167
_cell_angle_beta   105.81394679
_cell_angle_gamma   97.87666469
_symmetry_Int_Tables_number   1
_chemical_formula_structural   Li3V5O12
_chemical_formula_sum   'Li3 V5 O12'
_cell_volume   254.69220648
_cell_formula_units_Z   1
loop_
 _symmetry_equiv_pos_site_id
 _symmetry_equiv_pos_as_xyz
  1  'x, y, z'
loop_
 _atom_site_type_symbol
 _atom_site_label
 _atom_site_symmetry_multiplicity
 _atom_site_fract_x
 _atom_site_fract_y
 _atom_site_fract_z
 _atom_site_occupancy
  Li  Li0  1  0.09603422  0.09603422  0.75000000  1
  Li  Li1  1  0.25383235  0.25383235  0.25000000  1
  Li  Li2  1  0.75917392  0.75917392  0.75000000  1
  V  V3  1  0.20195312  0.61082456  0.76316129  1
  V  V4  1  0.39164935  0.81258615  0.26302199  1
  V  V5  1  0.61082456  0.20195312  0.73683871  1
  V  V6  1  0.81258615  0.39164935  0.23697801  1
  V  V7  1  0.91528237  0.91528237  0.25000000  1
  O  O8  1  0.01646206  0.78555305  0.63707373  1
  O  O9  1  0.09265047  0.37329597  0.80448934  1
  O  O10  1  0.19229129  0.97807070  0.16937637  1
  O  O11  1  0.36845823  0.64264797  0.56826490  1
  O  O12  1  0.37329597  0.09265047  0.69551066  1
  O  O13  1  0.33678193  0.62850276  0.06554163  1
  O  O14  1  0.64264797  0.36845823  0.93173510  1
  O  O15  1  0.64880636  0.89514319  0.32414590  1
  O  O16  1  0.62850276  0.33678193  0.43445837  1
  O  O17  1  0.78555305  0.01646206  0.86292627  1
  O  O18  1  0.89514319  0.64880636  0.17585410  1
  O  O19  1  0.97807070  0.19229129  0.33062363  1
