# generated using pymatgen
data_Li4Nb3V2Fe3O16
_symmetry_space_group_name_H-M   'P 1'
_cell_length_a   6.10550900
_cell_length_b   6.13749163
_cell_length_c   9.82262958
_cell_angle_alpha   89.78128047
_cell_angle_beta   88.92092662
_cell_angle_gamma   119.75735493
_symmetry_Int_Tables_number   1
_chemical_formula_structural   Li4Nb3V2Fe3O16
_chemical_formula_sum   'Li4 Nb3 V2 Fe3 O16'
_cell_volume   319.44853027
_cell_formula_units_Z   1
loop_
 _symmetry_equiv_pos_site_id
 _symmetry_equiv_pos_as_xyz
  1  'x, y, z'
loop_
 _atom_site_type_symbol
 _atom_site_label
 _atom_site_symmetry_multiplicity
 _atom_site_fract_x
 _atom_site_fract_y
 _atom_site_fract_z
 _atom_site_occupancy
  Li  Li0  1  0.33868193  0.67121249  0.90410153  1
  Li  Li1  1  0.01691405  0.01031661  0.00165440  1
  Li  Li2  1  0.03238830  0.01552363  0.48767511  1
  Li  Li3  1  0.67460629  0.33957636  0.38336074  1
  Nb  Nb4  1  0.65878675  0.82893123  0.21350811  1
  Nb  Nb5  1  0.82108122  0.65857806  0.71329713  1
  Nb  Nb6  1  0.82294960  0.16328365  0.71338454  1
  V  V7  1  0.31019305  0.65620977  0.47552157  1
  V  V8  1  0.65329909  0.31838746  0.99812187  1
  Fe  Fe9  1  0.16837170  0.83057646  0.21268140  1
  Fe  Fe10  1  0.17678736  0.34297163  0.21311002  1
  Fe  Fe11  1  0.33598892  0.16613028  0.71510243  1
  O  O12  1  0.14665473  0.82047142  0.60188211  1
  O  O13  1  0.04464040  0.53078340  0.34256646  1
  O  O14  1  0.34885442  0.68730280  0.10100351  1
  O  O15  1  0.99211157  0.98699858  0.30765661  1
  O  O16  1  0.97627659  0.98504221  0.81617096  1
  O  O17  1  0.13998863  0.31754117  0.60070003  1
  O  O18  1  0.48458572  0.96524788  0.33853953  1
  O  O19  1  0.50055381  0.54255332  0.35344617  1
  O  O20  1  0.33028495  0.15936754  0.09627016  1
  O  O21  1  0.67129308  0.83572249  0.60456022  1
  O  O22  1  0.53155570  0.48889529  0.84141873  1
  O  O23  1  0.52970052  0.03652862  0.84031352  1
  O  O24  1  0.68990830  0.34638637  0.59924795  1
  O  O25  1  0.82658845  0.66818070  0.10201658  1
  O  O26  1  0.95840453  0.47708194  0.83401323  1
  O  O27  1  0.81854835  0.15049963  0.09651437  1
