# generated using pymatgen
data_Li4Ti2Cr3Sn3O16
_symmetry_space_group_name_H-M   'P 1'
_cell_length_a   6.10715022
_cell_length_b   6.12252826
_cell_length_c   9.65523254
_cell_angle_alpha   89.96010634
_cell_angle_beta   89.40884636
_cell_angle_gamma   120.07131413
_symmetry_Int_Tables_number   1
_chemical_formula_structural   Li4Ti2Cr3Sn3O16
_chemical_formula_sum   'Li4 Ti2 Cr3 Sn3 O16'
_cell_volume   312.40439791
_cell_formula_units_Z   1
loop_
 _symmetry_equiv_pos_site_id
 _symmetry_equiv_pos_as_xyz
  1  'x, y, z'
loop_
 _atom_site_type_symbol
 _atom_site_label
 _atom_site_symmetry_multiplicity
 _atom_site_fract_x
 _atom_site_fract_y
 _atom_site_fract_z
 _atom_site_occupancy
  Li  Li0  1  0.34195722  0.67094823  0.88939210  1
  Li  Li1  1  0.97713536  0.98857516  0.99099542  1
  Li  Li2  1  0.98408211  0.99194579  0.50060933  1
  Li  Li3  1  0.66884127  0.33441708  0.39887065  1
  Ti  Ti4  1  0.35069016  0.67547254  0.49993536  1
  Ti  Ti5  1  0.68604455  0.34310108  0.98326105  1
  Cr  Cr6  1  0.65807144  0.82896981  0.21428698  1
  Cr  Cr7  1  0.83185680  0.65970649  0.71387332  1
  Cr  Cr8  1  0.83142382  0.17205705  0.71394178  1
  Sn  Sn9  1  0.16830426  0.83023743  0.21436980  1
  Sn  Sn10  1  0.16873289  0.33831479  0.21451826  1
  Sn  Sn11  1  0.34080919  0.17038823  0.71394828  1
  O  O12  1  0.16467440  0.83077268  0.59368599  1
  O  O13  1  0.03396468  0.51692121  0.34578194  1
  O  O14  1  0.34116705  0.67075328  0.09808752  1
  O  O15  1  0.98772445  0.99380032  0.31517846  1
  O  O16  1  0.99154108  0.99558150  0.80689396  1
  O  O17  1  0.16487002  0.33413359  0.59373845  1
  O  O18  1  0.48326048  0.95770393  0.34392108  1
  O  O19  1  0.48337120  0.52539688  0.34417043  1
  O  O20  1  0.32502226  0.16281398  0.09264937  1
  O  O21  1  0.65912232  0.82943825  0.59980255  1
  O  O22  1  0.52859880  0.48567482  0.84463809  1
  O  O23  1  0.52875502  0.04301152  0.84480551  1
  O  O24  1  0.67721454  0.33881943  0.60425699  1
  O  O25  1  0.83156253  0.66696738  0.09648908  1
  O  O26  1  0.95941276  0.47957027  0.83935375  1
  O  O27  1  0.83178932  0.16480627  0.09638550  1
