# generated using pymatgen
data_LiVPO5
_symmetry_space_group_name_H-M   'P 1'
_cell_length_a   5.16209360
_cell_length_b   9.12418153
_cell_length_c   17.74307769
_cell_angle_alpha   89.99868201
_cell_angle_beta   88.65788557
_cell_angle_gamma   89.99968613
_symmetry_Int_Tables_number   1
_chemical_formula_structural   LiVPO5
_chemical_formula_sum   'Li8 V8 P8 O40'
_cell_volume   835.46755154
_cell_formula_units_Z   8
loop_
 _symmetry_equiv_pos_site_id
 _symmetry_equiv_pos_as_xyz
  1  'x, y, z'
loop_
 _atom_site_type_symbol
 _atom_site_label
 _atom_site_symmetry_multiplicity
 _atom_site_fract_x
 _atom_site_fract_y
 _atom_site_fract_z
 _atom_site_occupancy
  Li  Li0  1  0.63431707  0.27318380  0.10922135  1
  Li  Li1  1  0.58741563  0.94966151  0.21017899  1
  Li  Li2  1  0.41258129  0.44965354  0.28982340  1
  Li  Li3  1  0.36568126  0.77317950  0.39077752  1
  Li  Li4  1  0.63431306  0.22681331  0.60920094  1
  Li  Li5  1  0.58741720  0.55034722  0.71017699  1
  Li  Li6  1  0.41257414  0.05033180  0.78982173  1
  Li  Li7  1  0.36568401  0.72681257  0.89079129  1
  V  V8  1  0.50169599  0.62351936  0.12456970  1
  V  V9  1  0.10688842  0.08081828  0.13378423  1
  V  V10  1  0.89311654  0.58081792  0.36621439  1
  V  V11  1  0.49830027  0.12351118  0.37542513  1
  V  V12  1  0.50170226  0.87650705  0.62457491  1
  V  V13  1  0.10689914  0.41918280  0.63378577  1
  V  V14  1  0.89310080  0.91918060  0.86621415  1
  V  V15  1  0.49830172  0.37648944  0.87542789  1
  P  P16  1  0.00467866  0.76861852  0.03256023  1
  P  P17  1  0.00249243  0.41286770  0.19609412  1
  P  P18  1  0.99750911  0.91286251  0.30390309  1
  P  P19  1  0.99532088  0.26861621  0.46744001  1
  P  P20  1  0.00467800  0.73138229  0.53256144  1
  P  P21  1  0.00248793  0.08714065  0.69609506  1
  P  P22  1  0.99751121  0.58713516  0.80390600  1
  P  P23  1  0.99531719  0.23137955  0.96743807  1
  O  O24  1  0.75443576  0.68053820  0.04644235  1
  O  O25  1  0.24993454  0.68163073  0.05069233  1
  O  O26  1  0.96909635  0.20667647  0.05474546  1
  O  O27  1  0.99059425  0.91507389  0.07471532  1
  O  O28  1  0.43110574  0.09054659  0.13677425  1
  O  O29  1  0.25911327  0.46048262  0.15705837  1
  O  O30  1  0.75227379  0.46742356  0.15902828  1
  O  O31  1  0.50032545  0.74951157  0.19055276  1
  O  O32  1  0.98134894  0.24325029  0.19683981  1
  O  O33  1  0.98120726  0.96155219  0.22048738  1
  O  O34  1  0.01878038  0.46155896  0.27951085  1
  O  O35  1  0.01865186  0.74324567  0.30315822  1
  O  O36  1  0.49967197  0.24952194  0.30944531  1
  O  O37  1  0.24773831  0.96741464  0.34096604  1
  O  O38  1  0.74089704  0.96048021  0.34294400  1
  O  O39  1  0.56889950  0.59054595  0.36322760  1
  O  O40  1  0.00940614  0.41506844  0.42528373  1
  O  O41  1  0.03090904  0.70667638  0.44525477  1
  O  O42  1  0.75006166  0.18162886  0.44931024  1
  O  O43  1  0.24555850  0.18053180  0.45355822  1
  O  O44  1  0.75444258  0.81946410  0.54644285  1
  O  O45  1  0.24993165  0.81836910  0.55069225  1
  O  O46  1  0.96909185  0.29332672  0.55474483  1
  O  O47  1  0.99059268  0.58492741  0.57471291  1
  O  O48  1  0.43111647  0.40944832  0.63676913  1
  O  O49  1  0.25909710  0.03951568  0.65705566  1
  O  O50  1  0.75226026  0.03259604  0.65902862  1
  O  O51  1  0.50033373  0.75047382  0.69055619  1
  O  O52  1  0.98136947  0.25675649  0.69684274  1
  O  O53  1  0.98122554  0.53844412  0.72048903  1
  O  O54  1  0.01877685  0.03844767  0.77951053  1
  O  O55  1  0.01863233  0.75675281  0.80315917  1
  O  O56  1  0.49967426  0.25047947  0.80944629  1
  O  O57  1  0.24774035  0.53258990  0.84097089  1
  O  O58  1  0.74090144  0.53951264  0.84294422  1
  O  O59  1  0.56888159  0.90945215  0.86322857  1
  O  O60  1  0.00940053  0.08492202  0.92528623  1
  O  O61  1  0.03090575  0.79332392  0.94525494  1
  O  O62  1  0.75006278  0.31836654  0.94930933  1
  O  O63  1  0.24555583  0.31945764  0.95355490  1
