# generated using pymatgen
data_Li9Fe7(PO4)12
_symmetry_space_group_name_H-M   'P 1'
_cell_length_a   8.68159184
_cell_length_b   8.81746000
_cell_length_c   12.25038863
_cell_angle_alpha   89.88464063
_cell_angle_beta   90.10387934
_cell_angle_gamma   89.98604649
_symmetry_Int_Tables_number   1
_chemical_formula_structural   Li9Fe7(PO4)12
_chemical_formula_sum   'Li9 Fe7 P12 O48'
_cell_volume   937.75874144
_cell_formula_units_Z   1
loop_
 _symmetry_equiv_pos_site_id
 _symmetry_equiv_pos_as_xyz
  1  'x, y, z'
loop_
 _atom_site_type_symbol
 _atom_site_label
 _atom_site_symmetry_multiplicity
 _atom_site_fract_x
 _atom_site_fract_y
 _atom_site_fract_z
 _atom_site_occupancy
  Li  Li0  1  0.21722342  0.72226339  0.18188089  1
  Li  Li1  1  0.21657386  0.77872124  0.81849341  1
  Li  Li2  1  0.28318266  0.22135688  0.31759790  1
  Li  Li3  1  0.28439891  0.27883498  0.68143332  1
  Li  Li4  1  0.71665531  0.72142152  0.31931277  1
  Li  Li5  1  0.71876228  0.76869793  0.68166126  1
  Li  Li6  1  0.74830810  0.46210407  0.61643819  1
  Li  Li7  1  0.78435503  0.22191014  0.18079348  1
  Li  Li8  1  0.78283905  0.27923627  0.81369032  1
  Fe  Fe9  1  0.24951766  0.96190613  0.61357429  1
  Fe  Fe10  1  0.24793445  0.54128517  0.38669051  1
  Fe  Fe11  1  0.25102744  0.04085753  0.11293525  1
  Fe  Fe12  1  0.25103126  0.45880589  0.88796303  1
  Fe  Fe13  1  0.74900287  0.54067898  0.11376823  1
  Fe  Fe14  1  0.74898593  0.95885108  0.88594701  1
  Fe  Fe15  1  0.75054059  0.04028197  0.38678084  1
  P  P16  1  0.10568153  0.39314176  0.14719088  1
  P  P17  1  0.10534182  0.10761923  0.85241909  1
  P  P18  1  0.39243585  0.61059332  0.64643274  1
  P  P19  1  0.39400119  0.89294202  0.35378627  1
  P  P20  1  0.60514355  0.10046243  0.64815079  1
  P  P21  1  0.60613297  0.39240503  0.35066031  1
  P  P22  1  0.89506160  0.60841012  0.85637678  1
  P  P23  1  0.89374412  0.89296035  0.14700693  1
  P  P24  1  0.04066484  0.24781004  0.49818218  1
  P  P25  1  0.46038661  0.74998988  0.00043942  1
  P  P26  1  0.53976890  0.24976063  0.99941957  1
  P  P27  1  0.96345724  0.75255660  0.49845300  1
  O  O28  1  0.05905763  0.64616753  0.42727082  1
  O  O29  1  0.05871769  0.85978012  0.57155169  1
  O  O30  1  0.07227288  0.89557136  0.15564923  1
  O  O31  1  0.07352987  0.60510633  0.84632700  1
  O  O32  1  0.14757672  0.16063421  0.58072235  1
  O  O33  1  0.14813416  0.33697707  0.42040896  1
  O  O34  1  0.15629337  0.43449198  0.03097134  1
  O  O35  1  0.15637600  0.06538997  0.96837383  1
  O  O36  1  0.16241203  0.23259435  0.17986946  1
  O  O37  1  0.16258552  0.26789830  0.81973487  1
  O  O38  1  0.17445082  0.51354815  0.22609213  1
  O  O39  1  0.17441127  0.98610461  0.77236803  1
  O  O40  1  0.32576261  0.01298184  0.27447639  1
  O  O41  1  0.32305117  0.48984839  0.72552505  1
  O  O42  1  0.32962113  0.77120319  0.67838847  1
  O  O43  1  0.33860129  0.73221462  0.32081822  1
  O  O44  1  0.34323092  0.56734248  0.53009779  1
  O  O45  1  0.34333129  0.93497095  0.47082493  1
  O  O46  1  0.35246882  0.83738056  0.07939674  1
  O  O47  1  0.35273294  0.66276349  0.92071586  1
  O  O48  1  0.42497034  0.10045959  0.65535929  1
  O  O49  1  0.42781318  0.39597240  0.34329534  1
  O  O50  1  0.44377608  0.14284449  0.07077616  1
  O  O51  1  0.44345609  0.35703240  0.92849252  1
  O  O52  1  0.55616170  0.64237995  0.07154527  1
  O  O53  1  0.55647584  0.85720343  0.92954832  1
  O  O54  1  0.56760605  0.61093182  0.65680198  1
  O  O55  1  0.57229631  0.89553829  0.34539638  1
  O  O56  1  0.64780873  0.33711043  0.07881605  1
  O  O57  1  0.64751263  0.16281289  0.92009471  1
  O  O58  1  0.65678466  0.06302009  0.53127610  1
  O  O59  1  0.65713123  0.43588713  0.46692148  1
  O  O60  1  0.66160670  0.23181056  0.31931367  1
  O  O61  1  0.65893750  0.25978462  0.67992601  1
  O  O62  1  0.67513523  0.51250761  0.27193922  1
  O  O63  1  0.67250453  0.97770972  0.72583665  1
  O  O64  1  0.82583794  0.01336892  0.22592153  1
  O  O65  1  0.82724364  0.48720884  0.78031645  1
  O  O66  1  0.83733032  0.73283766  0.18053711  1
  O  O67  1  0.84007898  0.76837577  0.82256131  1
  O  O68  1  0.84638760  0.57052145  0.97359487  1
  O  O69  1  0.84266032  0.93495581  0.03101571  1
  O  O70  1  0.85730756  0.66743324  0.57864092  1
  O  O71  1  0.85518099  0.83914921  0.41874139  1
  O  O72  1  0.92718285  0.10466106  0.84363221  1
  O  O73  1  0.92755851  0.39537698  0.15649286  1
  O  O74  1  0.94450840  0.14116363  0.42713179  1
  O  O75  1  0.94196894  0.35310594  0.56901290  1
