# generated using pymatgen
data_Li11V6O5F19
_symmetry_space_group_name_H-M   'P 1'
_cell_length_a   5.14692472
_cell_length_b   5.45253064
_cell_length_c   16.30803978
_cell_angle_alpha   80.36317744
_cell_angle_beta   89.76712200
_cell_angle_gamma   88.42678301
_symmetry_Int_Tables_number   1
_chemical_formula_structural   Li11V6O5F19
_chemical_formula_sum   'Li11 V6 O5 F19'
_cell_volume   451.03657852
_cell_formula_units_Z   1
loop_
 _symmetry_equiv_pos_site_id
 _symmetry_equiv_pos_as_xyz
  1  'x, y, z'
loop_
 _atom_site_type_symbol
 _atom_site_label
 _atom_site_symmetry_multiplicity
 _atom_site_fract_x
 _atom_site_fract_y
 _atom_site_fract_z
 _atom_site_occupancy
  Li  Li0  1  0.47098036  0.26895206  0.20358632  1
  Li  Li1  1  0.48705932  0.23589550  0.43451962  1
  Li  Li2  1  0.99380925  0.04603411  0.77795342  1
  Li  Li3  1  0.99401236  0.40552988  0.09466999  1
  Li  Li4  1  0.49155386  0.14271291  0.88284365  1
  Li  Li5  1  0.00042083  0.26264097  0.55541292  1
  Li  Li6  1  0.02384859  0.76818909  0.20528705  1
  Li  Li7  1  0.00932205  0.73661999  0.43691317  1
  Li  Li8  1  0.48959852  0.85810920  0.10974899  1
  Li  Li9  1  -0.00004271  0.57254880  0.89687213  1
  Li  Li10  1  0.48231277  0.78169814  0.55452208  1
  V  V11  1  0.01815586  0.33245235  0.33771494  1
  V  V12  1  0.51425780  0.15841588  0.66473242  1
  V  V13  1  0.99945009  0.00533969  0.00199393  1
  V  V14  1  0.49832877  0.50503493  0.00194712  1
  V  V15  1  0.46916355  0.82760796  0.33905584  1
  V  V16  1  0.98593784  0.68005488  0.66686820  1
  O  O17  1  0.19903526  0.03109065  0.37563893  1
  O  O18  1  0.28740665  0.53151158  0.37290059  1
  O  O19  1  0.20052825  0.69709582  0.03513040  1
  O  O20  1  0.81273877  0.32437455  0.97825751  1
  O  O21  1  0.81304632  0.98979941  0.63198426  1
  F  F22  1  0.30651299  0.18103438  0.05242214  1
  F  F23  1  0.68264663  0.16400791  0.30127585  1
  F  F24  1  0.35836538  0.15160396  0.55148932  1
  F  F25  1  0.13797532  0.02189291  0.88527474  1
  F  F26  1  0.64380920  0.16530980  0.77759024  1
  F  F27  1  0.63741334  0.50766569  0.12030603  1
  F  F28  1  0.84278150  0.33619731  0.45075998  1
  F  F29  1  0.12836183  0.40586892  0.21199644  1
  F  F30  1  0.16920306  0.32677408  0.69698546  1
  F  F31  1  0.67419736  0.49686382  0.62565577  1
  F  F32  1  0.80370248  0.66569344  0.29886712  1
  F  F33  1  0.35542015  0.47485968  0.89309444  1
  F  F34  1  0.84638155  0.97872100  0.11877020  1
  F  F35  1  0.13264322  0.64575642  0.55578881  1
  F  F36  1  0.90535151  0.67741628  0.78312686  1
  F  F37  1  0.35580966  0.90555005  0.21512697  1
  F  F38  1  0.64712724  0.83248921  0.45137827  1
  F  F39  1  0.31534464  0.84496859  0.69735234  1
  F  F40  1  0.68276060  0.83998723  0.95742556  1
