# generated using pymatgen
data_Mn6O5F7
_symmetry_space_group_name_H-M   'P 1'
_cell_length_a   7.36258401
_cell_length_b   5.74061056
_cell_length_c   5.74061056
_cell_angle_alpha   73.43690362
_cell_angle_beta   72.75656274
_cell_angle_gamma   72.75656274
_symmetry_Int_Tables_number   1
_chemical_formula_structural   Mn6O5F7
_chemical_formula_sum   'Mn6 O5 F7'
_cell_volume   216.07656216
_cell_formula_units_Z   1
loop_
 _symmetry_equiv_pos_site_id
 _symmetry_equiv_pos_as_xyz
  1  'x, y, z'
loop_
 _atom_site_type_symbol
 _atom_site_label
 _atom_site_symmetry_multiplicity
 _atom_site_fract_x
 _atom_site_fract_y
 _atom_site_fract_z
 _atom_site_occupancy
  Mn  Mn0  1  0.83121173  0.69244964  0.69244964  1
  Mn  Mn1  1  0.66882098  0.33827546  0.33827546  1
  Mn  Mn2  1  0.31673109  0.65103853  0.65103853  1
  Mn  Mn3  1  0.16489398  0.33008095  0.33008095  1
  Mn  Mn4  1  0.51337503  0.98219204  0.98219204  1
  Mn  Mn5  1  0.99971937  0.00754668  0.00754668  1
  O  O6  1  0.67069489  0.02187519  0.64714920  1
  O  O7  1  0.96741777  0.23207031  0.23207031  1
  O  O8  1  0.03287957  0.77722710  0.77722710  1
  O  O9  1  0.36733643  0.42686734  0.42686734  1
  O  O10  1  0.67069489  0.64714920  0.02187519  1
  F  F11  1  0.34842505  0.33394342  0.96254426  1
  F  F12  1  0.29410484  0.88569897  0.88569897  1
  F  F13  1  0.62461367  0.57953082  0.57953082  1
  F  F14  1  0.70586763  0.10115428  0.10115428  1
  F  F15  1  0.34842505  0.96254426  0.33394342  1
  F  F16  1  0.98739452  0.33013535  0.70021945  1
  F  F17  1  0.98739452  0.70021945  0.33013535  1
