# generated using pymatgen
data_Li4V3Co2Sn3O16
_symmetry_space_group_name_H-M   'P 1'
_cell_length_a   6.09065146
_cell_length_b   6.13486761
_cell_length_c   9.83687987
_cell_angle_alpha   89.94706003
_cell_angle_beta   89.75019692
_cell_angle_gamma   119.48818956
_symmetry_Int_Tables_number   1
_chemical_formula_structural   Li4V3Co2Sn3O16
_chemical_formula_sum   'Li4 V3 Co2 Sn3 O16'
_cell_volume   319.93878746
_cell_formula_units_Z   1
loop_
 _symmetry_equiv_pos_site_id
 _symmetry_equiv_pos_as_xyz
  1  'x, y, z'
loop_
 _atom_site_type_symbol
 _atom_site_label
 _atom_site_symmetry_multiplicity
 _atom_site_fract_x
 _atom_site_fract_y
 _atom_site_fract_z
 _atom_site_occupancy
  Li  Li0  1  0.36679802  0.68036029  0.89223215  1
  Li  Li1  1  0.96170783  0.98330107  0.99258431  1
  Li  Li2  1  0.99235383  0.00187149  0.50059720  1
  Li  Li3  1  0.67392158  0.34240950  0.39632229  1
  V  V4  1  0.65730836  0.83343538  0.21789960  1
  V  V5  1  0.87288972  0.22479437  0.73449789  1
  V  V6  1  0.81063925  0.67717605  0.69946567  1
  Co  Co7  1  0.32008435  0.64923469  0.49514008  1
  Co  Co8  1  0.65779935  0.33006504  0.99604637  1
  Sn  Sn9  1  0.16312588  0.82977075  0.21267927  1
  Sn  Sn10  1  0.16593783  0.33677751  0.21317487  1
  Sn  Sn11  1  0.34563539  0.15715806  0.71493441  1
  O  O12  1  0.14598591  0.82720496  0.60163867  1
  O  O13  1  0.03122735  0.52171275  0.33836414  1
  O  O14  1  0.34156648  0.67074397  0.09879683  1
  O  O15  1  0.98725217  0.99574469  0.31801015  1
  O  O16  1  0.98799119  0.99489766  0.80910869  1
  O  O17  1  0.15173924  0.30988900  0.60384171  1
  O  O18  1  0.49979321  0.96665870  0.32915036  1
  O  O19  1  0.48526865  0.52076042  0.33392892  1
  O  O20  1  0.30063617  0.14655801  0.09172410  1
  O  O21  1  0.67049735  0.80827984  0.59808585  1
  O  O22  1  0.53825897  0.48657566  0.83309324  1
  O  O23  1  0.54627184  0.03694503  0.83254881  1
  O  O24  1  0.69305578  0.34121853  0.60806998  1
  O  O25  1  0.81423729  0.68231698  0.10753205  1
  O  O26  1  0.99193832  0.49215253  0.83410971  1
  O  O27  1  0.82607970  0.15228408  0.10426767  1
