# generated using pymatgen
data_LiMn2(BO3)2
_symmetry_space_group_name_H-M   'P 1'
_cell_length_a   5.34945342
_cell_length_b   13.93197641
_cell_length_c   10.27205277
_cell_angle_alpha   89.42953399
_cell_angle_beta   91.95809781
_cell_angle_gamma   79.13409250
_symmetry_Int_Tables_number   1
_chemical_formula_structural   LiMn2(BO3)2
_chemical_formula_sum   'Li6 Mn12 B12 O36'
_cell_volume   751.29069645
_cell_formula_units_Z   6
loop_
 _symmetry_equiv_pos_site_id
 _symmetry_equiv_pos_as_xyz
  1  'x, y, z'
loop_
 _atom_site_type_symbol
 _atom_site_label
 _atom_site_symmetry_multiplicity
 _atom_site_fract_x
 _atom_site_fract_y
 _atom_site_fract_z
 _atom_site_occupancy
  Li  Li0  1  0.14811725  0.99799715  0.08031917  1
  Li  Li1  1  0.44678421  0.33001458  0.66965532  1
  Li  Li2  1  0.47972928  0.34123098  0.18466396  1
  Li  Li3  1  0.80391524  0.65855844  0.67854449  1
  Li  Li4  1  0.79160120  0.67665438  0.15792587  1
  Li  Li5  1  0.86897266  0.99113679  0.41311545  1
  Mn  Mn6  1  0.05759993  0.23028725  0.13370488  1
  Mn  Mn7  1  0.29684323  0.12549043  0.87675366  1
  Mn  Mn8  1  0.05536740  0.56777799  0.38598632  1
  Mn  Mn9  1  0.25651985  0.78749322  0.63086545  1
  Mn  Mn10  1  0.62101349  0.09244388  0.63200514  1
  Mn  Mn11  1  0.36562155  0.54665448  0.13023181  1
  Mn  Mn12  1  0.62404562  0.43091576  0.88838939  1
  Mn  Mn13  1  0.39954240  0.88285049  0.36739733  1
  Mn  Mn14  1  0.75177521  0.21399005  0.38298775  1
  Mn  Mn15  1  0.90241373  0.45566156  0.63286979  1
  Mn  Mn16  1  0.71031755  0.90059751  0.11635878  1
  Mn  Mn17  1  0.95753396  0.78062261  0.87750859  1
  B  B18  1  0.05037841  0.22713051  0.62920497  1
  B  B19  1  0.06229105  0.54870783  0.87691462  1
  B  B20  1  0.28451378  0.10883937  0.37860829  1
  B  B21  1  0.37300907  0.55757037  0.63853914  1
  B  B22  1  0.27368211  0.77499030  0.11669082  1
  B  B23  1  0.62463855  0.12008454  0.13090131  1
  B  B24  1  0.39551783  0.89554486  0.87345719  1
  B  B25  1  0.73269751  0.20492713  0.87040704  1
  B  B26  1  0.60866984  0.44871205  0.37889021  1
  B  B27  1  0.74047716  0.87378088  0.62204728  1
  B  B28  1  0.94047063  0.45073318  0.13469333  1
  B  B29  1  0.93380865  0.78992556  0.36890070  1
  O  O30  1  0.12569162  0.19682910  0.34078542  1
  O  O31  1  0.19784906  0.02346946  0.37735010  1
  O  O32  1  0.22065647  0.14766812  0.68689695  1
  O  O33  1  0.10390439  0.31800852  0.62857355  1
  O  O34  1  0.99495189  0.54247811  0.16659753  1
  O  O35  1  0.12625866  0.37014152  0.13559125  1
  O  O36  1  0.11801589  0.55791753  0.59695776  1
  O  O37  1  0.01681574  0.78259135  0.06711266  1
  O  O38  1  0.37957576  0.12790297  0.07321936  1
  O  O39  1  0.29514585  0.52618767  0.94627832  1
  O  O40  1  0.15327590  0.79720515  0.44417624  1
  O  O41  1  0.53939259  0.11061193  0.41983880  1
  O  O42  1  0.30217142  0.81596913  0.81793461  1
  O  O43  1  0.65390310  0.11763844  0.83508865  1
  O  O44  1  0.24318355  0.98143498  0.89912935  1
  O  O45  1  0.57773317  0.29242763  0.84621668  1
  O  O46  1  0.43335220  0.52682438  0.31881357  1
  O  O47  1  0.57785667  0.35571543  0.36557268  1
  O  O48  1  0.52586086  0.46562621  0.67297214  1
  O  O49  1  0.46294554  0.64156011  0.64199471  1
  O  O50  1  0.34235758  0.86252349  0.15767628  1
  O  O51  1  0.67871297  0.20653288  0.19003642  1
  O  O52  1  0.43230721  0.68734592  0.12273440  1
  O  O53  1  0.80067680  0.03714122  0.13102678  1
  O  O54  1  0.81927363  0.20751730  0.57278697  1
  O  O55  1  0.50666017  0.86141280  0.57287815  1
  O  O56  1  0.68670090  0.44494383  0.09835091  1
  O  O57  1  0.97003440  0.19795348  0.93284234  1
  O  O58  1  0.65202431  0.87974363  0.91301015  1
  O  O59  1  0.81124810  0.47583749  0.44947118  1
  O  O60  1  0.96833910  0.46937908  0.82123044  1
  O  O61  1  0.92973741  0.64048940  0.86039878  1
  O  O62  1  0.78539292  0.87819539  0.32232599  1
  O  O63  1  0.87014232  0.70391260  0.33815876  1
  O  O64  1  0.89360286  0.78821241  0.68268877  1
  O  O65  1  0.83129464  0.95625221  0.60461429  1
