# generated using pymatgen
data_Li6Nb3P8O29
_symmetry_space_group_name_H-M   'P 1'
_cell_length_a   10.02260913
_cell_length_b   10.02568684
_cell_length_c   13.97031292
_cell_angle_alpha   89.58412824
_cell_angle_beta   89.90214634
_cell_angle_gamma   60.08483008
_symmetry_Int_Tables_number   1
_chemical_formula_structural   Li6Nb3P8O29
_chemical_formula_sum   'Li12 Nb6 P16 O58'
_cell_volume   1216.71762777
_cell_formula_units_Z   2
loop_
 _symmetry_equiv_pos_site_id
 _symmetry_equiv_pos_as_xyz
  1  'x, y, z'
loop_
 _atom_site_type_symbol
 _atom_site_label
 _atom_site_symmetry_multiplicity
 _atom_site_fract_x
 _atom_site_fract_y
 _atom_site_fract_z
 _atom_site_occupancy
  Li  Li0  1  0.00881072  0.01847379  0.50293316  1
  Li  Li1  1  0.00068258  0.00092277  0.00137018  1
  Li  Li2  1  0.09332033  0.67500997  0.05971113  1
  Li  Li3  1  0.33180476  0.32859689  0.88432075  1
  Li  Li4  1  0.23163336  0.67201001  0.56077988  1
  Li  Li5  1  0.66939525  0.09813112  0.56059702  1
  Li  Li6  1  0.32998590  0.77023992  0.94247960  1
  Li  Li7  1  0.67373704  0.22812301  0.06131919  1
  Li  Li8  1  0.32909453  0.90656773  0.44041827  1
  Li  Li9  1  0.76958312  0.33407562  0.44065790  1
  Li  Li10  1  0.90533278  0.32704599  0.94123342  1
  Li  Li11  1  0.89937211  0.76893744  0.44007845  1
  Nb  Nb12  1  0.00173245  0.43200189  0.74547377  1
  Nb  Nb13  1  0.99915404  0.56613826  0.25149520  1
  Nb  Nb14  1  0.43079897  0.00367103  0.24467620  1
  Nb  Nb15  1  0.56790446  0.99396780  0.75376746  1
  Nb  Nb16  1  0.43740002  0.56618910  0.74932928  1
  Nb  Nb17  1  0.56817134  0.43199966  0.25022007  1
  P  P18  1  0.08036117  0.22300381  0.34303622  1
  P  P19  1  0.22143907  0.08325132  0.84329899  1
  P  P20  1  0.08785864  0.68862546  0.84677826  1
  P  P21  1  0.33314258  0.33599311  0.12057991  1
  P  P22  1  0.33655621  0.33262751  0.62137746  1
  P  P23  1  0.22700357  0.68790789  0.34496553  1
  P  P24  1  0.30979774  0.77416079  0.15572150  1
  P  P25  1  0.68998602  0.08150363  0.34576591  1
  P  P26  1  0.30803300  0.91846777  0.65156309  1
  P  P27  1  0.68811822  0.22293734  0.84460336  1
  P  P28  1  0.77434873  0.30917340  0.65467731  1
  P  P29  1  0.66993662  0.66227444  0.87970668  1
  P  P30  1  0.66454556  0.66982632  0.37906344  1
  P  P31  1  0.91547843  0.31063596  0.15224911  1
  P  P32  1  0.77650663  0.91751981  0.15626623  1
  P  P33  1  0.91593156  0.77558607  0.65637441  1
  O  O34  1  0.00396920  0.20655605  0.24468838  1
  O  O35  1  0.99255989  0.22506612  0.06233774  1
  O  O36  1  0.07658925  0.24435638  0.84553024  1
  O  O37  1  0.20747286  0.00717143  0.74459610  1
  O  O38  1  0.22098153  0.99763051  0.56164238  1
  O  O39  1  0.24328107  0.08251096  0.34426704  1
  O  O40  1  0.08694649  0.37416789  0.33139574  1
  O  O41  1  0.19334414  0.33338597  0.67024521  1
  O  O42  1  0.10800324  0.52535986  0.83482335  1
  O  O43  1  0.00757940  0.77202143  0.56869730  1
  O  O44  1  0.00168035  0.78770375  0.75152683  1
  O  O45  1  0.08086175  0.67244398  0.34748834  1
  O  O46  1  0.32600108  0.19552983  0.16614283  1
  O  O47  1  0.36348338  0.10767289  0.83383727  1
  O  O48  1  0.19286978  0.48675932  0.15893412  1
  O  O49  1  0.33559755  0.33478273  0.01316837  1
  O  O50  1  0.33581973  0.33698662  0.51550439  1
  O  O51  1  0.33115209  0.48223320  0.66414596  1
  O  O52  1  0.53423567  0.09040405  0.33426756  1
  O  O53  1  0.48383312  0.18804582  0.66464461  1
  O  O54  1  0.25041168  0.67201370  0.84437407  1
  O  O55  1  0.20773823  0.78873571  0.24998667  1
  O  O56  1  0.22157358  0.77132664  0.06809525  1
  O  O57  1  0.22967571  0.77629652  0.43224461  1
  O  O58  1  0.37232792  0.53137299  0.33298790  1
  O  O59  1  0.48707349  0.32178485  0.15931833  1
  O  O60  1  0.32524060  0.75599023  0.65701213  1
  O  O61  1  0.52393653  0.36621170  0.83384504  1
  O  O62  1  0.67113314  0.08046612  0.84466971  1
  O  O63  1  0.22532185  0.98390708  0.92511614  1
  O  O64  1  0.78331142  0.01082585  0.07395313  1
  O  O65  1  0.79474849  0.99550528  0.25424900  1
  O  O66  1  0.32954783  0.91477768  0.15644896  1
  O  O67  1  0.46581382  0.62511918  0.16779449  1
  O  O68  1  0.66998032  0.24585655  0.34556168  1
  O  O69  1  0.51949437  0.66874502  0.83673010  1
  O  O70  1  0.62459895  0.46523201  0.66304980  1
  O  O71  1  0.77271354  0.21948891  0.56782557  1
  O  O72  1  0.77361159  0.23191690  0.93161666  1
  O  O73  1  0.78667552  0.21149611  0.75056617  1
  O  O74  1  0.75065390  0.33001356  0.15732304  1
  O  O75  1  0.51498877  0.81280228  0.33487292  1
  O  O76  1  0.46468005  0.90960092  0.66391727  1
  O  O77  1  0.67719551  0.51756357  0.33758427  1
  O  O78  1  0.66791344  0.65833131  0.98542833  1
  O  O79  1  0.66254114  0.67030182  0.48594318  1
  O  O80  1  0.81392902  0.51596976  0.83537829  1
  O  O81  1  0.63164095  0.90363039  0.16670931  1
  O  O82  1  0.67031007  0.80546305  0.83244751  1
  O  O83  1  0.91502795  0.32872638  0.65629503  1
  O  O84  1  0.98492706  0.22099434  0.42551568  1
  O  O85  1  0.90465025  0.46664093  0.16646941  1
  O  O86  1  0.80747810  0.68043396  0.33911410  1
  O  O87  1  0.90050164  0.63121344  0.66628569  1
  O  O88  1  0.75667942  0.92211411  0.65568212  1
  O  O89  1  0.77846291  0.99525756  0.43495826  1
  O  O90  1  0.92050073  0.75260034  0.15830583  1
  O  O91  1  0.00434244  0.77268586  0.93528819  1
