# generated using pymatgen
data_Li3Bi(BO3)2
_symmetry_space_group_name_H-M   'P 1'
_cell_length_a   7.39190513
_cell_length_b   5.23102866
_cell_length_c   8.61792164
_cell_angle_alpha   88.26003184
_cell_angle_beta   64.70553771
_cell_angle_gamma   90.95181898
_symmetry_Int_Tables_number   1
_chemical_formula_structural   Li3Bi(BO3)2
_chemical_formula_sum   'Li6 Bi2 B4 O12'
_cell_volume   300.98219907
_cell_formula_units_Z   2
loop_
 _symmetry_equiv_pos_site_id
 _symmetry_equiv_pos_as_xyz
  1  'x, y, z'
loop_
 _atom_site_type_symbol
 _atom_site_label
 _atom_site_symmetry_multiplicity
 _atom_site_fract_x
 _atom_site_fract_y
 _atom_site_fract_z
 _atom_site_occupancy
  Li  Li0  1  0.26851554  0.90634931  0.21034564  1
  Li  Li1  1  0.43738567  0.67299875  0.43008467  1
  Li  Li2  1  0.44268416  0.82838613  0.73371601  1
  Li  Li3  1  0.55731584  0.17161387  0.26628399  1
  Li  Li4  1  0.56261433  0.32700125  0.56991533  1
  Li  Li5  1  0.73148446  0.09365069  0.78965436  1
  Bi  Bi6  1  0.02404335  0.57969939  0.77910887  1
  Bi  Bi7  1  0.97595665  0.42030061  0.22089113  1
  B  B8  1  0.19685820  0.13730345  0.57413742  1
  B  B9  1  0.65605920  0.69306034  0.07332734  1
  B  B10  1  0.34394080  0.30693966  0.92667266  1
  B  B11  1  0.80314180  0.86269655  0.42586258  1
  O  O12  1  0.00202339  0.78340472  0.34873742  1
  O  O13  1  0.26734753  0.21077666  0.09612329  1
  O  O14  1  0.23656799  0.88160722  0.59972837  1
  O  O15  1  0.35111538  0.30823259  0.48429660  1
  O  O16  1  0.51689396  0.81922084  0.20535573  1
  O  O17  1  0.25996020  0.54009357  0.90169032  1
  O  O18  1  0.74003980  0.45990643  0.09830968  1
  O  O19  1  0.48310604  0.18077916  0.79464427  1
  O  O20  1  0.64888462  0.69176741  0.51570340  1
  O  O21  1  0.76343201  0.11839278  0.40027163  1
  O  O22  1  0.73265247  0.78922334  0.90387671  1
  O  O23  1  0.99797661  0.21659528  0.65126258  1
