# generated using pymatgen
data_LiMn2(BO3)2
_symmetry_space_group_name_H-M   'P 1'
_cell_length_a   5.38864110
_cell_length_b   9.02127912
_cell_length_c   10.24820573
_cell_angle_alpha   89.15554302
_cell_angle_beta   92.46575057
_cell_angle_gamma   90.15481530
_symmetry_Int_Tables_number   1
_chemical_formula_structural   LiMn2(BO3)2
_chemical_formula_sum   'Li4 Mn8 B8 O24'
_cell_volume   497.67384916
_cell_formula_units_Z   4
loop_
 _symmetry_equiv_pos_site_id
 _symmetry_equiv_pos_as_xyz
  1  'x, y, z'
loop_
 _atom_site_type_symbol
 _atom_site_label
 _atom_site_symmetry_multiplicity
 _atom_site_fract_x
 _atom_site_fract_y
 _atom_site_fract_z
 _atom_site_occupancy
  Li  Li0  1  0.13390161  0.00702624  0.07636371  1
  Li  Li1  1  0.60122595  0.48598607  0.67641680  1
  Li  Li2  1  0.65547587  0.50704848  0.17149964  1
  Li  Li3  1  0.85919057  0.98098157  0.40979584  1
  Mn  Mn4  1  0.13132755  0.69915634  0.63200832  1
  Mn  Mn5  1  0.17161407  0.35024337  0.13197625  1
  Mn  Mn6  1  0.36014802  0.19039210  0.87594220  1
  Mn  Mn7  1  0.33778503  0.84396474  0.37680079  1
  Mn  Mn8  1  0.66709090  0.13793871  0.63176821  1
  Mn  Mn9  1  0.64649982  0.82812855  0.12357511  1
  Mn  Mn10  1  0.84341654  0.65020279  0.88388479  1
  Mn  Mn11  1  0.86012173  0.31887948  0.38163629  1
  B  B12  1  0.16194318  0.34333957  0.63087038  1
  B  B13  1  0.17355469  0.68117889  0.12830604  1
  B  B14  1  0.33035722  0.84030705  0.88276282  1
  B  B15  1  0.33021903  0.17710261  0.38010327  1
  B  B16  1  0.66851484  0.81060276  0.62107944  1
  B  B17  1  0.67556955  0.17011550  0.13183828  1
  B  B18  1  0.83130090  0.30601218  0.87420047  1
  B  B19  1  0.83518205  0.67332373  0.37118124  1
  O  O20  1  0.06851124  0.29672001  0.93190503  1
  O  O21  1  0.05082807  0.71017805  0.44227600  1
  O  O22  1  0.19782521  0.72517210  0.81991170  1
  O  O23  1  0.23468248  0.97535837  0.89841912  1
  O  O24  1  0.18975651  0.05204521  0.38132230  1
  O  O25  1  0.22318308  0.31249070  0.34237103  1
  O  O26  1  0.25483539  0.48097430  0.63457650  1
  O  O27  1  0.29772326  0.22209090  0.68607478  1
  O  O28  1  0.27426917  0.82036807  0.16218496  1
  O  O29  1  0.31872216  0.55954757  0.12694721  1
  O  O30  1  0.41986063  0.81172673  0.58347748  1
  O  O31  1  0.43650917  0.19070238  0.07548080  1
  O  O32  1  0.56603703  0.80005392  0.93844691  1
  O  O33  1  0.58549868  0.17132102  0.41762840  1
  O  O34  1  0.71312639  0.43771853  0.85724697  1
  O  O35  1  0.71106748  0.17365548  0.83723217  1
  O  O36  1  0.70706884  0.80117502  0.31625398  1
  O  O37  1  0.77379255  0.67842888  0.67154154  1
  O  O38  1  0.75046905  0.53577783  0.35198855  1
  O  O39  1  0.81042688  0.93202437  0.59899602  1
  O  O40  1  0.78974415  0.29886358  0.18716799  1
  O  O41  1  0.79485400  0.03836510  0.13370180  1
  O  O42  1  0.92270367  0.31047894  0.57281926  1
  O  O43  1  0.91791781  0.67322020  0.09292860  1
