# generated using pymatgen
data_ErWO5
_symmetry_space_group_name_H-M   'P 1'
_cell_length_a   5.28371314
_cell_length_b   6.53194825
_cell_length_c   12.64312300
_cell_angle_alpha   90.00000000
_cell_angle_beta   90.00000000
_cell_angle_gamma   109.07134772
_symmetry_Int_Tables_number   1
_chemical_formula_structural   ErWO5
_chemical_formula_sum   'Er4 W4 O20'
_cell_volume   412.40108962
_cell_formula_units_Z   4
loop_
 _symmetry_equiv_pos_site_id
 _symmetry_equiv_pos_as_xyz
  1  'x, y, z'
loop_
 _atom_site_type_symbol
 _atom_site_label
 _atom_site_symmetry_multiplicity
 _atom_site_fract_x
 _atom_site_fract_y
 _atom_site_fract_z
 _atom_site_occupancy
  Er  Er0  1  0.14390153  0.78472317  0.44453061  1
  Er  Er1  1  0.85609847  0.21527683  0.55546939  1
  Er  Er2  1  0.35609847  0.71527683  0.94453061  1
  Er  Er3  1  0.64390153  0.28472317  0.05546939  1
  W  W4  1  0.95349477  0.84593125  0.13803915  1
  W  W5  1  0.04650523  0.15406875  0.86196085  1
  W  W6  1  0.54650523  0.65406875  0.63803915  1
  W  W7  1  0.45349477  0.34593125  0.36196085  1
  O  O8  1  0.04635138  0.55828489  0.08484025  1
  O  O9  1  0.95364862  0.44171511  0.91515975  1
  O  O10  1  0.45364862  0.94171511  0.58484025  1
  O  O11  1  0.54635138  0.05828489  0.41515975  1
  O  O12  1  0.85958605  0.84498481  0.57216926  1
  O  O13  1  0.14041395  0.15501519  0.42783074  1
  O  O14  1  0.64041395  0.65501519  0.07216926  1
  O  O15  1  0.35958605  0.34498481  0.92783074  1
  O  O16  1  0.27494245  0.97066933  0.06471126  1
  O  O17  1  0.72505755  0.02933067  0.93528874  1
  O  O18  1  0.22505755  0.52933067  0.56471126  1
  O  O19  1  0.77494245  0.47066933  0.43528874  1
  O  O20  1  0.99844639  0.79043168  0.27470174  1
  O  O21  1  0.00155361  0.20956832  0.72529826  1
  O  O22  1  0.50155361  0.70956832  0.77470174  1
  O  O23  1  0.49844639  0.29043168  0.22529826  1
  O  O24  1  0.15240817  0.91833130  0.85285185  1
  O  O25  1  0.84759183  0.08166870  0.14714815  1
  O  O26  1  0.34759183  0.58166870  0.35285185  1
  O  O27  1  0.65240817  0.41833130  0.64714815  1
