# generated using pymatgen
data_Fe7(OF7)2
_symmetry_space_group_name_H-M   'P 1'
_cell_length_a   10.39415989
_cell_length_b   6.07205587
_cell_length_c   4.84732129
_cell_angle_alpha   87.88877204
_cell_angle_beta   89.92846242
_cell_angle_gamma   93.31504928
_symmetry_Int_Tables_number   1
_chemical_formula_structural   Fe7(OF7)2
_chemical_formula_sum   'Fe7 O2 F14'
_cell_volume   305.21244340
_cell_formula_units_Z   1
loop_
 _symmetry_equiv_pos_site_id
 _symmetry_equiv_pos_as_xyz
  1  'x, y, z'
loop_
 _atom_site_type_symbol
 _atom_site_label
 _atom_site_symmetry_multiplicity
 _atom_site_fract_x
 _atom_site_fract_y
 _atom_site_fract_z
 _atom_site_occupancy
  Fe  Fe0  1  0.00000000  0.50000000  0.00000000  1
  Fe  Fe1  1  0.24176208  0.74430853  0.49079783  1
  Fe  Fe2  1  0.25647014  0.22709470  0.00708148  1
  Fe  Fe3  1  0.50000000  0.50000000  0.50000000  1
  Fe  Fe4  1  0.50000000  0.00000000  0.50000000  1
  Fe  Fe5  1  0.74352986  0.77290530  0.99291852  1
  Fe  Fe6  1  0.75823792  0.25569147  0.50920217  1
  O  O7  1  0.41007240  0.76130740  0.32884604  1
  O  O8  1  0.58992760  0.23869260  0.67115396  1
  F  F9  1  0.09186903  0.70953000  0.73995293  1
  F  F10  1  0.08278231  0.26520073  0.83187001  1
  F  F11  1  0.16035468  0.51345936  0.24027322  1
  F  F12  1  0.17800476  0.98393389  0.27685207  1
  F  F13  1  0.33156078  0.98947001  0.73819866  1
  F  F14  1  0.32139878  0.49179496  0.72936149  1
  F  F15  1  0.41892766  0.24066926  0.24577606  1
  F  F16  1  0.58107234  0.75933074  0.75422394  1
  F  F17  1  0.67860122  0.50820504  0.27063851  1
  F  F18  1  0.66843922  0.01052999  0.26180134  1
  F  F19  1  0.82199524  0.01606611  0.72314793  1
  F  F20  1  0.83964532  0.48654064  0.75972678  1
  F  F21  1  0.91721769  0.73479927  0.16812999  1
  F  F22  1  0.90813097  0.29047000  0.26004707  1
