# generated using pymatgen
data_Na14Cu2O9
_symmetry_space_group_name_H-M   'P 1'
_cell_length_a   6.65921416
_cell_length_b   6.65637698
_cell_length_c   9.28971647
_cell_angle_alpha   90.01516154
_cell_angle_beta   90.00920462
_cell_angle_gamma   119.98688163
_symmetry_Int_Tables_number   1
_chemical_formula_structural   Na14Cu2O9
_chemical_formula_sum   'Na14 Cu2 O9'
_cell_volume   356.65748005
_cell_formula_units_Z   1
loop_
 _symmetry_equiv_pos_site_id
 _symmetry_equiv_pos_as_xyz
  1  'x, y, z'
loop_
 _atom_site_type_symbol
 _atom_site_label
 _atom_site_symmetry_multiplicity
 _atom_site_fract_x
 _atom_site_fract_y
 _atom_site_fract_z
 _atom_site_occupancy
  Na  Na0  1  0.03444791  0.67585271  0.90689509  1
  Na  Na1  1  0.31749239  0.94101066  0.59463855  1
  Na  Na2  1  0.05899375  0.37639691  0.59467901  1
  Na  Na3  1  0.00001175  0.00000826  0.25376609  1
  Na  Na4  1  0.00007795  0.00003052  0.74631037  1
  Na  Na5  1  0.32400956  0.35865074  0.90694572  1
  Na  Na6  1  0.64124952  0.96540459  0.90686222  1
  Na  Na7  1  0.37633597  0.31754701  0.40515895  1
  Na  Na8  1  0.62361780  0.68255287  0.59467532  1
  Na  Na9  1  0.35855722  0.03435014  0.09326644  1
  Na  Na10  1  0.67567673  0.64138186  0.09322476  1
  Na  Na11  1  0.94125107  0.62355747  0.40514186  1
  Na  Na12  1  0.68250473  0.05883598  0.40515558  1
  Na  Na13  1  0.96561471  0.32427980  0.09327784  1
  Cu  Cu14  1  0.33356382  0.66685425  0.25929376  1
  Cu  Cu15  1  0.66661403  0.33329741  0.74058036  1
  O  O16  1  0.30502948  0.94774719  0.33586390  1
  O  O17  1  0.05217045  0.35724389  0.33605322  1
  O  O18  1  0.33343630  0.66683956  0.04418641  1
  O  O19  1  0.99987637  0.99998332  0.00001270  1
  O  O20  1  0.35771385  0.30515371  0.66419373  1
  O  O21  1  0.64244941  0.69465449  0.33579352  1
  O  O22  1  0.66657918  0.33338400  0.95565439  1
  O  O23  1  0.94760341  0.64228213  0.66423782  1
  O  O24  1  0.69492263  0.05269854  0.66413140  1
