# generated using pymatgen
data_LiCr2(PO4)3
_symmetry_space_group_name_H-M   'P 1'
_cell_length_a   8.69622552
_cell_length_b   8.88429655
_cell_length_c   11.96309183
_cell_angle_alpha   90.00000000
_cell_angle_beta   90.00000000
_cell_angle_gamma   90.00000000
_symmetry_Int_Tables_number   1
_chemical_formula_structural   LiCr2(PO4)3
_chemical_formula_sum   'Li4 Cr8 P12 O48'
_cell_volume   924.26663708
_cell_formula_units_Z   4
loop_
 _symmetry_equiv_pos_site_id
 _symmetry_equiv_pos_as_xyz
  1  'x, y, z'
loop_
 _atom_site_type_symbol
 _atom_site_label
 _atom_site_symmetry_multiplicity
 _atom_site_fract_x
 _atom_site_fract_y
 _atom_site_fract_z
 _atom_site_occupancy
  Li  Li0  1  0.16104054  0.71714922  0.25000000  1
  Li  Li1  1  0.16104054  0.78285078  0.75000000  1
  Li  Li2  1  0.83895946  0.21714922  0.25000000  1
  Li  Li3  1  0.83895946  0.28285078  0.75000000  1
  Cr  Cr4  1  0.24616948  0.02596954  0.10112637  1
  Cr  Cr5  1  0.24616948  0.02596954  0.39887363  1
  Cr  Cr6  1  0.24616948  0.47403046  0.60112637  1
  Cr  Cr7  1  0.24616948  0.47403046  0.89887363  1
  Cr  Cr8  1  0.75383052  0.52596954  0.10112637  1
  Cr  Cr9  1  0.75383052  0.52596954  0.39887363  1
  Cr  Cr10  1  0.75383052  0.97403046  0.89887363  1
  Cr  Cr11  1  0.75383052  0.97403046  0.60112637  1
  P  P12  1  0.03310054  0.75000000  0.00000000  1
  P  P13  1  0.03310054  0.75000000  0.50000000  1
  P  P14  1  0.39976773  0.37162781  0.12830219  1
  P  P15  1  0.39976773  0.12837219  0.62830219  1
  P  P16  1  0.39976773  0.12837219  0.87169781  1
  P  P17  1  0.39976773  0.37162781  0.37169781  1
  P  P18  1  0.60023227  0.62837219  0.87169781  1
  P  P19  1  0.60023227  0.62837219  0.62830219  1
  P  P20  1  0.60023227  0.87162781  0.12830219  1
  P  P21  1  0.60023227  0.87162781  0.37169781  1
  P  P22  1  0.96689946  0.25000000  0.00000000  1
  P  P23  1  0.96689946  0.25000000  0.50000000  1
  O  O24  1  0.05920082  0.13969851  0.42671167  1
  O  O25  1  0.05920082  0.36030149  0.57328833  1
  O  O26  1  0.05920082  0.36030149  0.92671167  1
  O  O27  1  0.05920082  0.13969851  0.07328833  1
  O  O28  1  0.13439198  0.83040978  0.41019214  1
  O  O29  1  0.13439198  0.83040978  0.08980786  1
  O  O30  1  0.13439198  0.66959022  0.58980786  1
  O  O31  1  0.13439198  0.66959022  0.91019214  1
  O  O32  1  0.21151961  0.01839768  0.25000000  1
  O  O33  1  0.21151961  0.48160232  0.75000000  1
  O  O34  1  0.29134136  0.03189773  0.55628368  1
  O  O35  1  0.29134136  0.46810227  0.05628368  1
  O  O36  1  0.29134136  0.46810227  0.44371632  1
  O  O37  1  0.29134136  0.03189773  0.94371632  1
  O  O38  1  0.34246157  0.06988351  0.75000000  1
  O  O39  1  0.34246157  0.43011649  0.25000000  1
  O  O40  1  0.37438475  0.20342213  0.37937686  1
  O  O41  1  0.37438475  0.29657787  0.62062314  1
  O  O42  1  0.37438475  0.29657787  0.87937686  1
  O  O43  1  0.37438475  0.20342213  0.12062314  1
  O  O44  1  0.43000494  0.89935836  0.11780787  1
  O  O45  1  0.43000494  0.60064164  0.61780787  1
  O  O46  1  0.43000494  0.89935836  0.38219213  1
  O  O47  1  0.43000494  0.60064164  0.88219213  1
  O  O48  1  0.56999506  0.10064164  0.88219213  1
  O  O49  1  0.56999506  0.39935836  0.11780787  1
  O  O50  1  0.56999506  0.39935836  0.38219213  1
  O  O51  1  0.56999506  0.10064164  0.61780787  1
  O  O52  1  0.62561525  0.70342213  0.12062314  1
  O  O53  1  0.62561525  0.70342213  0.37937686  1
  O  O54  1  0.62561525  0.79657787  0.87937686  1
  O  O55  1  0.62561525  0.79657787  0.62062314  1
  O  O56  1  0.65753843  0.56988351  0.75000000  1
  O  O57  1  0.65753843  0.93011649  0.25000000  1
  O  O58  1  0.70865864  0.53189773  0.55628368  1
  O  O59  1  0.70865864  0.53189773  0.94371632  1
  O  O60  1  0.70865864  0.96810227  0.05628368  1
  O  O61  1  0.70865864  0.96810227  0.44371632  1
  O  O62  1  0.78848039  0.51839768  0.25000000  1
  O  O63  1  0.78848039  0.98160232  0.75000000  1
  O  O64  1  0.86560802  0.16959022  0.58980786  1
  O  O65  1  0.86560802  0.33040978  0.08980786  1
  O  O66  1  0.86560802  0.33040978  0.41019214  1
  O  O67  1  0.86560802  0.16959022  0.91019214  1
  O  O68  1  0.94079918  0.86030149  0.92671167  1
  O  O69  1  0.94079918  0.63969851  0.07328833  1
  O  O70  1  0.94079918  0.63969851  0.42671167  1
  O  O71  1  0.94079918  0.86030149  0.57328833  1
