# generated using pymatgen
data_LiCr4(PO4)3
_symmetry_space_group_name_H-M   'P 1'
_cell_length_a   6.46077694
_cell_length_b   16.34409158
_cell_length_c   9.97460305
_cell_angle_alpha   90.00000000
_cell_angle_beta   90.00000000
_cell_angle_gamma   90.00000000
_symmetry_Int_Tables_number   1
_chemical_formula_structural   LiCr4(PO4)3
_chemical_formula_sum   'Li4 Cr16 P12 O48'
_cell_volume   1053.27349546
_cell_formula_units_Z   4
loop_
 _symmetry_equiv_pos_site_id
 _symmetry_equiv_pos_as_xyz
  1  'x, y, z'
loop_
 _atom_site_type_symbol
 _atom_site_label
 _atom_site_symmetry_multiplicity
 _atom_site_fract_x
 _atom_site_fract_y
 _atom_site_fract_z
 _atom_site_occupancy
  Li  Li0  1  0.00000000  0.47156918  0.28290946  1
  Li  Li1  1  0.00000000  0.52843082  0.71709054  1
  Li  Li2  1  0.50000000  0.02843082  0.78290946  1
  Li  Li3  1  0.50000000  0.97156918  0.21709054  1
  Cr  Cr4  1  0.00000000  0.09830297  0.54211984  1
  Cr  Cr5  1  0.00000000  0.14405750  0.98118298  1
  Cr  Cr6  1  0.00000000  0.85594250  0.01881702  1
  Cr  Cr7  1  0.00000000  0.90169703  0.45788016  1
  Cr  Cr8  1  0.24894075  0.29538838  0.75398278  1
  Cr  Cr9  1  0.24894075  0.70461162  0.24601722  1
  Cr  Cr10  1  0.25105925  0.20461162  0.25398278  1
  Cr  Cr11  1  0.25105925  0.79538838  0.74601722  1
  Cr  Cr12  1  0.50000000  0.59830297  0.95788016  1
  Cr  Cr13  1  0.50000000  0.35594250  0.48118298  1
  Cr  Cr14  1  0.50000000  0.40169703  0.04211984  1
  Cr  Cr15  1  0.50000000  0.64405750  0.51881702  1
  Cr  Cr16  1  0.74894075  0.20461162  0.25398278  1
  Cr  Cr17  1  0.74894075  0.79538838  0.74601722  1
  Cr  Cr18  1  0.75105925  0.29538838  0.75398278  1
  Cr  Cr19  1  0.75105925  0.70461162  0.24601722  1
  P  P20  1  0.00000000  0.02743479  0.21492226  1
  P  P21  1  0.00000000  0.33546721  0.04574606  1
  P  P22  1  0.00000000  0.28987551  0.46562114  1
  P  P23  1  0.00000000  0.71012449  0.53437886  1
  P  P24  1  0.00000000  0.66453279  0.95425394  1
  P  P25  1  0.00000000  0.97256521  0.78507774  1
  P  P26  1  0.50000000  0.21012449  0.96562114  1
  P  P27  1  0.50000000  0.47256521  0.71492226  1
  P  P28  1  0.50000000  0.52743479  0.28507774  1
  P  P29  1  0.50000000  0.78987551  0.03437886  1
  P  P30  1  0.50000000  0.16453279  0.54574606  1
  P  P31  1  0.50000000  0.83546721  0.45425394  1
  O  O32  1  0.00000000  0.01367937  0.36922197  1
  O  O33  1  0.00000000  0.24539765  0.11674198  1
  O  O34  1  0.00000000  0.19925183  0.39859108  1
  O  O35  1  0.00000000  0.05687858  0.84866279  1
  O  O36  1  0.00000000  0.27631385  0.62129119  1
  O  O37  1  0.00000000  0.68213436  0.10962558  1
  O  O38  1  0.00000000  0.31786564  0.89037442  1
  O  O39  1  0.00000000  0.72368615  0.37870881  1
  O  O40  1  0.00000000  0.94312142  0.15133721  1
  O  O41  1  0.00000000  0.80074817  0.60140892  1
  O  O42  1  0.00000000  0.75460235  0.88325802  1
  O  O43  1  0.00000000  0.98632063  0.63077803  1
  O  O44  1  0.19256521  0.38090489  0.09104865  1
  O  O45  1  0.19256521  0.61909511  0.90895135  1
  O  O46  1  0.19537251  0.33117638  0.41474810  1
  O  O47  1  0.19537251  0.66882362  0.58525190  1
  O  O48  1  0.19828501  0.07642776  0.17496093  1
  O  O49  1  0.19828501  0.92357224  0.82503907  1
  O  O50  1  0.30171499  0.57642776  0.32503907  1
  O  O51  1  0.30171499  0.42357224  0.67496093  1
  O  O52  1  0.30462749  0.16882362  0.91474810  1
  O  O53  1  0.30462749  0.83117638  0.08525190  1
  O  O54  1  0.30743479  0.88090489  0.40895135  1
  O  O55  1  0.30743479  0.11909511  0.59104865  1
  O  O56  1  0.50000000  0.44312142  0.34866279  1
  O  O57  1  0.50000000  0.48632063  0.86922197  1
  O  O58  1  0.50000000  0.51367937  0.13077803  1
  O  O59  1  0.50000000  0.55687858  0.65133721  1
  O  O60  1  0.50000000  0.77631385  0.87870881  1
  O  O61  1  0.50000000  0.81786564  0.60962558  1
  O  O62  1  0.50000000  0.25460235  0.61674198  1
  O  O63  1  0.50000000  0.30074817  0.89859108  1
  O  O64  1  0.50000000  0.69925183  0.10140892  1
  O  O65  1  0.50000000  0.18213436  0.39037442  1
  O  O66  1  0.50000000  0.22368615  0.12129119  1
  O  O67  1  0.50000000  0.74539765  0.38325802  1
  O  O68  1  0.69256521  0.11909511  0.59104865  1
  O  O69  1  0.69256521  0.88090489  0.40895135  1
  O  O70  1  0.69537251  0.16882362  0.91474810  1
  O  O71  1  0.69537251  0.83117638  0.08525190  1
  O  O72  1  0.69828501  0.42357224  0.67496093  1
  O  O73  1  0.69828501  0.57642776  0.32503907  1
  O  O74  1  0.80171499  0.07642776  0.17496093  1
  O  O75  1  0.80171499  0.92357224  0.82503907  1
  O  O76  1  0.80462749  0.33117638  0.41474810  1
  O  O77  1  0.80462749  0.66882362  0.58525190  1
  O  O78  1  0.80743479  0.38090489  0.09104865  1
  O  O79  1  0.80743479  0.61909511  0.90895135  1
