# generated using pymatgen
data_Li6La3Nb2O12
_symmetry_space_group_name_H-M   'P 1'
_cell_length_a   11.16760119
_cell_length_b   11.16760076
_cell_length_c   11.16760118
_cell_angle_alpha   109.47121909
_cell_angle_beta   109.47122065
_cell_angle_gamma   109.47122141
_symmetry_Int_Tables_number   1
_chemical_formula_structural   Li6La3Nb2O12
_chemical_formula_sum   'Li24 La12 Nb8 O48'
_cell_volume   1072.15551833
_cell_formula_units_Z   4
loop_
 _symmetry_equiv_pos_site_id
 _symmetry_equiv_pos_as_xyz
  1  'x, y, z'
loop_
 _atom_site_type_symbol
 _atom_site_label
 _atom_site_symmetry_multiplicity
 _atom_site_fract_x
 _atom_site_fract_y
 _atom_site_fract_z
 _atom_site_occupancy
  Li  Li0  1  0.17929051  0.92634565  0.88888856  1
  Li  Li1  1  0.25169262  0.68737054  0.79779405  1
  Li  Li2  1  0.06432208  0.11042451  0.81262946  1
  Li  Li3  1  0.20959805  0.74705514  0.32070949  1
  Li  Li4  1  0.11042451  0.81262946  0.06432208  1
  Li  Li5  1  0.04610243  0.43567792  0.24830738  1
  Li  Li6  1  0.29040195  0.61111144  0.53745709  1
  Li  Li7  1  0.38957549  0.45389757  0.70220595  1
  Li  Li8  1  0.57365435  0.75294486  0.96254291  1
  Li  Li9  1  0.32070949  0.20959805  0.74705514  1
  Li  Li10  1  0.45389757  0.70220595  0.38957549  1
  Li  Li11  1  0.24830738  0.04610243  0.43567792  1
  Li  Li12  1  0.75294486  0.96254291  0.57365435  1
  Li  Li13  1  0.53745709  0.29040195  0.61111144  1
  Li  Li14  1  0.68737054  0.79779405  0.25169262  1
  Li  Li15  1  0.43567792  0.24830738  0.04610243  1
  Li  Li16  1  0.61111144  0.53745709  0.29040195  1
  Li  Li17  1  0.70220595  0.38957549  0.45389757  1
  Li  Li18  1  0.96254291  0.57365435  0.75294486  1
  Li  Li19  1  0.88888856  0.17929051  0.92634565  1
  Li  Li20  1  0.79779405  0.25169262  0.68737054  1
  Li  Li21  1  0.92634565  0.88888856  0.17929051  1
  Li  Li22  1  0.74705514  0.32070949  0.20959805  1
  Li  Li23  1  0.81262946  0.06432208  0.11042451  1
  La  La24  1  0.12199417  0.37199417  0.75000000  1
  La  La25  1  0.25000000  0.88187709  0.63187709  1
  La  La26  1  0.12800583  0.25000000  0.37800583  1
  La  La27  1  0.37199417  0.75000000  0.12199417  1
  La  La28  1  0.25000000  0.37800583  0.12800583  1
  La  La29  1  0.61812291  0.86812291  0.75000000  1
  La  La30  1  0.75000000  0.61812291  0.86812291  1
  La  La31  1  0.63187709  0.25000000  0.88187709  1
  La  La32  1  0.37800583  0.12800583  0.25000000  1
  La  La33  1  0.86812291  0.75000000  0.61812291  1
  La  La34  1  0.88187709  0.63187709  0.25000000  1
  La  La35  1  0.75000000  0.12199417  0.37199417  1
  Nb  Nb36  1  1.00000000  0.50000222  0.50000000  1
  Nb  Nb37  1  1.00000000  0.00013791  0.50000000  1
  Nb  Nb38  1  0.00013791  0.50000000  0.00000000  1
  Nb  Nb39  1  -0.00000222  -0.00000222  -0.00000222  1
  Nb  Nb40  1  0.49986209  0.49986209  0.49986209  1
  Nb  Nb41  1  0.50000000  0.00000000  0.50000222  1
  Nb  Nb42  1  0.50000222  0.50000000  0.00000000  1
  Nb  Nb43  1  0.50000000  0.00000000  0.00013791  1
  O  O44  1  0.08759897  0.97235531  0.67733839  1
  O  O45  1  0.11837771  0.59142023  0.91303664  1
  O  O46  1  0.02695748  0.32161641  0.90857977  1
  O  O47  1  0.08055441  0.69857271  0.67949448  1
  O  O48  1  0.08973942  0.88475634  0.41240103  1
  O  O49  1  0.09894007  0.61801730  0.41944559  1
  O  O50  1  0.17900300  0.48135141  0.59628703  1
  O  O51  1  0.41026058  0.82266161  0.79501693  1
  O  O52  1  0.38506339  0.58271598  0.90371297  1
  O  O53  1  0.30234841  0.32099700  0.91728402  1
  O  O54  1  0.32099700  0.91728402  0.30234841  1
  O  O55  1  0.01864859  0.19765159  0.11493661  1
  O  O56  1  0.17838359  0.20534106  0.58696336  1
  O  O57  1  0.20534106  0.58696336  0.17838359  1
  O  O58  1  0.40105993  0.82050552  0.51907723  1
  O  O59  1  0.32161641  0.90857977  0.02695748  1
  O  O60  1  0.29465894  0.47304252  0.38162229  1
  O  O61  1  0.11493661  0.01864859  0.19765159  1
  O  O62  1  0.52764469  0.61524366  0.70498307  1
  O  O63  1  0.41240103  0.08973942  0.88475634  1
  O  O64  1  0.51907723  0.40105993  0.82050552  1
  O  O65  1  0.38162229  0.29465894  0.47304252  1
  O  O66  1  0.58271598  0.90371297  0.38506339  1
  O  O67  1  0.19765159  0.11493661  0.01864859  1
  O  O68  1  0.80142729  0.88198270  0.98092277  1
  O  O69  1  0.41944559  0.09894007  0.61801730  1
  O  O70  1  0.61524366  0.70498307  0.52764469  1
  O  O71  1  0.48135141  0.59628703  0.17900300  1
  O  O72  1  0.59142023  0.91303664  0.11837771  1
  O  O73  1  0.47304252  0.38162229  0.29465894  1
  O  O74  1  0.88198270  0.98092277  0.80142729  1
  O  O75  1  0.70498307  0.52764469  0.61524366  1
  O  O76  1  0.67733839  0.08759897  0.97235531  1
  O  O77  1  0.59628703  0.17900300  0.48135141  1
  O  O78  1  0.79501693  0.41026058  0.82266161  1
  O  O79  1  0.98092277  0.80142729  0.88198270  1
  O  O80  1  0.67949448  0.08055441  0.69857271  1
  O  O81  1  0.82266161  0.79501693  0.41026058  1
  O  O82  1  0.69857271  0.67949448  0.08055441  1
  O  O83  1  0.61801730  0.41944559  0.09894007  1
  O  O84  1  0.58696336  0.17838359  0.20534106  1
  O  O85  1  0.82050552  0.51907723  0.40105993  1
  O  O86  1  0.90371297  0.38506339  0.58271598  1
  O  O87  1  0.91303664  0.11837771  0.59142023  1
  O  O88  1  0.91728402  0.30234841  0.32099700  1
  O  O89  1  0.97235531  0.67733839  0.08759897  1
  O  O90  1  0.88475634  0.41240103  0.08973942  1
  O  O91  1  0.90857977  0.02695748  0.32161641  1
