# generated using pymatgen
data_LiCr2P5O16
_symmetry_space_group_name_H-M   'P 1'
_cell_length_a   7.50166847
_cell_length_b   9.38623974
_cell_length_c   10.23944096
_cell_angle_alpha   90.00000000
_cell_angle_beta   111.15360757
_cell_angle_gamma   90.00000000
_symmetry_Int_Tables_number   1
_chemical_formula_structural   LiCr2P5O16
_chemical_formula_sum   'Li2 Cr4 P10 O32'
_cell_volume   672.40163220
_cell_formula_units_Z   2
loop_
 _symmetry_equiv_pos_site_id
 _symmetry_equiv_pos_as_xyz
  1  'x, y, z'
loop_
 _atom_site_type_symbol
 _atom_site_label
 _atom_site_symmetry_multiplicity
 _atom_site_fract_x
 _atom_site_fract_y
 _atom_site_fract_z
 _atom_site_occupancy
  Li  Li0  1  0.25052454  0.79419054  0.22500961  1
  Li  Li1  1  0.75052454  0.20580946  0.72500961  1
  Cr  Cr2  1  0.16374824  0.14119860  0.52395330  1
  Cr  Cr3  1  0.21518407  0.36848595  0.12412246  1
  Cr  Cr4  1  0.71518407  0.63151405  0.62412246  1
  Cr  Cr5  1  0.66374824  0.85880140  0.02395330  1
  P  P6  1  0.01564475  0.86336226  0.61794041  1
  P  P7  1  0.00010460  0.45759225  0.49927400  1
  P  P8  1  0.30654559  0.29398883  0.86077103  1
  P  P9  1  0.42630763  0.87362123  0.68878397  1
  P  P10  1  0.35952794  0.41523445  0.46071584  1
  P  P11  1  0.85952794  0.58476555  0.96071584  1
  P  P12  1  0.51564475  0.13663774  0.11794041  1
  P  P13  1  0.50010460  0.54240775  0.99927400  1
  P  P14  1  0.80654559  0.70601117  0.36077103  1
  P  P15  1  0.92630763  0.12637877  0.18878397  1
  O  O16  1  0.14878131  0.29497453  0.92058161  1
  O  O17  1  0.22762703  0.82250293  0.71080405  1
  O  O18  1  0.05369255  0.06328672  0.32893439  1
  O  O19  1  0.26581964  0.22988166  0.72071309  1
  O  O20  1  0.21883982  0.49459409  0.53075774  1
  O  O21  1  0.38653171  0.45350780  0.85681870  1
  O  O22  1  0.46678320  0.69949176  0.96965276  1
  O  O23  1  0.49139541  0.21500444  0.97044673  1
  O  O24  1  0.05965338  0.53753708  0.04864435  1
  O  O25  1  0.36327955  0.98757728  0.57434672  1
  O  O26  1  0.35166732  0.25480854  0.47969897  1
  O  O27  1  0.28452961  0.46466478  0.30925590  1
  O  O28  1  0.55369255  0.93671328  0.82893439  1
  O  O29  1  0.49833221  0.74024547  0.64135176  1
  O  O30  1  0.38353088  0.19706084  0.18412154  1
  O  O31  1  0.55965338  0.46246292  0.54864435  1
  O  O32  1  0.85166732  0.74519146  0.97969897  1
  O  O33  1  0.44421290  0.47998731  0.11410611  1
  O  O34  1  0.78452961  0.53533522  0.80925590  1
  O  O35  1  0.64878131  0.70502547  0.42058161  1
  O  O36  1  0.48943112  0.97766658  0.09111898  1
  O  O37  1  0.88353088  0.80293916  0.68412154  1
  O  O38  1  0.72762703  0.17749707  0.21080405  1
  O  O39  1  0.94421290  0.52001269  0.61410611  1
  O  O40  1  0.76581964  0.77011834  0.22071309  1
  O  O41  1  0.71883982  0.50540591  0.03075774  1
  O  O42  1  0.98943112  0.02233342  0.59111898  1
  O  O43  1  0.88653171  0.54649220  0.35681870  1
  O  O44  1  0.96678320  0.30050824  0.46965276  1
  O  O45  1  0.99139541  0.78499556  0.47044673  1
  O  O46  1  0.86327955  0.01242272  0.07434672  1
  O  O47  1  0.99833221  0.25975453  0.14135176  1
