# generated using pymatgen
data_Fe6O7F5
_symmetry_space_group_name_H-M   'P 1'
_cell_length_a   7.59812335
_cell_length_b   5.65500866
_cell_length_c   5.65010260
_cell_angle_alpha   70.14977546
_cell_angle_beta   69.82269435
_cell_angle_gamma   69.71683605
_symmetry_Int_Tables_number   1
_chemical_formula_structural   Fe6O7F5
_chemical_formula_sum   'Fe6 O7 F5'
_cell_volume   206.96159487
_cell_formula_units_Z   1
loop_
 _symmetry_equiv_pos_site_id
 _symmetry_equiv_pos_as_xyz
  1  'x, y, z'
loop_
 _atom_site_type_symbol
 _atom_site_label
 _atom_site_symmetry_multiplicity
 _atom_site_fract_x
 _atom_site_fract_y
 _atom_site_fract_z
 _atom_site_occupancy
  Fe  Fe0  1  0.85016615  0.67293327  0.67879728  1
  Fe  Fe1  1  0.65795920  0.33222219  0.34429025  1
  Fe  Fe2  1  0.31701360  0.68238727  0.62938539  1
  Fe  Fe3  1  0.17628450  0.33994517  0.35969774  1
  Fe  Fe4  1  0.50471484  0.97861362  0.99753401  1
  Fe  Fe5  1  0.99737466  0.98741202  0.99963512  1
  O  O6  1  0.67275698  0.01958604  0.63785039  1
  O  O7  1  0.03987315  0.77359387  0.77675547  1
  O  O8  1  0.37709417  0.43454665  0.42751607  1
  O  O9  1  0.33191558  0.98547807  0.34247592  1
  O  O10  1  0.67609162  0.62714996  0.02574630  1
  O  O11  1  0.99331882  0.31039571  0.70987126  1
  O  O12  1  0.99596362  0.69812788  0.31745363  1
  F  F13  1  0.33393782  0.36954910  0.95777020  1
  F  F14  1  0.30039486  0.89615422  0.89125636  1
  F  F15  1  0.95648286  0.22559302  0.23297307  1
  F  F16  1  0.61968853  0.56728198  0.56838727  1
  F  F17  1  0.69896707  0.09902798  0.10260628  1
