# generated using pymatgen
data_Na10Mn2O9
_symmetry_space_group_name_H-M   'P 1'
_cell_length_a   6.24213067
_cell_length_b   6.55809481
_cell_length_c   9.48161841
_cell_angle_alpha   89.89848702
_cell_angle_beta   88.46063589
_cell_angle_gamma   61.29283441
_symmetry_Int_Tables_number   1
_chemical_formula_structural   Na10Mn2O9
_chemical_formula_sum   'Na10 Mn2 O9'
_cell_volume   340.28552644
_cell_formula_units_Z   1
loop_
 _symmetry_equiv_pos_site_id
 _symmetry_equiv_pos_as_xyz
  1  'x, y, z'
loop_
 _atom_site_type_symbol
 _atom_site_label
 _atom_site_symmetry_multiplicity
 _atom_site_fract_x
 _atom_site_fract_y
 _atom_site_fract_z
 _atom_site_occupancy
  Na  Na0  1  0.07224337  0.93462078  0.19941873  1
  Na  Na1  1  0.99878411  0.03766512  0.73329538  1
  Na  Na2  1  0.06560533  0.28264105  0.41955535  1
  Na  Na3  1  0.32102632  0.64655617  0.44270025  1
  Na  Na4  1  0.62953720  0.08924727  0.42422807  1
  Na  Na5  1  0.31881930  0.69915332  0.91725929  1
  Na  Na6  1  0.61810643  0.30534677  0.08731928  1
  Na  Na7  1  0.00685005  0.34410865  0.95430729  1
  Na  Na8  1  0.67763934  0.93436704  0.92267774  1
  Na  Na9  1  0.85238007  0.69531580  0.60584612  1
  Mn  Mn10  1  0.34971463  0.33205919  0.72295051  1
  Mn  Mn11  1  0.67568106  0.67482673  0.25304219  1
  O  O12  1  0.97381649  0.02042358  0.97931069  1
  O  O13  1  0.08273428  0.32224323  0.66352700  1
  O  O14  1  0.37169120  0.31979216  0.91241838  1
  O  O15  1  0.25796052  0.63268997  0.67263886  1
  O  O16  1  0.63155300  0.07133494  0.67058815  1
  O  O17  1  0.40260823  0.92249649  0.33006515  1
  O  O18  1  0.69251087  0.39246378  0.31133076  1
  O  O19  1  0.65665990  0.64332603  0.06576410  1
  O  O20  1  0.91601431  0.70971693  0.34692671  1
