# generated using pymatgen
data_Li3Fe4(Si3O10)2
_symmetry_space_group_name_H-M   'P 1'
_cell_length_a   5.49530675
_cell_length_b   5.51151757
_cell_length_c   16.64361893
_cell_angle_alpha   86.14323871
_cell_angle_beta   93.23638734
_cell_angle_gamma   119.37898269
_symmetry_Int_Tables_number   1
_chemical_formula_structural   Li3Fe4(Si3O10)2
_chemical_formula_sum   'Li3 Fe4 Si6 O20'
_cell_volume   438.10942142
_cell_formula_units_Z   1
loop_
 _symmetry_equiv_pos_site_id
 _symmetry_equiv_pos_as_xyz
  1  'x, y, z'
loop_
 _atom_site_type_symbol
 _atom_site_label
 _atom_site_symmetry_multiplicity
 _atom_site_fract_x
 _atom_site_fract_y
 _atom_site_fract_z
 _atom_site_occupancy
  Li  Li0  1  0.35412907  0.84675339  0.44804391  1
  Li  Li1  1  0.81703068  0.43209084  0.73252796  1
  Li  Li2  1  0.85013590  0.35992368  0.05067416  1
  Fe  Fe3  1  0.99352261  0.80609984  0.58371656  1
  Fe  Fe4  1  0.18801796  0.00623496  0.07684196  1
  Fe  Fe5  1  0.80749857  0.99617426  0.91841311  1
  Fe  Fe6  1  0.00308318  0.18276724  0.42117544  1
  Si  Si7  1  0.13292947  0.12974197  0.75094453  1
  Si  Si8  1  0.31436527  0.46446328  0.59728359  1
  Si  Si9  1  0.47238204  0.32335094  0.90095457  1
  Si  Si10  1  0.51952970  0.67645906  0.09870853  1
  Si  Si11  1  0.67523076  0.51762965  0.40085247  1
  Si  Si12  1  0.85490863  0.85568107  0.24941068  1
  O  O13  1  0.05736065  0.85657089  0.70141232  1
  O  O14  1  0.11424369  0.95419286  0.18871701  1
  O  O15  1  0.17368954  0.38995506  0.68706354  1
  O  O16  1  0.51776502  0.63423920  0.90599254  1
  O  O17  1  0.10674094  0.18756036  0.54452815  1
  O  O18  1  0.19221642  0.09598961  0.95172180  1
  O  O19  1  0.29036460  0.73342731  0.56067349  1
  O  O20  1  0.23383612  0.68221321  0.06672847  1
  O  O21  1  0.37449343  0.50664516  0.41083449  1
  O  O22  1  0.43049315  0.23735705  0.80465906  1
  O  O23  1  0.57548914  0.77554136  0.19184609  1
  O  O24  1  0.62903472  0.50616884  0.60551604  1
  O  O25  1  0.73498233  0.29172530  0.93909378  1
  O  O26  1  0.67862180  0.23026608  0.43310417  1
  O  O27  1  0.79750722  0.92605335  0.04893494  1
  O  O28  1  0.91735142  0.78952338  0.45135095  1
  O  O29  1  0.50794030  0.37761626  0.08706423  1
  O  O30  1  0.78039044  0.57681601  0.30758596  1
  O  O31  1  0.89167327  0.10634583  0.80790967  1
  O  O32  1  0.95077194  0.11358270  0.30853478  1
