# generated using pymatgen
data_Li3Mn2(CoO4)2
_symmetry_space_group_name_H-M   'P 1'
_cell_length_a   5.79480123
_cell_length_b   5.85429568
_cell_length_c   5.87226629
_cell_angle_alpha   59.39645765
_cell_angle_beta   61.16181373
_cell_angle_gamma   89.03578390
_symmetry_Int_Tables_number   1
_chemical_formula_structural   Li3Mn2(CoO4)2
_chemical_formula_sum   'Li3 Mn2 Co2 O8'
_cell_volume   143.12276401
_cell_formula_units_Z   1
loop_
 _symmetry_equiv_pos_site_id
 _symmetry_equiv_pos_as_xyz
  1  'x, y, z'
loop_
 _atom_site_type_symbol
 _atom_site_label
 _atom_site_symmetry_multiplicity
 _atom_site_fract_x
 _atom_site_fract_y
 _atom_site_fract_z
 _atom_site_occupancy
  Li  Li0  1  0.00000000  0.50000000  0.00000000  1
  Li  Li1  1  0.50000000  0.50000000  0.50000000  1
  Li  Li2  1  0.50000000  0.00000000  0.50000000  1
  Mn  Mn3  1  0.00000000  0.50000000  0.50000000  1
  Mn  Mn4  1  0.50000000  0.00000000  0.00000000  1
  Co  Co5  1  0.00000000  0.00000000  0.00000000  1
  Co  Co6  1  0.00000000  0.00000000  0.50000000  1
  O  O7  1  0.23110126  0.20670949  0.02790043  1
  O  O8  1  0.22652401  0.72900480  0.51452428  1
  O  O9  1  0.21546552  0.23759454  0.53948387  1
  O  O10  1  0.22858186  0.75434550  0.03461431  1
  O  O11  1  0.77141814  0.24565450  0.96538569  1
  O  O12  1  0.78453448  0.76240546  0.46051613  1
  O  O13  1  0.77347599  0.27099520  0.48547572  1
  O  O14  1  0.76889874  0.79329051  0.97209957  1
