# generated using pymatgen
data_Li2Fe3WO8
_symmetry_space_group_name_H-M   'P 1'
_cell_length_a   6.12913721
_cell_length_b   6.12913723
_cell_length_c   6.12913786
_cell_angle_alpha   59.27161036
_cell_angle_beta   59.27161356
_cell_angle_gamma   59.27161452
_symmetry_Int_Tables_number   1
_chemical_formula_structural   Li2Fe3WO8
_chemical_formula_sum   'Li2 Fe3 W1 O8'
_cell_volume   160.11000639
_cell_formula_units_Z   1
loop_
 _symmetry_equiv_pos_site_id
 _symmetry_equiv_pos_as_xyz
  1  'x, y, z'
loop_
 _atom_site_type_symbol
 _atom_site_label
 _atom_site_symmetry_multiplicity
 _atom_site_fract_x
 _atom_site_fract_y
 _atom_site_fract_z
 _atom_site_occupancy
  Li  Li0  1  0.13253561  0.13253561  0.13253561  1
  Li  Li1  1  0.86746439  0.86746439  0.86746439  1
  Fe  Fe2  1  0.00000000  0.50000000  0.50000000  1
  Fe  Fe3  1  0.50000000  0.00000000  0.50000000  1
  Fe  Fe4  1  0.50000000  0.50000000  0.00000000  1
  W  W5  1  0.50000000  0.50000000  0.50000000  1
  O  O6  1  0.26762486  0.26762486  0.26762486  1
  O  O7  1  0.27049344  0.27049344  0.72059940  1
  O  O8  1  0.27049344  0.72059940  0.27049344  1
  O  O9  1  0.72059940  0.27049344  0.27049344  1
  O  O10  1  0.27940060  0.72950656  0.72950656  1
  O  O11  1  0.72950656  0.27940060  0.72950656  1
  O  O12  1  0.72950656  0.72950656  0.27940060  1
  O  O13  1  0.73237514  0.73237514  0.73237514  1
