# generated using pymatgen
data_LiMn2(BO3)2
_symmetry_space_group_name_H-M   'P 1'
_cell_length_a   9.21774280
_cell_length_b   9.09193113
_cell_length_c   10.36828804
_cell_angle_alpha   89.99748711
_cell_angle_beta   91.55225507
_cell_angle_gamma   60.00527575
_symmetry_Int_Tables_number   1
_chemical_formula_structural   LiMn2(BO3)2
_chemical_formula_sum   'Li6 Mn12 B12 O36'
_cell_volume   752.19183096
_cell_formula_units_Z   6
loop_
 _symmetry_equiv_pos_site_id
 _symmetry_equiv_pos_as_xyz
  1  'x, y, z'
loop_
 _atom_site_type_symbol
 _atom_site_label
 _atom_site_symmetry_multiplicity
 _atom_site_fract_x
 _atom_site_fract_y
 _atom_site_fract_z
 _atom_site_occupancy
  Li  Li0  1  0.95434304  0.94668400  0.32954161  1
  Li  Li1  1  0.63208089  0.59857378  0.32458482  1
  Li  Li2  1  0.60363675  0.63347700  0.83693574  1
  Li  Li3  1  0.29662416  0.27032807  0.33079209  1
  Li  Li4  1  0.28352428  0.29694451  0.83001914  1
  Li  Li5  1  0.02393614  0.07359856  0.65158858  1
  Mn  Mn6  1  0.94670137  0.62943315  0.86264651  1
  Mn  Mn7  1  0.62611372  0.92552417  0.38044871  1
  Mn  Mn8  1  0.95566160  0.27166772  0.37295823  1
  Mn  Mn9  1  0.69218371  0.41249264  0.60858923  1
  Mn  Mn10  1  0.68367883  0.06551275  0.12726769  1
  Mn  Mn11  1  0.38830514  0.71112705  0.11502717  1
  Mn  Mn12  1  0.65371143  0.25813917  0.87688960  1
  Mn  Mn13  1  0.26286129  0.95133744  0.86862202  1
  Mn  Mn14  1  0.28171129  0.61890425  0.36912518  1
  Mn  Mn15  1  0.39243666  0.05616386  0.62120887  1
  Mn  Mn16  1  0.06541340  0.69860980  0.61666568  1
  Mn  Mn17  1  0.05187410  0.39344015  0.11701088  1
  B  B18  1  0.95383473  0.59630831  0.37840167  1
  B  B19  1  0.94415022  0.29335584  0.86798515  1
  B  B20  1  0.60039686  0.94967859  0.87138534  1
  B  B21  1  0.74057895  0.37240369  0.12606330  1
  B  B22  1  0.28554273  0.93779377  0.37933869  1
  B  B23  1  0.60630082  0.28144163  0.36371101  1
  B  B24  1  0.73091709  0.05383248  0.63031042  1
  B  B25  1  0.36471502  0.74576611  0.63214307  1
  B  B26  1  0.29920388  0.59552598  0.85714454  1
  B  B27  1  0.04718649  0.72873540  0.12374945  1
  B  B28  1  0.39041616  0.04465947  0.12247543  1
  B  B29  1  0.04184398  0.39081980  0.63402627  1
  O  O30  1  0.92911375  0.88513991  0.15605755  1
  O  O31  1  0.89878918  0.95828386  0.61924937  1
  O  O32  1  0.01469150  0.62299150  0.04269463  1
  O  O33  1  0.95251063  0.56715285  0.67081174  1
  O  O34  1  0.62206892  0.00554868  0.57480996  1
  O  O35  1  0.78491672  0.67093921  0.37820988  1
  O  O36  1  0.94997163  0.31986799  0.58494919  1
  O  O37  1  0.69748399  0.77962708  0.86336676  1
  O  O38  1  0.90513960  0.29174835  0.16700241  1
  O  O39  1  0.55802481  0.95219357  0.17175990  1
  O  O40  1  0.76888440  0.38858691  0.84792124  1
  O  O41  1  0.63151973  0.53766577  0.14617596  1
  O  O42  1  0.69749297  0.35683333  0.40878739  1
  O  O43  1  0.53136720  0.65754931  0.65392301  1
  O  O44  1  0.33458533  0.95171974  0.04858795  1
  O  O45  1  0.67971596  0.27237449  0.06345378  1
  O  O46  1  0.69915886  0.11305451  0.31379947  1
  O  O47  1  0.38769229  0.77686379  0.32882612  1
  O  O48  1  0.66032231  0.21282900  0.69244741  1
  O  O49  1  0.26845153  0.91653236  0.67644758  1
  O  O50  1  0.36248209  0.69936249  0.90407330  1
  O  O51  1  0.65572134  0.04817447  0.93723445  1
  O  O52  1  0.43828684  0.36044053  0.36844234  1
  O  O53  1  0.27793846  0.68063868  0.56543669  1
  O  O54  1  0.39271010  0.42584566  0.86457579  1
  O  O55  1  0.21045672  0.65212130  0.17407109  1
  O  O56  1  0.13187685  0.68082088  0.80418415  1
  O  O57  1  0.43755856  0.04022475  0.81499957  1
  O  O58  1  0.29548827  0.20970364  0.14930127  1
  O  O59  1  0.36889096  0.02372162  0.43046130  1
  O  O60  1  0.03550664  0.68310945  0.42835366  1
  O  O61  1  0.21114587  0.30215889  0.64812146  1
  O  O62  1  0.05478686  0.43485132  0.33045099  1
  O  O63  1  0.03165708  0.37436921  0.90557067  1
  O  O64  1  0.11645382  0.01174352  0.38256398  1
  O  O65  1  0.02536052  0.12257525  0.84635889  1
