# generated using pymatgen
data_LiFePH2O5
_symmetry_space_group_name_H-M   'P 1'
_cell_length_a   9.67327226
_cell_length_b   7.90122180
_cell_length_c   5.57351962
_cell_angle_alpha   90.00000000
_cell_angle_beta   95.89199587
_cell_angle_gamma   90.00000000
_symmetry_Int_Tables_number   1
_chemical_formula_structural   LiFePH2O5
_chemical_formula_sum   'Li4 Fe4 P4 H8 O20'
_cell_volume   423.73741425
_cell_formula_units_Z   4
loop_
 _symmetry_equiv_pos_site_id
 _symmetry_equiv_pos_as_xyz
  1  'x, y, z'
loop_
 _atom_site_type_symbol
 _atom_site_label
 _atom_site_symmetry_multiplicity
 _atom_site_fract_x
 _atom_site_fract_y
 _atom_site_fract_z
 _atom_site_occupancy
  Li  Li0  1  0.35137835  0.53211153  0.55118508  1
  Li  Li1  1  0.35137835  0.96788847  0.05118508  1
  Li  Li2  1  0.64862165  0.03211153  0.94881492  1
  Li  Li3  1  0.64862165  0.46788847  0.44881492  1
  Fe  Fe4  1  0.01713628  0.80406164  0.79019808  1
  Fe  Fe5  1  0.01713628  0.69593836  0.29019808  1
  Fe  Fe6  1  0.98286372  0.30406164  0.70980192  1
  Fe  Fe7  1  0.98286372  0.19593836  0.20980192  1
  P  P8  1  0.19888988  0.47463183  0.98214155  1
  P  P9  1  0.19888988  0.02536817  0.48214155  1
  P  P10  1  0.80111012  0.97463183  0.51785845  1
  P  P11  1  0.80111012  0.52536817  0.01785845  1
  H  H12  1  0.41771976  0.25868406  0.87176320  1
  H  H13  1  0.43643564  0.10379006  0.69581352  1
  H  H14  1  0.41771976  0.24131594  0.37176320  1
  H  H15  1  0.43643564  0.39620994  0.19581352  1
  H  H16  1  0.56356436  0.60379006  0.80418648  1
  H  H17  1  0.58228024  0.75868406  0.62823680  1
  H  H18  1  0.56356436  0.89620994  0.30418648  1
  H  H19  1  0.58228024  0.74131594  0.12823680  1
  O  O20  1  0.10178173  0.55532043  0.76770958  1
  O  O21  1  0.10178173  0.94467957  0.26770958  1
  O  O22  1  0.13226188  0.20444537  0.51578598  1
  O  O23  1  0.13226188  0.29555463  0.01578598  1
  O  O24  1  0.19799975  0.91805471  0.71711200  1
  O  O25  1  0.19799975  0.58194529  0.21711200  1
  O  O26  1  0.34661175  0.45556898  0.90643561  1
  O  O27  1  0.34661175  0.04443102  0.40643561  1
  O  O28  1  0.45734658  0.14217960  0.86598604  1
  O  O29  1  0.45734658  0.35782040  0.36598604  1
  O  O30  1  0.54265342  0.64217960  0.63401396  1
  O  O31  1  0.54265342  0.85782040  0.13401396  1
  O  O32  1  0.65338825  0.95556898  0.59356439  1
  O  O33  1  0.65338825  0.54443102  0.09356439  1
  O  O34  1  0.80200025  0.41805471  0.78288800  1
  O  O35  1  0.80200025  0.08194529  0.28288800  1
  O  O36  1  0.86773812  0.70444537  0.98421402  1
  O  O37  1  0.86773812  0.79555463  0.48421402  1
  O  O38  1  0.89821827  0.05532043  0.73229042  1
  O  O39  1  0.89821827  0.44467957  0.23229042  1
