# generated using pymatgen
data_Mn6O5F7
_symmetry_space_group_name_H-M   'P 1'
_cell_length_a   5.69554987
_cell_length_b   5.11636487
_cell_length_c   14.68418214
_cell_angle_alpha   91.61911899
_cell_angle_beta   89.39064252
_cell_angle_gamma   89.92807406
_symmetry_Int_Tables_number   1
_chemical_formula_structural   Mn6O5F7
_chemical_formula_sum   'Mn12 O10 F14'
_cell_volume   427.70902307
_cell_formula_units_Z   2
loop_
 _symmetry_equiv_pos_site_id
 _symmetry_equiv_pos_as_xyz
  1  'x, y, z'
loop_
 _atom_site_type_symbol
 _atom_site_label
 _atom_site_symmetry_multiplicity
 _atom_site_fract_x
 _atom_site_fract_y
 _atom_site_fract_z
 _atom_site_occupancy
  Mn  Mn0  1  0.11144243  0.96053486  0.00569092  1
  Mn  Mn1  1  0.85441326  0.51168426  0.17227198  1
  Mn  Mn2  1  0.11936506  0.01032511  0.33332070  1
  Mn  Mn3  1  0.91953913  0.50467314  0.51394964  1
  Mn  Mn4  1  0.11500528  0.04532346  0.66472144  1
  Mn  Mn5  1  0.96607657  0.50793163  0.82118028  1
  Mn  Mn6  1  0.52301435  0.01272264  0.16768159  1
  Mn  Mn7  1  0.50896342  0.48205162  0.00151770  1
  Mn  Mn8  1  0.43058430  0.51541071  0.66204870  1
  Mn  Mn9  1  0.57568925  0.04859389  0.49168159  1
  Mn  Mn10  1  0.41222563  0.50723367  0.32941279  1
  Mn  Mn11  1  0.41987705  0.95993888  0.82591865  1
  O  O12  1  0.15053592  0.35662068  0.59322760  1
  O  O13  1  0.20491845  0.73942202  0.74489929  1
  O  O14  1  0.39208800  0.18126464  0.06628432  1
  O  O15  1  0.36199022  0.82599437  0.26432911  1
  O  O16  1  0.32937547  0.75463757  0.93374352  1
  O  O17  1  0.35410569  0.21288216  0.73599319  1
  O  O18  1  0.36062559  0.19574678  0.39594468  1
  O  O19  1  0.64456900  0.35538746  0.57447754  1
  O  O20  1  0.60990271  0.32693520  0.23634241  1
  O  O21  1  0.61827857  0.68802124  0.10378319  1
  F  F22  1  0.09945740  0.34465660  0.24697049  1
  F  F23  1  0.10493825  0.68515376  0.09852304  1
  F  F24  1  0.15791307  0.66533714  0.41829341  1
  F  F25  1  0.10735213  0.21484787  0.90888772  1
  F  F26  1  0.40722385  0.83683360  0.58695933  1
  F  F27  1  0.58341923  0.24211771  0.89808062  1
  F  F28  1  0.66105335  0.68122912  0.42822552  1
  F  F29  1  0.66270852  0.67639133  0.75471342  1
  F  F30  1  0.87880845  0.17640581  0.41560941  1
  F  F31  1  0.88673444  0.17453126  0.07835353  1
  F  F32  1  0.86010425  0.17809325  0.75147679  1
  F  F33  1  0.90233726  0.87386643  0.57819160  1
  F  F34  1  0.83660556  0.70159320  0.93773371  1
  F  F35  1  0.86875886  0.84560793  0.25956155  1
