# generated using pymatgen
data_Fe3OF5
_symmetry_space_group_name_H-M   'P 1'
_cell_length_a   4.81103384
_cell_length_b   8.12226853
_cell_length_c   5.76691339
_cell_angle_alpha   93.49983878
_cell_angle_beta   90.82766081
_cell_angle_gamma   89.55797327
_symmetry_Int_Tables_number   1
_chemical_formula_structural   Fe3OF5
_chemical_formula_sum   'Fe6 O2 F10'
_cell_volume   224.90181661
_cell_formula_units_Z   2
loop_
 _symmetry_equiv_pos_site_id
 _symmetry_equiv_pos_as_xyz
  1  'x, y, z'
loop_
 _atom_site_type_symbol
 _atom_site_label
 _atom_site_symmetry_multiplicity
 _atom_site_fract_x
 _atom_site_fract_y
 _atom_site_fract_z
 _atom_site_occupancy
  Fe  Fe0  1  0.53066695  0.64145709  0.17054554  1
  Fe  Fe1  1  0.46933305  0.02520991  0.49612146  1
  Fe  Fe2  1  0.50000000  0.33333300  0.83333300  1
  Fe  Fe3  1  0.99655850  0.67083766  0.66434204  1
  Fe  Fe4  1  0.00000000  0.33333300  0.33333300  1
  Fe  Fe5  1  0.00344150  0.99582934  0.00232496  1
  O  O6  1  0.70002851  0.43956695  0.13460446  1
  O  O7  1  0.29997149  0.22709905  0.53206254  1
  F  F8  1  0.79479230  0.44403631  0.63476072  1
  F  F9  1  0.79218785  0.76683310  0.97263577  1
  F  F10  1  0.79311596  0.08610715  0.30393495  1
  F  F11  1  0.69996413  0.08125324  0.78808423  1
  F  F12  1  0.68997990  0.76989437  0.45814035  1
  F  F13  1  0.30003587  0.58541376  0.87858177  1
  F  F14  1  0.31002010  0.89677263  0.20852565  1
  F  F15  1  0.20520770  0.22263069  0.03190628  1
  F  F16  1  0.20688404  0.58055885  0.36273105  1
  F  F17  1  0.20781215  0.89983390  0.69403123  1
