# generated using pymatgen
data_Mn6O5F7
_symmetry_space_group_name_H-M   'P 1'
_cell_length_a   4.69259143
_cell_length_b   5.71291430
_cell_length_c   15.66917018
_cell_angle_alpha   90.29430774
_cell_angle_beta   89.85071776
_cell_angle_gamma   90.06931018
_symmetry_Int_Tables_number   1
_chemical_formula_structural   Mn6O5F7
_chemical_formula_sum   'Mn12 O10 F14'
_cell_volume   420.05768600
_cell_formula_units_Z   2
loop_
 _symmetry_equiv_pos_site_id
 _symmetry_equiv_pos_as_xyz
  1  'x, y, z'
loop_
 _atom_site_type_symbol
 _atom_site_label
 _atom_site_symmetry_multiplicity
 _atom_site_fract_x
 _atom_site_fract_y
 _atom_site_fract_z
 _atom_site_occupancy
  Mn  Mn0  1  0.01253766  0.17061548  0.41624911  1
  Mn  Mn1  1  0.00323030  0.83187252  0.23698781  1
  Mn  Mn2  1  0.00251731  0.15422159  0.07588826  1
  Mn  Mn3  1  0.04739916  0.16260344  0.75067785  1
  Mn  Mn4  1  0.02622718  0.85641996  0.57883424  1
  Mn  Mn5  1  0.02532714  0.85965841  0.91316983  1
  Mn  Mn6  1  0.47266872  0.33256063  0.58186112  1
  Mn  Mn7  1  0.49575718  0.33595203  0.92237153  1
  Mn  Mn8  1  0.53294205  0.35654194  0.25581885  1
  Mn  Mn9  1  0.50425244  0.64726399  0.08829472  1
  Mn  Mn10  1  0.48881263  0.65050996  0.42089417  1
  Mn  Mn11  1  0.48654030  0.65496442  0.75842551  1
  O  O12  1  0.22429801  0.10887576  0.63501679  1
  O  O13  1  0.21617878  0.11383762  0.97050756  1
  O  O14  1  0.21732877  0.88297047  0.13180262  1
  O  O15  1  0.22220762  0.89228591  0.46917358  1
  O  O16  1  0.23199975  0.89088890  0.80836732  1
  O  O17  1  0.26704255  0.39608847  0.47727786  1
  O  O18  1  0.29251944  0.39376494  0.81567997  1
  O  O19  1  0.71422736  0.37605305  0.02902658  1
  O  O20  1  0.71934239  0.61916031  0.19389717  1
  O  O21  1  0.72741089  0.39607078  0.36617778  1
  F  F22  1  0.23597563  0.10450967  0.29784201  1
  F  F23  1  0.25934010  0.37945844  0.15161713  1
  F  F24  1  0.25040148  0.61103384  0.30881195  1
  F  F25  1  0.25708394  0.60716316  0.64469562  1
  F  F26  1  0.26906649  0.61416711  0.98178997  1
  F  F27  1  0.73776300  0.61159168  0.53735645  1
  F  F28  1  0.75719698  0.61734658  0.86750965  1
  F  F29  1  0.72647616  0.38033878  0.69330585  1
  F  F30  1  0.76792649  0.11782390  0.18360708  1
  F  F31  1  0.75263270  0.10679538  0.52413028  1
  F  F32  1  0.76331926  0.89221032  0.35518604  1
  F  F33  1  0.76014787  0.87566413  0.01317421  1
  F  F34  1  0.76301703  0.12288311  0.85306572  1
  F  F35  1  0.76888622  0.87583331  0.69150981  1
