# generated using pymatgen
data_Na(Bi3O5)4
_symmetry_space_group_name_H-M   'P 1'
_cell_length_a   8.90589731
_cell_length_b   8.90589731
_cell_length_c   8.90589731
_cell_angle_alpha   109.47697021
_cell_angle_beta   109.50588084
_cell_angle_gamma   109.43081969
_symmetry_Int_Tables_number   1
_chemical_formula_structural   Na(Bi3O5)4
_chemical_formula_sum   'Na1 Bi12 O20'
_cell_volume   543.76464735
_cell_formula_units_Z   1
loop_
 _symmetry_equiv_pos_site_id
 _symmetry_equiv_pos_as_xyz
  1  'x, y, z'
loop_
 _atom_site_type_symbol
 _atom_site_label
 _atom_site_symmetry_multiplicity
 _atom_site_fract_x
 _atom_site_fract_y
 _atom_site_fract_z
 _atom_site_occupancy
  Na  Na0  1  0.00000000  0.00000000  0.00000000  1
  Bi  Bi1  1  0.82811909  0.31681074  0.14106074  1
  Bi  Bi2  1  0.48866270  0.17187609  0.31253888  1
  Bi  Bi3  1  0.85933622  0.17612283  0.68746112  1
  Bi  Bi4  1  0.31350354  0.48913623  0.17169304  1
  Bi  Bi5  1  0.68649646  0.85818950  0.17563169  1
  Bi  Bi6  1  0.82425000  0.68318926  0.51130835  1
  Bi  Bi7  1  0.17188091  0.31294166  0.48869165  1
  Bi  Bi8  1  0.68255681  0.51086377  0.82436831  1
  Bi  Bi9  1  0.31744319  0.14181050  0.82830696  1
  Bi  Bi10  1  0.51133730  0.82387717  0.68321339  1
  Bi  Bi11  1  0.14066378  0.82812391  0.31678661  1
  Bi  Bi12  1  0.17575000  0.68705834  0.85893926  1
  O  O13  1  0.34453681  0.99984719  0.99990057  1
  O  O14  1  0.73351670  0.10915219  0.36462665  1
  O  O15  1  0.88993130  0.62413507  0.25469666  1
  O  O16  1  0.63056159  0.37586493  0.26579623  1
  O  O17  1  0.27498768  0.27356081  0.27489786  1
  O  O18  1  0.72501232  0.99991018  0.99857313  1
  O  O19  1  0.74452553  0.36889004  0.63537335  1
  O  O20  1  0.99994662  0.34463524  0.00009943  1
  O  O21  1  0.37613866  0.26662474  0.63140241  1
  O  O22  1  0.62386134  0.25526375  0.89048608  1
  O  O23  1  0.36477767  0.73337526  0.10951392  1
  O  O24  1  0.63522233  0.74473625  0.36859759  1
  O  O25  1  0.65546319  0.65536476  0.65531138  1
  O  O26  1  0.26648330  0.63110996  0.37563549  1
  O  O27  1  0.99866295  0.00008982  0.72510214  1
  O  O28  1  0.00133705  0.72643919  0.00142687  1
  O  O29  1  0.11006870  0.36476536  0.73420377  1
  O  O30  1  0.36943841  0.63523464  0.74530334  1
  O  O31  1  0.25547447  0.89084781  0.62436451  1
  O  O32  1  0.00005338  0.00015281  0.34468862  1
