# generated using pymatgen
data_Li5(NiO2)4
_symmetry_space_group_name_H-M   'P 1'
_cell_length_a   8.37306728
_cell_length_b   8.39191956
_cell_length_c   8.38169720
_cell_angle_alpha   90.01766822
_cell_angle_beta   90.01016191
_cell_angle_gamma   89.98291234
_symmetry_Int_Tables_number   1
_chemical_formula_structural   Li5(NiO2)4
_chemical_formula_sum   'Li20 Ni16 O32'
_cell_volume   588.94916903
_cell_formula_units_Z   4
loop_
 _symmetry_equiv_pos_site_id
 _symmetry_equiv_pos_as_xyz
  1  'x, y, z'
loop_
 _atom_site_type_symbol
 _atom_site_label
 _atom_site_symmetry_multiplicity
 _atom_site_fract_x
 _atom_site_fract_y
 _atom_site_fract_z
 _atom_site_occupancy
  Li  Li0  1  0.94751033  0.05257960  0.94595549  1
  Li  Li1  1  0.61096303  0.13918314  0.62421539  1
  Li  Li2  1  0.36142797  0.12529837  0.38946176  1
  Li  Li3  1  0.12392460  0.11057347  0.13927220  1
  Li  Li4  1  0.80149913  0.19805162  0.80311645  1
  Li  Li5  1  0.30228913  0.30162359  0.19685933  1
  Li  Li6  1  0.62490907  0.39028305  0.86135852  1
  Li  Li7  1  0.86026347  0.37448195  0.61028802  1
  Li  Li8  1  0.11080651  0.35999453  0.37481611  1
  Li  Li9  1  0.44703809  0.44755514  0.05354828  1
  Li  Li10  1  0.05204814  0.55153567  0.55275800  1
  Li  Li11  1  0.38856928  0.63889520  0.87485227  1
  Li  Li12  1  0.63942373  0.62476209  0.11056867  1
  Li  Li13  1  0.87460441  0.61107925  0.36079169  1
  Li  Li14  1  0.19708373  0.69792753  0.69670443  1
  Li  Li15  1  0.69815249  0.80375817  0.30156365  1
  Li  Li16  1  0.37478861  0.88945769  0.64007057  1
  Li  Li17  1  0.13897082  0.87466124  0.88928688  1
  Li  Li18  1  0.88986107  0.86082664  0.12463709  1
  Li  Li19  1  0.55228131  0.94618749  0.44812684  1
  Ni  Ni20  1  0.62536823  0.12491569  0.12505130  1
  Ni  Ni21  1  0.12509096  0.37486134  0.87514914  1
  Ni  Ni22  1  0.37497439  0.62495039  0.37502282  1
  Ni  Ni23  1  0.87497864  0.87516845  0.62534362  1
  Ni  Ni24  1  0.37485763  0.12386031  0.87394513  1
  Ni  Ni25  1  0.12554486  0.12475672  0.62467089  1
  Ni  Ni26  1  0.87561309  0.12586672  0.37494374  1
  Ni  Ni27  1  0.37639432  0.37430868  0.62509047  1
  Ni  Ni28  1  0.62582132  0.37474729  0.37614460  1
  Ni  Ni29  1  0.87493176  0.37563475  0.12563423  1
  Ni  Ni30  1  0.62483971  0.62422079  0.62553664  1
  Ni  Ni31  1  0.87489579  0.62522548  0.87603343  1
  Ni  Ni32  1  0.12407349  0.62643556  0.12496016  1
  Ni  Ni33  1  0.62446217  0.87458242  0.87492195  1
  Ni  Ni34  1  0.37388500  0.87475454  0.12390805  1
  Ni  Ni35  1  0.12507333  0.87585028  0.37418066  1
  O  O36  1  0.61342836  0.11797470  0.88473075  1
  O  O37  1  0.38371677  0.11192446  0.12025955  1
  O  O38  1  0.12275251  0.12133198  0.37794054  1
  O  O39  1  0.13691999  0.13390427  0.87041158  1
  O  O40  1  0.87989199  0.11471845  0.61543847  1
  O  O41  1  0.37238493  0.12762078  0.62823733  1
  O  O42  1  0.62891607  0.13367282  0.36461644  1
  O  O43  1  0.86604320  0.12969072  0.13456694  1
  O  O44  1  0.36640389  0.37102011  0.86386358  1
  O  O45  1  0.12851037  0.36079985  0.63243721  1
  O  O46  1  0.87290386  0.37364937  0.37198808  1
  O  O47  1  0.37936319  0.38294921  0.38615326  1
  O  O48  1  0.63856683  0.36795689  0.12715640  1
  O  O49  1  0.62328467  0.37596045  0.62453298  1
  O  O50  1  0.88362571  0.38685848  0.88002301  1
  O  O51  1  0.11163678  0.37898086  0.11767237  1
  O  O52  1  0.38738165  0.61988364  0.61800106  1
  O  O53  1  0.61510020  0.61673188  0.38208148  1
  O  O54  1  0.87665510  0.62254057  0.12332552  1
  O  O55  1  0.86246284  0.63513761  0.62798335  1
  O  O56  1  0.12025110  0.61589289  0.88523035  1
  O  O57  1  0.62811526  0.62956476  0.87028183  1
  O  O58  1  0.37149999  0.63828803  0.13219861  1
  O  O59  1  0.13521244  0.63087517  0.36516668  1
  O  O60  1  0.63183970  0.87290285  0.64009520  1
  O  O61  1  0.87128475  0.86301729  0.86555372  1
  O  O62  1  0.12696065  0.87303116  0.12705118  1
  O  O63  1  0.62116974  0.88177914  0.11006368  1
  O  O64  1  0.36195764  0.86795983  0.36889646  1
  O  O65  1  0.37692937  0.87714066  0.87889974  1
  O  O66  1  0.11842838  0.88931405  0.62151509  1
  O  O67  1  0.88822245  0.87774821  0.38466607  1
