# generated using pymatgen
data_Mn6O7F5
_symmetry_space_group_name_H-M   'P 1'
_cell_length_a   4.60132041
_cell_length_b   5.60531021
_cell_length_c   15.36608475
_cell_angle_alpha   89.86375931
_cell_angle_beta   90.12155937
_cell_angle_gamma   90.88513563
_symmetry_Int_Tables_number   1
_chemical_formula_structural   Mn6O7F5
_chemical_formula_sum   'Mn12 O14 F10'
_cell_volume   396.27014550
_cell_formula_units_Z   2
loop_
 _symmetry_equiv_pos_site_id
 _symmetry_equiv_pos_as_xyz
  1  'x, y, z'
loop_
 _atom_site_type_symbol
 _atom_site_label
 _atom_site_symmetry_multiplicity
 _atom_site_fract_x
 _atom_site_fract_y
 _atom_site_fract_z
 _atom_site_occupancy
  Mn  Mn0  1  0.01961318  0.16440189  0.41024120  1
  Mn  Mn1  1  0.99464585  0.84347761  0.24797852  1
  Mn  Mn2  1  0.02387686  0.17879141  0.07781481  1
  Mn  Mn3  1  0.01280872  0.16780302  0.74557324  1
  Mn  Mn4  1  0.00272026  0.85121869  0.57483169  1
  Mn  Mn5  1  0.05264889  0.84758449  0.91421008  1
  Mn  Mn6  1  0.49420718  0.34414198  0.58649642  1
  Mn  Mn7  1  0.48540351  0.35558769  0.92083707  1
  Mn  Mn8  1  0.50457801  0.34878291  0.25379844  1
  Mn  Mn9  1  0.51837732  0.62067541  0.08593734  1
  Mn  Mn10  1  0.49658065  0.63721739  0.42708840  1
  Mn  Mn11  1  0.48672940  0.64415731  0.75242213  1
  O  O12  1  0.21075554  0.11481073  0.30045060  1
  O  O13  1  0.21595502  0.10696098  0.63392659  1
  O  O14  1  0.23496113  0.11979653  0.96860856  1
  O  O15  1  0.22788326  0.88726266  0.46711772  1
  O  O16  1  0.22363808  0.89488997  0.80095844  1
  O  O17  1  0.28828802  0.39230031  0.14511921  1
  O  O18  1  0.27696875  0.39207050  0.47802807  1
  O  O19  1  0.27312065  0.40302043  0.81509441  1
  O  O20  1  0.29233661  0.60357456  0.97986988  1
  O  O21  1  0.71804319  0.38139384  0.02570464  1
  O  O22  1  0.73571032  0.60673014  0.19510190  1
  O  O23  1  0.72385817  0.39096089  0.36266044  1
  O  O24  1  0.71654885  0.61861779  0.53009671  1
  O  O25  1  0.71447359  0.38519425  0.69567945  1
  F  F26  1  0.25689129  0.87657170  0.13446555  1
  F  F27  1  0.25414341  0.62300490  0.31634827  1
  F  F28  1  0.23208752  0.60940529  0.64182506  1
  F  F29  1  0.75211256  0.61649260  0.86802118  1
  F  F30  1  0.77058652  0.09948361  0.18628142  1
  F  F31  1  0.77123240  0.12197241  0.51654103  1
  F  F32  1  0.73746627  0.87806732  0.36171734  1
  F  F33  1  0.78278068  0.86850177  0.02753748  1
  F  F34  1  0.75197583  0.12649424  0.86190576  1
  F  F35  1  0.74599352  0.87858378  0.68970992  1
