# generated using pymatgen
data_Li3Fe4(OF3)3
_symmetry_space_group_name_H-M   'P 1'
_cell_length_a   6.08094907
_cell_length_b   5.99293216
_cell_length_c   5.92415725
_cell_angle_alpha   99.62458805
_cell_angle_beta   99.85840956
_cell_angle_gamma   99.71510369
_symmetry_Int_Tables_number   1
_chemical_formula_structural   Li3Fe4(OF3)3
_chemical_formula_sum   'Li3 Fe4 O3 F9'
_cell_volume   205.33569953
_cell_formula_units_Z   1
loop_
 _symmetry_equiv_pos_site_id
 _symmetry_equiv_pos_as_xyz
  1  'x, y, z'
loop_
 _atom_site_type_symbol
 _atom_site_label
 _atom_site_symmetry_multiplicity
 _atom_site_fract_x
 _atom_site_fract_y
 _atom_site_fract_z
 _atom_site_occupancy
  Li  Li0  1  0.99678337  0.00625232  0.99144100  1
  Li  Li1  1  0.60763555  0.31927699  0.13146403  1
  Li  Li2  1  0.88141148  0.39840610  0.70474170  1
  Fe  Fe3  1  0.15408553  0.59012702  0.33359208  1
  Fe  Fe4  1  0.38265157  0.65922444  0.85819751  1
  Fe  Fe5  1  0.65252711  0.84994123  0.39308421  1
  Fe  Fe6  1  0.31842770  0.13746845  0.60766856  1
  O  O7  1  0.42089932  0.82918348  0.60139143  1
  O  O8  1  0.19372414  0.40824229  0.58215737  1
  O  O9  1  0.41156330  0.59686163  0.18098192  1
  F  F10  1  0.10554000  0.93145750  0.31994914  1
  F  F11  1  0.07215302  0.69405997  0.89544935  1
  F  F12  1  0.68283132  0.89559720  0.06394466  1
  F  F13  1  0.59546412  0.42296227  0.81350665  1
  F  F14  1  0.30952873  0.11861770  0.92944161  1
  F  F15  1  0.82908940  0.60307868  0.42869074  1
  F  F16  1  0.55037929  0.16433815  0.39439373  1
  F  F17  1  0.95275660  0.32905834  0.11143165  1
  F  F18  1  0.88254744  0.04584726  0.65846964  1
