# generated using pymatgen
data_Fe3OF5
_symmetry_space_group_name_H-M   'P 1'
_cell_length_a   7.46106661
_cell_length_b   5.76696303
_cell_length_c   5.76696303
_cell_angle_alpha   74.34783574
_cell_angle_beta   72.92382587
_cell_angle_gamma   72.92382587
_symmetry_Int_Tables_number   1
_chemical_formula_structural   Fe3OF5
_chemical_formula_sum   'Fe6 O2 F10'
_cell_volume   222.12050114
_cell_formula_units_Z   2
loop_
 _symmetry_equiv_pos_site_id
 _symmetry_equiv_pos_as_xyz
  1  'x, y, z'
loop_
 _atom_site_type_symbol
 _atom_site_label
 _atom_site_symmetry_multiplicity
 _atom_site_fract_x
 _atom_site_fract_y
 _atom_site_fract_z
 _atom_site_occupancy
  Fe  Fe0  1  0.84364588  0.67840312  0.67840312  1
  Fe  Fe1  1  0.68554244  0.33380731  0.33380731  1
  Fe  Fe2  1  0.31445756  0.66619269  0.66619269  1
  Fe  Fe3  1  0.15635412  0.32159688  0.32159688  1
  Fe  Fe4  1  0.50000000  0.00000000  0.00000000  1
  Fe  Fe5  1  0.00000000  0.00000000  0.00000000  1
  O  O6  1  0.96920069  0.22339063  0.22339063  1
  O  O7  1  0.03079931  0.77660937  0.77660937  1
  F  F8  1  0.66155711  0.03056932  0.63302018  1
  F  F9  1  0.33844289  0.36697982  0.96943068  1
  F  F10  1  0.30486379  0.89445828  0.89445828  1
  F  F11  1  0.63026559  0.56873232  0.56873232  1
  F  F12  1  0.36973441  0.43126768  0.43126768  1
  F  F13  1  0.69513621  0.10554172  0.10554172  1
  F  F14  1  0.33844289  0.96943068  0.36697982  1
  F  F15  1  0.66155711  0.63302018  0.03056932  1
  F  F16  1  0.00000000  0.30809157  0.69190843  1
  F  F17  1  0.00000000  0.69190843  0.30809157  1
