# generated using pymatgen
data_LiFeP3(HO5)2
_symmetry_space_group_name_H-M   'P 1'
_cell_length_a   8.59667554
_cell_length_b   11.43260313
_cell_length_c   9.51783202
_cell_angle_alpha   90.00000000
_cell_angle_beta   115.81500808
_cell_angle_gamma   90.00000000
_symmetry_Int_Tables_number   1
_chemical_formula_structural   LiFeP3(HO5)2
_chemical_formula_sum   'Li4 Fe4 P12 H8 O40'
_cell_volume   842.08317942
_cell_formula_units_Z   4
loop_
 _symmetry_equiv_pos_site_id
 _symmetry_equiv_pos_as_xyz
  1  'x, y, z'
loop_
 _atom_site_type_symbol
 _atom_site_label
 _atom_site_symmetry_multiplicity
 _atom_site_fract_x
 _atom_site_fract_y
 _atom_site_fract_z
 _atom_site_occupancy
  Li  Li0  1  0.08751713  0.15139625  0.58225189  1
  Li  Li1  1  0.08751713  0.34860375  0.08225189  1
  Li  Li2  1  0.91248287  0.65139625  0.91774811  1
  Li  Li3  1  0.91248287  0.84860375  0.41774811  1
  Fe  Fe4  1  0.40559696  0.89394328  0.71317984  1
  Fe  Fe5  1  0.59440304  0.39394328  0.78682016  1
  Fe  Fe6  1  0.40559696  0.60605672  0.21317984  1
  Fe  Fe7  1  0.59440304  0.10605672  0.28682016  1
  P  P8  1  0.10366341  0.97380327  0.81999846  1
  P  P9  1  0.26335622  0.47046927  0.85915905  1
  P  P10  1  0.10366341  0.52619673  0.31999846  1
  P  P11  1  0.32645215  0.61343744  0.63455747  1
  P  P12  1  0.26335622  0.02953073  0.35915905  1
  P  P13  1  0.67354785  0.11343744  0.86544253  1
  P  P14  1  0.32645215  0.88656256  0.13455747  1
  P  P15  1  0.73664378  0.97046927  0.64084095  1
  P  P16  1  0.67354785  0.38656256  0.36544253  1
  P  P17  1  0.89633659  0.47380327  0.68000154  1
  P  P18  1  0.73664378  0.52953073  0.14084095  1
  P  P19  1  0.89633659  0.02619673  0.18000154  1
  H  H20  1  0.34693529  0.15193911  0.98327651  1
  H  H21  1  0.55539019  0.73076799  0.97175262  1
  H  H22  1  0.34693529  0.34806089  0.48327651  1
  H  H23  1  0.44460981  0.23076799  0.52824738  1
  H  H24  1  0.55539019  0.76923201  0.47175262  1
  H  H25  1  0.65306471  0.65193911  0.51672349  1
  H  H26  1  0.44460981  0.26923201  0.02824738  1
  H  H27  1  0.65306471  0.84806089  0.01672349  1
  O  O28  1  0.09213737  0.10026304  0.77309379  1
  O  O29  1  0.08637324  0.41576047  0.72744211  1
  O  O30  1  0.23560313  0.49066265  0.00308196  1
  O  O31  1  0.19574190  0.88927007  0.76288692  1
  O  O32  1  0.28154851  0.59288049  0.78353527  1
  O  O33  1  0.17770064  0.53103840  0.50650737  1
  O  O34  1  0.09213737  0.39973696  0.27309379  1
  O  O35  1  0.40758475  0.38913992  0.87289347  1
  O  O36  1  0.08637324  0.08423953  0.22744211  1
  O  O37  1  0.23560313  0.00933735  0.50308196  1
  O  O38  1  0.28812015  0.73808054  0.58604977  1
  O  O39  1  0.19574190  0.61072993  0.26288692  1
  O  O40  1  0.59297941  0.79656616  0.92685262  1
  O  O41  1  0.50014937  0.06109483  0.82960840  1
  O  O42  1  0.49985063  0.56109483  0.67039160  1
  O  O43  1  0.28154851  0.90711951  0.28353527  1
  O  O44  1  0.40702059  0.29656616  0.57314738  1
  O  O45  1  0.17770064  0.96896160  0.00650737  1
  O  O46  1  0.40758475  0.11086008  0.37289347  1
  O  O47  1  0.71187985  0.23808054  0.91395023  1
  O  O48  1  0.28812015  0.76191946  0.08604977  1
  O  O49  1  0.59241525  0.88913992  0.62710653  1
  O  O50  1  0.82229936  0.03103840  0.99349263  1
  O  O51  1  0.59297941  0.70343384  0.42685262  1
  O  O52  1  0.71845149  0.09288049  0.71646473  1
  O  O53  1  0.50014937  0.43890517  0.32960840  1
  O  O54  1  0.49985063  0.93890517  0.17039160  1
  O  O55  1  0.40702059  0.20343384  0.07314738  1
  O  O56  1  0.80425810  0.38927007  0.73711308  1
  O  O57  1  0.71187985  0.26191946  0.41395023  1
  O  O58  1  0.76439687  0.99066265  0.49691804  1
  O  O59  1  0.91362676  0.91576047  0.77255789  1
  O  O60  1  0.59241525  0.61086008  0.12710653  1
  O  O61  1  0.90786263  0.60026304  0.72690621  1
  O  O62  1  0.82229936  0.46896160  0.49349263  1
  O  O63  1  0.71845149  0.40711951  0.21646473  1
  O  O64  1  0.80425810  0.11072993  0.23711308  1
  O  O65  1  0.76439687  0.50933735  0.99691804  1
  O  O66  1  0.91362676  0.58423953  0.27255789  1
  O  O67  1  0.90786263  0.89973696  0.22690621  1
