# generated using pymatgen
data_Li4Fe3Co5O16
_symmetry_space_group_name_H-M   'P 1'
_cell_length_a   5.75567158
_cell_length_b   5.74922928
_cell_length_c   9.17767366
_cell_angle_alpha   90.03470098
_cell_angle_beta   90.70537080
_cell_angle_gamma   119.86959362
_symmetry_Int_Tables_number   1
_chemical_formula_structural   Li4Fe3Co5O16
_chemical_formula_sum   'Li4 Fe3 Co5 O16'
_cell_volume   263.32497257
_cell_formula_units_Z   1
loop_
 _symmetry_equiv_pos_site_id
 _symmetry_equiv_pos_as_xyz
  1  'x, y, z'
loop_
 _atom_site_type_symbol
 _atom_site_label
 _atom_site_symmetry_multiplicity
 _atom_site_fract_x
 _atom_site_fract_y
 _atom_site_fract_z
 _atom_site_occupancy
  Li  Li0  1  0.32932830  0.66475940  0.89769675  1
  Li  Li1  1  0.00933713  0.00263167  0.99699834  1
  Li  Li2  1  0.01068877  0.00561508  0.49497552  1
  Li  Li3  1  0.66251471  0.32917907  0.39189606  1
  Fe  Fe4  1  0.66392221  0.83208064  0.21131140  1
  Fe  Fe5  1  0.83009059  0.66085939  0.71243828  1
  Fe  Fe6  1  0.83052021  0.16944365  0.71215481  1
  Co  Co7  1  0.17180839  0.82833230  0.21298316  1
  Co  Co8  1  0.32986731  0.66692115  0.48365532  1
  Co  Co9  1  0.17295091  0.34420706  0.21323957  1
  Co  Co10  1  0.34849798  0.17439871  0.71333380  1
  Co  Co11  1  0.66262834  0.33390446  0.98771098  1
  O  O12  1  0.17724040  0.83442567  0.59460511  1
  O  O13  1  0.03903795  0.52035620  0.33718371  1
  O  O14  1  0.31512707  0.65307068  0.10814960  1
  O  O15  1  0.01910855  0.01375263  0.30419277  1
  O  O16  1  0.01685834  0.00837678  0.80477226  1
  O  O17  1  0.17722512  0.34289834  0.59453452  1
  O  O18  1  0.46762890  0.95167853  0.34585995  1
  O  O19  1  0.46284911  0.50914953  0.34554865  1
  O  O20  1  0.33823543  0.17023136  0.10249101  1
  O  O21  1  0.66068752  0.83061113  0.59510733  1
  O  O22  1  0.50939260  0.46932047  0.84796784  1
  O  O23  1  0.51068312  0.04185199  0.84919354  1
  O  O24  1  0.65895062  0.32968484  0.60227263  1
  O  O25  1  0.83514146  0.66441894  0.09658946  1
  O  O26  1  0.94946254  0.47447226  0.85299093  1
  O  O27  1  0.84021742  0.17366908  0.09798869  1
