# generated using pymatgen
data_Li8Fe2O7
_symmetry_space_group_name_H-M   'P 1'
_cell_length_a   7.84505109
_cell_length_b   10.01925829
_cell_length_c   9.32621553
_cell_angle_alpha   90.00000000
_cell_angle_beta   108.00172918
_cell_angle_gamma   90.00000000
_symmetry_Int_Tables_number   1
_chemical_formula_structural   Li8Fe2O7
_chemical_formula_sum   'Li32 Fe8 O28'
_cell_volume   697.17027670
_cell_formula_units_Z   4
loop_
 _symmetry_equiv_pos_site_id
 _symmetry_equiv_pos_as_xyz
  1  'x, y, z'
loop_
 _atom_site_type_symbol
 _atom_site_label
 _atom_site_symmetry_multiplicity
 _atom_site_fract_x
 _atom_site_fract_y
 _atom_site_fract_z
 _atom_site_occupancy
  Li  Li0  1  0.13048232  0.47796261  0.93488094  1
  Li  Li1  1  0.08257324  0.46635686  0.63851037  1
  Li  Li2  1  0.10503822  0.73699431  0.53408485  1
  Li  Li3  1  0.13048232  0.02203739  0.43488094  1
  Li  Li4  1  0.25032210  0.95001117  0.70212196  1
  Li  Li5  1  0.08257324  0.03364314  0.13851037  1
  Li  Li6  1  0.28104807  0.25918699  0.56737334  1
  Li  Li7  1  0.10503822  0.76300569  0.03408485  1
  Li  Li8  1  0.43895964  0.47147116  0.84762250  1
  Li  Li9  1  0.34378754  0.50496110  0.52141355  1
  Li  Li10  1  0.25032210  0.54998883  0.20212196  1
  Li  Li11  1  0.50412965  0.23221653  0.87925110  1
  Li  Li12  1  0.28104807  0.24081301  0.06737334  1
  Li  Li13  1  0.49587035  0.73221653  0.62074890  1
  Li  Li14  1  0.43895964  0.02852884  0.34762250  1
  Li  Li15  1  0.65621246  0.00496110  0.97858645  1
  Li  Li16  1  0.34378754  0.99503890  0.02141355  1
  Li  Li17  1  0.56104036  0.97147116  0.65237750  1
  Li  Li18  1  0.50412965  0.26778347  0.37925110  1
  Li  Li19  1  0.71895193  0.75918699  0.93262666  1
  Li  Li20  1  0.49587035  0.76778347  0.12074890  1
  Li  Li21  1  0.74967790  0.45001117  0.79787804  1
  Li  Li22  1  0.65621246  0.49503890  0.47858645  1
  Li  Li23  1  0.56104036  0.52852884  0.15237750  1
  Li  Li24  1  0.89496178  0.23699431  0.96591515  1
  Li  Li25  1  0.71895193  0.74081301  0.43262666  1
  Li  Li26  1  0.91742676  0.96635686  0.86148963  1
  Li  Li27  1  0.74967790  0.04998883  0.29787804  1
  Li  Li28  1  0.86951768  0.97796261  0.56511906  1
  Li  Li29  1  0.89496178  0.26300569  0.46591515  1
  Li  Li30  1  0.91742676  0.53364314  0.36148963  1
  Li  Li31  1  0.86951768  0.52203739  0.06511906  1
  Fe  Fe32  1  0.10024373  0.20508469  0.77780067  1
  Fe  Fe33  1  0.10024373  0.29491531  0.27780067  1
  Fe  Fe34  1  0.31834473  0.71933021  0.85174967  1
  Fe  Fe35  1  0.31834473  0.78066979  0.35174967  1
  Fe  Fe36  1  0.68165527  0.21933021  0.64825033  1
  Fe  Fe37  1  0.68165527  0.28066979  0.14825033  1
  Fe  Fe38  1  0.89975627  0.70508469  0.72219933  1
  Fe  Fe39  1  0.89975627  0.79491531  0.22219933  1
  O  O40  1  0.10010352  0.10917206  0.95227098  1
  O  O41  1  0.10288665  0.82709671  0.78140513  1
  O  O42  1  0.10829151  0.10782225  0.60948093  1
  O  O43  1  0.10010352  0.39082794  0.45227098  1
  O  O44  1  0.27666942  0.33559626  0.82989398  1
  O  O45  1  0.10288665  0.67290329  0.28140513  1
  O  O46  1  0.10829151  0.39217775  0.10948093  1
  O  O47  1  0.33548259  0.61192482  0.69262013  1
  O  O48  1  0.27666942  0.16440374  0.32989398  1
  O  O49  1  0.48290693  0.86033695  0.91434439  1
  O  O50  1  0.32555488  0.88686366  0.52401828  1
  O  O51  1  0.33548259  0.88807518  0.19262013  1
  O  O52  1  0.48290693  0.63966305  0.41434439  1
  O  O53  1  0.67444512  0.38686366  0.97598172  1
  O  O54  1  0.32555488  0.61313634  0.02401828  1
  O  O55  1  0.51709307  0.36033695  0.58565561  1
  O  O56  1  0.66451741  0.11192482  0.80737987  1
  O  O57  1  0.67444512  0.11313634  0.47598172  1
  O  O58  1  0.51709307  0.13966305  0.08565561  1
  O  O59  1  0.72333058  0.83559626  0.67010602  1
  O  O60  1  0.66451741  0.38807518  0.30737987  1
  O  O61  1  0.89170849  0.60782225  0.89051907  1
  O  O62  1  0.89711335  0.32709671  0.71859487  1
  O  O63  1  0.72333058  0.66440374  0.17010602  1
  O  O64  1  0.89989648  0.60917206  0.54772902  1
  O  O65  1  0.89170849  0.89217775  0.39051907  1
  O  O66  1  0.89711335  0.17290329  0.21859487  1
  O  O67  1  0.89989648  0.89082794  0.04772902  1
