# generated using pymatgen
data_Fe7(OF3)3
_symmetry_space_group_name_H-M   'P 1'
_cell_length_a   5.49466782
_cell_length_b   5.70534924
_cell_length_c   9.13027376
_cell_angle_alpha   75.42365343
_cell_angle_beta   90.49152318
_cell_angle_gamma   117.85925292
_symmetry_Int_Tables_number   1
_chemical_formula_structural   Fe7(OF3)3
_chemical_formula_sum   'Fe7 O3 F9'
_cell_volume   242.90973074
_cell_formula_units_Z   1
loop_
 _symmetry_equiv_pos_site_id
 _symmetry_equiv_pos_as_xyz
  1  'x, y, z'
loop_
 _atom_site_type_symbol
 _atom_site_label
 _atom_site_symmetry_multiplicity
 _atom_site_fract_x
 _atom_site_fract_y
 _atom_site_fract_z
 _atom_site_occupancy
  Fe  Fe0  1  0.78818339  0.56632436  0.07104507  1
  Fe  Fe1  1  0.96406372  0.95754623  0.66504730  1
  Fe  Fe2  1  0.52209818  0.04962763  0.81458859  1
  Fe  Fe3  1  0.67949149  0.42805239  0.43153466  1
  Fe  Fe4  1  0.50979625  0.92858718  0.17424425  1
  Fe  Fe5  1  0.05048448  0.05720724  0.31594596  1
  Fe  Fe6  1  0.21995424  0.50377397  0.58512714  1
  O  O7  1  0.81832382  0.27507416  0.62149604  1
  O  O8  1  0.75008591  0.74822101  0.23505272  1
  O  O9  1  0.24540508  0.24861137  0.47567473  1
  F  F10  1  0.80224696  0.25686491  0.27693649  1
  F  F11  1  0.75175940  0.25426687  0.96934547  1
  F  F12  1  0.64851767  0.72533330  0.54830511  1
  F  F13  1  0.71990640  0.78618108  0.86791688  1
  F  F14  1  0.36757372  0.22763951  0.14324683  1
  F  F15  1  0.27970811  0.25765903  0.77051075  1
  F  F16  1  0.23180562  0.77810332  0.01973823  1
  F  F17  1  0.22137474  0.76672889  0.69971107  1
  F  F18  1  0.21281283  0.75099455  0.38448368  1
