# generated using pymatgen
data_LiMn2(BO3)2
_symmetry_space_group_name_H-M   'P 1'
_cell_length_a   5.30364699
_cell_length_b   13.72190029
_cell_length_c   11.43960071
_cell_angle_alpha   66.87386771
_cell_angle_beta   78.29554967
_cell_angle_gamma   91.42482938
_symmetry_Int_Tables_number   1
_chemical_formula_structural   LiMn2(BO3)2
_chemical_formula_sum   'Li6 Mn12 B12 O36'
_cell_volume   744.64095895
_cell_formula_units_Z   6
loop_
 _symmetry_equiv_pos_site_id
 _symmetry_equiv_pos_as_xyz
  1  'x, y, z'
loop_
 _atom_site_type_symbol
 _atom_site_label
 _atom_site_symmetry_multiplicity
 _atom_site_fract_x
 _atom_site_fract_y
 _atom_site_fract_z
 _atom_site_occupancy
  Li  Li0  1  0.74146203  0.10597670  0.23461837  1
  Li  Li1  1  0.40177351  0.43577811  0.89918995  1
  Li  Li2  1  0.58426665  0.28817744  0.54652304  1
  Li  Li3  1  0.45977848  0.69837769  0.39305364  1
  Li  Li4  1  0.28019440  0.86100305  0.72945743  1
  Li  Li5  1  0.23358856  0.62389509  0.22220125  1
  Mn  Mn6  1  0.67524458  0.14367371  0.97407048  1
  Mn  Mn7  1  0.99688896  0.17144829  0.69529009  1
  Mn  Mn8  1  0.39712805  0.09538597  0.52362579  1
  Mn  Mn9  1  0.94287237  0.56819322  0.79873260  1
  Mn  Mn10  1  0.34498925  0.48354502  0.63776298  1
  Mn  Mn11  1  0.73315174  0.76114364  0.86198687  1
  Mn  Mn12  1  0.28556690  0.23949704  0.13116292  1
  Mn  Mn13  1  0.67181866  0.51512199  0.35446121  1
  Mn  Mn14  1  0.07073941  0.43466381  0.18563437  1
  Mn  Mn15  1  0.60467022  0.89092982  0.47861213  1
  Mn  Mn16  1  0.01549848  0.82249429  0.30221311  1
  Mn  Mn17  1  0.32932354  0.85267586  0.01607250  1
  B  B18  1  0.43350870  0.07225897  0.79035094  1
  B  B19  1  0.23292085  0.25836904  0.86726432  1
  B  B20  1  0.15724186  0.01909253  0.35809250  1
  B  B21  1  0.51244291  0.32194925  0.29919928  1
  B  B22  1  0.90496653  0.59937769  0.52671686  1
  B  B23  1  0.18597892  0.66239551  0.96731596  1
  B  B24  1  0.82719259  0.34536882  0.02345812  1
  B  B25  1  0.10413349  0.40271646  0.47588523  1
  B  B26  1  0.47225489  0.67074393  0.70406921  1
  B  B27  1  0.83943711  0.98469438  0.64285827  1
  B  B28  1  0.75807105  0.73652548  0.13756681  1
  B  B29  1  0.56480950  0.92327353  0.20023027  1
  O  O30  1  0.65756895  0.10416197  0.81585287  1
  O  O31  1  0.02842836  0.21714643  0.83511703  1
  O  O32  1  0.97993729  0.08756957  0.58882977  1
  O  O33  1  0.29248445  0.19488995  0.98699608  1
  O  O34  1  0.37925376  0.14560297  0.66927271  1
  O  O35  1  0.73314747  0.42791476  0.93957961  1
  O  O36  1  0.39314055  0.02903898  0.39901868  1
  O  O37  1  0.93586036  0.31541383  0.55581768  1
  O  O38  1  0.70307138  0.01931163  0.13837573  1
  O  O39  1  0.37081964  0.35481348  0.79063173  1
  O  O40  1  0.99070741  0.64776962  0.90852942  1
  O  O41  1  0.55461795  0.23935630  0.40584635  1
  O  O42  1  0.96175056  0.52906234  0.64392473  1
  O  O43  1  0.08056028  0.10615784  0.27086559  1
  O  O44  1  0.68583645  0.24306180  0.09053061  1
  O  O45  1  0.34055637  0.56479022  0.75146041  1
  O  O46  1  0.34602784  0.42002869  0.50879694  1
  O  O47  1  0.68877760  0.67435596  0.75264889  1
  O  O48  1  0.30747696  0.31305588  0.24269938  1
  O  O49  1  0.65571491  0.58393344  0.50568612  1
  O  O50  1  0.66443001  0.41850883  0.25041660  1
  O  O51  1  0.31871869  0.76850263  0.90650263  1
  O  O52  1  0.93663908  0.89871529  0.71694692  1
  O  O53  1  0.06157879  0.47816969  0.35985850  1
  O  O54  1  0.38400488  0.75840513  0.62812445  1
  O  O55  1  0.07417528  0.35962218  0.04634446  1
  O  O56  1  0.57797263  0.65996794  0.23696936  1
  O  O57  1  0.27467553  0.98383735  0.86953874  1
  O  O58  1  0.08516503  0.67658780  0.43373220  1
  O  O59  1  0.59763999  0.97386492  0.61207944  1
  O  O60  1  0.24774756  0.58652450  0.07004341  1
  O  O61  1  0.61349384  0.84666367  0.31611702  1
  O  O62  1  0.69299041  0.80014264  0.02130851  1
  O  O63  1  0.01665415  0.91997418  0.40905008  1
  O  O64  1  0.00744213  0.75308121  0.15389668  1
  O  O65  1  0.35212928  0.89496408  0.15833717  1
