# generated using pymatgen
data_Li2FeOF3
_symmetry_space_group_name_H-M   'P 1'
_cell_length_a   6.00731569
_cell_length_b   6.03805440
_cell_length_c   5.96813693
_cell_angle_alpha   120.40960625
_cell_angle_beta   90.00000000
_cell_angle_gamma   60.16826090
_symmetry_Int_Tables_number   1
_chemical_formula_structural   Li2FeOF3
_chemical_formula_sum   'Li4 Fe2 O2 F6'
_cell_volume   152.50995466
_cell_formula_units_Z   2
loop_
 _symmetry_equiv_pos_site_id
 _symmetry_equiv_pos_as_xyz
  1  'x, y, z'
loop_
 _atom_site_type_symbol
 _atom_site_label
 _atom_site_symmetry_multiplicity
 _atom_site_fract_x
 _atom_site_fract_y
 _atom_site_fract_z
 _atom_site_occupancy
  Li  Li0  1  0.37601281  0.74797337  0.84313453  1
  Li  Li1  1  0.00000000  0.50000000  0.50000000  1
  Li  Li2  1  0.00000000  0.50000000  0.00000000  1
  Li  Li3  1  0.62398719  0.25202663  0.15686547  1
  Fe  Fe4  1  0.00000000  0.00000000  0.50000000  1
  Fe  Fe5  1  0.50000000  0.00000000  0.50000000  1
  O  O6  1  0.75423543  0.99152815  0.29460258  1
  O  O7  1  0.24576457  0.00847185  0.70539742  1
  F  F8  1  0.75511599  0.98976802  0.74280087  1
  F  F9  1  0.22551877  0.52328564  0.26607508  1
  F  F10  1  0.75119559  0.52328564  0.26607508  1
  F  F11  1  0.24880441  0.47671436  0.73392492  1
  F  F12  1  0.77448123  0.47671436  0.73392492  1
  F  F13  1  0.24488401  0.01023198  0.25719913  1
