# generated using pymatgen
data_Co3(OF2)2
_symmetry_space_group_name_H-M   'P 1'
_cell_length_a   4.71694840
_cell_length_b   7.69167996
_cell_length_c   5.63238887
_cell_angle_alpha   94.27385417
_cell_angle_beta   93.52792590
_cell_angle_gamma   86.68934830
_symmetry_Int_Tables_number   1
_chemical_formula_structural   Co3(OF2)2
_chemical_formula_sum   'Co6 O4 F8'
_cell_volume   203.10537235
_cell_formula_units_Z   2
loop_
 _symmetry_equiv_pos_site_id
 _symmetry_equiv_pos_as_xyz
  1  'x, y, z'
loop_
 _atom_site_type_symbol
 _atom_site_label
 _atom_site_symmetry_multiplicity
 _atom_site_fract_x
 _atom_site_fract_y
 _atom_site_fract_z
 _atom_site_occupancy
  Co  Co0  1  0.51319239  0.00172655  0.51391634  1
  Co  Co1  1  0.48680761  0.33160645  0.81941766  1
  Co  Co2  1  0.50000000  0.66666700  0.16666700  1
  Co  Co3  1  0.00000000  0.66666700  0.66666700  1
  Co  Co4  1  0.01703425  0.32499291  0.34507505  1
  Co  Co5  1  0.98296575  0.00834109  0.98825895  1
  O  O6  1  0.69908822  0.77560093  0.47641981  1
  O  O7  1  0.67908587  0.10783301  0.78863195  1
  O  O8  1  0.30091178  0.55773207  0.85691319  1
  O  O9  1  0.32091413  0.22550099  0.54470105  1
  F  F10  1  0.80617083  0.43475841  0.62822374  1
  F  F11  1  0.80230727  0.76705563  0.96928701  1
  F  F12  1  0.80154953  0.10053198  0.29434970  1
  F  F13  1  0.69836724  0.42356797  0.12097692  1
  F  F14  1  0.30163276  0.90976503  0.21235608  1
  F  F15  1  0.19845047  0.23280202  0.03898330  1
  F  F16  1  0.19382917  0.89857459  0.70510926  1
  F  F17  1  0.19769273  0.56627837  0.36404599  1
