# generated using pymatgen
data_CuH8C2(N2O3)2
_symmetry_space_group_name_H-M   'P 1'
_cell_length_a   7.24808454
_cell_length_b   8.41564643
_cell_length_c   16.46944225
_cell_angle_alpha   84.94144147
_cell_angle_beta   77.28823887
_cell_angle_gamma   64.49235793
_symmetry_Int_Tables_number   1
_chemical_formula_structural   CuH8C2(N2O3)2
_chemical_formula_sum   'Cu4 H32 C8 N16 O24'
_cell_volume   884.42424912
_cell_formula_units_Z   4
loop_
 _symmetry_equiv_pos_site_id
 _symmetry_equiv_pos_as_xyz
  1  'x, y, z'
loop_
 _atom_site_type_symbol
 _atom_site_label
 _atom_site_symmetry_multiplicity
 _atom_site_fract_x
 _atom_site_fract_y
 _atom_site_fract_z
 _atom_site_occupancy
  Cu  Cu0  1  0.90202204  0.90179425  0.10741991  1
  Cu  Cu1  1  0.09797796  0.09820575  0.89258009  1
  Cu  Cu2  1  0.91123619  0.59820575  0.39258009  1
  Cu  Cu3  1  0.08876381  0.40179425  0.60741991  1
  H  H4  1  0.52970072  0.28354461  0.50511494  1
  H  H5  1  0.47029928  0.71645539  0.49488506  1
  H  H6  1  0.31836027  0.21645539  0.99488506  1
  H  H7  1  0.68163973  0.78354461  0.00511494  1
  H  H8  1  0.65396741  0.31276604  0.23284883  1
  H  H9  1  0.34603259  0.68723396  0.76715117  1
  H  H10  1  0.19958228  0.18723396  0.26715117  1
  H  H11  1  0.80041772  0.81276604  0.73284883  1
  H  H12  1  0.65843902  0.25976284  0.33019927  1
  H  H13  1  0.34156098  0.74023716  0.66980073  1
  H  H14  1  0.24840113  0.24023716  0.16980073  1
  H  H15  1  0.75159887  0.75976284  0.83019927  1
  H  H16  1  0.38266141  0.51667015  0.31445476  1
  H  H17  1  0.61733859  0.48332985  0.68554524  1
  H  H18  1  0.21378632  0.98332985  0.18554524  1
  H  H19  1  0.78621368  0.01667015  0.81445476  1
  H  H20  1  0.53361720  0.03471519  0.21202805  1
  H  H21  1  0.46638280  0.96528481  0.78797195  1
  H  H22  1  0.78036045  0.46528481  0.28797195  1
  H  H23  1  0.21963955  0.53471519  0.71202805  1
  H  H24  1  0.48164270  0.70858827  0.40058719  1
  H  H25  1  0.51835730  0.29141173  0.59941281  1
  H  H26  1  0.59081816  0.79141173  0.09941281  1
  H  H27  1  0.40918184  0.20858827  0.90058719  1
  H  H28  1  0.26417910  0.77844267  0.18511066  1
  H  H29  1  0.73582090  0.22155733  0.81488934  1
  H  H30  1  0.22773242  0.72155733  0.31488934  1
  H  H31  1  0.77226758  0.27844267  0.68511066  1
  H  H32  1  0.71917517  0.93076682  0.26678735  1
  H  H33  1  0.28082483  0.06923318  0.73321265  1
  H  H34  1  0.91672934  0.56923318  0.23321265  1
  H  H35  1  0.08327066  0.43076682  0.76678735  1
  C  C36  1  0.75628496  0.96938084  0.42138958  1
  C  C37  1  0.24371504  0.03061916  0.57861042  1
  C  C38  1  0.14705538  0.53061916  0.07861042  1
  C  C39  1  0.85294462  0.46938084  0.92138958  1
  C  C40  1  0.19659734  0.62304394  0.00125361  1
  C  C41  1  0.80340266  0.37695606  0.99874639  1
  C  C42  1  0.82089489  0.87695606  0.49874639  1
  C  C43  1  0.17910511  0.12304394  0.50125361  1
  N  N44  1  0.70105773  0.29500495  0.11923389  1
  N  N45  1  0.29894227  0.70499505  0.88076611  1
  N  N46  1  0.11529658  0.20499505  0.38076611  1
  N  N47  1  0.88470342  0.79500495  0.61923389  1
  N  N48  1  0.10904376  0.79984030  0.00267975  1
  N  N49  1  0.89095624  0.20015970  0.99732025  1
  N  N50  1  0.91156382  0.70015970  0.49732025  1
  N  N51  1  0.08843618  0.29984030  0.50267975  1
  N  N52  1  0.68480834  0.43838945  0.07403203  1
  N  N53  1  0.31519166  0.56161055  0.92596797  1
  N  N54  1  0.19722982  0.06161055  0.42596797  1
  N  N55  1  0.80277018  0.93838945  0.57403203  1
  N  N56  1  0.82491868  0.15169841  0.07304687  1
  N  N57  1  0.17508132  0.84830159  0.92695313  1
  N  N58  1  0.04966395  0.34830159  0.42695313  1
  N  N59  1  0.95033605  0.65169841  0.57304687  1
  O  O60  1  0.67187115  0.13392284  0.41770762  1
  O  O61  1  0.32812885  0.86607716  0.58229238  1
  O  O62  1  0.22350162  0.36607716  0.08229238  1
  O  O63  1  0.77649838  0.63392284  0.91770762  1
  O  O64  1  0.79600454  0.86314335  0.36136494  1
  O  O65  1  0.20399546  0.13685665  0.63863506  1
  O  O66  1  0.02051283  0.63685665  0.13863506  1
  O  O67  1  0.97948717  0.36314335  0.86136494  1
  O  O68  1  0.15752755  0.89656468  0.17979861  1
  O  O69  1  0.84247245  0.10343532  0.82020139  1
  O  O70  1  0.23389085  0.60343532  0.32020139  1
  O  O71  1  0.76610915  0.39656468  0.67979861  1
  O  O72  1  0.63574036  0.35790325  0.28927468  1
  O  O73  1  0.36425964  0.64209675  0.71072532  1
  O  O74  1  0.28291830  0.14209675  0.21072532  1
  O  O75  1  0.71708170  0.85790325  0.78927468  1
  O  O76  1  0.55582896  0.64572204  0.44428840  1
  O  O77  1  0.44417104  0.35427796  0.55571160  1
  O  O78  1  0.64583940  0.85427796  0.05571160  1
  O  O79  1  0.35416060  0.14572204  0.94428840  1
  O  O80  1  0.68446297  0.95198327  0.21051254  1
  O  O81  1  0.31553703  0.04801673  0.78948746  1
  O  O82  1  0.84695878  0.54801673  0.28948746  1
  O  O83  1  0.15304122  0.45198327  0.71051254  1
