# generated using pymatgen
data_Na6V2O7
_symmetry_space_group_name_H-M   'P 1'
_cell_length_a   6.01439429
_cell_length_b   8.44637948
_cell_length_c   8.99401968
_cell_angle_alpha   90.00000000
_cell_angle_beta   91.95823427
_cell_angle_gamma   90.00000000
_symmetry_Int_Tables_number   1
_chemical_formula_structural   Na6V2O7
_chemical_formula_sum   'Na12 V4 O14'
_cell_volume   456.62808283
_cell_formula_units_Z   2
loop_
 _symmetry_equiv_pos_site_id
 _symmetry_equiv_pos_as_xyz
  1  'x, y, z'
loop_
 _atom_site_type_symbol
 _atom_site_label
 _atom_site_symmetry_multiplicity
 _atom_site_fract_x
 _atom_site_fract_y
 _atom_site_fract_z
 _atom_site_occupancy
  Na  Na0  1  0.14583560  0.04567761  0.72048787  1
  Na  Na1  1  0.11997129  0.91552868  0.04910471  1
  Na  Na2  1  0.25185363  0.77916763  0.45961748  1
  Na  Na3  1  0.25411077  0.27442444  0.03678411  1
  Na  Na4  1  0.37362228  0.54033869  0.76878247  1
  Na  Na5  1  0.36624915  0.41698318  0.45028584  1
  Na  Na6  1  0.61997129  0.08447132  0.54910471  1
  Na  Na7  1  0.64583560  0.95432239  0.22048787  1
  Na  Na8  1  0.75185363  0.22083237  0.95961748  1
  Na  Na9  1  0.75411077  0.72557556  0.53678411  1
  Na  Na10  1  0.86624915  0.58301682  0.95028584  1
  Na  Na11  1  0.87362228  0.45966131  0.26878247  1
  V  V12  1  0.07419033  0.09712744  0.36178566  1
  V  V13  1  0.43513774  0.60786668  0.14548448  1
  V  V14  1  0.57419033  0.90287256  0.86178566  1
  V  V15  1  0.93513774  0.39213332  0.64548448  1
  O  O16  1  0.04689051  0.36819490  0.82984141  1
  O  O17  1  0.06843635  0.24347191  0.51808718  1
  O  O18  1  0.06848163  0.56401457  0.55959055  1
  O  O19  1  0.14007126  0.60662774  0.12619171  1
  O  O20  1  0.36545570  0.05162110  0.34955967  1
  O  O21  1  0.40794612  0.05995469  0.93060662  1
  O  O22  1  0.46680665  0.84348685  0.67841723  1
  O  O23  1  0.54689051  0.63180510  0.32984141  1
  O  O24  1  0.56843635  0.75652809  0.01808718  1
  O  O25  1  0.56848163  0.43598543  0.05959055  1
  O  O26  1  0.64007126  0.39337226  0.62619171  1
  O  O27  1  0.86545570  0.94837890  0.84955967  1
  O  O28  1  0.90794612  0.94004531  0.43060662  1
  O  O29  1  0.96680665  0.15651315  0.17841723  1
