# generated using pymatgen
data_Li2Co4O3F8
_symmetry_space_group_name_H-M   'P 1'
_cell_length_a   6.53874439
_cell_length_b   6.84121132
_cell_length_c   5.05438873
_cell_angle_alpha   104.14120429
_cell_angle_beta   96.74081805
_cell_angle_gamma   108.76494275
_symmetry_Int_Tables_number   1
_chemical_formula_structural   Li2Co4O3F8
_chemical_formula_sum   'Li2 Co4 O3 F8'
_cell_volume   202.80864622
_cell_formula_units_Z   1
loop_
 _symmetry_equiv_pos_site_id
 _symmetry_equiv_pos_as_xyz
  1  'x, y, z'
loop_
 _atom_site_type_symbol
 _atom_site_label
 _atom_site_symmetry_multiplicity
 _atom_site_fract_x
 _atom_site_fract_y
 _atom_site_fract_z
 _atom_site_occupancy
  Li  Li0  1  0.18400093  0.40518527  0.67786873  1
  Li  Li1  1  0.81599907  0.59481473  0.32213127  1
  Co  Co2  1  0.24847700  0.96938160  0.90153821  1
  Co  Co3  1  0.37679510  0.77208809  0.34564584  1
  Co  Co4  1  0.62320490  0.22791191  0.65435416  1
  Co  Co5  1  0.75152300  0.03061840  0.09846179  1
  O  O6  1  0.00000000  0.00000000  0.00000000  1
  O  O7  1  0.53604750  0.95621244  0.73815817  1
  O  O8  1  0.46395250  0.04378756  0.26184183  1
  F  F9  1  0.10966399  0.80724989  0.49251476  1
  F  F10  1  0.19904897  0.66728132  0.94571075  1
  F  F11  1  0.29347469  0.49924911  0.37923368  1
  F  F12  1  0.35049768  0.24864278  0.80520335  1
  F  F13  1  0.64950232  0.75135722  0.19479665  1
  F  F14  1  0.70652531  0.50075089  0.62076632  1
  F  F15  1  0.80095103  0.33271868  0.05428925  1
  F  F16  1  0.89033601  0.19275011  0.50748524  1
