# generated using pymatgen
data_Ta2CrNO5
_symmetry_space_group_name_H-M   'P 1'
_cell_length_a   4.74277923
_cell_length_b   4.74277923
_cell_length_c   9.27938665
_cell_angle_alpha   90.00000000
_cell_angle_beta   90.00000000
_cell_angle_gamma   89.54154838
_symmetry_Int_Tables_number   1
_chemical_formula_structural   Ta2CrNO5
_chemical_formula_sum   'Ta4 Cr2 N2 O10'
_cell_volume   208.72342196
_cell_formula_units_Z   2
loop_
 _symmetry_equiv_pos_site_id
 _symmetry_equiv_pos_as_xyz
  1  'x, y, z'
loop_
 _atom_site_type_symbol
 _atom_site_label
 _atom_site_symmetry_multiplicity
 _atom_site_fract_x
 _atom_site_fract_y
 _atom_site_fract_z
 _atom_site_occupancy
  Ta  Ta0  1  0.00000000  0.00000000  0.34355010  1
  Ta  Ta1  1  0.00000000  0.00000000  0.65644990  1
  Ta  Ta2  1  0.50000000  0.50000000  0.16800609  1
  Ta  Ta3  1  0.50000000  0.50000000  0.83199391  1
  Cr  Cr4  1  0.00000000  0.00000000  0.00000000  1
  Cr  Cr5  1  0.50000000  0.50000000  0.50000000  1
  N  N6  1  0.19551193  0.80448807  0.50000000  1
  N  N7  1  0.80448807  0.19551193  0.50000000  1
  O  O8  1  0.19933318  0.80066682  0.83584500  1
  O  O9  1  0.19933318  0.80066682  0.16415500  1
  O  O10  1  0.30450444  0.30450444  0.32657111  1
  O  O11  1  0.30450444  0.30450444  0.67342889  1
  O  O12  1  0.30635292  0.30635292  0.00000000  1
  O  O13  1  0.69364708  0.69364708  0.00000000  1
  O  O14  1  0.69549556  0.69549556  0.32657111  1
  O  O15  1  0.69549556  0.69549556  0.67342889  1
  O  O16  1  0.80066682  0.19933318  0.16415500  1
  O  O17  1  0.80066682  0.19933318  0.83584500  1
