# generated using pymatgen
data_LiCrPH2O5
_symmetry_space_group_name_H-M   'P 1'
_cell_length_a   10.40504570
_cell_length_b   17.28840879
_cell_length_c   5.03216973
_cell_angle_alpha   90.00000000
_cell_angle_beta   90.00000000
_cell_angle_gamma   90.00000000
_symmetry_Int_Tables_number   1
_chemical_formula_structural   LiCrPH2O5
_chemical_formula_sum   'Li8 Cr8 P8 H16 O40'
_cell_volume   905.22032374
_cell_formula_units_Z   8
loop_
 _symmetry_equiv_pos_site_id
 _symmetry_equiv_pos_as_xyz
  1  'x, y, z'
loop_
 _atom_site_type_symbol
 _atom_site_label
 _atom_site_symmetry_multiplicity
 _atom_site_fract_x
 _atom_site_fract_y
 _atom_site_fract_z
 _atom_site_occupancy
  Li  Li0  1  0.17438861  0.49482788  0.46537680  1
  Li  Li1  1  0.17438861  0.99482788  0.53462320  1
  Li  Li2  1  0.39807887  0.24589387  0.91118563  1
  Li  Li3  1  0.39807887  0.74589387  0.08881437  1
  Li  Li4  1  0.67438861  0.00517212  0.46537680  1
  Li  Li5  1  0.67438861  0.50517212  0.53462320  1
  Li  Li6  1  0.89807887  0.75410613  0.08881437  1
  Li  Li7  1  0.89807887  0.25410613  0.91118563  1
  Cr  Cr8  1  0.14641955  0.19100143  0.56031218  1
  Cr  Cr9  1  0.14641955  0.69100143  0.43968782  1
  Cr  Cr10  1  0.42477245  0.44138492  0.87650211  1
  Cr  Cr11  1  0.42477245  0.94138492  0.12349789  1
  Cr  Cr12  1  0.64641955  0.30899857  0.56031218  1
  Cr  Cr13  1  0.64641955  0.80899857  0.43968782  1
  Cr  Cr14  1  0.92477245  0.55861508  0.12349789  1
  Cr  Cr15  1  0.92477245  0.05861508  0.87650211  1
  P  P16  1  0.23273213  0.09107698  0.03018397  1
  P  P17  1  0.23273213  0.59107698  0.96981603  1
  P  P18  1  0.33939767  0.34062408  0.40648997  1
  P  P19  1  0.33939767  0.84062408  0.59351003  1
  P  P20  1  0.73273213  0.40892302  0.03018397  1
  P  P21  1  0.73273213  0.90892302  0.96981603  1
  P  P22  1  0.83939767  0.65937592  0.59351003  1
  P  P23  1  0.83939767  0.15937592  0.40648997  1
  H  H24  1  0.00103188  0.37099290  0.08495740  1
  H  H25  1  0.00103188  0.87099290  0.91504260  1
  H  H26  1  0.05355730  0.38133636  0.63306020  1
  H  H27  1  0.05355730  0.88133636  0.36693980  1
  H  H28  1  0.10971301  0.31039889  0.13734867  1
  H  H29  1  0.10971301  0.81039889  0.86265133  1
  H  H30  1  0.44977788  0.05469987  0.63355093  1
  H  H31  1  0.44977788  0.55469987  0.36644907  1
  H  H32  1  0.50103188  0.12900710  0.08495740  1
  H  H33  1  0.50103188  0.62900710  0.91504260  1
  H  H34  1  0.55355730  0.11866364  0.63306020  1
  H  H35  1  0.55355730  0.61866364  0.36693980  1
  H  H36  1  0.60971301  0.18960111  0.13734867  1
  H  H37  1  0.60971301  0.68960111  0.86265133  1
  H  H38  1  0.94977788  0.44530013  0.63355093  1
  H  H39  1  0.94977788  0.94530013  0.36644907  1
  O  O40  1  0.02437460  0.42688857  0.53217501  1
  O  O41  1  0.02437460  0.92688857  0.46782499  1
  O  O42  1  0.04073826  0.32417164  0.00969658  1
  O  O43  1  0.04073826  0.82417164  0.99030342  1
  O  O44  1  0.12427243  0.04826453  0.87263197  1
  O  O45  1  0.12427243  0.54826453  0.12736803  1
  O  O46  1  0.19441932  0.09349736  0.32663293  1
  O  O47  1  0.19441932  0.59349736  0.67336707  1
  O  O48  1  0.20999982  0.79740055  0.56670422  1
  O  O49  1  0.20999982  0.29740055  0.43329578  1
  O  O50  1  0.24933843  0.17385312  0.90770680  1
  O  O51  1  0.24933843  0.67385312  0.09229320  1
  O  O52  1  0.32334815  0.92412711  0.47518719  1
  O  O53  1  0.32334815  0.42412711  0.52481281  1
  O  O54  1  0.36189934  0.04774202  0.99400367  1
  O  O55  1  0.36189934  0.54774202  0.00599633  1
  O  O56  1  0.37972315  0.34385935  0.11114448  1
  O  O57  1  0.37972315  0.84385935  0.88885552  1
  O  O58  1  0.44642714  0.29743831  0.56685088  1
  O  O59  1  0.44642714  0.79743831  0.43314912  1
  O  O60  1  0.52437460  0.07311143  0.53217501  1
  O  O61  1  0.52437460  0.57311143  0.46782499  1
  O  O62  1  0.54073826  0.17582836  0.00969658  1
  O  O63  1  0.54073826  0.67582836  0.99030342  1
  O  O64  1  0.62427243  0.95173547  0.12736803  1
  O  O65  1  0.62427243  0.45173547  0.87263197  1
  O  O66  1  0.69441932  0.90650264  0.67336707  1
  O  O67  1  0.69441932  0.40650264  0.32663293  1
  O  O68  1  0.70999982  0.20259945  0.43329578  1
  O  O69  1  0.70999982  0.70259945  0.56670422  1
  O  O70  1  0.74933843  0.32614688  0.90770680  1
  O  O71  1  0.74933843  0.82614688  0.09229320  1
  O  O72  1  0.82334815  0.57587289  0.47518719  1
  O  O73  1  0.82334815  0.07587289  0.52481281  1
  O  O74  1  0.86189934  0.45225798  0.99400367  1
  O  O75  1  0.86189934  0.95225798  0.00599633  1
  O  O76  1  0.87972315  0.65614065  0.88885552  1
  O  O77  1  0.87972315  0.15614065  0.11114448  1
  O  O78  1  0.94642714  0.70256169  0.43314912  1
  O  O79  1  0.94642714  0.20256169  0.56685088  1
