# generated using pymatgen
data_DyH13C8N6O13
_symmetry_space_group_name_H-M   'P 1'
_cell_length_a   7.31999393
_cell_length_b   14.03224836
_cell_length_c   17.85713815
_cell_angle_alpha   96.34141142
_cell_angle_beta   101.82715069
_cell_angle_gamma   90.00000000
_symmetry_Int_Tables_number   1
_chemical_formula_structural   DyH13C8N6O13
_chemical_formula_sum   'Dy4 H52 C32 N24 O52'
_cell_volume   1783.80583467
_cell_formula_units_Z   4
loop_
 _symmetry_equiv_pos_site_id
 _symmetry_equiv_pos_as_xyz
  1  'x, y, z'
loop_
 _atom_site_type_symbol
 _atom_site_label
 _atom_site_symmetry_multiplicity
 _atom_site_fract_x
 _atom_site_fract_y
 _atom_site_fract_z
 _atom_site_occupancy
  Dy  Dy0  1  0.68555914  0.27462740  0.66142322  1
  Dy  Dy1  1  0.31444086  0.72537260  0.33857678  1
  Dy  Dy2  1  0.02413592  0.22537260  0.33857678  1
  Dy  Dy3  1  0.97586408  0.77462740  0.66142322  1
  H  H4  1  0.72719989  0.18706508  0.80455985  1
  H  H5  1  0.27280011  0.81293492  0.19544015  1
  H  H6  1  0.92264004  0.31293492  0.19544015  1
  H  H7  1  0.07735996  0.68706508  0.80455985  1
  H  H8  1  0.74329403  0.08634005  0.50270471  1
  H  H9  1  0.25670597  0.91365995  0.49729529  1
  H  H10  1  0.24058932  0.41365995  0.49729529  1
  H  H11  1  0.75941068  0.58634005  0.50270471  1
  H  H12  1  0.77734207  0.14287040  0.00555190  1
  H  H13  1  0.22265793  0.85712960  0.99444810  1
  H  H14  1  0.77179018  0.35712960  0.99444810  1
  H  H15  1  0.22820982  0.64287040  0.00555190  1
  H  H16  1  0.40011164  0.42333749  0.68426657  1
  H  H17  1  0.59988836  0.57666251  0.31573343  1
  H  H18  1  0.71584506  0.07666251  0.31573343  1
  H  H19  1  0.28415494  0.92333749  0.68426657  1
  H  H20  1  0.55256890  0.43830672  0.76404258  1
  H  H21  1  0.44743110  0.56169328  0.23595742  1
  H  H22  1  0.78852631  0.06169328  0.23595742  1
  H  H23  1  0.21147369  0.93830672  0.76404258  1
  H  H24  1  0.33374090  0.08073317  0.30614663  1
  H  H25  1  0.66625910  0.91926683  0.69385337  1
  H  H26  1  0.02759427  0.41926683  0.69385337  1
  H  H27  1  0.97240573  0.58073317  0.30614663  1
  H  H28  1  0.27400821  0.39801764  0.34757325  1
  H  H29  1  0.72599179  0.60198236  0.65242675  1
  H  H30  1  0.92643497  0.10198236  0.65242675  1
  H  H31  1  0.07356503  0.89801764  0.34757325  1
  H  H32  1  0.40693539  0.37430335  0.17154015  1
  H  H33  1  0.59306461  0.62569665  0.82845985  1
  H  H34  1  0.23539524  0.12569665  0.82845985  1
  H  H35  1  0.76460476  0.87430335  0.17154015  1
  H  H36  1  0.36008863  0.26649460  0.18318423  1
  H  H37  1  0.63991137  0.73350540  0.81681577  1
  H  H38  1  0.17690440  0.23350540  0.81681577  1
  H  H39  1  0.82309560  0.76649460  0.18318423  1
  H  H40  1  0.33102968  0.23600674  0.07674633  1
  H  H41  1  0.66897032  0.76399326  0.92325367  1
  H  H42  1  0.25428334  0.26399326  0.92325367  1
  H  H43  1  0.74571666  0.73600674  0.07674633  1
  H  H44  1  0.34129072  0.33133438  0.28114410  1
  H  H45  1  0.65870928  0.66866562  0.71885590  1
  H  H46  1  0.06014662  0.16866562  0.71885590  1
  H  H47  1  0.93985338  0.83133438  0.28114410  1
  H  H48  1  0.23954280  0.11291728  0.22612342  1
  H  H49  1  0.76045720  0.88708272  0.77387658  1
  H  H50  1  0.01341938  0.38708272  0.77387658  1
  H  H51  1  0.98658062  0.61291728  0.22612342  1
  H  H52  1  0.70481084  0.29771559  0.83567812  1
  H  H53  1  0.29518916  0.70228441  0.16432188  1
  H  H54  1  0.86913271  0.20228441  0.16432188  1
  H  H55  1  0.13086729  0.79771559  0.83567812  1
  C  C56  1  0.74795399  0.07451316  0.89997396  1
  C  C57  1  0.25204601  0.92548684  0.10002604  1
  C  C58  1  0.84798003  0.42548684  0.10002604  1
  C  C59  1  0.15201997  0.57451316  0.89997396  1
  C  C60  1  0.26579698  0.14216465  0.50068924  1
  C  C61  1  0.73420302  0.85783535  0.49931076  1
  C  C62  1  0.76510774  0.35783535  0.49931076  1
  C  C63  1  0.23489226  0.64216465  0.50068924  1
  C  C64  1  0.27244921  0.46527518  0.01226864  1
  C  C65  1  0.72755079  0.53472482  0.98773136  1
  C  C66  1  0.26018057  0.03472482  0.98773136  1
  C  C67  1  0.73981943  0.96527518  0.01226864  1
  C  C68  1  0.45157669  0.05361086  0.61793115  1
  C  C69  1  0.54842331  0.94638914  0.38206885  1
  C  C70  1  0.83364554  0.44638914  0.38206885  1
  C  C71  1  0.16635446  0.55361086  0.61793115  1
  C  C72  1  0.26582249  0.01660117  0.06517754  1
  C  C73  1  0.73417751  0.98339883  0.93482246  1
  C  C74  1  0.20064495  0.48339883  0.93482246  1
  C  C75  1  0.79935505  0.51660117  0.06517754  1
  C  C76  1  0.76524787  0.03019951  0.08636483  1
  C  C77  1  0.23475213  0.96980049  0.91363517  1
  C  C78  1  0.67888304  0.46980049  0.91363517  1
  C  C79  1  0.32111696  0.53019951  0.08636483  1
  C  C80  1  0.32363310  0.06458296  0.54184951  1
  C  C81  1  0.67636690  0.93541704  0.45815049  1
  C  C82  1  0.78178359  0.43541704  0.45815049  1
  C  C83  1  0.21821641  0.56458296  0.54184951  1
  C  C84  1  0.29136787  0.24787332  0.51734454  1
  C  C85  1  0.70863213  0.75212668  0.48265546  1
  C  C86  1  0.77402333  0.25212668  0.48265546  1
  C  C87  1  0.22597667  0.74787332  0.51734454  1
  N  N88  1  0.25065813  0.48787372  0.49344861  1
  N  N89  1  0.74934187  0.51212628  0.50655139  1
  N  N90  1  0.75720952  0.01212628  0.50655139  1
  N  N91  1  0.24279048  0.98787372  0.49344861  1
  N  N92  1  0.29316217  0.10141740  0.11006874  1
  N  N93  1  0.70683783  0.89858260  0.88993126  1
  N  N94  1  0.18309343  0.39858260  0.88993126  1
  N  N95  1  0.81690657  0.60141740  0.11006874  1
  N  N96  1  0.30320955  0.16410918  0.06081113  1
  N  N97  1  0.69679045  0.83589082  0.93918887  1
  N  N98  1  0.24239842  0.33589082  0.93918887  1
  N  N99  1  0.75760158  0.66410918  0.06081113  1
  N  N100  1  0.29706673  0.37021250  0.01226848  1
  N  N101  1  0.70293327  0.62978750  0.98773152  1
  N  N102  1  0.28479825  0.12978750  0.98773152  1
  N  N103  1  0.71520175  0.87021250  0.01226848  1
  N  N104  1  0.27398854  0.60693664  0.43154073  1
  N  N105  1  0.72601146  0.39306336  0.56845927  1
  N  N106  1  0.84244782  0.89306336  0.56845927  1
  N  N107  1  0.15755218  0.10693664  0.43154073  1
  N  N108  1  0.28221404  0.51306862  0.42721929  1
  N  N109  1  0.71778596  0.48693138  0.57278071  1
  N  N110  1  0.85499475  0.98693138  0.57278071  1
  N  N111  1  0.14500525  0.01306862  0.42721929  1
  O  O112  1  0.27053796  0.33149980  0.32338026  1
  O  O113  1  0.72946204  0.66850020  0.67661974  1
  O  O114  1  0.94715770  0.16850020  0.67661974  1
  O  O115  1  0.05284230  0.83149980  0.32338026  1
  O  O116  1  0.44801678  0.31986082  0.20177886  1
  O  O117  1  0.55198322  0.68013918  0.79822114  1
  O  O118  1  0.24623792  0.18013918  0.79822114  1
  O  O119  1  0.75376208  0.81986082  0.20177886  1
  O  O120  1  0.73217345  0.25439163  0.79158532  1
  O  O121  1  0.26782655  0.74560837  0.20841468  1
  O  O122  1  0.94058813  0.24560837  0.20841468  1
  O  O123  1  0.05941187  0.75439163  0.79158532  1
  O  O124  1  0.55061092  0.12593671  0.65130699  1
  O  O125  1  0.44938908  0.87406329  0.34869301  1
  O  O126  1  0.89930393  0.37406329  0.34869301  1
  O  O127  1  0.10069607  0.62593671  0.65130699  1
  O  O128  1  0.38312062  0.49348817  0.14732763  1
  O  O129  1  0.61687938  0.50651183  0.85267237  1
  O  O130  1  0.23579299  0.00651183  0.85267237  1
  O  O131  1  0.76420701  0.99348817  0.14732763  1
  O  O132  1  0.51962733  0.40002899  0.71244836  1
  O  O133  1  0.48037267  0.59997101  0.28755164  1
  O  O134  1  0.80717898  0.09997101  0.28755164  1
  O  O135  1  0.19282102  0.90002899  0.71244836  1
  O  O136  1  0.77067495  0.15469748  0.94723714  1
  O  O137  1  0.22932505  0.84530252  0.05276286  1
  O  O138  1  0.82343780  0.34530252  0.05276286  1
  O  O139  1  0.17656220  0.65469748  0.94723714  1
  O  O140  1  0.73759563  0.07353605  0.82998135  1
  O  O141  1  0.26240437  0.92646395  0.17001865  1
  O  O142  1  0.90761427  0.42646395  0.17001865  1
  O  O143  1  0.09238573  0.57353605  0.82998135  1
  O  O144  1  0.73184265  0.20458080  0.53448981  1
  O  O145  1  0.26815735  0.79541920  0.46551019  1
  O  O146  1  0.19735284  0.29541920  0.46551019  1
  O  O147  1  0.80264716  0.70458080  0.53448981  1
  O  O148  1  0.23486988  0.12221435  0.28089930  1
  O  O149  1  0.76513012  0.87778565  0.71910070  1
  O  O150  1  0.95397058  0.37778565  0.71910070  1
  O  O151  1  0.04602942  0.62221435  0.28089930  1
  O  O152  1  0.78595819  0.12004108  0.08201700  1
  O  O153  1  0.21404181  0.87995892  0.91798300  1
  O  O154  1  0.70394119  0.37995892  0.91798300  1
  O  O155  1  0.29605881  0.62004108  0.08201700  1
  O  O156  1  0.54490475  0.02855953  0.35909205  1
  O  O157  1  0.45509525  0.97144047  0.64090795  1
  O  O158  1  0.18581270  0.47144047  0.64090795  1
  O  O159  1  0.81418730  0.52855953  0.35909205  1
  O  O160  1  0.39571813  0.28649554  0.57790636  1
  O  O161  1  0.60428187  0.71350446  0.42209364  1
  O  O162  1  0.81781177  0.21350446  0.42209364  1
  O  O163  1  0.18218823  0.78649554  0.57790636  1
