# generated using pymatgen
data_Li4Mn5(CuO6)2
_symmetry_space_group_name_H-M   'P 1'
_cell_length_a   5.35359482
_cell_length_b   8.80647976
_cell_length_c   9.75844751
_cell_angle_alpha   89.99999928
_cell_angle_beta   97.42877476
_cell_angle_gamma   89.99999947
_symmetry_Int_Tables_number   1
_chemical_formula_structural   Li4Mn5(CuO6)2
_chemical_formula_sum   'Li8 Mn10 Cu4 O24'
_cell_volume   456.21322603
_cell_formula_units_Z   2
loop_
 _symmetry_equiv_pos_site_id
 _symmetry_equiv_pos_as_xyz
  1  'x, y, z'
loop_
 _atom_site_type_symbol
 _atom_site_label
 _atom_site_symmetry_multiplicity
 _atom_site_fract_x
 _atom_site_fract_y
 _atom_site_fract_z
 _atom_site_occupancy
  Li  Li0  1  0.23751392  0.09708479  0.98797624  1
  Li  Li1  1  0.77288500  0.08490210  0.51114030  1
  Li  Li2  1  0.48974001  0.42117809  0.75629209  1
  Li  Li3  1  0.26248608  0.59708479  0.51202376  1
  Li  Li4  1  0.75872540  0.40612987  0.51368526  1
  Li  Li5  1  0.72711500  0.58490210  0.98885970  1
  Li  Li6  1  0.01025999  0.92117809  0.74370791  1
  Li  Li7  1  0.74127460  0.90612987  0.98631474  1
  Mn  Mn8  1  0.98580977  0.07406736  0.24619078  1
  Mn  Mn9  1  0.50730812  0.08403603  0.74765699  1
  Mn  Mn10  1  0.25871285  0.24600649  0.50513334  1
  Mn  Mn11  1  0.01826888  0.41151228  0.25718574  1
  Mn  Mn12  1  0.74221355  0.25518170  0.99485750  1
  Mn  Mn13  1  0.99269188  0.58403603  0.75234301  1
  Mn  Mn14  1  0.51419023  0.57406736  0.25380922  1
  Mn  Mn15  1  0.24128715  0.74600649  0.99486666  1
  Mn  Mn16  1  0.75778645  0.75518170  0.50514250  1
  Mn  Mn17  1  0.48173112  0.91151228  0.24281426  1
  Cu  Cu18  1  0.00605808  0.26199570  0.75690685  1
  Cu  Cu19  1  0.49683435  0.24762566  0.24493096  1
  Cu  Cu20  1  0.00316565  0.74762566  0.25506904  1
  Cu  Cu21  1  0.49394192  0.76199570  0.74309315  1
  O  O22  1  0.15439869  0.11077793  0.64680248  1
  O  O23  1  0.34454437  0.07650985  0.34305871  1
  O  O24  1  0.06514826  0.23407923  0.11996310  1
  O  O25  1  0.64527898  0.08133244  0.13479013  1
  O  O26  1  0.42623656  0.23769845  0.87889238  1
  O  O27  1  0.85226109  0.10216923  0.85853047  1
  O  O28  1  0.10893244  0.42407696  0.64077364  1
  O  O29  1  0.58561123  0.23778493  0.61364407  1
  O  O30  1  0.37181684  0.39934628  0.37966811  1
  O  O31  1  0.92877407  0.25638147  0.38916981  1
  O  O32  1  0.15545563  0.57650985  0.15694129  1
  O  O33  1  0.65142697  0.41572021  0.13827880  1
  O  O34  1  0.34560131  0.61077793  0.85319752  1
  O  O35  1  0.86607232  0.42139496  0.86076665  1
  O  O36  1  0.07376344  0.73769845  0.62110762  1
  O  O37  1  0.64773891  0.60216923  0.64146953  1
  O  O38  1  0.43485174  0.73407923  0.38003690  1
  O  O39  1  0.85472102  0.58133244  0.36520987  1
  O  O40  1  0.12818316  0.89934628  0.12033189  1
  O  O41  1  0.57122593  0.75638147  0.11083019  1
  O  O42  1  0.39106756  0.92407696  0.85922636  1
  O  O43  1  0.91438877  0.73778493  0.88635593  1
  O  O44  1  0.63392768  0.92139496  0.63923335  1
  O  O45  1  0.84857303  0.91572021  0.36172120  1
