# generated using pymatgen
data_Na8NbO6
_symmetry_space_group_name_H-M   'P 1'
_cell_length_a   6.52716237
_cell_length_b   6.52707454
_cell_length_c   13.25362048
_cell_angle_alpha   89.97389200
_cell_angle_beta   90.03247390
_cell_angle_gamma   120.01149124
_symmetry_Int_Tables_number   1
_chemical_formula_structural   Na8NbO6
_chemical_formula_sum   'Na16 Nb2 O12'
_cell_volume   488.94248157
_cell_formula_units_Z   2
loop_
 _symmetry_equiv_pos_site_id
 _symmetry_equiv_pos_as_xyz
  1  'x, y, z'
loop_
 _atom_site_type_symbol
 _atom_site_label
 _atom_site_symmetry_multiplicity
 _atom_site_fract_x
 _atom_site_fract_y
 _atom_site_fract_z
 _atom_site_occupancy
  Na  Na0  1  0.99952119  0.69706929  0.76923457  1
  Na  Na1  1  0.00006557  0.60158901  0.12849893  1
  Na  Na2  1  0.99976276  0.39775936  0.62825519  1
  Na  Na3  1  0.00041842  0.30238457  0.27010979  1
  Na  Na4  1  0.33375675  0.66703830  0.40934728  1
  Na  Na5  1  0.33294554  0.66650446  0.90936736  1
  Na  Na6  1  0.30253808  0.30269562  0.76958067  1
  Na  Na7  1  0.39885755  0.39896596  0.12859726  1
  Na  Na8  1  0.60169450  0.60189228  0.62824373  1
  Na  Na9  1  0.30230324  0.00026356  0.26977529  1
  Na  Na10  1  0.69823644  0.69804701  0.27032247  1
  Na  Na11  1  0.39747420  0.99997582  0.62816541  1
  Na  Na12  1  0.66659521  0.33280044  0.90937591  1
  Na  Na13  1  0.66700338  0.33300998  0.40935612  1
  Na  Na14  1  0.60181504  0.00014242  0.12852361  1
  Na  Na15  1  0.69682306  0.99966797  0.76918042  1
  Nb  Nb16  1  0.00018419  0.00013101  0.99066352  1
  Nb  Nb17  1  0.00015527  0.00000948  0.48905346  1
  O  O18  1  0.99926917  0.71941366  0.95319387  1
  O  O19  1  0.00128763  0.28325662  0.45515223  1
  O  O20  1  0.33364924  0.66703003  0.22269043  1
  O  O21  1  0.00099725  0.00084794  0.13411614  1
  O  O22  1  0.99858140  0.99960928  0.63442852  1
  O  O23  1  0.33283867  0.66656522  0.72331207  1
  O  O24  1  0.28051992  0.28045869  0.95354467  1
  O  O25  1  0.28211869  0.00031005  0.45469472  1
  O  O26  1  0.71786948  0.71685161  0.45524093  1
  O  O27  1  0.66611683  0.33297881  0.72330805  1
  O  O28  1  0.66709101  0.33359462  0.22267679  1
  O  O29  1  0.71930927  0.99913994  0.95325361  1
