# generated using pymatgen
data_Li2Cr(CO3)3
_symmetry_space_group_name_H-M   'P 1'
_cell_length_a   6.01877403
_cell_length_b   6.01877354
_cell_length_c   9.58374177
_cell_angle_alpha   90.00000000
_cell_angle_beta   90.00000000
_cell_angle_gamma   107.21501402
_symmetry_Int_Tables_number   1
_chemical_formula_structural   Li2Cr(CO3)3
_chemical_formula_sum   'Li4 Cr2 C6 O18'
_cell_volume   331.62391413
_cell_formula_units_Z   2
loop_
 _symmetry_equiv_pos_site_id
 _symmetry_equiv_pos_as_xyz
  1  'x, y, z'
loop_
 _atom_site_type_symbol
 _atom_site_label
 _atom_site_symmetry_multiplicity
 _atom_site_fract_x
 _atom_site_fract_y
 _atom_site_fract_z
 _atom_site_occupancy
  Li  Li0  1  0.91715326  0.91715326  0.00000000  1
  Li  Li1  1  0.14796369  0.80735044  0.25000000  1
  Li  Li2  1  0.91715326  0.91715326  0.50000000  1
  Li  Li3  1  0.80735044  0.14796469  0.75000000  1
  Cr  Cr4  1  0.70450981  0.20128749  0.25000000  1
  Cr  Cr5  1  0.20128749  0.70450981  0.75000000  1
  C  C6  1  0.43055203  0.89198987  0.01917479  1
  C  C7  1  0.21509129  0.31038632  0.25000000  1
  C  C8  1  0.43055203  0.89198987  0.48082521  1
  C  C9  1  0.89198987  0.43055203  0.51917479  1
  C  C10  1  0.31038632  0.21509129  0.75000000  1
  C  C11  1  0.89198987  0.43055203  0.98082521  1
  O  O12  1  0.23937240  0.91890951  0.06108437  1
  O  O13  1  0.61470716  0.94776955  0.10001349  1
  O  O14  1  0.80787614  0.45437767  0.10313458  1
  O  O15  1  0.39536351  0.23418747  0.25000000  1
  O  O16  1  0.24508276  0.52516901  0.25000000  1
  O  O17  1  0.01448020  0.14819379  0.25000000  1
  O  O18  1  0.80787614  0.45437767  0.39686542  1
  O  O19  1  0.61470716  0.94776955  0.39998651  1
  O  O20  1  0.23937240  0.91890951  0.43891563  1
  O  O21  1  0.91890951  0.23937240  0.56108437  1
  O  O22  1  0.94776955  0.61470716  0.60001349  1
  O  O23  1  0.45437767  0.80787614  0.60313458  1
  O  O24  1  0.52516901  0.24508276  0.75000000  1
  O  O25  1  0.14819379  0.01448020  0.75000000  1
  O  O26  1  0.23418747  0.39536351  0.75000000  1
  O  O27  1  0.45437767  0.80787614  0.89686542  1
  O  O28  1  0.94776955  0.61470716  0.89998651  1
  O  O29  1  0.91890951  0.23937240  0.93891563  1
