# generated using pymatgen
data_LiReO3
_symmetry_space_group_name_H-M   'P 1'
_cell_length_a   5.42687190
_cell_length_b   5.42687189
_cell_length_c   5.42687190
_cell_angle_alpha   56.53744546
_cell_angle_beta   56.53744543
_cell_angle_gamma   56.53744545
_symmetry_Int_Tables_number   1
_chemical_formula_structural   LiReO3
_chemical_formula_sum   'Li2 Re2 O6'
_cell_volume   103.97122104
_cell_formula_units_Z   2
loop_
 _symmetry_equiv_pos_site_id
 _symmetry_equiv_pos_as_xyz
  1  'x, y, z'
loop_
 _atom_site_type_symbol
 _atom_site_label
 _atom_site_symmetry_multiplicity
 _atom_site_fract_x
 _atom_site_fract_y
 _atom_site_fract_z
 _atom_site_occupancy
  Li  Li0  1  0.78214492  0.78214492  0.78214492  1
  Li  Li1  1  0.28214492  0.28214492  0.28214492  1
  O  O2  1  0.73976921  0.13258005  0.35924260  1
  O  O3  1  0.35924260  0.73976921  0.13258005  1
  O  O4  1  0.85924260  0.63258005  0.23976921  1
  O  O5  1  0.23976921  0.85924260  0.63258005  1
  O  O6  1  0.63258005  0.23976921  0.85924260  1
  O  O7  1  0.13258005  0.35924260  0.73976921  1
  Re  Re8  1  0.49726322  0.49726322  0.49726322  1
  Re  Re9  1  0.99726322  0.99726322  0.99726322  1
