# generated using pymatgen
data_LiCo3(SiO4)2
_symmetry_space_group_name_H-M   'P 1'
_cell_length_a   5.02877537
_cell_length_b   8.81065526
_cell_length_c   13.38341970
_cell_angle_alpha   108.99503900
_cell_angle_beta   81.06547936
_cell_angle_gamma   88.98335625
_symmetry_Int_Tables_number   1
_chemical_formula_structural   LiCo3(SiO4)2
_chemical_formula_sum   'Li3 Co9 Si6 O24'
_cell_volume   552.40160633
_cell_formula_units_Z   3
loop_
 _symmetry_equiv_pos_site_id
 _symmetry_equiv_pos_as_xyz
  1  'x, y, z'
loop_
 _atom_site_type_symbol
 _atom_site_label
 _atom_site_symmetry_multiplicity
 _atom_site_fract_x
 _atom_site_fract_y
 _atom_site_fract_z
 _atom_site_occupancy
  Li  Li0  1  0.38789897  0.38680226  0.31685925  1
  Li  Li1  1  0.48805661  0.88714493  0.14669099  1
  Li  Li2  1  0.71274386  0.65342000  0.63873989  1
  Co  Co3  1  0.26776183  0.78549273  0.50792426  1
  Co  Co4  1  0.27960452  0.13406488  0.66207895  1
  Co  Co5  1  0.21188167  0.54941640  0.81740523  1
  Co  Co6  1  0.91627907  0.40215810  0.15788042  1
  Co  Co7  1  0.99043339  0.98591553  0.00288326  1
  Co  Co8  1  0.68545543  0.07670926  0.81243649  1
  Co  Co9  1  0.61028375  0.47815840  0.96091192  1
  Co  Co10  1  0.87522690  0.29386490  0.46434849  1
  Co  Co11  1  0.95101293  0.87455764  0.31144309  1
  Si  Si12  1  0.03522794  0.68493114  0.06632313  1
  Si  Si13  1  0.47059519  0.20398178  0.05921173  1
  Si  Si14  1  0.18729337  0.85269734  0.74668182  1
  Si  Si15  1  0.40664074  0.06723367  0.40494327  1
  Si  Si16  1  0.83019711  0.58998323  0.40049182  1
  Si  Si17  1  0.75467499  0.35167490  0.71720382  1
  O  O18  1  0.02359269  0.73953268  0.39806746  1
  O  O19  1  0.03446807  0.44823022  0.41126620  1
  O  O20  1  0.09190317  0.09329995  0.38413085  1
  O  O21  1  0.16358039  0.76957393  0.17313736  1
  O  O22  1  0.03488418  0.79643447  0.64169286  1
  O  O23  1  0.33673498  0.03086991  0.03941698  1
  O  O24  1  0.27747905  0.34464286  0.15791211  1
  O  O25  1  0.38327243  0.00425211  0.50981915  1
  O  O26  1  0.53632987  0.24409838  0.42736188  1
  O  O27  1  0.58474503  0.93473513  0.29968230  1
  O  O28  1  0.40228125  0.98647362  0.73195264  1
  O  O29  1  0.28554335  0.60753295  0.96515278  1
  O  O30  1  0.36158598  0.70355900  0.75819014  1
  O  O31  1  0.42463091  0.34179928  0.73515467  1
  O  O32  1  0.58268142  0.65242422  0.50191678  1
  O  O33  1  0.76639109  0.18928009  0.09763448  1
  O  O34  1  0.70202059  0.51139874  0.29084615  1
  O  O35  1  0.83649333  0.81464548  0.04266719  1
  O  O36  1  0.84803723  0.53327147  0.07303221  1
  O  O37  1  0.52692082  0.25288175  0.94906087  1
  O  O38  1  0.85623230  0.40228168  0.61045714  1
  O  O39  1  0.83528596  0.48765953  0.82396970  1
  O  O40  1  0.88700320  0.17503659  0.70799513  1
  O  O41  1  0.95400346  0.94622688  0.85396716  1
