# generated using pymatgen
data_LiMnP2O7
_symmetry_space_group_name_H-M   'P 1'
_cell_length_a   9.75146665
_cell_length_b   9.75416605
_cell_length_c   11.17259597
_cell_angle_alpha   89.82937322
_cell_angle_beta   101.77541051
_cell_angle_gamma   89.77451633
_symmetry_Int_Tables_number   1
_chemical_formula_structural   LiMnP2O7
_chemical_formula_sum   'Li8 Mn8 P16 O56'
_cell_volume   1040.32810639
_cell_formula_units_Z   8
loop_
 _symmetry_equiv_pos_site_id
 _symmetry_equiv_pos_as_xyz
  1  'x, y, z'
loop_
 _atom_site_type_symbol
 _atom_site_label
 _atom_site_symmetry_multiplicity
 _atom_site_fract_x
 _atom_site_fract_y
 _atom_site_fract_z
 _atom_site_occupancy
  Li  Li0  1  0.40643066  0.60852118  0.97383474  1
  Li  Li1  1  0.33843800  0.91468527  0.45993309  1
  Li  Li2  1  0.38888914  0.22203594  0.55050191  1
  Li  Li3  1  0.58583772  0.39514456  0.02649400  1
  Li  Li4  1  0.64802699  0.09391189  0.04643538  1
  Li  Li5  1  0.91544149  0.90213620  0.97452885  1
  Li  Li6  1  0.83940314  0.58014920  0.46526042  1
  Li  Li7  1  0.89088619  0.28390509  0.54907397  1
  Mn  Mn8  1  0.20208611  0.92255260  0.67375242  1
  Mn  Mn9  1  0.25495787  0.20933575  0.83015778  1
  Mn  Mn10  1  0.22118078  0.72373086  0.16682830  1
  Mn  Mn11  1  0.30479090  0.42915186  0.33022411  1
  Mn  Mn12  1  0.70358247  0.57321204  0.67818638  1
  Mn  Mn13  1  0.77433638  0.27900164  0.83623412  1
  Mn  Mn14  1  0.72962197  0.78460730  0.16975520  1
  Mn  Mn15  1  0.80690776  0.07112461  0.33408541  1
  P  P16  1  0.02682187  0.44587158  0.75327946  1
  P  P17  1  0.11419396  0.71199378  0.88358557  1
  P  P18  1  0.06408215  0.92985630  0.24323519  1
  P  P19  1  0.13104936  0.15263404  0.42514009  1
  P  P20  1  0.38040495  0.64043671  0.57249881  1
  P  P21  1  0.43681377  0.42477349  0.76004435  1
  P  P22  1  0.52398634  0.05522575  0.75646614  1
  P  P23  1  0.37692229  0.21035650  0.11536825  1
  P  P24  1  0.61678434  0.79142694  0.88676784  1
  P  P25  1  0.46766091  0.93977731  0.24153993  1
  P  P26  1  0.56085757  0.56829224  0.24155719  1
  P  P27  1  0.63107853  0.34502027  0.42536769  1
  P  P28  1  0.87872573  0.85611438  0.57325304  1
  P  P29  1  0.93071052  0.07519336  0.75789070  1
  P  P30  1  0.88764892  0.28772034  0.11458399  1
  P  P31  1  0.96785912  0.56042599  0.24111646  1
  O  O32  1  0.02013637  0.41933015  0.62127478  1
  O  O33  1  0.03605706  0.85166139  0.56894120  1
  O  O34  1  0.07958769  0.08742651  0.73298753  1
  O  O35  1  0.11334053  0.34476976  0.84599563  1
  O  O36  1  0.09991609  0.59123990  0.78358554  1
  O  O37  1  0.18685427  0.82591393  0.82278301  1
  O  O38  1  0.22170409  0.65843680  0.99859875  1
  O  O39  1  0.02212945  0.25845111  0.07906370  1
  O  O40  1  0.12173389  0.07591120  0.29532393  1
  O  O41  1  0.06624713  0.91641675  0.11012055  1
  O  O42  1  0.11613558  0.55850264  0.20658907  1
  O  O43  1  0.20357783  0.28753307  0.41054375  1
  O  O44  1  0.17127151  0.82209880  0.31085682  1
  O  O45  1  0.22603066  0.06226167  0.52338114  1
  O  O46  1  0.29544019  0.55941016  0.46577180  1
  O  O47  1  0.33876985  0.30677691  0.70192779  1
  O  O48  1  0.32418535  0.78389597  0.58523034  1
  O  O49  1  0.36946818  0.04378123  0.78608432  1
  O  O50  1  0.36789336  0.56411310  0.69785969  1
  O  O51  1  0.43303864  0.43584937  0.89353820  1
  O  O52  1  0.47979616  0.76504612  0.92082277  1
  O  O53  1  0.27331770  0.15969173  0.00105735  1
  O  O54  1  0.31754545  0.32973462  0.17989629  1
  O  O55  1  0.39455419  0.08789513  0.21494402  1
  O  O56  1  0.41357859  0.58240612  0.27282067  1
  O  O57  1  0.37849817  0.83923649  0.15149043  1
  O  O58  1  0.52137236  0.09006752  0.62669374  1
  O  O59  1  0.48202766  0.33326387  0.44409264  1
  O  O60  1  0.53966078  0.64378688  0.57082830  1
  O  O61  1  0.47977612  0.91393437  0.37376456  1
  O  O62  1  0.61185386  0.14838094  0.85593225  1
  O  O63  1  0.58444091  0.40936001  0.73099867  1
  O  O64  1  0.59443308  0.90673937  0.77991896  1
  O  O65  1  0.68641978  0.67396930  0.83083437  1
  O  O66  1  0.72257931  0.85891977  0.99874994  1
  O  O67  1  0.52102378  0.23356116  0.08836834  1
  O  O68  1  0.56018485  0.56482713  0.10696847  1
  O  O69  1  0.62465425  0.42431746  0.29665297  1
  O  O70  1  0.61534540  0.94938748  0.20068596  1
  O  O71  1  0.69987757  0.20779392  0.40852555  1
  O  O72  1  0.66518543  0.68052535  0.30151614  1
  O  O73  1  0.72828253  0.43183706  0.52239144  1
  O  O74  1  0.79305592  0.93673153  0.46543649  1
  O  O75  1  0.83554630  0.19493700  0.69406801  1
  O  O76  1  0.82218533  0.71320698  0.58842061  1
  O  O77  1  0.87320032  0.45668886  0.78526078  1
  O  O78  1  0.91215860  0.07607636  0.88853278  1
  O  O79  1  0.86594719  0.93509646  0.69749622  1
  O  O80  1  0.97464601  0.74261286  0.91059061  1
  O  O81  1  0.76931416  0.33725577  0.00259632  1
  O  O82  1  0.81535312  0.16992403  0.17609696  1
  O  O83  1  0.89982255  0.40973683  0.21336523  1
  O  O84  1  0.87386202  0.65852355  0.14835813  1
  O  O85  1  0.91330566  0.91887963  0.27134168  1
  O  O86  1  0.98224501  0.16754550  0.44468703  1
  O  O87  1  0.97148827  0.58646246  0.37207702  1
