# generated using pymatgen
data_Li2Mn3(BO3)3
_symmetry_space_group_name_H-M   'P 1'
_cell_length_a   8.28046805
_cell_length_b   8.26885100
_cell_length_c   12.71407818
_cell_angle_alpha   90.00000000
_cell_angle_beta   90.00000000
_cell_angle_gamma   60.19065774
_symmetry_Int_Tables_number   1
_chemical_formula_structural   Li2Mn3(BO3)3
_chemical_formula_sum   'Li8 Mn12 B12 O36'
_cell_volume   755.34737331
_cell_formula_units_Z   4
loop_
 _symmetry_equiv_pos_site_id
 _symmetry_equiv_pos_as_xyz
  1  'x, y, z'
loop_
 _atom_site_type_symbol
 _atom_site_label
 _atom_site_symmetry_multiplicity
 _atom_site_fract_x
 _atom_site_fract_y
 _atom_site_fract_z
 _atom_site_occupancy
  Li  Li0  1  0.27798693  0.70301313  0.12500000  1
  Li  Li1  1  0.27720062  0.69994648  0.62500000  1
  Li  Li2  1  0.02186154  0.27928224  0.12500000  1
  Li  Li3  1  0.01821898  0.27978544  0.37344898  1
  Li  Li4  1  0.01821898  0.27978544  0.87655102  1
  Li  Li5  1  0.70026700  0.02161650  0.37621147  1
  Li  Li6  1  0.70101531  0.01704995  0.62500000  1
  Li  Li7  1  0.70026700  0.02161650  0.87378853  1
  Mn  Mn8  1  0.38267792  0.98083773  0.00015257  1
  Mn  Mn9  1  0.38267792  0.98083773  0.24984743  1
  Mn  Mn10  1  0.36022903  0.98873309  0.49946780  1
  Mn  Mn11  1  0.36022903  0.98873309  0.75053220  1
  Mn  Mn12  1  0.63145170  0.37061317  0.99943886  1
  Mn  Mn13  1  0.63145170  0.37061317  0.25056114  1
  Mn  Mn14  1  0.63910312  0.37945713  0.49963952  1
  Mn  Mn15  1  0.63910312  0.37945713  0.75036048  1
  Mn  Mn16  1  0.99673078  0.63046395  0.50017140  1
  Mn  Mn17  1  0.98992161  0.64973214  0.00095619  1
  Mn  Mn18  1  0.98992161  0.64973214  0.24904381  1
  Mn  Mn19  1  0.99673078  0.63046395  0.74982860  1
  B  B20  1  0.99168604  0.00057692  0.49961940  1
  B  B21  1  0.00246448  0.00623767  0.99902465  1
  B  B22  1  0.00246448  0.00623767  0.25097535  1
  B  B23  1  0.99168604  0.00057692  0.75038060  1
  B  B24  1  0.33768777  0.32740876  0.87507903  1
  B  B25  1  0.33671984  0.33481448  0.62500000  1
  B  B26  1  0.33768777  0.32740876  0.37492097  1
  B  B27  1  0.32439966  0.33229073  0.12500000  1
  B  B28  1  0.67355441  0.66939020  0.37526412  1
  B  B29  1  0.66886985  0.65772311  0.12500000  1
  B  B30  1  0.66032467  0.66956258  0.62500000  1
  B  B31  1  0.67355441  0.66939020  0.87473588  1
  O  O32  1  0.10245756  0.81602824  0.24061135  1
  O  O33  1  0.09354598  0.80958423  0.73959737  1
  O  O34  1  0.10245756  0.81602824  0.00938865  1
  O  O35  1  0.09354598  0.80958423  0.51040263  1
  O  O36  1  0.47387383  0.77654001  0.12500000  1
  O  O37  1  0.46687074  0.78471291  0.62500000  1
  O  O38  1  0.48391746  0.78498149  0.36940393  1
  O  O39  1  0.48391746  0.78498149  0.88059607  1
  O  O40  1  0.13375741  0.44953051  0.12500000  1
  O  O41  1  0.14670742  0.44137146  0.87579120  1
  O  O42  1  0.14670742  0.44137146  0.37420880  1
  O  O43  1  0.14703740  0.45901966  0.62500000  1
  O  O44  1  0.08174213  0.10056441  0.48636596  1
  O  O45  1  0.09191820  0.11176022  0.00262952  1
  O  O46  1  0.09191820  0.11176022  0.24737048  1
  O  O47  1  0.08174213  0.10056441  0.76363404  1
  O  O48  1  0.46013734  0.39507812  0.87178358  1
  O  O49  1  0.45300823  0.41178035  0.62500000  1
  O  O50  1  0.46013734  0.39507812  0.37821642  1
  O  O51  1  0.43943405  0.40940529  0.12500000  1
  O  O52  1  0.78318191  0.73148648  0.12500000  1
  O  O53  1  0.79171711  0.74516034  0.37877742  1
  O  O54  1  0.79171711  0.74516034  0.87122258  1
  O  O55  1  0.77735667  0.74406973  0.62500000  1
  O  O56  1  0.74054033  0.46431114  0.12500000  1
  O  O57  1  0.74853712  0.47694742  0.37767765  1
  O  O58  1  0.73369257  0.47788276  0.62500000  1
  O  O59  1  0.74853712  0.47694742  0.87232235  1
  O  O60  1  0.39289862  0.14096289  0.12500000  1
  O  O61  1  0.41023645  0.14454915  0.62500000  1
  O  O62  1  0.41386435  0.13431701  0.87755068  1
  O  O63  1  0.41386435  0.13431701  0.37244932  1
  O  O64  1  0.81208419  0.09543872  0.98490422  1
  O  O65  1  0.81208419  0.09543872  0.26509578  1
  O  O66  1  0.79746799  0.08989184  0.50227303  1
  O  O67  1  0.79746799  0.08989184  0.74772697  1
