# generated using pymatgen
data_Fe4O3F5
_symmetry_space_group_name_H-M   'P 1'
_cell_length_a   4.78052105
_cell_length_b   7.85885231
_cell_length_c   7.83918632
_cell_angle_alpha   75.29282447
_cell_angle_beta   90.60114002
_cell_angle_gamma   89.38064027
_symmetry_Int_Tables_number   1
_chemical_formula_structural   Fe4O3F5
_chemical_formula_sum   'Fe8 O6 F10'
_cell_volume   284.82082405
_cell_formula_units_Z   2
loop_
 _symmetry_equiv_pos_site_id
 _symmetry_equiv_pos_as_xyz
  1  'x, y, z'
loop_
 _atom_site_type_symbol
 _atom_site_label
 _atom_site_symmetry_multiplicity
 _atom_site_fract_x
 _atom_site_fract_y
 _atom_site_fract_z
 _atom_site_occupancy
  Fe  Fe0  1  0.46072346  0.11608467  0.63391942  1
  Fe  Fe1  1  0.49490424  0.38484753  0.86615824  1
  Fe  Fe2  1  0.56167520  0.87040712  0.37750634  1
  Fe  Fe3  1  0.52989175  0.60333351  0.14637486  1
  Fe  Fe4  1  0.98791607  0.78275555  0.73558661  1
  Fe  Fe5  1  0.01299572  0.49508171  0.50492447  1
  Fe  Fe6  1  0.95560508  0.24328395  0.23711920  1
  Fe  Fe7  1  0.00921162  0.99431645  0.00565586  1
  O  O8  1  0.80422847  0.02874065  0.22111652  1
  O  O9  1  0.68520882  0.91135671  0.59830809  1
  O  O10  1  0.70342246  0.64463527  0.35168136  1
  O  O11  1  0.68783602  0.40297268  0.08657890  1
  O  O12  1  0.31922702  0.34637800  0.65782264  1
  O  O13  1  0.19338574  0.97047612  0.77971923  1
  F  F14  1  0.79726186  0.26579164  0.46551466  1
  F  F15  1  0.78673841  0.76579169  0.97208716  1
  F  F16  1  0.80435426  0.54096105  0.73493239  1
  F  F17  1  0.69896410  0.15740392  0.84663288  1
  F  F18  1  0.29255890  0.60247215  0.90142192  1
  F  F19  1  0.31443273  0.83361769  0.16160321  1
  F  F20  1  0.29471497  0.10388812  0.39435399  1
  F  F21  1  0.20553224  0.23499686  0.02704803  1
  F  F22  1  0.20298439  0.73786996  0.53180806  1
  F  F23  1  0.19622845  0.46253701  0.26212496  1
