# generated using pymatgen
data_Na(FeO2)2
_symmetry_space_group_name_H-M   'P 1'
_cell_length_a   5.11409935
_cell_length_b   5.89984389
_cell_length_c   11.50132964
_cell_angle_alpha   89.86573442
_cell_angle_beta   90.05069153
_cell_angle_gamma   89.92382163
_symmetry_Int_Tables_number   1
_chemical_formula_structural   Na(FeO2)2
_chemical_formula_sum   'Na4 Fe8 O16'
_cell_volume   347.02118213
_cell_formula_units_Z   4
loop_
 _symmetry_equiv_pos_site_id
 _symmetry_equiv_pos_as_xyz
  1  'x, y, z'
loop_
 _atom_site_type_symbol
 _atom_site_label
 _atom_site_symmetry_multiplicity
 _atom_site_fract_x
 _atom_site_fract_y
 _atom_site_fract_z
 _atom_site_occupancy
  Na  Na0  1  0.03259815  0.75055567  0.25048413  1
  Na  Na1  1  0.35706716  0.75128954  0.74932427  1
  Na  Na2  1  0.64329941  0.24836362  0.24995395  1
  Na  Na3  1  0.97158690  0.24987147  0.74969027  1
  Fe  Fe4  1  0.00192851  0.25269824  0.00429940  1
  Fe  Fe5  1  0.99734533  0.75147110  0.99342563  1
  Fe  Fe6  1  0.00209056  0.24958271  0.49290674  1
  Fe  Fe7  1  0.99783896  0.75034270  0.50670626  1
  Fe  Fe8  1  0.50005204  0.49757799  0.00027790  1
  Fe  Fe9  1  0.49921526  -0.00094798  0.00109613  1
  Fe  Fe10  1  0.49999876  -0.00027416  0.49995743  1
  Fe  Fe11  1  0.50007027  0.50039715  0.50002148  1
  O  O12  1  0.17911804  0.00328519  0.59178196  1
  O  O13  1  0.15572635  0.01586007  0.90788910  1
  O  O14  1  0.16295673  0.49874823  0.59511163  1
  O  O15  1  0.17306697  0.48914012  0.91031461  1
  O  O16  1  0.33512751  0.26146170  0.08858331  1
  O  O17  1  0.34432430  0.23477938  0.40938538  1
  O  O18  1  0.33216620  0.73983841  0.08752754  1
  O  O19  1  0.33161031  0.76161239  0.41247359  1
  O  O20  1  0.66927161  0.23868149  0.58719860  1
  O  O21  1  0.68042604  0.25771526  0.91511713  1
  O  O22  1  0.65554170  0.76562967  0.59088214  1
  O  O23  1  0.65024036  0.73641443  0.90973027  1
  O  O24  1  0.82077614  0.99601981  0.40808253  1
  O  O25  1  0.83719423  0.50210273  0.40480631  1
  O  O26  1  0.84255996  0.00919010  0.09278396  1
  O  O27  1  0.82680226  0.48859295  0.09018835  1
