# generated using pymatgen
data_Ta2CrNO5
_symmetry_space_group_name_H-M   'P 1'
_cell_length_a   4.76481456
_cell_length_b   4.76220043
_cell_length_c   9.25268472
_cell_angle_alpha   90.05687719
_cell_angle_beta   90.19856812
_cell_angle_gamma   89.72709611
_symmetry_Int_Tables_number   1
_chemical_formula_structural   Ta2CrNO5
_chemical_formula_sum   'Ta4 Cr2 N2 O10'
_cell_volume   209.94894497
_cell_formula_units_Z   2
loop_
 _symmetry_equiv_pos_site_id
 _symmetry_equiv_pos_as_xyz
  1  'x, y, z'
loop_
 _atom_site_type_symbol
 _atom_site_label
 _atom_site_symmetry_multiplicity
 _atom_site_fract_x
 _atom_site_fract_y
 _atom_site_fract_z
 _atom_site_occupancy
  Ta  Ta0  1  0.98960153  0.00928287  0.33967458  1
  Ta  Ta1  1  0.97713402  0.99877851  0.66468571  1
  Ta  Ta2  1  0.49224479  0.50160815  0.16401188  1
  Ta  Ta3  1  0.50247095  0.51149183  0.82205242  1
  Cr  Cr4  1  0.00331319  0.99788488  0.00144801  1
  Cr  Cr5  1  0.50221603  0.49850546  0.50050221  1
  N  N6  1  0.70000359  0.69570986  0.66927836  1
  N  N7  1  0.80676683  0.19624103  0.49852961  1
  O  O8  1  0.19659035  0.80767931  0.49871684  1
  O  O9  1  0.20270977  0.80398445  0.83594207  1
  O  O10  1  0.20081215  0.79863991  0.16660098  1
  O  O11  1  0.30482918  0.30095280  0.32688173  1
  O  O12  1  0.30642731  0.30222224  0.67165234  1
  O  O13  1  0.30675390  0.30032057  0.00578828  1
  O  O14  1  0.69648106  0.69029130  0.00250568  1
  O  O15  1  0.69835250  0.69492477  0.32803651  1
  O  O16  1  0.80530287  0.19432031  0.16852684  1
  O  O17  1  0.80798897  0.19716075  0.83516496  1
