# generated using pymatgen
data_Mn6O7F5
_symmetry_space_group_name_H-M   'P 1'
_cell_length_a   4.55869871
_cell_length_b   5.67591625
_cell_length_c   15.37155932
_cell_angle_alpha   90.00000000
_cell_angle_beta   89.86997700
_cell_angle_gamma   90.00000000
_symmetry_Int_Tables_number   1
_chemical_formula_structural   Mn6O7F5
_chemical_formula_sum   'Mn12 O14 F10'
_cell_volume   397.73487745
_cell_formula_units_Z   2
loop_
 _symmetry_equiv_pos_site_id
 _symmetry_equiv_pos_as_xyz
  1  'x, y, z'
loop_
 _atom_site_type_symbol
 _atom_site_label
 _atom_site_symmetry_multiplicity
 _atom_site_fract_x
 _atom_site_fract_y
 _atom_site_fract_z
 _atom_site_occupancy
  Mn  Mn0  1  0.01440795  0.15074153  0.40741112  1
  Mn  Mn1  1  0.02973791  0.83947949  0.24370817  1
  Mn  Mn2  1  0.02973791  0.16052051  0.74370817  1
  Mn  Mn3  1  0.00166470  0.84635439  0.57625972  1
  Mn  Mn4  1  0.01440795  0.84925847  0.90741112  1
  Mn  Mn5  1  0.00166470  0.15364561  0.07625972  1
  Mn  Mn6  1  0.51251025  0.35110292  0.59112328  1
  Mn  Mn7  1  0.49926588  0.34891100  0.92091225  1
  Mn  Mn8  1  0.49926588  0.65108900  0.42091225  1
  Mn  Mn9  1  0.50553399  0.36430419  0.26074098  1
  Mn  Mn10  1  0.51251025  0.64889708  0.09112328  1
  Mn  Mn11  1  0.50553399  0.63569581  0.76074098  1
  O  O12  1  0.24069042  0.11329464  0.30188677  1
  O  O13  1  0.22104191  0.11741873  0.63465613  1
  O  O14  1  0.21912672  0.11248700  0.96751809  1
  O  O15  1  0.22104191  0.88258127  0.13465613  1
  O  O16  1  0.21912672  0.88751300  0.46751809  1
  O  O17  1  0.24069042  0.88670536  0.80188677  1
  O  O18  1  0.28151233  0.60208022  0.31335183  1
  O  O19  1  0.28151233  0.39791978  0.81335183  1
  O  O20  1  0.72686401  0.38133540  0.36320715  1
  O  O21  1  0.71734321  0.61888590  0.53052522  1
  O  O22  1  0.72686401  0.61866460  0.86320715  1
  O  O23  1  0.71734321  0.38111410  0.03052522  1
  O  O24  1  0.73287870  0.61054443  0.19722585  1
  O  O25  1  0.73287870  0.38945557  0.69722585  1
  F  F26  1  0.26001488  0.37940557  0.15388384  1
  F  F27  1  0.25356772  0.38302583  0.48699867  1
  F  F28  1  0.25356772  0.61697417  0.98699867  1
  F  F29  1  0.26001488  0.62059443  0.65388384  1
  F  F30  1  0.75471800  0.11821977  0.51321689  1
  F  F31  1  0.77444813  0.87557404  0.34740658  1
  F  F32  1  0.75471800  0.88178023  0.01321689  1
  F  F33  1  0.75467128  0.12748781  0.18996745  1
  F  F34  1  0.77444813  0.12442596  0.84740658  1
  F  F35  1  0.75467128  0.87251219  0.68996745  1
