# generated using pymatgen
data_CuH8C2(N2O3)2
_symmetry_space_group_name_H-M   'P 1'
_cell_length_a   7.34011774
_cell_length_b   8.61816074
_cell_length_c   16.47964041
_cell_angle_alpha   84.10301271
_cell_angle_beta   77.13218017
_cell_angle_gamma   64.79541142
_symmetry_Int_Tables_number   1
_chemical_formula_structural   CuH8C2(N2O3)2
_chemical_formula_sum   'Cu4 H32 C8 N16 O24'
_cell_volume   919.49877138
_cell_formula_units_Z   4
loop_
 _symmetry_equiv_pos_site_id
 _symmetry_equiv_pos_as_xyz
  1  'x, y, z'
loop_
 _atom_site_type_symbol
 _atom_site_label
 _atom_site_symmetry_multiplicity
 _atom_site_fract_x
 _atom_site_fract_y
 _atom_site_fract_z
 _atom_site_occupancy
  Cu  Cu0  1  0.91239501  0.90139706  0.11034723  1
  Cu  Cu1  1  0.08760499  0.09860294  0.88965277  1
  Cu  Cu2  1  0.92413930  0.59860294  0.38965277  1
  Cu  Cu3  1  0.07586070  0.40139706  0.61034723  1
  H  H4  1  0.25877735  0.78044273  0.18005401  1
  H  H5  1  0.74122265  0.21955727  0.81994599  1
  H  H6  1  0.21927409  0.71955727  0.31994599  1
  H  H7  1  0.78072591  0.28044273  0.68005401  1
  H  H8  1  0.54209111  0.02092632  0.20780990  1
  H  H9  1  0.45790889  0.97907368  0.79219010  1
  H  H10  1  0.77082733  0.47907368  0.29219010  1
  H  H11  1  0.22917267  0.52092632  0.70780990  1
  H  H12  1  0.55348674  0.26498165  0.51166492  1
  H  H13  1  0.44651326  0.73501835  0.48833508  1
  H  H14  1  0.33013331  0.23501835  0.98833508  1
  H  H15  1  0.66986669  0.76498165  0.01166492  1
  H  H16  1  0.59200548  0.54195374  0.48281181  1
  H  H17  1  0.40799452  0.45804626  0.51718819  1
  H  H18  1  0.61677103  0.95804626  0.01718819  1
  H  H19  1  0.38322897  0.04195374  0.98281181  1
  H  H20  1  0.64167752  0.26245732  0.32941456  1
  H  H21  1  0.35832248  0.73754268  0.67058544  1
  H  H22  1  0.23354940  0.23754268  0.17058544  1
  H  H23  1  0.76645060  0.76245732  0.82941456  1
  H  H24  1  0.36601039  0.52162540  0.31392457  1
  H  H25  1  0.63398961  0.47837460  0.68607543  1
  H  H26  1  0.20156036  0.97837460  0.18607543  1
  H  H27  1  0.79843964  0.02162540  0.81392457  1
  H  H28  1  0.71533331  0.92535281  0.26671578  1
  H  H29  1  0.28466669  0.07464719  0.73328422  1
  H  H30  1  0.90740190  0.57464719  0.23328422  1
  H  H31  1  0.09259810  0.42535281  0.76671578  1
  H  H32  1  0.64463162  0.31713803  0.23420320  1
  H  H33  1  0.35536838  0.68286197  0.76579680  1
  H  H34  1  0.19597286  0.18286197  0.26579680  1
  H  H35  1  0.80402714  0.81713803  0.73420320  1
  C  C36  1  0.75086184  0.95964584  0.42101545  1
  C  C37  1  0.24913816  0.04035416  0.57898455  1
  C  C38  1  0.13152313  0.54035416  0.07898455  1
  C  C39  1  0.86847687  0.45964584  0.92101545  1
  C  C40  1  0.18580238  0.63239501  0.00258797  1
  C  C41  1  0.81419762  0.36760499  0.99741203  1
  C  C42  1  0.82078536  0.86760499  0.49741203  1
  C  C43  1  0.17921464  0.13239501  0.50258797  1
  N  N44  1  0.69379227  0.42511720  0.07165986  1
  N  N45  1  0.30620773  0.57488280  0.92834014  1
  N  N46  1  0.19056933  0.07488280  0.42834014  1
  N  N47  1  0.80943067  0.92511720  0.57165986  1
  N  N48  1  0.10058673  0.80432429  0.00396103  1
  N  N49  1  0.89941327  0.19567571  0.99603897  1
  N  N50  1  0.90887205  0.69567571  0.49603897  1
  N  N51  1  0.09112795  0.30432429  0.50396103  1
  N  N52  1  0.82985009  0.14608522  0.07129555  1
  N  N53  1  0.17014991  0.85391478  0.92870445  1
  N  N54  1  0.04723085  0.35391478  0.42870445  1
  N  N55  1  0.95276915  0.64608522  0.57129555  1
  N  N56  1  0.70638544  0.28483136  0.11688024  1
  N  N57  1  0.29361456  0.71516864  0.88311976  1
  N  N58  1  0.10809704  0.21516864  0.38311976  1
  N  N59  1  0.89190296  0.78483136  0.61688024  1
  O  O60  1  0.62017311  0.36174580  0.29058162  1
  O  O61  1  0.37982689  0.63825420  0.70941838  1
  O  O62  1  0.27250053  0.13825420  0.20941838  1
  O  O63  1  0.72749947  0.86174580  0.79058162  1
  O  O64  1  0.78884375  0.85654237  0.36165173  1
  O  O65  1  0.21115625  0.14345763  0.63834827  1
  O  O66  1  0.00703785  0.64345763  0.13834827  1
  O  O67  1  0.99296215  0.35654237  0.86165173  1
  O  O68  1  0.52018193  0.63920929  0.44865440  1
  O  O69  1  0.47981807  0.36079071  0.55134560  1
  O  O70  1  0.60804561  0.86079071  0.05134560  1
  O  O71  1  0.39195439  0.13920929  0.94865440  1
  O  O72  1  0.14411663  0.89299919  0.18498979  1
  O  O73  1  0.85588337  0.10700081  0.81501021  1
  O  O74  1  0.22210561  0.60700081  0.31501021  1
  O  O75  1  0.77789439  0.39299919  0.68498979  1
  O  O76  1  0.69053271  0.96877372  0.21002599  1
  O  O77  1  0.30946729  0.03122628  0.78997401  1
  O  O78  1  0.86933242  0.53122628  0.28997401  1
  O  O79  1  0.13066758  0.46877372  0.71002599  1
  O  O80  1  0.66373984  0.11964632  0.41777543  1
  O  O81  1  0.33626016  0.88035368  0.58222457  1
  O  O82  1  0.20116159  0.38035368  0.08222457  1
  O  O83  1  0.79883841  0.61964632  0.91777543  1
