# generated using pymatgen
data_LiCr3(P3O10)2
_symmetry_space_group_name_H-M   'P 1'
_cell_length_a   8.53928863
_cell_length_b   8.53928863
_cell_length_c   12.59326712
_cell_angle_alpha   90.00000000
_cell_angle_beta   90.00000000
_cell_angle_gamma   73.35480547
_symmetry_Int_Tables_number   1
_chemical_formula_structural   LiCr3(P3O10)2
_chemical_formula_sum   'Li2 Cr6 P12 O40'
_cell_volume   879.81477021
_cell_formula_units_Z   2
loop_
 _symmetry_equiv_pos_site_id
 _symmetry_equiv_pos_as_xyz
  1  'x, y, z'
loop_
 _atom_site_type_symbol
 _atom_site_label
 _atom_site_symmetry_multiplicity
 _atom_site_fract_x
 _atom_site_fract_y
 _atom_site_fract_z
 _atom_site_occupancy
  Li  Li0  1  0.10745739  0.89254261  0.00000000  1
  Li  Li1  1  0.60745739  0.39254261  0.50000000  1
  Cr  Cr2  1  0.38861326  0.61138674  0.00000000  1
  Cr  Cr3  1  0.32403631  0.23001987  0.21745901  1
  Cr  Cr4  1  0.26998013  0.17596369  0.71745901  1
  Cr  Cr5  1  0.76998013  0.67596369  0.78254099  1
  Cr  Cr6  1  0.82403631  0.73001987  0.28254099  1
  Cr  Cr7  1  0.88861326  0.11138674  0.50000000  1
  P  P8  1  0.13366831  0.59637514  0.69598911  1
  P  P9  1  0.40362486  0.86633169  0.30401089  1
  P  P10  1  0.22778531  0.63590762  0.21648923  1
  P  P11  1  0.36409238  0.77221469  0.78351077  1
  P  P12  1  0.75364526  0.62849159  0.05080118  1
  P  P13  1  0.87150841  0.74635474  0.55080118  1
  P  P14  1  0.25364526  0.12849159  0.44919882  1
  P  P15  1  0.37150841  0.24635474  0.94919882  1
  P  P16  1  0.63366831  0.09637514  0.80401089  1
  P  P17  1  0.90362486  0.36633169  0.19598911  1
  P  P18  1  0.72778531  0.13590762  0.28351077  1
  P  P19  1  0.86409238  0.27221469  0.71648923  1
  O  O20  1  0.32107556  0.99390515  0.22288649  1
  O  O21  1  0.00609485  0.67892444  0.77711351  1
  O  O22  1  0.06344275  0.65044497  0.26293229  1
  O  O23  1  0.34955503  0.93655725  0.73706771  1
  O  O24  1  0.35712595  0.93988082  0.42171998  1
  O  O25  1  0.06011918  0.64287405  0.57828002  1
  O  O26  1  0.22293586  0.72736926  0.10711143  1
  O  O27  1  0.27263074  0.77706414  0.89288857  1
  O  O28  1  0.27778503  0.68188875  0.69792788  1
  O  O29  1  0.31811125  0.72221497  0.30207212  1
  O  O30  1  0.08330330  0.28965731  0.19868447  1
  O  O31  1  0.58330330  0.78965731  0.30131553  1
  O  O32  1  0.71034269  0.91669670  0.80131553  1
  O  O33  1  0.21034269  0.41669670  0.69868447  1
  O  O34  1  0.53791540  0.66174665  0.79759131  1
  O  O35  1  0.33825335  0.46208460  0.20240869  1
  O  O36  1  0.83825335  0.96208460  0.29759131  1
  O  O37  1  0.03791540  0.16174665  0.70240869  1
  O  O38  1  0.57245541  0.63399417  0.07287007  1
  O  O39  1  0.86600583  0.92754459  0.57287007  1
  O  O40  1  0.07245541  0.13399417  0.42712993  1
  O  O41  1  0.36600583  0.42754459  0.92712993  1
  O  O42  1  0.75477239  0.69484277  0.62544666  1
  O  O43  1  0.25477239  0.19484277  0.87455334  1
  O  O44  1  0.30515723  0.24522761  0.37455334  1
  O  O45  1  0.80515723  0.74522761  0.12544666  1
  O  O46  1  0.84654210  0.70537751  0.43815888  1
  O  O47  1  0.34654210  0.20537751  0.06184112  1
  O  O48  1  0.29462249  0.15345790  0.56184112  1
  O  O49  1  0.79462249  0.65345790  0.93815888  1
  O  O50  1  0.50609485  0.17892444  0.72288649  1
  O  O51  1  0.82107556  0.49390515  0.27711351  1
  O  O52  1  0.56344275  0.15044497  0.23706771  1
  O  O53  1  0.84955503  0.43655725  0.76293229  1
  O  O54  1  0.85712595  0.43988082  0.07828002  1
  O  O55  1  0.56011918  0.14287405  0.92171998  1
  O  O56  1  0.77263074  0.27706414  0.60711143  1
  O  O57  1  0.72293586  0.22736926  0.39288857  1
  O  O58  1  0.81811125  0.22221497  0.19792788  1
  O  O59  1  0.77778503  0.18188875  0.80207212  1
