# generated using pymatgen
data_MnOF
_symmetry_space_group_name_H-M   'P 1'
_cell_length_a   4.59094891
_cell_length_b   5.71134734
_cell_length_c   10.36108018
_cell_angle_alpha   89.84942990
_cell_angle_beta   89.38437136
_cell_angle_gamma   89.78635465
_symmetry_Int_Tables_number   1
_chemical_formula_structural   MnOF
_chemical_formula_sum   'Mn8 O8 F8'
_cell_volume   271.65426239
_cell_formula_units_Z   8
loop_
 _symmetry_equiv_pos_site_id
 _symmetry_equiv_pos_as_xyz
  1  'x, y, z'
loop_
 _atom_site_type_symbol
 _atom_site_label
 _atom_site_symmetry_multiplicity
 _atom_site_fract_x
 _atom_site_fract_y
 _atom_site_fract_z
 _atom_site_occupancy
  Mn  Mn0  1  0.02972231  0.16661235  0.61644475  1
  Mn  Mn1  1  0.00259318  0.84778285  0.36415088  1
  Mn  Mn2  1  0.00321303  0.14995391  0.11327420  1
  Mn  Mn3  1  0.03838312  0.86235566  0.86438353  1
  Mn  Mn4  1  0.50089009  0.34512820  0.88401450  1
  Mn  Mn5  1  0.50735462  0.34499412  0.38738227  1
  Mn  Mn6  1  0.51152882  0.64766638  0.13889339  1
  Mn  Mn7  1  0.49472585  0.63850182  0.63204702  1
  O  O8  1  0.22048044  0.11216170  0.45250266  1
  O  O9  1  0.22578178  0.11491389  0.95241555  1
  O  O10  1  0.21633475  0.88216588  0.20120410  1
  O  O11  1  0.23596657  0.89305433  0.70214207  1
  O  O12  1  0.28558836  0.40415477  0.72769163  1
  O  O13  1  0.71963551  0.37697720  0.04562428  1
  O  O14  1  0.71830476  0.61455010  0.29820608  1
  O  O15  1  0.72681437  0.38334499  0.54538552  1
  F  F16  1  0.25533739  0.37605133  0.22906645  1
  F  F17  1  0.23946539  0.60959233  0.46777877  1
  F  F18  1  0.26993437  0.61973472  0.97909590  1
  F  F19  1  0.75900726  0.62089243  0.80375266  1
  F  F20  1  0.75142323  0.11410057  0.27122158  1
  F  F21  1  0.76453904  0.87593189  0.01640069  1
  F  F22  1  0.77273051  0.12898626  0.77470590  1
  F  F23  1  0.75024324  0.87039135  0.53221664  1
