# generated using pymatgen
data_Mn6O7F5
_symmetry_space_group_name_H-M   'P 1'
_cell_length_a   4.61286083
_cell_length_b   5.63595998
_cell_length_c   15.37854659
_cell_angle_alpha   89.84544956
_cell_angle_beta   90.39675949
_cell_angle_gamma   90.18876160
_symmetry_Int_Tables_number   1
_chemical_formula_structural   Mn6O7F5
_chemical_formula_sum   'Mn12 O14 F10'
_cell_volume   399.79671552
_cell_formula_units_Z   2
loop_
 _symmetry_equiv_pos_site_id
 _symmetry_equiv_pos_as_xyz
  1  'x, y, z'
loop_
 _atom_site_type_symbol
 _atom_site_label
 _atom_site_symmetry_multiplicity
 _atom_site_fract_x
 _atom_site_fract_y
 _atom_site_fract_z
 _atom_site_occupancy
  Mn  Mn0  1  0.03532552  0.17585648  0.40602396  1
  Mn  Mn1  1  0.02208022  0.83442875  0.24521001  1
  Mn  Mn2  1  0.99041501  0.15323277  0.07905387  1
  Mn  Mn3  1  0.01007316  0.16931770  0.74675464  1
  Mn  Mn4  1  0.98202401  0.85115192  0.58068065  1
  Mn  Mn5  1  0.05105320  0.85380194  0.91325310  1
  Mn  Mn6  1  0.49575788  0.34742294  0.58630017  1
  Mn  Mn7  1  0.48762193  0.35400960  0.92560943  1
  Mn  Mn8  1  0.49769632  0.36596931  0.25573575  1
  Mn  Mn9  1  0.49772654  0.65339081  0.08561430  1
  Mn  Mn10  1  0.51703423  0.62287698  0.41958657  1
  Mn  Mn11  1  0.48562132  0.63840904  0.75601114  1
  O  O12  1  0.23715626  0.11398398  0.29916679  1
  O  O13  1  0.20291203  0.11030838  0.63548798  1
  O  O14  1  0.23538768  0.11561423  0.97164924  1
  O  O15  1  0.20832004  0.88854025  0.13367207  1
  O  O16  1  0.22788902  0.89103331  0.80449703  1
  O  O17  1  0.28634492  0.59944136  0.31430499  1
  O  O18  1  0.29048904  0.38589065  0.47589523  1
  O  O19  1  0.28227644  0.39597450  0.81684501  1
  O  O20  1  0.28715530  0.61493395  0.97652951  1
  O  O21  1  0.71644785  0.37875813  0.03094919  1
  O  O22  1  0.71526717  0.61687485  0.19495420  1
  O  O23  1  0.72925466  0.38404008  0.35811162  1
  O  O24  1  0.72839714  0.61208093  0.52886460  1
  O  O25  1  0.71298400  0.38570374  0.69544477  1
  F  F26  1  0.25663718  0.87890653  0.46724675  1
  F  F27  1  0.24370004  0.38475519  0.15029474  1
  F  F28  1  0.22785372  0.61979078  0.64098463  1
  F  F29  1  0.76350800  0.61643447  0.86821037  1
  F  F30  1  0.74098446  0.12679123  0.19227579  1
  F  F31  1  0.77766726  0.10572510  0.51539424  1
  F  F32  1  0.78249081  0.86807762  0.36024359  1
  F  F33  1  0.77731738  0.87983528  0.01366226  1
  F  F34  1  0.76777853  0.12870775  0.85963977  1
  F  F35  1  0.72935474  0.87792842  0.69584105  1
