# generated using pymatgen
data_KNaCa3Mg10(SiO3)16
_symmetry_space_group_name_H-M   'P 1'
_cell_length_a   10.15907632
_cell_length_b   10.53589005
_cell_length_c   10.56379089
_cell_angle_alpha   97.05827432
_cell_angle_beta   105.33701782
_cell_angle_gamma   114.58045559
_symmetry_Int_Tables_number   1
_chemical_formula_structural   KNaCa3Mg10(SiO3)16
_chemical_formula_sum   'K1 Na1 Ca3 Mg10 Si16 O48'
_cell_volume   956.00338932
_cell_formula_units_Z   1
loop_
 _symmetry_equiv_pos_site_id
 _symmetry_equiv_pos_as_xyz
  1  'x, y, z'
loop_
 _atom_site_type_symbol
 _atom_site_label
 _atom_site_symmetry_multiplicity
 _atom_site_fract_x
 _atom_site_fract_y
 _atom_site_fract_z
 _atom_site_occupancy
  K  K0  1  0.51041628  0.00304544  0.74353977  1
  Na  Na1  1  0.72186478  0.44201667  0.60856792  1
  Ca  Ca2  1  0.71662558  0.43642486  0.11072867  1
  Ca  Ca3  1  0.27855296  0.56378563  0.89248810  1
  Ca  Ca4  1  0.28485586  0.56317851  0.38871813  1
  Mg  Mg5  1  0.81722025  0.63740088  0.41359391  1
  Mg  Mg6  1  0.81937729  0.63609528  0.90491381  1
  Mg  Mg7  1  0.17888659  0.36064425  0.58970649  1
  Mg  Mg8  1  0.17993444  0.35738358  0.08943151  1
  Mg  Mg9  1  0.90010754  0.79981095  0.70036254  1
  Mg  Mg10  1  0.89962638  0.79906887  0.20103910  1
  Mg  Mg11  1  0.09916642  0.19848678  0.79919550  1
  Mg  Mg12  1  0.10044450  0.19982265  0.30173466  1
  Mg  Mg13  1  0.00310229  0.99856310  0.00498574  1
  Mg  Mg14  1  0.99850750  0.99982201  0.50145305  1
  Si  Si15  1  0.19258460  0.83295769  0.94952192  1
  Si  Si16  1  0.18725491  0.83057858  0.44479378  1
  Si  Si17  1  0.35702099  0.16944436  0.52889268  1
  Si  Si18  1  0.35947838  0.16740159  0.03379374  1
  Si  Si19  1  0.80799145  0.16816144  0.55122567  1
  Si  Si20  1  0.81262061  0.16881645  0.05471482  1
  Si  Si21  1  0.64310264  0.83068535  0.97045940  1
  Si  Si22  1  0.64063752  0.83269219  0.46682873  1
  Si  Si23  1  0.11778001  0.66002905  0.65613597  1
  Si  Si24  1  0.11485785  0.65497043  0.15396614  1
  Si  Si25  1  0.46026789  0.34474997  0.32835278  1
  Si  Si26  1  0.45780453  0.34110020  0.82624739  1
  Si  Si27  1  0.88413579  0.34229180  0.84251464  1
  Si  Si28  1  0.88342851  0.34358110  0.34545632  1
  Si  Si29  1  0.53962134  0.65590539  0.17343563  1
  Si  Si30  1  0.54219646  0.65888130  0.67323358  1
  O  O31  1  0.95202717  0.65815219  0.61063677  1
  O  O32  1  0.94494388  0.64907293  0.11011880  1
  O  O33  1  0.29569940  0.35070359  0.78587302  1
  O  O34  1  0.29406653  0.34891026  0.28416905  1
  O  O35  1  0.05454308  0.34782196  0.88934156  1
  O  O36  1  0.05518042  0.35226277  0.38973283  1
  O  O37  1  0.70622766  0.65737115  0.71850062  1
  O  O38  1  0.70312593  0.64938586  0.21393441  1
  O  O39  1  0.02343711  0.82383632  0.91049285  1
  O  O40  1  0.01868756  0.82101362  0.40773182  1
  O  O41  1  0.19712726  0.17897530  0.49738675  1
  O  O42  1  0.19859090  0.17536486  0.99782471  1
  O  O43  1  0.97846255  0.17876294  0.59057236  1
  O  O44  1  0.98088956  0.17724527  0.09289621  1
  O  O45  1  0.80190736  0.82048653  0.00371823  1
  O  O46  1  0.79960709  0.82248724  0.50101334  1
  O  O47  1  0.32343400  0.99959942  0.51472965  1
  O  O48  1  0.32995696  0.00012583  0.01989095  1
  O  O49  1  0.67081190  -0.00001850  0.48197308  1
  O  O50  1  0.67539634  0.99982793  0.98374643  1
  O  O51  1  0.12690760  0.51288169  0.66603121  1
  O  O52  1  0.12254356  0.50720186  0.16346412  1
  O  O53  1  0.60937808  0.49596306  0.40713180  1
  O  O54  1  0.61353560  0.48834285  0.90938344  1
  O  O55  1  0.88422461  0.49262526  0.83984481  1
  O  O56  1  0.87693791  0.49177137  0.33506053  1
  O  O57  1  0.38469595  0.50806242  0.08880387  1
  O  O58  1  0.38612646  0.51125951  0.59056513  1
  O  O59  1  0.22603322  0.76836318  0.81708880  1
  O  O60  1  0.21895484  0.76115226  0.31509768  1
  O  O61  1  0.45252401  0.23389331  0.43048922  1
  O  O62  1  0.45602162  0.23274254  0.93278596  1
  O  O63  1  0.77655104  0.22749423  0.68646399  1
  O  O64  1  0.78037442  0.23811675  0.18361302  1
  O  O65  1  0.54159388  0.76243024  0.06545861  1
  O  O66  1  0.54205888  0.76778522  0.56696154  1
  O  O67  1  0.21119238  0.73165478  0.05429984  1
  O  O68  1  0.21780887  0.74026467  0.55857519  1
  O  O69  1  0.47029552  0.25513366  0.68950009  1
  O  O70  1  0.47919863  0.26916470  0.18818090  1
  O  O71  1  0.78874735  0.26432309  0.44304400  1
  O  O72  1  0.78652257  0.25989406  0.94129732  1
  O  O73  1  0.52368071  0.73988527  0.81139312  1
  O  O74  1  0.51986400  0.73220134  0.31132705  1
  O  O75  1  0.06553107  0.99934174  0.22300488  1
  O  O76  1  0.06523710  0.99969714  0.71916435  1
  O  O77  1  0.93510906  0.99956416  0.77490959  1
  O  O78  1  0.93475629  0.99960580  0.27674437  1
