# generated using pymatgen
data_Ti7(WO5)6
_symmetry_space_group_name_H-M   'P 1'
_cell_length_a   5.24307620
_cell_length_b   5.22889363
_cell_length_c   23.46266450
_cell_angle_alpha   89.94325281
_cell_angle_beta   90.16835183
_cell_angle_gamma   60.07245778
_symmetry_Int_Tables_number   1
_chemical_formula_structural   Ti7(WO5)6
_chemical_formula_sum   'Ti7 W6 O30'
_cell_volume   557.46415867
_cell_formula_units_Z   1
loop_
 _symmetry_equiv_pos_site_id
 _symmetry_equiv_pos_as_xyz
  1  'x, y, z'
loop_
 _atom_site_type_symbol
 _atom_site_label
 _atom_site_symmetry_multiplicity
 _atom_site_fract_x
 _atom_site_fract_y
 _atom_site_fract_z
 _atom_site_occupancy
  Ti  Ti0  1  0.33384866  0.33038816  0.28286187  1
  Ti  Ti1  1  0.33272282  0.33346666  0.01299456  1
  Ti  Ti2  1  0.33467509  0.33220209  0.89134405  1
  Ti  Ti3  1  0.66935950  0.66469996  0.98240750  1
  Ti  Ti4  1  0.66616469  0.66754669  0.71942098  1
  Ti  Ti5  1  0.33286089  0.33308600  0.69298482  1
  Ti  Ti6  1  0.66716268  0.66813585  0.30843887  1
  W  W7  1  0.33260332  0.33376551  0.40729483  1
  W  W8  1  0.66624064  0.66861929  0.11078398  1
  W  W9  1  0.66660235  0.66732117  0.59390962  1
  W  W10  1  0.00099349  0.99872435  0.20315569  1
  W  W11  1  0.99978620  0.00044196  0.50046757  1
  W  W12  1  0.99958418  0.00001799  0.80412502  1
  O  O13  1  0.94081484  0.72782688  0.15038431  1
  O  O14  1  0.33300052  0.91105193  0.55048298  1
  O  O15  1  0.01266467  0.57057887  0.34798244  1
  O  O16  1  0.99086902  0.68850454  0.74791739  1
  O  O17  1  0.40614005  0.02251176  0.94795928  1
  O  O18  1  0.26541828  0.67030058  0.84480746  1
  O  O19  1  0.24172849  0.66859774  0.45084951  1
  O  O20  1  0.58203301  0.98578583  0.65389132  1
  O  O21  1  0.32453573  0.67048252  0.25364624  1
  O  O22  1  0.97833554  0.42751603  0.04870284  1
  O  O23  1  0.43127128  0.59265312  0.04886117  1
  O  O24  1  0.67183615  0.06389222  0.84476486  1
  O  O25  1  0.43451162  0.58063561  0.65383382  1
  O  O26  1  0.66171833  0.99875086  0.25435458  1
  O  O27  1  0.08894852  0.24470437  0.45084224  1
  O  O28  1  0.90996977  0.75685586  0.55027554  1
  O  O29  1  0.32157677  0.99103980  0.74788625  1
  O  O30  1  0.56566195  0.41768554  0.34784351  1
  O  O31  1  0.33884259  0.93697390  0.14960868  1
  O  O32  1  0.57239696  0.40478357  0.94786408  1
  O  O33  1  0.02444229  0.57089670  0.94784065  1
  O  O34  1  0.68797854  0.32107195  0.74797138  1
  O  O35  1  0.41185963  0.01653986  0.34806626  1
  O  O36  1  0.75804672  0.33281665  0.55021647  1
  O  O37  1  0.73136723  0.33470091  0.15091627  1
  O  O38  1  0.59706139  0.97513958  0.04886664  1
  O  O39  1  0.99808863  0.33178508  0.25372150  1
  O  O40  1  0.98464714  0.43349958  0.65412570  1
  O  O41  1  0.66626802  0.08976281  0.45059304  1
  O  O42  1  0.06506179  0.26453967  0.84473524  1
