# generated using pymatgen
data_Li4Ti2Ni3Sb3O16
_symmetry_space_group_name_H-M   'P 1'
_cell_length_a   6.09762725
_cell_length_b   6.12997776
_cell_length_c   9.69746521
_cell_angle_alpha   90.00063755
_cell_angle_beta   90.27617240
_cell_angle_gamma   120.17557652
_symmetry_Int_Tables_number   1
_chemical_formula_structural   Li4Ti2Ni3Sb3O16
_chemical_formula_sum   'Li4 Ti2 Ni3 Sb3 O16'
_cell_volume   313.35078027
_cell_formula_units_Z   1
loop_
 _symmetry_equiv_pos_site_id
 _symmetry_equiv_pos_as_xyz
  1  'x, y, z'
loop_
 _atom_site_type_symbol
 _atom_site_label
 _atom_site_symmetry_multiplicity
 _atom_site_fract_x
 _atom_site_fract_y
 _atom_site_fract_z
 _atom_site_occupancy
  Li  Li0  1  0.34092239  0.67047274  0.88754523  1
  Li  Li1  1  0.97194711  0.98598152  0.98557404  1
  Li  Li2  1  0.98080762  0.99041749  0.50467755  1
  Li  Li3  1  0.65313534  0.32657758  0.40203174  1
  Ti  Ti4  1  0.35301223  0.67651297  0.50394890  1
  Ti  Ti5  1  0.71589493  0.35796018  0.97421179  1
  Ni  Ni6  1  0.65961068  0.82981193  0.21443796  1
  Ni  Ni7  1  0.83356366  0.66067182  0.71260512  1
  Ni  Ni8  1  0.83356252  0.17292056  0.71260078  1
  Sb  Sb9  1  0.16797910  0.83016559  0.21564980  1
  Sb  Sb10  1  0.16797811  0.33783178  0.21564871  1
  Sb  Sb11  1  0.34638786  0.17320347  0.71583454  1
  O  O12  1  0.18329356  0.84408165  0.59331482  1
  O  O13  1  0.02229375  0.51115142  0.33839350  1
  O  O14  1  0.32808682  0.66404804  0.10104152  1
  O  O15  1  0.99807178  0.99905529  0.31676223  1
  O  O16  1  0.00684615  0.00343478  0.80080795  1
  O  O17  1  0.18330146  0.33923570  0.59331568  1
  O  O18  1  0.46853005  0.95377576  0.34404874  1
  O  O19  1  0.46853049  0.51477594  0.34404307  1
  O  O20  1  0.31651874  0.15827335  0.10189075  1
  O  O21  1  0.65237335  0.82619692  0.59129064  1
  O  O22  1  0.51445691  0.47180919  0.84732641  1
  O  O23  1  0.51445010  0.04266860  0.84732760  1
  O  O24  1  0.66293469  0.33147408  0.60597998  1
  O  O25  1  0.84330978  0.66990728  0.09362460  1
  O  O26  1  0.96888193  0.48445399  0.85027878  1
  O  O27  1  0.84331889  0.17342739  0.09362759  1
