# generated using pymatgen
data_Li3VO3F2
_symmetry_space_group_name_H-M   'P 1'
_cell_length_a   5.37059525
_cell_length_b   5.37059544
_cell_length_c   8.06860436
_cell_angle_alpha   83.70387504
_cell_angle_beta   96.29612520
_cell_angle_gamma   115.28366252
_symmetry_Int_Tables_number   1
_chemical_formula_structural   Li3VO3F2
_chemical_formula_sum   'Li6 V2 O6 F4'
_cell_volume   208.65013829
_cell_formula_units_Z   2
loop_
 _symmetry_equiv_pos_site_id
 _symmetry_equiv_pos_as_xyz
  1  'x, y, z'
loop_
 _atom_site_type_symbol
 _atom_site_label
 _atom_site_symmetry_multiplicity
 _atom_site_fract_x
 _atom_site_fract_y
 _atom_site_fract_z
 _atom_site_occupancy
  Li  Li0  1  0.24529705  0.42843179  0.56405391  1
  Li  Li1  1  0.42747281  0.21591624  0.93222169  1
  Li  Li2  1  0.57156821  0.75470295  0.06405391  1
  Li  Li3  1  0.78408376  0.57252719  0.43222169  1
  Li  Li4  1  0.62308951  0.02828132  0.36885400  1
  Li  Li5  1  0.97171868  0.37691049  0.86885400  1
  V  V6  1  0.16895783  0.17185613  0.24612853  1
  V  V7  1  0.82814387  0.83104217  0.74612853  1
  O  O8  1  0.12098063  0.13774305  0.75328401  1
  O  O9  1  0.22781739  0.39932123  0.07167897  1
  O  O10  1  0.60067877  0.77218261  0.57167897  1
  O  O11  1  0.41381838  0.25174254  0.41269144  1
  O  O12  1  0.74825746  0.58618162  0.91269144  1
  O  O13  1  0.86225695  0.87901937  0.25328401  1
  F  F14  1  0.00850095  0.62345201  0.65333116  1
  F  F15  1  0.37654799  0.99149905  0.15333116  1
  F  F16  1  0.64274943  0.01854965  0.86447728  1
  F  F17  1  0.98145035  0.35725057  0.36447728  1
