# generated using pymatgen
data_Li8Ni(O2F)2
_symmetry_space_group_name_H-M   'P 1'
_cell_length_a   5.52272605
_cell_length_b   10.76908457
_cell_length_c   5.50799517
_cell_angle_alpha   104.26567730
_cell_angle_beta   59.71148799
_cell_angle_gamma   89.65785761
_symmetry_Int_Tables_number   1
_chemical_formula_structural   Li8Ni(O2F)2
_chemical_formula_sum   'Li16 Ni2 O8 F4'
_cell_volume   270.80607650
_cell_formula_units_Z   2
loop_
 _symmetry_equiv_pos_site_id
 _symmetry_equiv_pos_as_xyz
  1  'x, y, z'
loop_
 _atom_site_type_symbol
 _atom_site_label
 _atom_site_symmetry_multiplicity
 _atom_site_fract_x
 _atom_site_fract_y
 _atom_site_fract_z
 _atom_site_occupancy
  Li  Li0  1  0.11286768  0.67503230  0.10775720  1
  Li  Li1  1  0.20347825  0.31576991  0.22213532  1
  Li  Li2  1  0.06723218  0.81732400  0.52131058  1
  Li  Li3  1  0.18229865  0.48867371  0.58480932  1
  Li  Li4  1  0.28260576  0.00505716  0.30129450  1
  Li  Li5  1  0.27989246  0.16504331  0.77229702  1
  Li  Li6  1  0.43184710  0.66621936  0.47667466  1
  Li  Li7  1  0.59054301  0.18120509  0.10223440  1
  Li  Li8  1  0.40945699  0.81879491  0.89776560  1
  Li  Li9  1  0.56815290  0.33378064  0.52332534  1
  Li  Li10  1  0.72010754  0.83495669  0.22770298  1
  Li  Li11  1  0.71739424  0.99494284  0.69870550  1
  Li  Li12  1  0.81770135  0.51132629  0.41519068  1
  Li  Li13  1  0.79652175  0.68423009  0.77786468  1
  Li  Li14  1  0.93276782  0.18267600  0.47868942  1
  Li  Li15  1  0.88713232  0.32496670  0.89224280  1
  Ni  Ni16  1  0.00000000  0.00000000  0.00000000  1
  Ni  Ni17  1  0.50000000  0.50000000  0.00000000  1
  O  O18  1  0.03700229  0.88272516  0.24271134  1
  O  O19  1  0.26974075  0.12061578  0.08300962  1
  O  O20  1  0.14043701  0.61832653  0.39710823  1
  O  O21  1  0.52680731  0.37933763  0.23547473  1
  O  O22  1  0.47319269  0.62066237  0.76452527  1
  O  O23  1  0.85956299  0.38167347  0.60289177  1
  O  O24  1  0.73025925  0.87938422  0.91699038  1
  O  O25  1  0.96299771  0.11727484  0.75728866  1
  F  F26  1  0.37640676  0.86065673  0.58663682  1
  F  F27  1  0.21993605  0.36485928  0.89939764  1
  F  F28  1  0.78006395  0.63514072  0.10060236  1
  F  F29  1  0.62359324  0.13934327  0.41336318  1
