# generated using pymatgen
data_Mn6O7F5
_symmetry_space_group_name_H-M   'P 1'
_cell_length_a   4.56044338
_cell_length_b   5.67847734
_cell_length_c   15.36794734
_cell_angle_alpha   89.95661285
_cell_angle_beta   89.85142605
_cell_angle_gamma   90.49170700
_symmetry_Int_Tables_number   1
_chemical_formula_structural   Mn6O7F5
_chemical_formula_sum   'Mn12 O14 F10'
_cell_volume   397.95800368
_cell_formula_units_Z   2
loop_
 _symmetry_equiv_pos_site_id
 _symmetry_equiv_pos_as_xyz
  1  'x, y, z'
loop_
 _atom_site_type_symbol
 _atom_site_label
 _atom_site_symmetry_multiplicity
 _atom_site_fract_x
 _atom_site_fract_y
 _atom_site_fract_z
 _atom_site_occupancy
  Mn  Mn0  1  0.02357483  0.16115758  0.40956126  1
  Mn  Mn1  1  0.00991893  0.84672445  0.24364652  1
  Mn  Mn2  1  0.02815761  0.15830286  0.07876959  1
  Mn  Mn3  1  0.00552156  0.15215484  0.73998756  1
  Mn  Mn4  1  0.01607786  0.84758865  0.57257691  1
  Mn  Mn5  1  0.00855644  0.84679827  0.91033144  1
  Mn  Mn6  1  0.50127036  0.35018454  0.58686615  1
  Mn  Mn7  1  0.51377577  0.34757003  0.92562064  1
  Mn  Mn8  1  0.50127052  0.34921152  0.25417186  1
  Mn  Mn9  1  0.50424927  0.63669839  0.09449592  1
  Mn  Mn10  1  0.50503494  0.63298404  0.42597606  1
  Mn  Mn11  1  0.50932155  0.65018777  0.75781596  1
  O  O12  1  0.21917080  0.11378708  0.30097116  1
  O  O13  1  0.22244007  0.11250655  0.63264986  1
  O  O14  1  0.22250639  0.11619109  0.96963927  1
  O  O15  1  0.23671123  0.88593451  0.13681238  1
  O  O16  1  0.23931719  0.88580296  0.46713196  1
  O  O17  1  0.22035754  0.88453456  0.80118125  1
  O  O18  1  0.28049198  0.39713928  0.14729134  1
  O  O19  1  0.27957482  0.39732869  0.47936930  1
  O  O20  1  0.73258867  0.38862084  0.03213068  1
  O  O21  1  0.72479800  0.61996969  0.19755886  1
  O  O22  1  0.72769252  0.38619602  0.36158827  1
  O  O23  1  0.72775385  0.61736270  0.52798549  1
  O  O24  1  0.72182206  0.61608619  0.86618306  1
  O  O25  1  0.71836232  0.38268175  0.69646512  1
  F  F26  1  0.25911083  0.61803153  0.32002044  1
  F  F27  1  0.25508513  0.61696179  0.65283019  1
  F  F28  1  0.25512656  0.38111303  0.82109125  1
  F  F29  1  0.26171380  0.61951216  0.98767092  1
  F  F30  1  0.77321863  0.12111824  0.18290335  1
  F  F31  1  0.77401774  0.12369990  0.51366574  1
  F  F32  1  0.75395831  0.86955765  0.35601420  1
  F  F33  1  0.75517636  0.87270976  0.02392741  1
  F  F34  1  0.75632991  0.11466826  0.84761785  1
  F  F35  1  0.75594765  0.87892281  0.67748078  1
