# generated using pymatgen
data_LiMn2(BO3)2
_symmetry_space_group_name_H-M   'P 1'
_cell_length_a   5.81772718
_cell_length_b   5.30232261
_cell_length_c   16.44325631
_cell_angle_alpha   89.74961871
_cell_angle_beta   99.66100665
_cell_angle_gamma   89.28077947
_symmetry_Int_Tables_number   1
_chemical_formula_structural   LiMn2(BO3)2
_chemical_formula_sum   'Li4 Mn8 B8 O24'
_cell_volume   499.98898692
_cell_formula_units_Z   4
loop_
 _symmetry_equiv_pos_site_id
 _symmetry_equiv_pos_as_xyz
  1  'x, y, z'
loop_
 _atom_site_type_symbol
 _atom_site_label
 _atom_site_symmetry_multiplicity
 _atom_site_fract_x
 _atom_site_fract_y
 _atom_site_fract_z
 _atom_site_occupancy
  Li  Li0  1  0.06006420  0.83759895  0.61500000  1
  Li  Li1  1  0.19239960  0.67061675  0.13471542  1
  Li  Li2  1  0.80760040  0.32938325  0.86528458  1
  Li  Li3  1  0.93993580  0.16240105  0.38500000  1
  Mn  Mn4  1  0.29973663  0.69946383  0.95826576  1
  Mn  Mn5  1  0.03568822  0.19301502  0.21300232  1
  Mn  Mn6  1  0.21743808  0.31551867  0.53523797  1
  Mn  Mn7  1  0.54483102  0.19219212  0.70764498  1
  Mn  Mn8  1  0.45516898  0.80780788  0.29235502  1
  Mn  Mn9  1  0.78256192  0.68448133  0.46476203  1
  Mn  Mn10  1  0.96431178  0.80698498  0.78699768  1
  Mn  Mn11  1  0.70026337  0.30053617  0.04173424  1
  B  B12  1  0.04703164  0.32535925  0.70460293  1
  B  B13  1  0.28673587  0.82527834  0.45813922  1
  B  B14  1  0.46981997  0.67713228  0.79623750  1
  B  B15  1  0.20611625  0.17666562  0.04967259  1
  B  B16  1  0.79388375  0.82333438  0.95032741  1
  B  B17  1  0.53018003  0.32286772  0.20376250  1
  B  B18  1  0.71326413  0.17472166  0.54186078  1
  B  B19  1  0.95296836  0.67464075  0.29539707  1
  O  O20  1  0.03264147  0.58299012  0.69623608  1
  O  O21  1  0.17461103  0.18443174  0.65447514  1
  O  O22  1  0.15282508  0.69463160  0.50842559  1
  O  O23  1  0.34739254  0.32658536  0.00956439  1
  O  O24  1  0.07373622  0.80366355  0.24205250  1
  O  O25  1  0.29879768  0.80440901  0.83310330  1
  O  O26  1  0.05464307  0.31408249  0.09369388  1
  O  O27  1  0.25358055  0.07774948  0.44484896  1
  O  O28  1  0.50135920  0.42577891  0.80289193  1
  O  O29  1  0.21795025  0.92127454  0.05212862  1
  O  O30  1  0.44079385  0.69354126  0.41687022  1
  O  O31  1  0.38158970  0.16898094  0.24085651  1
  O  O32  1  0.61841030  0.83101906  0.75914349  1
  O  O33  1  0.55920615  0.30645874  0.58312978  1
  O  O34  1  0.78204975  0.07872546  0.94787138  1
  O  O35  1  0.49864080  0.57422109  0.19710807  1
  O  O36  1  0.74641945  0.92225052  0.55515104  1
  O  O37  1  0.94535693  0.68591751  0.90630612  1
  O  O38  1  0.70120232  0.19559099  0.16689670  1
  O  O39  1  0.92626378  0.19633645  0.75794750  1
  O  O40  1  0.65260746  0.67341464  0.99043561  1
  O  O41  1  0.84717492  0.30536840  0.49157441  1
  O  O42  1  0.82538897  0.81556826  0.34552486  1
  O  O43  1  0.96735853  0.41700988  0.30376392  1
