# generated using pymatgen
data_LiNi5P3O13
_symmetry_space_group_name_H-M   'P 1'
_cell_length_a   6.02693982
_cell_length_b   8.41447799
_cell_length_c   9.76502695
_cell_angle_alpha   96.62891307
_cell_angle_beta   95.75888220
_cell_angle_gamma   90.10121370
_symmetry_Int_Tables_number   1
_chemical_formula_structural   LiNi5P3O13
_chemical_formula_sum   'Li2 Ni10 P6 O26'
_cell_volume   489.38115930
_cell_formula_units_Z   2
loop_
 _symmetry_equiv_pos_site_id
 _symmetry_equiv_pos_as_xyz
  1  'x, y, z'
loop_
 _atom_site_type_symbol
 _atom_site_label
 _atom_site_symmetry_multiplicity
 _atom_site_fract_x
 _atom_site_fract_y
 _atom_site_fract_z
 _atom_site_occupancy
  Li  Li0  1  0.22239356  0.42070994  0.45160026  1
  Li  Li1  1  0.77760644  0.57929006  0.54839974  1
  Ni  Ni2  1  0.01810577  0.11658579  0.77850608  1
  Ni  Ni3  1  0.26820853  0.84953764  0.92588487  1
  Ni  Ni4  1  0.28522261  0.79416474  0.61720346  1
  Ni  Ni5  1  0.22807603  0.58659524  0.10629476  1
  Ni  Ni6  1  0.52401748  0.11815850  0.76715873  1
  Ni  Ni7  1  0.47598252  0.88184150  0.23284127  1
  Ni  Ni8  1  0.77192397  0.41340476  0.89370524  1
  Ni  Ni9  1  0.71477739  0.20583526  0.38279654  1
  Ni  Ni10  1  0.73179147  0.15046236  0.07411513  1
  Ni  Ni11  1  0.98189423  0.88341421  0.22149392  1
  P  P12  1  0.26079106  0.47073735  0.77032231  1
  P  P13  1  0.24114005  0.11435477  0.47960382  1
  P  P14  1  0.25011775  0.18279255  0.10813870  1
  P  P15  1  0.74988225  0.81720745  0.89186130  1
  P  P16  1  0.75885995  0.88564523  0.52039618  1
  P  P17  1  0.73920894  0.52926265  0.22967769  1
  O  O18  1  0.04717207  0.36489274  0.76593992  1
  O  O19  1  0.03445419  0.21957528  0.45956417  1
  O  O20  1  0.04028362  0.11386900  0.16239483  1
  O  O21  1  0.27617713  0.11183558  0.95325535  1
  O  O22  1  0.27430485  0.59986101  0.89850716  1
  O  O23  1  0.25486181  0.05085568  0.63043406  1
  O  O24  1  0.25322520  0.55551623  0.63553904  1
  O  O25  1  0.24291480  0.96013762  0.37709640  1
  O  O26  1  0.21443049  0.81634872  0.10750797  1
  O  O27  1  0.23891217  0.36236062  0.13041592  1
  O  O28  1  0.46871220  0.36156572  0.78118934  1
  O  O29  1  0.43797136  0.23042745  0.47458031  1
  O  O30  1  0.52812173  0.87486633  0.80720046  1
  O  O31  1  0.47187827  0.12513367  0.19279954  1
  O  O32  1  0.56202864  0.76957255  0.52541969  1
  O  O33  1  0.53128780  0.63843428  0.21881066  1
  O  O34  1  0.76108783  0.63763938  0.86958408  1
  O  O35  1  0.78556951  0.18365128  0.89249203  1
  O  O36  1  0.75708520  0.03986238  0.62290360  1
  O  O37  1  0.74677480  0.44448377  0.36446096  1
  O  O38  1  0.74513819  0.94914432  0.36956594  1
  O  O39  1  0.72569515  0.40013899  0.10149284  1
  O  O40  1  0.72382287  0.88816442  0.04674465  1
  O  O41  1  0.95971638  0.88613100  0.83760517  1
  O  O42  1  0.96554581  0.78042472  0.54043583  1
  O  O43  1  0.95282793  0.63510726  0.23406008  1
