# generated using pymatgen
data_LaMgI5
_symmetry_space_group_name_H-M   'P 1'
_cell_length_a   8.19752516
_cell_length_b   8.19752516
_cell_length_c   12.18923909
_cell_angle_alpha   68.01980494
_cell_angle_beta   111.98019506
_cell_angle_gamma   95.49496752
_symmetry_Int_Tables_number   1
_chemical_formula_structural   LaMgI5
_chemical_formula_sum   'La2 Mg2 I10'
_cell_volume   703.42398499
_cell_formula_units_Z   2
loop_
 _symmetry_equiv_pos_site_id
 _symmetry_equiv_pos_as_xyz
  1  'x, y, z'
loop_
 _atom_site_type_symbol
 _atom_site_label
 _atom_site_symmetry_multiplicity
 _atom_site_fract_x
 _atom_site_fract_y
 _atom_site_fract_z
 _atom_site_occupancy
  La  La0  1  0.01170280  0.98949870  0.50635319  1
  La  La1  1  0.01050130  0.98829720  0.00635319  1
  Mg  Mg2  1  0.60845738  0.59432854  0.75647342  1
  Mg  Mg3  1  0.40567146  0.39154262  0.25647342  1
  I  I4  1  0.24496192  0.63082075  0.66621443  1
  I  I5  1  0.75255059  0.68065611  0.96899940  1
  I  I6  1  0.36917925  0.75503808  0.16621443  1
  I  I7  1  0.09361273  0.06257756  0.75877634  1
  I  I8  1  0.69106889  0.75257116  0.54308503  1
  I  I9  1  0.31934389  0.24744941  0.46899940  1
  I  I10  1  0.93742244  0.90638727  0.25877634  1
  I  I11  1  0.65913110  0.23263359  0.84529818  1
  I  I12  1  0.24742884  0.30893111  0.04308503  1
  I  I13  1  0.76736641  0.34086890  0.34529818  1
