# generated using pymatgen
data_Co2OF3
_symmetry_space_group_name_H-M   'P 1'
_cell_length_a   4.70944990
_cell_length_b   13.32128773
_cell_length_c   5.66789938
_cell_angle_alpha   101.01086585
_cell_angle_beta   92.18691595
_cell_angle_gamma   87.90697399
_symmetry_Int_Tables_number   1
_chemical_formula_structural   Co2OF3
_chemical_formula_sum   'Co10 O5 F15'
_cell_volume   348.62592566
_cell_formula_units_Z   5
loop_
 _symmetry_equiv_pos_site_id
 _symmetry_equiv_pos_as_xyz
  1  'x, y, z'
loop_
 _atom_site_type_symbol
 _atom_site_label
 _atom_site_symmetry_multiplicity
 _atom_site_fract_x
 _atom_site_fract_y
 _atom_site_fract_z
 _atom_site_occupancy
  Co  Co0  1  0.48438805  0.00587906  0.48844742  1
  Co  Co1  1  0.50747046  0.39736007  0.30368237  1
  Co  Co2  1  0.48784247  0.60424073  0.69914831  1
  Co  Co3  1  0.49928660  0.19935517  0.89962877  1
  Co  Co4  1  0.53984046  0.78638642  0.11168285  1
  Co  Co5  1  0.99939738  0.40059286  0.80090035  1
  Co  Co6  1  0.97563014  0.80624462  0.58646366  1
  Co  Co7  1  0.99671077  0.20125886  0.39770469  1
  Co  Co8  1  0.02023791  0.59521430  0.21293111  1
  Co  Co9  1  0.00139862  0.99862945  0.99691733  1
  O  O10  1  0.70305218  0.66261552  0.03271044  1
  O  O11  1  0.70173651  0.86218921  0.41922560  1
  O  O12  1  0.70000473  0.25834455  0.21802386  1
  O  O13  1  0.29513729  0.13951103  0.57568405  1
  O  O14  1  0.29844558  0.54063010  0.38017713  1
  F  F15  1  0.79966751  0.26064485  0.72086986  1
  F  F16  1  0.80278697  0.85851919  0.91394195  1
  F  F17  1  0.80073982  0.05980559  0.31162577  1
  F  F18  1  0.80251257  0.46174121  0.11989475  1
  F  F19  1  0.81001584  0.66308857  0.52793945  1
  F  F20  1  0.69040362  0.05833721  0.81422184  1
  F  F21  1  0.69392900  0.46297153  0.62089290  1
  F  F22  1  0.28969292  0.74781553  0.78536590  1
  F  F23  1  0.30856908  0.92975017  0.16984731  1
  F  F24  1  0.30699914  0.33987038  0.98128804  1
  F  F25  1  0.19767917  0.13859681  0.07728987  1
  F  F26  1  0.19283990  0.93811528  0.67515199  1
  F  F27  1  0.19302598  0.54152774  0.88319915  1
  F  F28  1  0.20481999  0.74013209  0.29283545  1
  F  F29  1  0.19573934  0.34063188  0.48230782  1
