# generated using pymatgen
data_Li4V5O12
_symmetry_space_group_name_H-M   'P 1'
_cell_length_a   9.01171058
_cell_length_b   9.19360471
_cell_length_c   12.83087152
_cell_angle_alpha   89.99693599
_cell_angle_beta   89.08584445
_cell_angle_gamma   89.99883304
_symmetry_Int_Tables_number   1
_chemical_formula_structural   Li4V5O12
_chemical_formula_sum   'Li16 V20 O48'
_cell_volume   1062.90374767
_cell_formula_units_Z   4
loop_
 _symmetry_equiv_pos_site_id
 _symmetry_equiv_pos_as_xyz
  1  'x, y, z'
loop_
 _atom_site_type_symbol
 _atom_site_label
 _atom_site_symmetry_multiplicity
 _atom_site_fract_x
 _atom_site_fract_y
 _atom_site_fract_z
 _atom_site_occupancy
  Li  Li0  1  0.92836262  0.08743296  0.70250021  1
  Li  Li1  1  0.98180128  0.40478917  0.27404123  1
  Li  Li2  1  0.87725669  0.67459588  0.96981213  1
  Li  Li3  1  0.81612858  0.76946896  0.19069223  1
  Li  Li4  1  0.68388730  0.26940405  0.30927324  1
  Li  Li5  1  0.62271066  0.17462005  0.53009920  1
  Li  Li6  1  0.51814022  0.90484027  0.22597073  1
  Li  Li7  1  0.57157156  0.58743599  0.79758923  1
  Li  Li8  1  0.42841983  0.41259757  0.20245201  1
  Li  Li9  1  0.48195889  0.09515689  0.77403843  1
  Li  Li10  1  0.37729669  0.82533443  0.46981971  1
  Li  Li11  1  0.31618556  0.73050410  0.69072822  1
  Li  Li12  1  0.18396276  0.23062866  0.80930936  1
  Li  Li13  1  0.12274454  0.32544620  0.03009111  1
  Li  Li14  1  0.01824863  0.59521483  0.72597616  1
  Li  Li15  1  0.07162948  0.91259427  0.29752651  1
  V  V16  1  0.75479656  0.96695768  0.38131949  1
  V  V17  1  0.74523114  0.46697898  0.11868076  1
  V  V18  1  0.25473467  0.53304350  0.88131929  1
  V  V19  1  0.24521165  0.03301399  0.61869377  1
  V  V20  1  0.96021111  0.25060182  0.49399232  1
  V  V21  1  0.88426154  0.38178642  0.84994883  1
  V  V22  1  0.89416331  0.11522290  0.14204537  1
  V  V23  1  0.75051716  0.52788459  0.60743849  1
  V  V24  1  0.74944941  0.02786079  0.89259515  1
  V  V25  1  0.60587529  0.61522856  0.35793786  1
  V  V26  1  0.61567552  0.88179979  0.65005804  1
  V  V27  1  0.53977910  0.75063814  0.00600636  1
  V  V28  1  0.46026566  0.24939486  0.99396713  1
  V  V29  1  0.38428789  0.11821306  0.34995464  1
  V  V30  1  0.39420694  0.38473291  0.64210806  1
  V  V31  1  0.25051868  0.97214887  0.10739040  1
  V  V32  1  0.24948198  0.47210217  0.39260048  1
  V  V33  1  0.10578378  0.88478172  0.85791791  1
  V  V34  1  0.11568810  0.61820130  0.15003005  1
  V  V35  1  0.03978277  0.74936056  0.50602825  1
  O  O36  1  0.93080946  0.57521379  0.18445646  1
  O  O37  1  0.92074014  0.86482483  0.89794079  1
  O  O38  1  0.92719818  0.67451926  0.60522901  1
  O  O39  1  0.95156611  0.87903445  0.43178710  1
  O  O40  1  0.89645064  0.37438094  0.58616498  1
  O  O41  1  0.87948598  0.19097157  0.83777165  1
  O  O42  1  0.85954941  0.43655056  0.97724536  1
  O  O43  1  0.83615368  0.28277682  0.19516852  1
  O  O44  1  0.87686443  0.98117068  0.23809284  1
  O  O45  1  0.79737729  0.18143275  0.43497710  1
  O  O46  1  0.77546410  0.49486742  0.76944604  1
  O  O47  1  0.78199273  0.06716939  0.03967552  1
  O  O48  1  0.72442134  0.99487764  0.73056669  1
  O  O49  1  0.71801129  0.56726090  0.46034924  1
  O  O50  1  0.70262426  0.68148729  0.06497786  1
  O  O51  1  0.64037475  0.93656162  0.52274975  1
  O  O52  1  0.62324769  0.48115634  0.26191307  1
  O  O53  1  0.66385005  0.78279535  0.30479943  1
  O  O54  1  0.62047932  0.69097187  0.66226489  1
  O  O55  1  0.60342641  0.87443121  0.91380310  1
  O  O56  1  0.57291508  0.17455774  0.89480412  1
  O  O57  1  0.57923282  0.36481698  0.60207505  1
  O  O58  1  0.54847882  0.37906471  0.06824087  1
  O  O59  1  0.56916542  0.07521209  0.31557563  1
  O  O60  1  0.43078765  0.92478062  0.68444994  1
  O  O61  1  0.45150638  0.62094945  0.93182228  1
  O  O62  1  0.42077001  0.63513155  0.39792109  1
  O  O63  1  0.42711832  0.82549163  0.10522228  1
  O  O64  1  0.39653829  0.12555558  0.08617313  1
  O  O65  1  0.37952064  0.30905268  0.33773318  1
  O  O66  1  0.33617445  0.21718300  0.69522046  1
  O  O67  1  0.37679985  0.51884073  0.73809871  1
  O  O68  1  0.35953778  0.06347510  0.47724493  1
  O  O69  1  0.29743939  0.31855567  0.93499282  1
  O  O70  1  0.28198199  0.43273370  0.53967782  1
  O  O71  1  0.27552801  0.00513287  0.26941060  1
  O  O72  1  0.21799167  0.93281920  0.96031986  1
  O  O73  1  0.22450216  0.50515047  0.23055948  1
  O  O74  1  0.20266818  0.81850219  0.56498736  1
  O  O75  1  0.12315861  0.01886962  0.76191045  1
  O  O76  1  0.16385047  0.71722489  0.80482361  1
  O  O77  1  0.14033262  0.56343999  0.02273593  1
  O  O78  1  0.12049670  0.80903341  0.16222178  1
  O  O79  1  0.10350215  0.62551362  0.41382925  1
  O  O80  1  0.04840957  0.12093987  0.56825558  1
  O  O81  1  0.07287316  0.32545168  0.39479094  1
  O  O82  1  0.07924275  0.13522910  0.10202077  1
  O  O83  1  0.06915825  0.42479332  0.81556830  1
