# generated using pymatgen
data_LiNi(PO3)3
_symmetry_space_group_name_H-M   'P 1'
_cell_length_a   10.68633464
_cell_length_b   11.78919677
_cell_length_c   5.27134525
_cell_angle_alpha   90.00000000
_cell_angle_beta   90.00000000
_cell_angle_gamma   90.00000000
_symmetry_Int_Tables_number   1
_chemical_formula_structural   LiNi(PO3)3
_chemical_formula_sum   'Li4 Ni4 P12 O36'
_cell_volume   664.10147963
_cell_formula_units_Z   4
loop_
 _symmetry_equiv_pos_site_id
 _symmetry_equiv_pos_as_xyz
  1  'x, y, z'
loop_
 _atom_site_type_symbol
 _atom_site_label
 _atom_site_symmetry_multiplicity
 _atom_site_fract_x
 _atom_site_fract_y
 _atom_site_fract_z
 _atom_site_occupancy
  Li  Li0  1  0.11591243  0.08144721  0.10086791  1
  Li  Li1  1  0.38408757  0.91855279  0.60086791  1
  Li  Li2  1  0.61591243  0.41855279  0.89913209  1
  Li  Li3  1  0.88408757  0.58144721  0.39913209  1
  Ni  Ni4  1  0.03441582  0.86783526  0.59697346  1
  Ni  Ni5  1  0.46558418  0.13216474  0.09697346  1
  Ni  Ni6  1  0.53441582  0.63216474  0.40302654  1
  Ni  Ni7  1  0.96558418  0.36783526  0.90302654  1
  P  P8  1  0.07477599  0.62275344  0.87510317  1
  P  P9  1  0.15051850  0.36059585  0.39078340  1
  P  P10  1  0.19036369  0.82070683  0.08263878  1
  P  P11  1  0.30963631  0.17929317  0.58263878  1
  P  P12  1  0.34948150  0.63940415  0.89078340  1
  P  P13  1  0.42522401  0.37724656  0.37510317  1
  P  P14  1  0.57477599  0.87724656  0.12489683  1
  P  P15  1  0.65051850  0.13940415  0.60921660  1
  P  P16  1  0.69036369  0.67929317  0.91736122  1
  P  P17  1  0.80963631  0.32070683  0.41736122  1
  P  P18  1  0.84948150  0.86059585  0.10921660  1
  P  P19  1  0.92522401  0.12275344  0.62489683  1
  O  O20  1  0.01198409  0.03703369  0.50677090  1
  O  O21  1  0.03898573  0.67978587  0.62994938  1
  O  O22  1  0.06020537  0.42727374  0.54929940  1
  O  O23  1  0.08778488  0.72080778  0.08934048  1
  O  O24  1  0.11448650  0.32298062  0.12874415  1
  O  O25  1  0.18334869  0.89086907  0.84272113  1
  O  O26  1  0.18242148  0.88125308  0.33178040  1
  O  O27  1  0.18253400  0.25110161  0.56772491  1
  O  O28  1  0.21636355  0.57348205  0.87383367  1
  O  O29  1  0.28363645  0.42651795  0.37383367  1
  O  O30  1  0.31746600  0.74889839  0.06772491  1
  O  O31  1  0.31757852  0.11874692  0.83178040  1
  O  O32  1  0.31665131  0.10913093  0.34272113  1
  O  O33  1  0.38551350  0.67701938  0.62874415  1
  O  O34  1  0.41221512  0.27919222  0.58934048  1
  O  O35  1  0.43979463  0.57272626  0.04929940  1
  O  O36  1  0.46101427  0.32021413  0.12994938  1
  O  O37  1  0.48801591  0.96296631  0.00677090  1
  O  O38  1  0.51198409  0.46296631  0.49322910  1
  O  O39  1  0.53898573  0.82021413  0.37005062  1
  O  O40  1  0.56020537  0.07272626  0.45070060  1
  O  O41  1  0.58778488  0.77919222  0.91065952  1
  O  O42  1  0.61448650  0.17701938  0.87125585  1
  O  O43  1  0.68334869  0.60913093  0.15727887  1
  O  O44  1  0.68242148  0.61874692  0.66821960  1
  O  O45  1  0.68253400  0.24889839  0.43227509  1
  O  O46  1  0.71636355  0.92651795  0.12616633  1
  O  O47  1  0.78363645  0.07348205  0.62616633  1
  O  O48  1  0.81746600  0.75110161  0.93227509  1
  O  O49  1  0.81757852  0.38125308  0.16821960  1
  O  O50  1  0.81665131  0.39086907  0.65727887  1
  O  O51  1  0.88551350  0.82298062  0.37125585  1
  O  O52  1  0.91221512  0.22080778  0.41065952  1
  O  O53  1  0.93979463  0.92727374  0.95070060  1
  O  O54  1  0.96101427  0.17978587  0.87005062  1
  O  O55  1  0.98801591  0.53703369  0.99322910  1
