# generated using pymatgen
data_LiMnPO4
_symmetry_space_group_name_H-M   'P 1'
_cell_length_a   5.98121055
_cell_length_b   10.29224635
_cell_length_c   10.09728356
_cell_angle_alpha   90.00000000
_cell_angle_beta   93.55540595
_cell_angle_gamma   90.00000000
_symmetry_Int_Tables_number   1
_chemical_formula_structural   LiMnPO4
_chemical_formula_sum   'Li8 Mn8 P8 O32'
_cell_volume   620.39333353
_cell_formula_units_Z   8
loop_
 _symmetry_equiv_pos_site_id
 _symmetry_equiv_pos_as_xyz
  1  'x, y, z'
loop_
 _atom_site_type_symbol
 _atom_site_label
 _atom_site_symmetry_multiplicity
 _atom_site_fract_x
 _atom_site_fract_y
 _atom_site_fract_z
 _atom_site_occupancy
  Li  Li0  1  0.14186965  0.10175736  0.47779283  1
  Li  Li1  1  0.14186965  0.39824264  0.97779283  1
  Li  Li2  1  0.37139215  0.59228825  0.78007406  1
  Li  Li3  1  0.37139215  0.90771175  0.28007406  1
  Li  Li4  1  0.62860785  0.09228825  0.71992594  1
  Li  Li5  1  0.62860785  0.40771175  0.21992594  1
  Li  Li6  1  0.85813035  0.60175736  0.02220717  1
  Li  Li7  1  0.85813035  0.89824264  0.52220717  1
  Mn  Mn8  1  0.12141736  0.83082424  0.86796905  1
  Mn  Mn9  1  0.12141736  0.66917576  0.36796905  1
  Mn  Mn10  1  0.37358836  0.35468700  0.64145411  1
  Mn  Mn11  1  0.37358836  0.14531300  0.14145411  1
  Mn  Mn12  1  0.62641164  0.85468700  0.85854589  1
  Mn  Mn13  1  0.62641164  0.64531300  0.35854589  1
  Mn  Mn14  1  0.87858264  0.33082424  0.63203095  1
  Mn  Mn15  1  0.87858264  0.16917576  0.13203095  1
  P  P16  1  0.12996001  0.10812147  0.84691161  1
  P  P17  1  0.12996001  0.39187853  0.34691161  1
  P  P18  1  0.37481352  0.85433123  0.59752849  1
  P  P19  1  0.37481352  0.64566877  0.09752849  1
  P  P20  1  0.62518648  0.35433123  0.90247151  1
  P  P21  1  0.62518648  0.14566877  0.40247151  1
  P  P22  1  0.87003999  0.60812147  0.65308839  1
  P  P23  1  0.87003999  0.89187853  0.15308839  1
  O  O24  1  0.12027495  0.19231524  0.97704971  1
  O  O25  1  0.08032413  0.51740172  0.66757731  1
  O  O26  1  0.12027495  0.30768476  0.47704971  1
  O  O27  1  0.08032413  0.98259828  0.16757731  1
  O  O28  1  0.13876631  0.20153256  0.72563348  1
  O  O29  1  0.16777504  0.93978802  0.57694329  1
  O  O30  1  0.13876631  0.29846744  0.22563348  1
  O  O31  1  0.16777504  0.56021198  0.07694329  1
  O  O32  1  0.34836492  0.76537209  0.72168299  1
  O  O33  1  0.34084779  0.01828967  0.86384748  1
  O  O34  1  0.34836492  0.73462791  0.22168299  1
  O  O35  1  0.34084779  0.48171033  0.36384748  1
  O  O36  1  0.40363560  0.42884840  0.86665661  1
  O  O37  1  0.40123711  0.73130264  0.97141559  1
  O  O38  1  0.40363560  0.07115160  0.36665661  1
  O  O39  1  0.40123711  0.76869736  0.47141559  1
  O  O40  1  0.59876289  0.23130264  0.52858441  1
  O  O41  1  0.59636440  0.92884840  0.63334339  1
  O  O42  1  0.59876289  0.26869736  0.02858441  1
  O  O43  1  0.59636440  0.57115160  0.13334339  1
  O  O44  1  0.65915221  0.51828967  0.63615252  1
  O  O45  1  0.65163508  0.26537209  0.77831701  1
  O  O46  1  0.65915221  0.98171033  0.13615252  1
  O  O47  1  0.65163508  0.23462791  0.27831701  1
  O  O48  1  0.83222496  0.43978802  0.92305671  1
  O  O49  1  0.86123369  0.70153256  0.77436652  1
  O  O50  1  0.83222496  0.06021198  0.42305671  1
  O  O51  1  0.86123369  0.79846744  0.27436652  1
  O  O52  1  0.91967587  0.01740172  0.83242269  1
  O  O53  1  0.87972505  0.69231524  0.52295029  1
  O  O54  1  0.91967587  0.48259828  0.33242269  1
  O  O55  1  0.87972505  0.80768476  0.02295029  1
