# generated using pymatgen
data_EuH32C8N4Cl7
_symmetry_space_group_name_H-M   'P 1'
_cell_length_a   8.89532093
_cell_length_b   10.60542578
_cell_length_c   13.57500749
_cell_angle_alpha   90.00000000
_cell_angle_beta   90.00000000
_cell_angle_gamma   90.00000000
_symmetry_Int_Tables_number   1
_chemical_formula_structural   EuH32C8N4Cl7
_chemical_formula_sum   'Eu2 H64 C16 N8 Cl14'
_cell_volume   1280.64809636
_cell_formula_units_Z   2
loop_
 _symmetry_equiv_pos_site_id
 _symmetry_equiv_pos_as_xyz
  1  'x, y, z'
loop_
 _atom_site_type_symbol
 _atom_site_label
 _atom_site_symmetry_multiplicity
 _atom_site_fract_x
 _atom_site_fract_y
 _atom_site_fract_z
 _atom_site_occupancy
  Eu  Eu0  1  0.92939569  0.50000000  0.00000000  1
  Eu  Eu1  1  0.07060431  0.00000000  0.50000000  1
  H  H2  1  0.97731275  0.77258244  0.17397715  1
  H  H3  1  0.97731275  0.22741756  0.82602285  1
  H  H4  1  0.02268725  0.72741756  0.67397715  1
  H  H5  1  0.02268725  0.27258244  0.32602285  1
  H  H6  1  0.96217694  0.88940706  0.25601027  1
  H  H7  1  0.96217694  0.11059294  0.74398973  1
  H  H8  1  0.03782306  0.61059294  0.75601027  1
  H  H9  1  0.03782306  0.38940706  0.24398973  1
  H  H10  1  0.62477740  0.67822190  0.93382413  1
  H  H11  1  0.62477740  0.32177810  0.06617587  1
  H  H12  1  0.37522260  0.82177810  0.43382413  1
  H  H13  1  0.37522260  0.17822190  0.56617587  1
  H  H14  1  0.54224014  0.82197227  0.94215007  1
  H  H15  1  0.54224014  0.17802773  0.05784993  1
  H  H16  1  0.45775986  0.67802773  0.44215007  1
  H  H17  1  0.45775986  0.32197227  0.55784993  1
  H  H18  1  0.54593761  0.65722486  0.76248614  1
  H  H19  1  0.54593761  0.34277514  0.23751386  1
  H  H20  1  0.45406239  0.84277514  0.26248614  1
  H  H21  1  0.45406239  0.15722486  0.73751386  1
  H  H22  1  0.66168927  0.79364730  0.78313179  1
  H  H23  1  0.66168927  0.20635270  0.21686821  1
  H  H24  1  0.33831073  0.70635270  0.28313179  1
  H  H25  1  0.33831073  0.29364730  0.71686821  1
  H  H26  1  0.46181141  0.81161251  0.77169269  1
  H  H27  1  0.46181141  0.18838749  0.22830731  1
  H  H28  1  0.53818859  0.68838749  0.27169269  1
  H  H29  1  0.53818859  0.31161251  0.72830731  1
  H  H30  1  0.81423464  0.01621146  0.14121695  1
  H  H31  1  0.81423464  0.98378854  0.85878305  1
  H  H32  1  0.18576536  0.48378854  0.64121695  1
  H  H33  1  0.18576536  0.51621146  0.35878305  1
  H  H34  1  0.72882213  0.86644174  0.16908320  1
  H  H35  1  0.72882213  0.13355826  0.83091680  1
  H  H36  1  0.27117787  0.63355826  0.66908320  1
  H  H37  1  0.27117787  0.36644174  0.33091680  1
  H  H38  1  0.82620341  0.88711491  0.05486618  1
  H  H39  1  0.82620341  0.11288509  0.94513382  1
  H  H40  1  0.17379659  0.61288509  0.55486618  1
  H  H41  1  0.17379659  0.38711491  0.44513382  1
  H  H42  1  0.12069591  0.89975658  0.06262674  1
  H  H43  1  0.12069591  0.10024342  0.93737326  1
  H  H44  1  0.87930409  0.60024342  0.56262674  1
  H  H45  1  0.87930409  0.39975658  0.43737326  1
  H  H46  1  0.20375106  0.89939712  0.18301512  1
  H  H47  1  0.20375106  0.10060288  0.81698488  1
  H  H48  1  0.79624894  0.60060288  0.68301512  1
  H  H49  1  0.79624894  0.39939712  0.31698488  1
  H  H50  1  0.09563062  0.03311155  0.14355333  1
  H  H51  1  0.09563062  0.96688845  0.85644667  1
  H  H52  1  0.90436938  0.46688845  0.64355333  1
  H  H53  1  0.90436938  0.53311155  0.35644667  1
  H  H54  1  0.29703511  0.72909324  0.91043944  1
  H  H55  1  0.29703511  0.27090676  0.08956056  1
  H  H56  1  0.70296489  0.77090676  0.41043944  1
  H  H57  1  0.70296489  0.22909324  0.58956056  1
  H  H58  1  0.38630735  0.66655768  0.01832677  1
  H  H59  1  0.38630735  0.33344232  0.98167323  1
  H  H60  1  0.61369265  0.83344232  0.51832677  1
  H  H61  1  0.61369265  0.16655768  0.48167323  1
  H  H62  1  0.38555458  0.57644771  0.90631480  1
  H  H63  1  0.38555458  0.42355229  0.09368520  1
  H  H64  1  0.61444542  0.92355229  0.40631480  1
  H  H65  1  0.61444542  0.07644771  0.59368520  1
  C  C66  1  0.55237496  0.74991889  0.79877452  1
  C  C67  1  0.55237496  0.25008111  0.20122548  1
  C  C68  1  0.44762504  0.75008111  0.29877452  1
  C  C69  1  0.44762504  0.24991889  0.70122548  1
  C  C70  1  0.82387415  0.91336885  0.13305670  1
  C  C71  1  0.82387415  0.08663115  0.86694330  1
  C  C72  1  0.17612585  0.58663115  0.63305670  1
  C  C73  1  0.17612585  0.41336885  0.36694330  1
  C  C74  1  0.10659467  0.92984474  0.13944397  1
  C  C75  1  0.10659467  0.07015526  0.86055603  1
  C  C76  1  0.89340533  0.57015526  0.63944397  1
  C  C77  1  0.89340533  0.42984474  0.36055603  1
  C  C78  1  0.39146916  0.67190420  0.93768312  1
  C  C79  1  0.39146916  0.32809580  0.06231688  1
  C  C80  1  0.60853084  0.82809580  0.43768312  1
  C  C81  1  0.60853084  0.17190420  0.56231688  1
  N  N82  1  0.96695578  0.87061579  0.18076983  1
  N  N83  1  0.96695578  0.12938421  0.81923017  1
  N  N84  1  0.03304422  0.62938421  0.68076983  1
  N  N85  1  0.03304422  0.37061579  0.31923017  1
  N  N86  1  0.53599070  0.73248980  0.90748446  1
  N  N87  1  0.53599070  0.26751020  0.09251554  1
  N  N88  1  0.46400930  0.76751020  0.40748446  1
  N  N89  1  0.46400930  0.23248980  0.59251554  1
  Cl  Cl90  1  0.93774518  0.73074281  0.90706640  1
  Cl  Cl91  1  0.93774518  0.26925719  0.09293360  1
  Cl  Cl92  1  0.06225482  0.76925719  0.40706640  1
  Cl  Cl93  1  0.06225482  0.23074281  0.59293360  1
  Cl  Cl94  1  0.12700258  0.58564837  0.14103307  1
  Cl  Cl95  1  0.12700258  0.41435163  0.85896693  1
  Cl  Cl96  1  0.87299742  0.91435163  0.64103307  1
  Cl  Cl97  1  0.87299742  0.08564837  0.35896693  1
  Cl  Cl98  1  0.70068196  0.42063880  0.87946124  1
  Cl  Cl99  1  0.70068196  0.57936120  0.12053876  1
  Cl  Cl100  1  0.29931804  0.07936120  0.37946124  1
  Cl  Cl101  1  0.29931804  0.92063880  0.62053876  1
  Cl  Cl102  1  0.48121072  0.00000000  0.00000000  1
  Cl  Cl103  1  0.51878928  0.50000000  0.50000000  1
