# generated using pymatgen
data_Ba5Y3Br19
_symmetry_space_group_name_H-M   'P 1'
_cell_length_a   15.84396678
_cell_length_b   14.22741876
_cell_length_c   15.22893659
_cell_angle_alpha   94.36987822
_cell_angle_beta   100.04885251
_cell_angle_gamma   139.11002032
_symmetry_Int_Tables_number   1
_chemical_formula_structural   Ba5Y3Br19
_chemical_formula_sum   'Ba10 Y6 Br38'
_cell_volume   2094.22900008
_cell_formula_units_Z   2
loop_
 _symmetry_equiv_pos_site_id
 _symmetry_equiv_pos_as_xyz
  1  'x, y, z'
loop_
 _atom_site_type_symbol
 _atom_site_label
 _atom_site_symmetry_multiplicity
 _atom_site_fract_x
 _atom_site_fract_y
 _atom_site_fract_z
 _atom_site_occupancy
  Ba  Ba0  1  0.68721315  0.25997225  0.45434187  1
  Ba  Ba1  1  0.75290915  0.57851473  0.24568774  1
  Ba  Ba2  1  0.72188365  0.06259289  0.80330044  1
  Ba  Ba3  1  0.41108954  0.68681909  0.17156224  1
  Ba  Ba4  1  0.05401935  0.24215242  0.33809368  1
  Ba  Ba5  1  0.94598065  0.75784758  0.66190632  1
  Ba  Ba6  1  0.58891046  0.31318091  0.82843776  1
  Ba  Ba7  1  0.27811635  0.93740711  0.19669956  1
  Ba  Ba8  1  0.24709085  0.42148527  0.75431226  1
  Ba  Ba9  1  0.31278685  0.74002775  0.54565813  1
  Y  Y10  1  0.84559109  0.31648442  0.17088801  1
  Y  Y11  1  0.25793164  0.25483049  0.01454542  1
  Y  Y12  1  0.32898996  0.15383403  0.47864785  1
  Y  Y13  1  0.67101004  0.84616597  0.52135215  1
  Y  Y14  1  0.74206836  0.74516951  0.98545458  1
  Y  Y15  1  0.15440891  0.68351558  0.82911199  1
  Br  Br16  1  0.69465187  0.02464705  0.15015425  1
  Br  Br17  1  0.74137123  0.25275155  0.97518669  1
  Br  Br18  1  0.91584912  0.06334338  0.67714009  1
  Br  Br19  1  0.96241563  0.39817822  0.36899422  1
  Br  Br20  1  0.99491292  0.61401323  0.20960877  1
  Br  Br21  1  0.64377977  0.25728824  0.21627477  1
  Br  Br22  1  0.37145185  0.18201025  0.08087847  1
  Br  Br23  1  0.79337548  0.59861873  0.03663918  1
  Br  Br24  1  0.66627443  0.04260653  0.55944745  1
  Br  Br25  1  0.50000000  0.50000000  0.00000000  1
  Br  Br26  1  0.00000000  0.00000000  0.00000000  1
  Br  Br27  1  0.86760604  0.59690419  0.44674017  1
  Br  Br28  1  0.46545944  0.26535192  0.34510394  1
  Br  Br29  1  0.33938884  0.40453609  0.19933719  1
  Br  Br30  1  0.81766011  0.86480466  0.18039581  1
  Br  Br31  1  0.53941395  0.07910931  0.70381914  1
  Br  Br32  1  0.61429253  0.37147616  0.60483846  1
  Br  Br33  1  0.24472228  0.04259422  0.62562713  1
  Br  Br34  1  0.06768225  0.39009455  0.16406431  1
  Br  Br35  1  0.71432367  0.69325320  0.49410842  1
  Br  Br36  1  0.28567633  0.30674680  0.50589158  1
  Br  Br37  1  0.93231775  0.60990545  0.83593569  1
  Br  Br38  1  0.75527772  0.95740578  0.37437287  1
  Br  Br39  1  0.38570747  0.62852384  0.39516154  1
  Br  Br40  1  0.46058605  0.92089069  0.29618086  1
  Br  Br41  1  0.18233989  0.13519534  0.81960419  1
  Br  Br42  1  0.66061116  0.59546391  0.80066281  1
  Br  Br43  1  0.53454056  0.73464808  0.65489606  1
  Br  Br44  1  0.13239396  0.40309581  0.55325983  1
  Br  Br45  1  0.33372557  0.95739347  0.44055255  1
  Br  Br46  1  0.20662452  0.40138127  0.96336082  1
  Br  Br47  1  0.62854815  0.81798975  0.91912153  1
  Br  Br48  1  0.35622023  0.74271176  0.78372523  1
  Br  Br49  1  0.00508708  0.38598677  0.79039123  1
  Br  Br50  1  0.03758437  0.60182178  0.63100578  1
  Br  Br51  1  0.08415088  0.93665662  0.32285991  1
  Br  Br52  1  0.25862877  0.74724845  0.02481331  1
  Br  Br53  1  0.30534813  0.97535295  0.84984575  1
