# generated using pymatgen
data_Li2Fe(SiO3)2
_symmetry_space_group_name_H-M   'P 1'
_cell_length_a   10.28429385
_cell_length_b   7.18892228
_cell_length_c   9.89051979
_cell_angle_alpha   90.00000000
_cell_angle_beta   90.00000000
_cell_angle_gamma   90.00000000
_symmetry_Int_Tables_number   1
_chemical_formula_structural   Li2Fe(SiO3)2
_chemical_formula_sum   'Li12 Fe6 Si12 O36'
_cell_volume   731.23569274
_cell_formula_units_Z   6
loop_
 _symmetry_equiv_pos_site_id
 _symmetry_equiv_pos_as_xyz
  1  'x, y, z'
loop_
 _atom_site_type_symbol
 _atom_site_label
 _atom_site_symmetry_multiplicity
 _atom_site_fract_x
 _atom_site_fract_y
 _atom_site_fract_z
 _atom_site_occupancy
  Li  Li0  1  0.00000000  0.78832764  0.24395735  1
  Li  Li1  1  0.00000000  0.77255997  0.76766390  1
  Li  Li2  1  0.22894775  0.29038462  0.45806647  1
  Li  Li3  1  0.23206449  0.21770642  0.03513847  1
  Li  Li4  1  0.26793551  0.78229358  0.53513847  1
  Li  Li5  1  0.27105225  0.70961538  0.95806647  1
  Li  Li6  1  0.50000000  0.22744003  0.26766390  1
  Li  Li7  1  0.50000000  0.21167236  0.74395735  1
  Li  Li8  1  0.72894775  0.70961538  0.95806647  1
  Li  Li9  1  0.73206449  0.78229358  0.53513847  1
  Li  Li10  1  0.76793551  0.21770642  0.03513847  1
  Li  Li11  1  0.77105225  0.29038462  0.45806647  1
  Fe  Fe12  1  0.00000000  0.25018555  0.24632188  1
  Fe  Fe13  1  0.00000000  0.98373601  0.02170651  1
  Fe  Fe14  1  0.00000000  0.51821368  0.46823025  1
  Fe  Fe15  1  0.50000000  0.01626399  0.52170651  1
  Fe  Fe16  1  0.50000000  0.48178632  0.96823025  1
  Fe  Fe17  1  0.50000000  0.74981445  0.74632188  1
  Si  Si18  1  0.00000000  0.98435126  0.53004825  1
  Si  Si19  1  0.00000000  0.51612196  0.96568885  1
  Si  Si20  1  0.22553540  0.02563088  0.75337516  1
  Si  Si21  1  0.22504734  0.47662633  0.74248896  1
  Si  Si22  1  0.27495266  0.52337367  0.24248896  1
  Si  Si23  1  0.27446460  0.97436912  0.25337516  1
  Si  Si24  1  0.50000000  0.48387804  0.46568885  1
  Si  Si25  1  0.50000000  0.01564874  0.03004825  1
  Si  Si26  1  0.72553540  0.97436912  0.25337516  1
  Si  Si27  1  0.72504734  0.52337367  0.24248896  1
  Si  Si28  1  0.77495266  0.47662633  0.74248896  1
  Si  Si29  1  0.77446460  0.02563088  0.75337516  1
  O  O30  1  0.00000000  0.30582385  0.02496418  1
  O  O31  1  0.00000000  0.69368528  0.06567740  1
  O  O32  1  0.00000000  0.19224103  0.46853434  1
  O  O33  1  0.00000000  0.80596829  0.43136196  1
  O  O34  1  0.13553437  0.04369749  0.19410025  1
  O  O35  1  0.12120400  0.55761860  0.85731471  1
  O  O36  1  0.12320838  0.94694062  0.63653574  1
  O  O37  1  0.13912072  0.44346801  0.30201788  1
  O  O38  1  0.17535848  0.95065699  0.89958482  1
  O  O39  1  0.18113910  0.53727398  0.59095858  1
  O  O40  1  0.27638550  0.74906890  0.25675603  1
  O  O41  1  0.22361450  0.25093110  0.75675603  1
  O  O42  1  0.31886090  0.46272602  0.09095858  1
  O  O43  1  0.32464152  0.04934301  0.39958482  1
  O  O44  1  0.36087928  0.55653199  0.80201788  1
  O  O45  1  0.37679162  0.05305938  0.13653574  1
  O  O46  1  0.37879600  0.44238140  0.35731471  1
  O  O47  1  0.36446563  0.95630251  0.69410025  1
  O  O48  1  0.50000000  0.69417615  0.52496418  1
  O  O49  1  0.50000000  0.30631472  0.56567740  1
  O  O50  1  0.50000000  0.19403171  0.93136196  1
  O  O51  1  0.50000000  0.80775897  0.96853434  1
  O  O52  1  0.63553437  0.95630251  0.69410025  1
  O  O53  1  0.62120400  0.44238140  0.35731471  1
  O  O54  1  0.62320838  0.05305938  0.13653574  1
  O  O55  1  0.63912072  0.55653199  0.80201788  1
  O  O56  1  0.67535848  0.04934301  0.39958482  1
  O  O57  1  0.68113910  0.46272602  0.09095858  1
  O  O58  1  0.77638550  0.25093110  0.75675603  1
  O  O59  1  0.72361450  0.74906890  0.25675603  1
  O  O60  1  0.81886090  0.53727398  0.59095858  1
  O  O61  1  0.82464152  0.95065699  0.89958482  1
  O  O62  1  0.86087928  0.44346801  0.30201788  1
  O  O63  1  0.87679162  0.94694062  0.63653574  1
  O  O64  1  0.87879600  0.55761860  0.85731471  1
  O  O65  1  0.86446563  0.04369749  0.19410025  1
