# generated using pymatgen
data_Li7Mn7P6(O8F)3
_symmetry_space_group_name_H-M   'P 1'
_cell_length_a   13.60403304
_cell_length_b   13.60386463
_cell_length_c   6.51217192
_cell_angle_alpha   90.00052568
_cell_angle_beta   90.00035366
_cell_angle_gamma   59.99981660
_symmetry_Int_Tables_number   1
_chemical_formula_structural   Li7Mn7P6(O8F)3
_chemical_formula_sum   'Li14 Mn14 P12 O48 F6'
_cell_volume   1043.72399006
_cell_formula_units_Z   2
loop_
 _symmetry_equiv_pos_site_id
 _symmetry_equiv_pos_as_xyz
  1  'x, y, z'
loop_
 _atom_site_type_symbol
 _atom_site_label
 _atom_site_symmetry_multiplicity
 _atom_site_fract_x
 _atom_site_fract_y
 _atom_site_fract_z
 _atom_site_occupancy
  Li  Li0  1  0.13082017  0.57657179  0.99792273  1
  Li  Li1  1  0.12684709  0.58310763  0.52429321  1
  Li  Li2  1  0.42342663  0.70739379  0.49793486  1
  Li  Li3  1  0.41689428  0.70995328  0.02428962  1
  Li  Li4  1  0.70996443  0.87314850  0.02428706  1
  Li  Li5  1  0.70740396  0.86917394  0.49792897  1
  Li  Li6  1  0.99999895  0.00000027  0.99845655  1
  Li  Li7  1  0.99999947  0.99999909  0.49845495  1
  Li  Li8  1  0.29259954  0.13082485  0.99792772  1
  Li  Li9  1  0.29004001  0.12684678  0.52429097  1
  Li  Li10  1  0.58311325  0.29004796  0.52427260  1
  Li  Li11  1  0.57656986  0.29260461  0.99793580  1
  Li  Li12  1  0.87316192  0.41688451  0.02429130  1
  Li  Li13  1  0.86917691  0.42342808  0.49792444  1
  Mn  Mn14  1  0.25579501  0.93407220  0.25559926  1
  Mn  Mn15  1  0.18990553  0.74422700  0.75562349  1
  Mn  Mn16  1  0.50040390  0.89389927  0.75577974  1
  Mn  Mn17  1  0.10614283  0.39427150  0.25583133  1
  Mn  Mn18  1  0.06586417  0.18990344  0.75561507  1
  Mn  Mn19  1  0.39427287  0.49958670  0.25580930  1
  Mn  Mn20  1  0.33335030  0.33331226  0.49605139  1
  Mn  Mn21  1  0.66666215  0.66667801  0.99605050  1
  Mn  Mn22  1  0.60572748  0.50042014  0.75581839  1
  Mn  Mn23  1  0.93413417  0.81009476  0.25560680  1
  Mn  Mn24  1  0.89385660  0.60573204  0.75582911  1
  Mn  Mn25  1  0.49959547  0.10610035  0.25575702  1
  Mn  Mn26  1  0.81012310  0.25577939  0.25557080  1
  Mn  Mn27  1  0.74419819  0.06592991  0.75557262  1
  P  P28  1  0.25061528  0.93508606  0.75491782  1
  P  P29  1  0.18569832  0.74937775  0.25493243  1
  P  P30  1  0.48847562  0.88083511  0.26127433  1
  P  P31  1  0.11917191  0.36930388  0.76130000  1
  P  P32  1  0.36930891  0.51152198  0.76128864  1
  P  P33  1  0.06492418  0.18569846  0.25492146  1
  P  P34  1  0.93508551  0.81429634  0.75493104  1
  P  P35  1  0.63069062  0.48847564  0.26129029  1
  P  P36  1  0.88083145  0.63069204  0.26129743  1
  P  P37  1  0.51152396  0.11915903  0.76125570  1
  P  P38  1  0.81430080  0.25062006  0.75490909  1
  P  P39  1  0.74938222  0.06491869  0.25491179  1
  O  O40  1  0.11900059  0.01417269  0.75526631  1
  O  O41  1  0.13316787  0.88100204  0.25526343  1
  O  O42  1  0.00072209  0.68079521  0.75092376  1
  O  O43  1  0.37650186  0.99813036  0.24461463  1
  O  O44  1  0.28373997  0.85720994  0.56422164  1
  O  O45  1  0.14095553  0.71625681  0.06421086  1
  O  O46  1  0.28447243  0.85930753  0.94886846  1
  O  O47  1  0.14377893  0.71553452  0.44887415  1
  O  O48  1  0.31919720  0.68152047  0.25092546  1
  O  O49  1  0.00186914  0.37463145  0.74461416  1
  O  O50  1  0.55394744  0.88456974  0.45234679  1
  O  O51  1  0.11542427  0.43850951  0.95239616  1
  O  O52  1  0.45914707  0.78584001  0.26755741  1
  O  O53  1  0.13972361  0.42523612  0.56542375  1
  O  O54  1  0.56494684  0.86028225  0.06538033  1
  O  O55  1  0.68152525  0.99927612  0.25091595  1
  O  O56  1  0.24500292  0.54083738  0.76754866  1
  O  O57  1  0.37463736  0.62349673  0.74461642  1
  O  O58  1  0.98582987  0.13317220  0.25525829  1
  O  O59  1  0.21416086  0.24499406  0.76755615  1
  O  O60  1  0.14068806  0.14378312  0.44887313  1
  O  O61  1  0.43851692  0.44605809  0.95237872  1
  O  O62  1  0.14278521  0.14095620  0.06420766  1
  O  O63  1  0.57475274  0.56496460  0.06540099  1
  O  O64  1  0.42524572  0.43503842  0.56539767  1
  O  O65  1  0.85722014  0.85904193  0.56420917  1
  O  O66  1  0.56148120  0.55394333  0.45237668  1
  O  O67  1  0.85931986  0.85621167  0.94887339  1
  O  O68  1  0.78583796  0.75499645  0.26755025  1
  O  O69  1  0.01418259  0.86682266  0.75527298  1
  O  O70  1  0.62537036  0.37650105  0.24461277  1
  O  O71  1  0.75499796  0.45916258  0.26754521  1
  O  O72  1  0.31847891  0.00072000  0.75091831  1
  O  O73  1  0.43505659  0.13970138  0.56536121  1
  O  O74  1  0.86028248  0.57475348  0.06540351  1
  O  O75  1  0.54083664  0.21416540  0.76753681  1
  O  O76  1  0.88457794  0.56148086  0.45238659  1
  O  O77  1  0.44605619  0.11541901  0.95232327  1
  O  O78  1  0.99813113  0.62536233  0.24461439  1
  O  O79  1  0.68080131  0.31848494  0.75092593  1
  O  O80  1  0.85622869  0.28447065  0.94885962  1
  O  O81  1  0.71552344  0.14069604  0.44885683  1
  O  O82  1  0.85904266  0.28374441  0.56420288  1
  O  O83  1  0.71625473  0.14278637  0.06420825  1
  O  O84  1  0.62350476  0.00186810  0.74460803  1
  O  O85  1  0.99928298  0.31919992  0.25091802  1
  O  O86  1  0.86683286  0.11899905  0.75525954  1
  O  O87  1  0.88100051  0.98582857  0.25526846  1
  F  F88  1  0.25000077  0.47694306  0.28279127  1
  F  F89  1  0.52305428  0.72695256  0.78277640  1
  F  F90  1  0.72694222  0.74999983  0.78278778  1
  F  F91  1  0.27305785  0.25000006  0.28277942  1
  F  F92  1  0.47694576  0.27304034  0.28277440  1
  F  F93  1  0.75000047  0.52305231  0.78277909  1
