# generated using pymatgen
data_Ca(MnS2)4
_symmetry_space_group_name_H-M   'P 1'
_cell_length_a   6.98472243
_cell_length_b   7.07988239
_cell_length_c   7.07988318
_cell_angle_alpha   60.00000108
_cell_angle_beta   59.54828500
_cell_angle_gamma   59.54827946
_symmetry_Int_Tables_number   1
_chemical_formula_structural   Ca(MnS2)4
_chemical_formula_sum   'Ca1 Mn4 S8'
_cell_volume   245.85953938
_cell_formula_units_Z   1
loop_
 _symmetry_equiv_pos_site_id
 _symmetry_equiv_pos_as_xyz
  1  'x, y, z'
loop_
 _atom_site_type_symbol
 _atom_site_label
 _atom_site_symmetry_multiplicity
 _atom_site_fract_x
 _atom_site_fract_y
 _atom_site_fract_z
 _atom_site_occupancy
  Ca  Ca0  1  0.50000000  0.00000000  0.00000000  1
  Mn  Mn1  1  0.00000000  0.50000000  0.50000000  1
  Mn  Mn2  1  0.50000000  0.50000000  0.00000000  1
  Mn  Mn3  1  0.50000000  0.50000000  0.50000000  1
  Mn  Mn4  1  0.50000000  0.00000000  0.50000000  1
  S  S5  1  0.25314989  0.26780179  0.26780179  1
  S  S6  1  0.25314989  0.26780179  0.71124652  1
  S  S7  1  0.25314989  0.71124652  0.26780179  1
  S  S8  1  0.71769494  0.26076802  0.26076802  1
  S  S9  1  0.28230506  0.73923198  0.73923198  1
  S  S10  1  0.74685011  0.73219821  0.28875348  1
  S  S11  1  0.74685011  0.28875348  0.73219821  1
  S  S12  1  0.74685011  0.73219821  0.73219821  1
