# generated using pymatgen
data_CaCu2(Si2O5)4
_symmetry_space_group_name_H-M   'P 1'
_cell_length_a   7.27088615
_cell_length_b   7.27088615
_cell_length_c   15.45834912
_cell_angle_alpha   90.00000000
_cell_angle_beta   90.00000000
_cell_angle_gamma   90.00000000
_symmetry_Int_Tables_number   1
_chemical_formula_structural   CaCu2(Si2O5)4
_chemical_formula_sum   'Ca2 Cu4 Si16 O40'
_cell_volume   817.21776731
_cell_formula_units_Z   2
loop_
 _symmetry_equiv_pos_site_id
 _symmetry_equiv_pos_as_xyz
  1  'x, y, z'
loop_
 _atom_site_type_symbol
 _atom_site_label
 _atom_site_symmetry_multiplicity
 _atom_site_fract_x
 _atom_site_fract_y
 _atom_site_fract_z
 _atom_site_occupancy
  Ca  Ca0  1  0.75000000  0.25000000  0.50000000  1
  Ca  Ca1  1  0.25000000  0.75000000  0.00000000  1
  Cu  Cu2  1  0.25000000  0.25000000  0.58708163  1
  Cu  Cu3  1  0.75000000  0.75000000  0.91291837  1
  Cu  Cu4  1  0.75000000  0.75000000  0.41291837  1
  Cu  Cu5  1  0.25000000  0.25000000  0.08708163  1
  Si  Si6  1  0.92982775  0.50434944  0.64887118  1
  Si  Si7  1  0.57017225  0.99565056  0.64887118  1
  Si  Si8  1  0.99938214  0.42906633  0.85347786  1
  Si  Si9  1  0.49938214  0.57093367  0.64652214  1
  Si  Si10  1  0.00061786  0.92906633  0.64652214  1
  Si  Si11  1  0.07017225  0.00434944  0.85112882  1
  Si  Si12  1  0.42982775  0.49565056  0.85112882  1
  Si  Si13  1  0.50061786  0.07093367  0.85347786  1
  Si  Si14  1  0.07093367  0.50061786  0.35347786  1
  Si  Si15  1  0.42906633  0.99938214  0.35347786  1
  Si  Si16  1  0.99565056  0.57017225  0.14887118  1
  Si  Si17  1  0.49565056  0.42982775  0.35112882  1
  Si  Si18  1  0.00434944  0.07017225  0.35112882  1
  Si  Si19  1  0.92906633  0.00061786  0.14652214  1
  Si  Si20  1  0.57093367  0.49938214  0.14652214  1
  Si  Si21  1  0.50434944  0.92982775  0.14887118  1
  O  O22  1  0.01196496  0.34643421  0.58439921  1
  O  O23  1  0.48803504  0.15356579  0.58439921  1
  O  O24  1  0.84677262  0.51911533  0.91611274  1
  O  O25  1  0.34677262  0.48088467  0.58388726  1
  O  O26  1  0.15322738  0.01911533  0.58388726  1
  O  O27  1  0.98803504  0.84643421  0.91560079  1
  O  O28  1  0.51196496  0.65356579  0.91560079  1
  O  O29  1  0.65322738  0.98088467  0.91611274  1
  O  O30  1  0.98088467  0.65322738  0.41611274  1
  O  O31  1  0.51911533  0.84677262  0.41611274  1
  O  O32  1  0.15356579  0.48803504  0.08439921  1
  O  O33  1  0.65356579  0.51196496  0.41560079  1
  O  O34  1  0.84643421  0.98803504  0.41560079  1
  O  O35  1  0.01911533  0.15322738  0.08388726  1
  O  O36  1  0.48088467  0.34677262  0.08388726  1
  O  O37  1  0.99056223  0.29157735  0.37530084  1
  O  O38  1  0.34643421  0.01196496  0.08439921  1
  O  O39  1  0.49846412  0.79045493  0.62798399  1
  O  O40  1  0.20842265  0.50943777  0.87530084  1
  O  O41  1  0.70842265  0.49056223  0.62469916  1
  O  O42  1  0.79157735  0.00943777  0.62469916  1
  O  O43  1  0.99846412  0.20954507  0.87201601  1
  O  O44  1  0.50153588  0.29045493  0.87201601  1
  O  O45  1  0.29157735  0.99056223  0.87530084  1
  O  O46  1  0.45934190  0.96153946  0.25035500  1
  O  O47  1  0.54065810  0.46154046  0.24964500  1
  O  O48  1  0.95934090  0.03845954  0.24964500  1
  O  O49  1  0.04065810  0.53845954  0.25035500  1
  O  O50  1  0.53845954  0.04065810  0.75035500  1
  O  O51  1  0.46154046  0.54065810  0.74964500  1
  O  O52  1  0.03845954  0.95934090  0.74964500  1
  O  O53  1  0.96153946  0.45934190  0.75035500  1
  O  O54  1  0.70954507  0.00153588  0.12798399  1
  O  O55  1  0.49056223  0.70842265  0.12469916  1
  O  O56  1  0.00943777  0.79157735  0.12469916  1
  O  O57  1  0.20954507  0.99846412  0.37201601  1
  O  O58  1  0.29045493  0.50153588  0.37201601  1
  O  O59  1  0.79045493  0.49846412  0.12798399  1
  O  O60  1  0.50943777  0.20842265  0.37530084  1
  O  O61  1  0.00153588  0.70954507  0.62798399  1
