# generated using pymatgen
data_TaF5
_symmetry_space_group_name_H-M   'P 1'
_cell_length_a   5.55287289
_cell_length_b   5.56284381
_cell_length_c   7.91966399
_cell_angle_alpha   96.94147518
_cell_angle_beta   109.81281146
_cell_angle_gamma   110.36826234
_symmetry_Int_Tables_number   1
_chemical_formula_structural   TaF5
_chemical_formula_sum   'Ta2 F10'
_cell_volume   207.70380752
_cell_formula_units_Z   2
loop_
 _symmetry_equiv_pos_site_id
 _symmetry_equiv_pos_as_xyz
  1  'x, y, z'
loop_
 _atom_site_type_symbol
 _atom_site_label
 _atom_site_symmetry_multiplicity
 _atom_site_fract_x
 _atom_site_fract_y
 _atom_site_fract_z
 _atom_site_occupancy
  Ta  Ta0  1  0.99578029  0.99962744  0.99956690  1
  Ta  Ta1  1  0.49981378  0.00067104  0.49876196  1
  F  F2  1  0.31973998  0.06981047  0.24789251  1
  F  F3  1  0.67399327  0.93062658  0.74970070  1
  F  F4  1  0.59200219  0.75053786  0.38185254  1
  F  F5  1  0.86742537  0.21456397  0.11676970  1
  F  F6  1  0.77180767  0.70276836  0.05290037  1
  F  F7  1  0.14620444  0.72815639  0.44722492  1
  F  F8  1  0.22191516  0.29811640  0.94857092  1
  F  F9  1  0.85345263  0.27101094  0.54929274  1
  F  F10  1  0.11717112  0.78294476  0.87801470  1
  F  F11  1  0.40894212  0.25281479  0.61532902  1
