# generated using pymatgen
data_CoH20C4(N5O6)2
_symmetry_space_group_name_H-M   'P 1'
_cell_length_a   6.67806349
_cell_length_b   8.02822953
_cell_length_c   18.02925648
_cell_angle_alpha   90.00000000
_cell_angle_beta   90.00000000
_cell_angle_gamma   96.83048550
_symmetry_Int_Tables_number   1
_chemical_formula_structural   CoH20C4(N5O6)2
_chemical_formula_sum   'Co2 H40 C8 N20 O24'
_cell_volume   959.74241384
_cell_formula_units_Z   2
loop_
 _symmetry_equiv_pos_site_id
 _symmetry_equiv_pos_as_xyz
  1  'x, y, z'
loop_
 _atom_site_type_symbol
 _atom_site_label
 _atom_site_symmetry_multiplicity
 _atom_site_fract_x
 _atom_site_fract_y
 _atom_site_fract_z
 _atom_site_occupancy
  Co  Co0  1  -0.00000000  -0.00000000  0.00000000  1
  Co  Co1  1  0.50000000  0.50000000  0.50000000  1
  H  H2  1  0.41766438  0.88259101  0.19119688  1
  H  H3  1  0.58233562  0.11740899  0.80880312  1
  H  H4  1  0.08233562  0.61740899  0.69119688  1
  H  H5  1  0.91766438  0.38259101  0.30880312  1
  H  H6  1  0.36375406  0.80055162  0.48238603  1
  H  H7  1  0.63624594  0.19944838  0.51761397  1
  H  H8  1  0.13624594  0.69944838  0.98238603  1
  H  H9  1  0.86375406  0.30055162  0.01761397  1
  H  H10  1  0.78558242  0.67780181  0.28342958  1
  H  H11  1  0.21441758  0.32219819  0.71657042  1
  H  H12  1  0.71441758  0.82219819  0.78342958  1
  H  H13  1  0.28558242  0.17780181  0.21657042  1
  H  H14  1  0.01510203  0.88749563  0.43598555  1
  H  H15  1  0.98489797  0.11250437  0.56401445  1
  H  H16  1  0.48489797  0.61250437  0.93598555  1
  H  H17  1  0.51510203  0.38749563  0.06401445  1
  H  H18  1  0.06732908  0.70462529  0.06571139  1
  H  H19  1  0.93267092  0.29537471  0.93428861  1
  H  H20  1  0.43267092  0.79537471  0.56571139  1
  H  H21  1  0.56732908  0.20462529  0.43428861  1
  H  H22  1  0.96962254  0.83725267  0.31042496  1
  H  H23  1  0.03037746  0.16274733  0.68957504  1
  H  H24  1  0.53037746  0.66274733  0.81042496  1
  H  H25  1  0.46962254  0.33725267  0.18957504  1
  H  H26  1  0.08147121  0.92092044  0.83723570  1
  H  H27  1  0.91852879  0.07907956  0.16276430  1
  H  H28  1  0.41852879  0.57907956  0.33723570  1
  H  H29  1  0.58147121  0.42092044  0.66276430  1
  H  H30  1  0.28594130  0.94631290  0.77301795  1
  H  H31  1  0.71405870  0.05368710  0.22698205  1
  H  H32  1  0.21405870  0.55368710  0.27301795  1
  H  H33  1  0.78594130  0.44631290  0.72698205  1
  H  H34  1  0.39881220  0.80831200  0.10122027  1
  H  H35  1  0.60118780  0.19168800  0.89877973  1
  H  H36  1  0.10118780  0.69168800  0.60122027  1
  H  H37  1  0.89881220  0.30831200  0.39877973  1
  H  H38  1  0.84963369  0.77497007  0.49981668  1
  H  H39  1  0.15036631  0.22502993  0.50018332  1
  H  H40  1  0.65036631  0.72502993  0.99981668  1
  H  H41  1  0.34963369  0.27497007  0.00018332  1
  C  C42  1  0.77972548  0.73194736  0.39248533  1
  C  C43  1  0.22027452  0.26805264  0.60751467  1
  C  C44  1  0.72027452  0.76805264  0.89248533  1
  C  C45  1  0.27972548  0.23194736  0.10751467  1
  C  C46  1  0.67381287  0.92920883  0.12681157  1
  C  C47  1  0.32618713  0.07079117  0.87318843  1
  C  C48  1  0.82618713  0.57079117  0.62681157  1
  C  C49  1  0.17381287  0.42920883  0.37318843  1
  N  N50  1  0.48954197  0.84960459  0.14444679  1
  N  N51  1  0.51045803  0.15039541  0.85555321  1
  N  N52  1  0.01045803  0.65039541  0.64444679  1
  N  N53  1  0.98954197  0.34960459  0.35555321  1
  N  N54  1  0.83504040  0.76706617  0.32145147  1
  N  N55  1  0.16495960  0.23293383  0.67854853  1
  N  N56  1  0.66495960  0.73293383  0.82145147  1
  N  N57  1  0.33504040  0.26706617  0.17854853  1
  N  N58  1  0.22475202  0.97016340  0.82301837  1
  N  N59  1  0.77524798  0.02983660  0.17698163  1
  N  N60  1  0.27524798  0.52983660  0.32301837  1
  N  N61  1  0.72475202  0.47016340  0.67698163  1
  N  N62  1  0.87900492  0.82030656  0.44736043  1
  N  N63  1  0.12099508  0.17969344  0.55263957  1
  N  N64  1  0.62099508  0.67969344  0.94736043  1
  N  N65  1  0.37900492  0.32030656  0.05263957  1
  N  N66  1  0.86254873  0.51558887  0.15633705  1
  N  N67  1  0.13745127  0.48441113  0.84366295  1
  N  N68  1  0.63745127  0.98441113  0.65633705  1
  N  N69  1  0.36254873  0.01558887  0.34366295  1
  O  O70  1  0.62963388  0.62064936  0.40490794  1
  O  O71  1  0.37036612  0.37935064  0.59509206  1
  O  O72  1  0.87036612  0.87935064  0.90490794  1
  O  O73  1  0.12963388  0.12064936  0.09509206  1
  O  O74  1  0.02754038  0.60836125  0.16603769  1
  O  O75  1  0.97245962  0.39163875  0.83396231  1
  O  O76  1  0.47245962  0.89163875  0.66603769  1
  O  O77  1  0.52754038  0.10836125  0.33396231  1
  O  O78  1  0.75028782  0.59741272  0.56335807  1
  O  O79  1  0.24971218  0.40258728  0.43664193  1
  O  O80  1  0.74971218  0.90258728  0.06335807  1
  O  O81  1  0.25028782  0.09741272  0.93664193  1
  O  O82  1  0.30138261  0.97991102  0.40924077  1
  O  O83  1  0.69861739  0.02008898  0.59075923  1
  O  O84  1  0.19861739  0.52008898  0.90924077  1
  O  O85  1  0.80138261  0.47991102  0.09075923  1
  O  O86  1  0.25721751  0.96027496  0.28810392  1
  O  O87  1  0.74278249  0.03972504  0.71189608  1
  O  O88  1  0.24278249  0.53972504  0.78810392  1
  O  O89  1  0.75721751  0.46027496  0.21189608  1
  O  O90  1  0.13474693  0.77408739  0.02547087  1
  O  O91  1  0.86525307  0.22591261  0.97452913  1
  O  O92  1  0.36525307  0.72591261  0.52547087  1
  O  O93  1  0.63474693  0.27408739  0.47452913  1
