# generated using pymatgen
data_TaF5
_symmetry_space_group_name_H-M   'P 1'
_cell_length_a   5.53967057
_cell_length_b   7.94366023
_cell_length_c   10.08657056
_cell_angle_alpha   90.00000000
_cell_angle_beta   90.00000000
_cell_angle_gamma   110.93334261
_symmetry_Int_Tables_number   1
_chemical_formula_structural   TaF5
_chemical_formula_sum   'Ta4 F20'
_cell_volume   414.56580774
_cell_formula_units_Z   4
loop_
 _symmetry_equiv_pos_site_id
 _symmetry_equiv_pos_as_xyz
  1  'x, y, z'
loop_
 _atom_site_type_symbol
 _atom_site_label
 _atom_site_symmetry_multiplicity
 _atom_site_fract_x
 _atom_site_fract_y
 _atom_site_fract_z
 _atom_site_occupancy
  Ta  Ta0  1  0.88167141  0.59821943  0.75134802  1
  Ta  Ta1  1  0.11832859  0.90178057  0.25134802  1
  Ta  Ta2  1  0.11832859  0.40178057  0.24865198  1
  Ta  Ta3  1  0.88167141  0.09821943  0.74865198  1
  F  F4  1  0.60397546  0.56983951  0.86844302  1
  F  F5  1  0.39602454  0.93016049  0.36844302  1
  F  F6  1  0.39602454  0.43016049  0.13155698  1
  F  F7  1  0.60397546  0.06983951  0.63155698  1
  F  F8  1  0.64370987  0.48561025  0.61672435  1
  F  F9  1  0.35629013  0.01438975  0.11672435  1
  F  F10  1  0.35629013  0.51438975  0.38327565  1
  F  F11  1  0.64370987  0.98561025  0.88327565  1
  F  F12  1  0.88544849  0.79834086  0.39084184  1
  F  F13  1  0.11455151  0.70165914  0.89084184  1
  F  F14  1  0.11455151  0.20165914  0.60915816  1
  F  F15  1  0.88544849  0.29834086  0.10915816  1
  F  F16  1  0.83792741  0.87326880  0.13638633  1
  F  F17  1  0.16207259  0.62673120  0.63638633  1
  F  F18  1  0.16207259  0.12673120  0.86361367  1
  F  F19  1  0.83792741  0.37326880  0.36361367  1
  F  F20  1  0.88293670  0.84667639  0.69823379  1
  F  F21  1  0.11706330  0.65332361  0.19823379  1
  F  F22  1  0.11706330  0.15332361  0.30176621  1
  F  F23  1  0.88293670  0.34667639  0.80176621  1
