# generated using pymatgen
data_YNiO3
_symmetry_space_group_name_H-M   'P 1'
_cell_length_a   6.18090844
_cell_length_b   6.18090810
_cell_length_c   11.35973568
_cell_angle_alpha   90.00000000
_cell_angle_beta   90.00000000
_cell_angle_gamma   120.00000180
_symmetry_Int_Tables_number   1
_chemical_formula_structural   YNiO3
_chemical_formula_sum   'Y6 Ni6 O18'
_cell_volume   375.84038740
_cell_formula_units_Z   6
loop_
 _symmetry_equiv_pos_site_id
 _symmetry_equiv_pos_as_xyz
  1  'x, y, z'
loop_
 _atom_site_type_symbol
 _atom_site_label
 _atom_site_symmetry_multiplicity
 _atom_site_fract_x
 _atom_site_fract_y
 _atom_site_fract_z
 _atom_site_occupancy
  Y  Y0  1  0.66666700  0.33333300  0.23341748  1
  Y  Y1  1  0.33333300  0.66666700  0.73341748  1
  Y  Y2  1  0.66666700  0.33333300  0.73341748  1
  Y  Y3  1  0.33333300  0.66666700  0.23341748  1
  Y  Y4  1  0.00000000  0.00000000  0.77691372  1
  Y  Y5  1  0.00000000  0.00000000  0.27691372  1
  Ni  Ni6  1  0.66732521  0.00000000  0.50143135  1
  Ni  Ni7  1  0.66732521  0.66732521  0.00143135  1
  Ni  Ni8  1  0.00000000  0.33267479  0.00143135  1
  Ni  Ni9  1  1.00000000  0.66732521  0.50143135  1
  Ni  Ni10  1  0.33267479  0.33267479  0.50143135  1
  Ni  Ni11  1  0.33267479  0.00000000  0.00143135  1
  O  O12  1  0.66666700  0.33333300  0.01918620  1
  O  O13  1  0.33333300  0.66666700  0.51918620  1
  O  O14  1  0.66666700  0.33333300  0.51918620  1
  O  O15  1  0.33333300  0.66666700  0.01918620  1
  O  O16  1  0.00000000  0.00000000  0.98039841  1
  O  O17  1  0.00000000  0.00000000  0.48039841  1
  O  O18  1  0.35728348  0.00000000  0.83811441  1
  O  O19  1  0.35728348  0.35728348  0.33811441  1
  O  O20  1  0.00000000  0.64271652  0.33811441  1
  O  O21  1  1.00000000  0.35728348  0.83811441  1
  O  O22  1  0.64271652  0.64271652  0.83811441  1
  O  O23  1  0.64271652  0.00000000  0.33811441  1
  O  O24  1  0.30947643  0.00000000  0.16461442  1
  O  O25  1  0.30947643  0.30947643  0.66461442  1
  O  O26  1  1.00000000  0.69052357  0.66461442  1
  O  O27  1  0.00000000  0.30947643  0.16461442  1
  O  O28  1  0.69052357  0.69052357  0.16461442  1
  O  O29  1  0.69052357  0.00000000  0.66461442  1
