# generated using pymatgen
data_Mg2FeN2
_symmetry_space_group_name_H-M   'P 1'
_cell_length_a   4.31232261
_cell_length_b   5.51016001
_cell_length_c   6.22825631
_cell_angle_alpha   64.10298006
_cell_angle_beta   69.74553539
_cell_angle_gamma   66.96418615
_symmetry_Int_Tables_number   1
_chemical_formula_structural   Mg2FeN2
_chemical_formula_sum   'Mg4 Fe2 N4'
_cell_volume   119.73816182
_cell_formula_units_Z   2
loop_
 _symmetry_equiv_pos_site_id
 _symmetry_equiv_pos_as_xyz
  1  'x, y, z'
loop_
 _atom_site_type_symbol
 _atom_site_label
 _atom_site_symmetry_multiplicity
 _atom_site_fract_x
 _atom_site_fract_y
 _atom_site_fract_z
 _atom_site_occupancy
  Mg  Mg0  1  0.67727190  0.23746832  0.40798889  1
  Mg  Mg1  1  0.32272810  0.76253168  0.59201111  1
  Mg  Mg2  1  0.03175566  0.68958650  0.24690118  1
  Mg  Mg3  1  0.96824434  0.31041350  0.75309882  1
  Fe  Fe4  1  0.36870040  0.13715612  0.12544409  1
  Fe  Fe5  1  0.63129960  0.86284388  0.87455591  1
  N  N6  1  0.18021112  0.24571188  0.39386688  1
  N  N7  1  0.81978888  0.75428812  0.60613312  1
  N  N8  1  0.47710560  0.25712048  0.78866831  1
  N  N9  1  0.52289440  0.74287952  0.21133169  1
