# generated using pymatgen
data_Y2Cu3(WO4)6
_symmetry_space_group_name_H-M   'P 1'
_cell_length_a   15.16934577
_cell_length_b   6.02397300
_cell_length_c   9.91546161
_cell_angle_alpha   90.00000000
_cell_angle_beta   93.76023571
_cell_angle_gamma   90.00000000
_symmetry_Int_Tables_number   1
_chemical_formula_structural   Y2Cu3(WO4)6
_chemical_formula_sum   'Y4 Cu6 W12 O48'
_cell_volume   904.12162758
_cell_formula_units_Z   2
loop_
 _symmetry_equiv_pos_site_id
 _symmetry_equiv_pos_as_xyz
  1  'x, y, z'
loop_
 _atom_site_type_symbol
 _atom_site_label
 _atom_site_symmetry_multiplicity
 _atom_site_fract_x
 _atom_site_fract_y
 _atom_site_fract_z
 _atom_site_occupancy
  Y  Y0  1  0.08134691  0.66557539  0.24712239  1
  Y  Y1  1  0.75198609  0.66557539  0.25287761  1
  Y  Y2  1  0.25198609  0.33442361  0.75287761  1
  Y  Y3  1  0.58134691  0.33442361  0.74712239  1
  Cu  Cu4  1  0.24847847  0.28695855  0.24808942  1
  Cu  Cu5  1  0.58485453  0.28695855  0.25191058  1
  Cu  Cu6  1  0.91666700  0.26364787  0.25000000  1
  Cu  Cu7  1  0.08485453  0.71304045  0.75191058  1
  Cu  Cu8  1  0.41666700  0.73635113  0.75000000  1
  Cu  Cu9  1  0.74847847  0.71304045  0.74808942  1
  W  W10  1  0.08052136  0.16608277  0.49699927  1
  W  W11  1  0.41449675  0.16419558  0.48724287  1
  W  W12  1  0.75161107  0.17578003  0.50100429  1
  W  W13  1  0.08172193  0.17578003  0.99899671  1
  W  W14  1  0.41883625  0.16419558  0.01275813  1
  W  W15  1  0.75281164  0.16608277  0.00300173  1
  W  W16  1  0.25281264  0.83391723  0.50300073  1
  W  W17  1  0.58172193  0.82421997  0.49899571  1
  W  W18  1  0.91883625  0.83580442  0.51275713  1
  W  W19  1  0.25161207  0.82421997  0.00100329  1
  W  W20  1  0.58052136  0.83391723  0.99699827  1
  W  W21  1  0.91449675  0.83580442  0.98724187  1
  O  O22  1  0.13948478  0.34699652  0.14010265  1
  O  O23  1  0.47971825  0.32920296  0.13990322  1
  O  O24  1  0.80640104  0.34382091  0.14242678  1
  O  O25  1  0.02693196  0.34382091  0.35757222  1
  O  O26  1  0.35361475  0.32920296  0.36009578  1
  O  O27  1  0.69384822  0.34699652  0.35989635  1
  O  O28  1  0.19384922  0.65300248  0.85989735  1
  O  O29  1  0.52693196  0.65617809  0.85757322  1
  O  O30  1  0.85361475  0.67079604  0.86009678  1
  O  O31  1  0.30640104  0.65617809  0.64242778  1
  O  O32  1  0.63948478  0.65300248  0.64010365  1
  O  O33  1  0.97971825  0.67079604  0.63990422  1
  O  O34  1  0.14844554  0.91445122  0.60828584  1
  O  O35  1  0.48082890  0.90529199  0.60626865  1
  O  O36  1  0.81256379  0.90862559  0.60453875  1
  O  O37  1  0.02076921  0.90862559  0.89546125  1
  O  O38  1  0.35250510  0.90529199  0.89373135  1
  O  O39  1  0.68488746  0.91445122  0.89171416  1
  O  O40  1  0.18488746  0.08554878  0.39171416  1
  O  O41  1  0.52076921  0.09137441  0.39546125  1
  O  O42  1  0.85250510  0.09470801  0.39373135  1
  O  O43  1  0.31256379  0.09137441  0.10453875  1
  O  O44  1  0.64844554  0.08554878  0.10828584  1
  O  O45  1  0.98082890  0.09470801  0.10626865  1
  O  O46  1  0.29403708  0.60736736  0.10545151  1
  O  O47  1  0.63263968  0.62221062  0.10748376  1
  O  O48  1  0.96127763  0.62755738  0.10802587  1
  O  O49  1  0.20069332  0.62221062  0.39251624  1
  O  O50  1  0.53929592  0.60736736  0.39454849  1
  O  O51  1  0.87205637  0.62755738  0.39197413  1
  O  O52  1  0.03929592  0.39263364  0.89454849  1
  O  O53  1  0.37205637  0.37244362  0.89197413  1
  O  O54  1  0.70069332  0.37779038  0.89251624  1
  O  O55  1  0.13263968  0.37779038  0.60748376  1
  O  O56  1  0.46127763  0.37244362  0.60802587  1
  O  O57  1  0.79403708  0.39263364  0.60545151  1
  O  O58  1  0.14962208  0.88628096  0.10292396  1
  O  O59  1  0.48222711  0.88943360  0.09546245  1
  O  O60  1  0.81432735  0.88762727  0.10448862  1
  O  O61  1  0.18371092  0.11372004  0.89707604  1
  O  O62  1  0.51900665  0.11237373  0.89551138  1
  O  O63  1  0.85110589  0.11056740  0.90453755  1
  O  O64  1  0.01900665  0.88762727  0.39551238  1
  O  O65  1  0.35110589  0.88943360  0.40453855  1
  O  O66  1  0.68371192  0.88628096  0.39707704  1
  O  O67  1  0.31432635  0.11237373  0.60448762  1
  O  O68  1  0.64962208  0.11372004  0.60292296  1
  O  O69  1  0.98222711  0.11056740  0.59546145  1
