# generated using pymatgen
data_MgBiF5
_symmetry_space_group_name_H-M   'P 1'
_cell_length_a   5.38973108
_cell_length_b   8.42431208
_cell_length_c   10.46169634
_cell_angle_alpha   90.00000000
_cell_angle_beta   90.00000000
_cell_angle_gamma   103.51283353
_symmetry_Int_Tables_number   1
_chemical_formula_structural   MgBiF5
_chemical_formula_sum   'Mg4 Bi4 F20'
_cell_volume   461.86154505
_cell_formula_units_Z   4
loop_
 _symmetry_equiv_pos_site_id
 _symmetry_equiv_pos_as_xyz
  1  'x, y, z'
loop_
 _atom_site_type_symbol
 _atom_site_label
 _atom_site_symmetry_multiplicity
 _atom_site_fract_x
 _atom_site_fract_y
 _atom_site_fract_z
 _atom_site_occupancy
  Mg  Mg0  1  0.48165842  0.80244683  0.01080126  1
  Mg  Mg1  1  0.51834158  0.69755317  0.51080126  1
  Mg  Mg2  1  0.51834158  0.19755317  0.98919874  1
  Mg  Mg3  1  0.48165842  0.30244683  0.48919874  1
  Bi  Bi4  1  0.90422584  0.60632685  0.76676809  1
  Bi  Bi5  1  0.09577416  0.89367315  0.26676809  1
  Bi  Bi6  1  0.09577416  0.39367315  0.23323191  1
  Bi  Bi7  1  0.90422584  0.10632685  0.73323191  1
  F  F8  1  0.60637959  0.64315749  0.90416430  1
  F  F9  1  0.39362041  0.85684251  0.40416430  1
  F  F10  1  0.39362041  0.35684251  0.09583570  1
  F  F11  1  0.60637959  0.14315749  0.59583570  1
  F  F12  1  0.63532756  0.50274216  0.59741102  1
  F  F13  1  0.36467244  0.99725784  0.09741102  1
  F  F14  1  0.36467244  0.49725784  0.40258898  1
  F  F15  1  0.63532756  0.00274216  0.90258898  1
  F  F16  1  0.83990050  0.75221359  0.41297118  1
  F  F17  1  0.16009950  0.74778641  0.91297118  1
  F  F18  1  0.16009950  0.24778641  0.58702882  1
  F  F19  1  0.83990050  0.25221359  0.08702882  1
  F  F20  1  0.75762551  0.82300567  0.13491286  1
  F  F21  1  0.24237449  0.67699433  0.63491286  1
  F  F22  1  0.24237449  0.17699433  0.86508714  1
  F  F23  1  0.75762551  0.32300567  0.36508714  1
  F  F24  1  0.78232699  0.81772969  0.66890139  1
  F  F25  1  0.21767301  0.68227031  0.16890139  1
  F  F26  1  0.21767301  0.18227031  0.33109861  1
  F  F27  1  0.78232699  0.31772969  0.83109861  1
