# generated using pymatgen
data_Ca2SnSbO6
_symmetry_space_group_name_H-M   'P 1'
_cell_length_a   5.62206939
_cell_length_b   5.82373757
_cell_length_c   8.10462907
_cell_angle_alpha   90.00000000
_cell_angle_beta   90.00000000
_cell_angle_gamma   89.96700960
_symmetry_Int_Tables_number   1
_chemical_formula_structural   Ca2SnSbO6
_chemical_formula_sum   'Ca4 Sn2 Sb2 O12'
_cell_volume   265.35731767
_cell_formula_units_Z   2
loop_
 _symmetry_equiv_pos_site_id
 _symmetry_equiv_pos_as_xyz
  1  'x, y, z'
loop_
 _atom_site_type_symbol
 _atom_site_label
 _atom_site_symmetry_multiplicity
 _atom_site_fract_x
 _atom_site_fract_y
 _atom_site_fract_z
 _atom_site_occupancy
  Ca  Ca0  1  0.51426801  0.55638975  0.75000000  1
  Ca  Ca1  1  0.48573199  0.44361025  0.25000000  1
  Ca  Ca2  1  0.98767387  0.05097423  0.75000000  1
  Ca  Ca3  1  0.01232613  0.94902577  0.25000000  1
  Sn  Sn4  1  0.50000000  0.00000000  0.50000000  1
  Sn  Sn5  1  0.50000000  0.00000000  0.00000000  1
  Sb  Sb6  1  0.00000000  0.50000000  0.50000000  1
  Sb  Sb7  1  0.00000000  0.50000000  0.00000000  1
  O  O8  1  0.30821932  0.69937284  0.44334601  1
  O  O9  1  0.19673323  0.19649074  0.05652380  1
  O  O10  1  0.69178068  0.30062716  0.94334601  1
  O  O11  1  0.80326677  0.80350926  0.55652380  1
  O  O12  1  0.19673323  0.19649074  0.44347620  1
  O  O13  1  0.80326677  0.80350926  0.94347620  1
  O  O14  1  0.89976893  0.53819810  0.25000000  1
  O  O15  1  0.30821932  0.69937284  0.05665399  1
  O  O16  1  0.39055802  0.95469190  0.75000000  1
  O  O17  1  0.69178068  0.30062716  0.55665399  1
  O  O18  1  0.10023107  0.46180190  0.75000000  1
  O  O19  1  0.60944198  0.04530810  0.25000000  1
