# generated using pymatgen
data_ZnBiF5
_symmetry_space_group_name_H-M   'P 1'
_cell_length_a   5.56873898
_cell_length_b   8.58657973
_cell_length_c   10.77604281
_cell_angle_alpha   90.00000000
_cell_angle_beta   90.00000000
_cell_angle_gamma   108.69825568
_symmetry_Int_Tables_number   1
_chemical_formula_structural   ZnBiF5
_chemical_formula_sum   'Zn4 Bi4 F20'
_cell_volume   488.07577632
_cell_formula_units_Z   4
loop_
 _symmetry_equiv_pos_site_id
 _symmetry_equiv_pos_as_xyz
  1  'x, y, z'
loop_
 _atom_site_type_symbol
 _atom_site_label
 _atom_site_symmetry_multiplicity
 _atom_site_fract_x
 _atom_site_fract_y
 _atom_site_fract_z
 _atom_site_occupancy
  Zn  Zn0  1  0.50151518  0.77680834  0.99253151  1
  Zn  Zn1  1  0.49848482  0.72319166  0.49253151  1
  Zn  Zn2  1  0.49848482  0.22319166  0.00746849  1
  Zn  Zn3  1  0.50151518  0.27680834  0.50746849  1
  Bi  Bi4  1  0.90946410  0.60840608  0.75778895  1
  Bi  Bi5  1  0.09053590  0.89159392  0.25778895  1
  Bi  Bi6  1  0.09053590  0.39159392  0.24221105  1
  Bi  Bi7  1  0.90946410  0.10840608  0.74221105  1
  F  F8  1  0.60576812  0.61074803  0.89157342  1
  F  F9  1  0.39423188  0.88925197  0.39157342  1
  F  F10  1  0.39423188  0.38925197  0.10842658  1
  F  F11  1  0.60576812  0.11074803  0.60842658  1
  F  F12  1  0.63654694  0.48903422  0.60318701  1
  F  F13  1  0.36345306  0.01096578  0.10318701  1
  F  F14  1  0.36345306  0.51096578  0.39681299  1
  F  F15  1  0.63654694  0.98903422  0.89681299  1
  F  F16  1  0.83765588  0.79239418  0.42574699  1
  F  F17  1  0.16234412  0.70760582  0.92574699  1
  F  F18  1  0.16234412  0.20760582  0.57425301  1
  F  F19  1  0.83765588  0.29239418  0.07425301  1
  F  F20  1  0.73810650  0.81906847  0.12750782  1
  F  F21  1  0.26189350  0.68093153  0.62750782  1
  F  F22  1  0.26189350  0.18093153  0.87249218  1
  F  F23  1  0.73810650  0.31906847  0.37249218  1
  F  F24  1  0.82303342  0.83540935  0.68769485  1
  F  F25  1  0.17696658  0.66459065  0.18769485  1
  F  F26  1  0.17696658  0.16459065  0.31230515  1
  F  F27  1  0.82303342  0.33540935  0.81230515  1
