# generated using pymatgen
data_Ca2CuSbO6
_symmetry_space_group_name_H-M   'P 1'
_cell_length_a   5.78078549
_cell_length_b   5.91547782
_cell_length_c   7.53133717
_cell_angle_alpha   90.00000000
_cell_angle_beta   90.00000000
_cell_angle_gamma   102.81530956
_symmetry_Int_Tables_number   1
_chemical_formula_structural   Ca2CuSbO6
_chemical_formula_sum   'Ca4 Cu2 Sb2 O12'
_cell_volume   251.12707115
_cell_formula_units_Z   2
loop_
 _symmetry_equiv_pos_site_id
 _symmetry_equiv_pos_as_xyz
  1  'x, y, z'
loop_
 _atom_site_type_symbol
 _atom_site_label
 _atom_site_symmetry_multiplicity
 _atom_site_fract_x
 _atom_site_fract_y
 _atom_site_fract_z
 _atom_site_occupancy
  Ca  Ca0  1  0.52884257  0.57394559  0.75000000  1
  Ca  Ca1  1  0.47115743  0.42605441  0.25000000  1
  Ca  Ca2  1  0.05201570  0.03909839  0.75000000  1
  Ca  Ca3  1  0.94798430  0.96090161  0.25000000  1
  Cu  Cu4  1  0.50000000  0.00000000  0.50000000  1
  Cu  Cu5  1  0.50000000  0.00000000  0.00000000  1
  Sb  Sb6  1  0.00000000  0.50000000  0.50000000  1
  Sb  Sb7  1  0.00000000  0.50000000  0.00000000  1
  O  O8  1  0.33893932  0.69005163  0.46095977  1
  O  O9  1  0.14009796  0.23448551  0.05328659  1
  O  O10  1  0.66106068  0.30994837  0.96095977  1
  O  O11  1  0.85990204  0.76551449  0.55328659  1
  O  O12  1  0.14009796  0.23448551  0.44671341  1
  O  O13  1  0.85990204  0.76551449  0.94671341  1
  O  O14  1  0.90241058  0.55566500  0.25000000  1
  O  O15  1  0.33893932  0.69005163  0.03904023  1
  O  O16  1  0.42410429  0.94409814  0.75000000  1
  O  O17  1  0.66106068  0.30994837  0.53904023  1
  O  O18  1  0.09758942  0.44433500  0.75000000  1
  O  O19  1  0.57589571  0.05590186  0.25000000  1
