# generated using pymatgen
data_CaMn2O4
_symmetry_space_group_name_H-M   'P 1'
_cell_length_a   5.65636040
_cell_length_b   6.15193301
_cell_length_c   11.74533985
_cell_angle_alpha   89.58559318
_cell_angle_beta   90.00029060
_cell_angle_gamma   117.37140367
_symmetry_Int_Tables_number   1
_chemical_formula_structural   CaMn2O4
_chemical_formula_sum   'Ca4 Mn8 O16'
_cell_volume   362.93998527
_cell_formula_units_Z   4
loop_
 _symmetry_equiv_pos_site_id
 _symmetry_equiv_pos_as_xyz
  1  'x, y, z'
loop_
 _atom_site_type_symbol
 _atom_site_label
 _atom_site_symmetry_multiplicity
 _atom_site_fract_x
 _atom_site_fract_y
 _atom_site_fract_z
 _atom_site_occupancy
  Ca  Ca0  1  0.78944205  0.49999684  0.49994867  1
  Ca  Ca1  1  0.72842932  0.49986731  0.99996999  1
  Ca  Ca2  1  0.24263040  0.00642612  0.75139919  1
  Ca  Ca3  1  0.73587183  0.99377849  0.24858016  1
  Mn  Mn4  1  0.52359746  0.56179977  0.72705022  1
  Mn  Mn5  1  0.97489646  0.44877599  0.76874119  1
  Mn  Mn6  1  0.46153017  0.43840999  0.27290764  1
  Mn  Mn7  1  0.02586284  0.55143385  0.23120250  1
  Mn  Mn8  1  0.48095122  0.94485067  0.98057980  1
  Mn  Mn9  1  0.03593316  0.05484646  0.01948725  1
  Mn  Mn10  1  0.47314761  0.94643229  0.48382492  1
  Mn  Mn11  1  0.02670524  0.05351023  0.51614645  1
  O  O12  1  0.64932819  0.32536759  0.67907561  1
  O  O13  1  0.16225419  0.32068177  0.67330483  1
  O  O14  1  0.66566986  0.32133589  0.18013190  1
  O  O15  1  0.14353214  0.30860758  0.17853977  1
  O  O16  1  0.35290109  0.17463726  0.92922876  1
  O  O17  1  0.84313859  0.19254492  0.92751944  1
  O  O18  1  0.35981393  0.19214012  0.42784003  1
  O  O19  1  0.82669508  0.17027494  0.42627393  1
  O  O20  1  0.33533516  0.69146860  0.82147512  1
  O  O21  1  0.84476209  0.67878429  0.81987659  1
  O  O22  1  0.34125797  0.67944825  0.32670752  1
  O  O23  1  0.82370802  0.67482238  0.32089115  1
  O  O24  1  0.66766767  0.80782590  0.57214351  1
  O  O25  1  0.15641150  0.82970940  0.57373289  1
  O  O26  1  0.67808474  0.82505391  0.07085181  1
  O  O27  1  0.15044602  0.80717618  0.07258218  1
