# generated using pymatgen
data_SrSi6
_symmetry_space_group_name_H-M   'P 1'
_cell_length_a   4.46511302
_cell_length_b   5.63154207
_cell_length_c   11.76598534
_cell_angle_alpha   90.00000000
_cell_angle_beta   90.00000000
_cell_angle_gamma   113.35568019
_symmetry_Int_Tables_number   1
_chemical_formula_structural   SrSi6
_chemical_formula_sum   'Sr2 Si12'
_cell_volume   271.61884181
_cell_formula_units_Z   2
loop_
 _symmetry_equiv_pos_site_id
 _symmetry_equiv_pos_as_xyz
  1  'x, y, z'
loop_
 _atom_site_type_symbol
 _atom_site_label
 _atom_site_symmetry_multiplicity
 _atom_site_fract_x
 _atom_site_fract_y
 _atom_site_fract_z
 _atom_site_occupancy
  Si  Si0  1  0.02258560  0.04517121  0.10087352  1
  Si  Si1  1  0.97741440  0.95482879  0.89912648  1
  Si  Si2  1  0.24612490  0.49224979  0.46175390  1
  Si  Si3  1  0.75387510  0.50775021  0.53824610  1
  Si  Si4  1  0.75387510  0.50775021  0.96175390  1
  Si  Si5  1  0.24612490  0.49224979  0.03824610  1
  Si  Si6  1  0.55951245  0.11902489  0.64800431  1
  Si  Si7  1  0.44048755  0.88097511  0.35199569  1
  Si  Si8  1  0.44048755  0.88097511  0.14800431  1
  Si  Si9  1  0.55951245  0.11902489  0.85199569  1
  Si  Si10  1  0.02258560  0.04517121  0.39912648  1
  Si  Si11  1  0.97741440  0.95482879  0.60087352  1
  Sr  Sr12  1  0.72456094  0.44912189  0.25000000  1
  Sr  Sr13  1  0.27543906  0.55087811  0.75000000  1
