# generated using pymatgen
data_Mg(CuO2)2
_symmetry_space_group_name_H-M   'P 1'
_cell_length_a   5.91001710
_cell_length_b   5.95907413
_cell_length_c   17.76628160
_cell_angle_alpha   59.78119831
_cell_angle_beta   60.12243588
_cell_angle_gamma   59.70758622
_symmetry_Int_Tables_number   1
_chemical_formula_structural   Mg(CuO2)2
_chemical_formula_sum   'Mg6 Cu12 O24'
_cell_volume   441.12031914
_cell_formula_units_Z   6
loop_
 _symmetry_equiv_pos_site_id
 _symmetry_equiv_pos_as_xyz
  1  'x, y, z'
loop_
 _atom_site_type_symbol
 _atom_site_label
 _atom_site_symmetry_multiplicity
 _atom_site_fract_x
 _atom_site_fract_y
 _atom_site_fract_z
 _atom_site_occupancy
  Mg  Mg0  1  0.14662153  0.11520607  0.04085766  1
  Mg  Mg1  1  0.50072735  0.50034417  0.33285470  1
  Mg  Mg2  1  0.00336774  0.49823986  0.16666679  1
  Mg  Mg3  1  0.49960736  0.50043747  0.66647108  1
  Mg  Mg4  1  0.00017159  0.50015989  0.49981032  1
  Mg  Mg5  1  0.99822146  0.50127324  0.83312316  1
  Cu  Cu6  1  0.49993836  0.99947838  0.16782439  1
  Cu  Cu7  1  0.13413939  0.11328680  0.37983152  1
  Cu  Cu8  1  0.49915130  0.49944130  0.00060566  1
  Cu  Cu9  1  0.50019702  0.49689442  0.16782832  1
  Cu  Cu10  1  0.50017264  -0.00002538  0.49990890  1
  Cu  Cu11  1  0.13909024  0.11797924  0.70835371  1
  Cu  Cu12  1  0.50036058  0.50009925  0.49987847  1
  Cu  Cu13  1  0.50034908  0.00263487  0.83194952  1
  Cu  Cu14  1  0.86274018  0.88230572  0.29079753  1
  Cu  Cu15  1  0.50048129  0.50131811  0.83200590  1
  Cu  Cu16  1  0.86408085  0.88570876  0.62136710  1
  Cu  Cu17  1  0.86811071  0.87842132  0.95817642  1
  O  O18  1  0.27833452  0.25578683  0.08621080  1
  O  O19  1  0.26459788  0.24762680  0.24648163  1
  O  O20  1  0.27922747  0.70644527  0.08620006  1
  O  O21  1  0.72661465  0.25488741  0.08753578  1
  O  O22  1  0.26985380  0.24540063  0.42272340  1
  O  O23  1  0.26192666  0.75556010  0.24252976  1
  O  O24  1  0.26804807  0.25080730  0.57669076  1
  O  O25  1  0.73408965  0.28064646  0.24255718  1
  O  O26  1  0.27003742  0.71661214  0.42279576  1
  O  O27  1  0.72610290  0.74955273  0.09184471  1
  O  O28  1  0.73358537  0.25041103  0.42195835  1
  O  O29  1  0.73441441  0.75704475  0.24261394  1
  O  O30  1  0.26457817  0.24492235  0.75587293  1
  O  O31  1  0.26562730  0.75021185  0.57797622  1
  O  O32  1  0.73054425  0.28263903  0.57704782  1
  O  O33  1  0.26520699  0.72260767  0.75608776  1
  O  O34  1  0.27902553  0.25636380  0.90272143  1
  O  O35  1  0.73275876  0.74982126  0.42261992  1
  O  O36  1  0.74455468  0.24751480  0.75318660  1
  O  O37  1  0.73066590  0.75534712  0.57707148  1
  O  O38  1  0.26179575  0.74395076  0.91736155  1
  O  O39  1  0.71852055  0.28622189  0.91657648  1
  O  O40  1  0.72317759  0.75095552  0.75839249  1
  O  O41  1  0.71918207  0.74545699  0.91663305  1
