# generated using pymatgen
data_VZn2WO6
_symmetry_space_group_name_H-M   'P 1'
_cell_length_a   5.28215393
_cell_length_b   5.27159396
_cell_length_c   7.79682563
_cell_angle_alpha   90.00000000
_cell_angle_beta   90.02977244
_cell_angle_gamma   90.00000000
_symmetry_Int_Tables_number   1
_chemical_formula_structural   VZn2WO6
_chemical_formula_sum   'V2 Zn4 W2 O12'
_cell_volume   217.10547125
_cell_formula_units_Z   2
loop_
 _symmetry_equiv_pos_site_id
 _symmetry_equiv_pos_as_xyz
  1  'x, y, z'
loop_
 _atom_site_type_symbol
 _atom_site_label
 _atom_site_symmetry_multiplicity
 _atom_site_fract_x
 _atom_site_fract_y
 _atom_site_fract_z
 _atom_site_occupancy
  V  V0  1  0.50000000  0.00000000  0.00000000  1
  V  V1  1  0.00000100  0.49999900  0.50000000  1
  Zn  Zn2  1  0.01108748  0.02708277  0.25101449  1
  Zn  Zn3  1  0.48891252  0.52708377  0.24898551  1
  Zn  Zn4  1  0.98891352  0.97291823  0.74898551  1
  Zn  Zn5  1  0.51108648  0.47291723  0.75101449  1
  W  W6  1  0.50000000  0.00000000  0.49999900  1
  W  W7  1  0.00000000  0.49999900  0.00000000  1
  O  O8  1  0.66532232  0.31757108  0.43597312  1
  O  O9  1  0.83467768  0.81757208  0.06402688  1
  O  O10  1  0.33467668  0.68242892  0.56402688  1
  O  O11  1  0.16532332  0.18242792  0.93597312  1
  O  O12  1  0.17193300  0.17675935  0.56707125  1
  O  O13  1  0.32806700  0.67675835  0.93292875  1
  O  O14  1  0.82806800  0.82324065  0.43292875  1
  O  O15  1  0.67193200  0.32324165  0.06707125  1
  O  O16  1  0.11639742  0.41392837  0.24679373  1
  O  O17  1  0.38360358  0.91392937  0.25320527  1
  O  O18  1  0.61639742  0.08607063  0.74679473  1
  O  O19  1  0.88360358  0.58607163  0.75320627  1
