# generated using pymatgen
data_ZnNiAsO5
_symmetry_space_group_name_H-M   'P 1'
_cell_length_a   7.89699761
_cell_length_b   5.99299918
_cell_length_c   8.23620161
_cell_angle_alpha   90.00335642
_cell_angle_beta   90.00650170
_cell_angle_gamma   90.01715479
_symmetry_Int_Tables_number   1
_chemical_formula_structural   ZnNiAsO5
_chemical_formula_sum   'Zn4 Ni4 As4 O20'
_cell_volume   389.79222375
_cell_formula_units_Z   4
loop_
 _symmetry_equiv_pos_site_id
 _symmetry_equiv_pos_as_xyz
  1  'x, y, z'
loop_
 _atom_site_type_symbol
 _atom_site_label
 _atom_site_symmetry_multiplicity
 _atom_site_fract_x
 _atom_site_fract_y
 _atom_site_fract_z
 _atom_site_occupancy
  Zn  Zn0  1  0.94883558  0.72228725  0.06066404  1
  Zn  Zn1  1  0.55179565  0.27802646  0.56072248  1
  Zn  Zn2  1  0.44857393  0.77765759  0.93940918  1
  Zn  Zn3  1  0.05137363  0.22225927  0.43925156  1
  Ni  Ni4  1  0.99795255  0.49065325  0.74892904  1
  Ni  Ni5  1  0.50205529  0.50923142  0.24905089  1
  Ni  Ni6  1  0.49788228  0.00933646  0.25107252  1
  Ni  Ni7  1  0.00203499  0.99071256  0.75097804  1
  As  As8  1  0.65254983  0.26240933  0.93379801  1
  As  As9  1  0.84702278  0.73769000  0.43393445  1
  As  As10  1  0.15294172  0.23769513  0.06601129  1
  As  As11  1  0.34741375  0.76234185  0.56624708  1
  O  O12  1  0.85303713  0.24267439  0.85194225  1
  O  O13  1  0.64715149  0.75736989  0.35188887  1
  O  O14  1  0.35279667  0.25732970  0.14809358  1
  O  O15  1  0.14687075  0.74262978  0.64796695  1
  O  O16  1  0.50310171  0.28352111  0.78384904  1
  O  O17  1  0.99718297  0.71639465  0.28372323  1
  O  O18  1  0.00278135  0.21636756  0.21625936  1
  O  O19  1  0.49685746  0.78350746  0.71617039  1
  O  O20  1  0.62566445  0.01550357  0.04187645  1
  O  O21  1  0.87419672  0.98453270  0.54182995  1
  O  O22  1  0.12585276  0.48452642  0.95810352  1
  O  O23  1  0.37432539  0.51535178  0.45823908  1
  O  O24  1  0.64367711  0.50581618  0.04869211  1
  O  O25  1  0.85606298  0.49425425  0.54872023  1
  O  O26  1  0.14370056  0.99426883  0.95125563  1
  O  O27  1  0.35627885  0.00572374  0.45131925  1
  O  O28  1  0.88420352  0.74253948  0.83633567  1
  O  O29  1  0.61586381  0.25741988  0.33626331  1
  O  O30  1  0.38415242  0.75733408  0.16382594  1
  O  O31  1  0.11580793  0.24263598  0.66357659  1
