# generated using pymatgen
data_NaLiMg6
_symmetry_space_group_name_H-M   'P 1'
_cell_length_a   6.43763670
_cell_length_b   6.39002995
_cell_length_c   5.28284858
_cell_angle_alpha   90.00000000
_cell_angle_beta   90.00000000
_cell_angle_gamma   119.75567861
_symmetry_Int_Tables_number   1
_chemical_formula_structural   NaLiMg6
_chemical_formula_sum   'Na1 Li1 Mg6'
_cell_volume   188.66533237
_cell_formula_units_Z   1
loop_
 _symmetry_equiv_pos_site_id
 _symmetry_equiv_pos_as_xyz
  1  'x, y, z'
loop_
 _atom_site_type_symbol
 _atom_site_label
 _atom_site_symmetry_multiplicity
 _atom_site_fract_x
 _atom_site_fract_y
 _atom_site_fract_z
 _atom_site_occupancy
  Na  Na0  1  0.16653361  0.83326630  0.25000000  1
  Li  Li1  1  0.16669691  0.33334795  0.25000000  1
  Mg  Mg2  1  0.66650517  0.33340463  0.25000000  1
  Mg  Mg3  1  0.66650517  0.83309954  0.25000000  1
  Mg  Mg4  1  0.33403656  0.16966446  0.75000000  1
  Mg  Mg5  1  0.33403656  0.66437310  0.75000000  1
  Mg  Mg6  1  0.83465065  0.16732582  0.75000000  1
  Mg  Mg7  1  0.83103538  0.66551819  0.75000000  1
