# generated using pymatgen
data_Mg15Si
_symmetry_space_group_name_H-M   'P 1'
_cell_length_a   6.31760513
_cell_length_b   6.31760463
_cell_length_c   10.23417596
_cell_angle_alpha   90.00000000
_cell_angle_beta   90.00000000
_cell_angle_gamma   120.00000269
_symmetry_Int_Tables_number   1
_chemical_formula_structural   Mg15Si
_chemical_formula_sum   'Mg15 Si1'
_cell_volume   353.74346081
_cell_formula_units_Z   1
loop_
 _symmetry_equiv_pos_site_id
 _symmetry_equiv_pos_as_xyz
  1  'x, y, z'
loop_
 _atom_site_type_symbol
 _atom_site_label
 _atom_site_symmetry_multiplicity
 _atom_site_fract_x
 _atom_site_fract_y
 _atom_site_fract_z
 _atom_site_occupancy
  Mg  Mg0  1  0.16666700  0.33333300  0.62500000  1
  Mg  Mg1  1  0.16344331  0.83172116  0.12500000  1
  Mg  Mg2  1  0.16770218  0.83385059  0.62500000  1
  Mg  Mg3  1  0.66827884  0.33655669  0.12500000  1
  Mg  Mg4  1  0.66614941  0.33229782  0.62500000  1
  Mg  Mg5  1  0.66827884  0.83172116  0.12500000  1
  Mg  Mg6  1  0.66614941  0.83385059  0.62500000  1
  Mg  Mg7  1  0.33138142  0.16861858  0.36959035  1
  Mg  Mg8  1  0.33138142  0.16861858  0.88040965  1
  Mg  Mg9  1  0.33138142  0.66276383  0.36959035  1
  Mg  Mg10  1  0.33138142  0.66276383  0.88040965  1
  Mg  Mg11  1  0.83723617  0.16861858  0.36959035  1
  Mg  Mg12  1  0.83723617  0.16861858  0.88040965  1
  Mg  Mg13  1  0.83333300  0.66666700  0.37554637  1
  Mg  Mg14  1  0.83333300  0.66666700  0.87445363  1
  Si  Si15  1  0.16666700  0.33333300  0.12500000  1
