# generated using pymatgen
data_LiCo2P2O9
_symmetry_space_group_name_H-M   'P 1'
_cell_length_a   6.06033240
_cell_length_b   7.37680709
_cell_length_c   13.61366079
_cell_angle_alpha   90.00000000
_cell_angle_beta   90.00000000
_cell_angle_gamma   90.00000000
_symmetry_Int_Tables_number   1
_chemical_formula_structural   LiCo2P2O9
_chemical_formula_sum   'Li4 Co8 P8 O36'
_cell_volume   608.61099897
_cell_formula_units_Z   4
loop_
 _symmetry_equiv_pos_site_id
 _symmetry_equiv_pos_as_xyz
  1  'x, y, z'
loop_
 _atom_site_type_symbol
 _atom_site_label
 _atom_site_symmetry_multiplicity
 _atom_site_fract_x
 _atom_site_fract_y
 _atom_site_fract_z
 _atom_site_occupancy
  Li  Li0  1  0.75000000  0.94198475  0.77443703  1
  Li  Li1  1  0.75000000  0.55801525  0.27443703  1
  Li  Li2  1  0.25000100  0.44198375  0.72556297  1
  Li  Li3  1  0.25000100  0.05801525  0.22556297  1
  Co  Co4  1  0.75000000  0.34747115  0.87798620  1
  Co  Co5  1  0.25000100  0.65252885  0.12201380  1
  Co  Co6  1  0.25000100  0.84747115  0.62201380  1
  Co  Co7  1  0.75000000  0.15252885  0.37798620  1
  Co  Co8  1  0.50000000  -0.00000000  -0.00000000  1
  Co  Co9  1  0.50000000  0.50000000  0.50000000  1
  Co  Co10  1  -0.00000000  0.50000000  0.50000000  1
  Co  Co11  1  -0.00000000  -0.00000000  -0.00000000  1
  P  P12  1  0.25000100  0.35434396  0.93674453  1
  P  P13  1  0.75000000  0.64565604  0.06325647  1
  P  P14  1  0.75000000  0.85434396  0.56325547  1
  P  P15  1  0.25000100  0.14565704  0.43674453  1
  P  P16  1  0.75000000  0.40346761  0.69485131  1
  P  P17  1  0.75000000  0.09653239  0.19485131  1
  P  P18  1  0.25000100  0.90346761  0.80514869  1
  P  P19  1  0.25000100  0.59653139  0.30514869  1
  O  O20  1  0.03635074  0.57834939  0.36674434  1
  O  O21  1  0.53634974  0.42164961  0.63325566  1
  O  O22  1  0.96364926  0.07834939  0.13325566  1
  O  O23  1  0.46364926  0.92165061  0.86674434  1
  O  O24  1  0.96364926  0.42164961  0.63325566  1
  O  O25  1  0.46364926  0.57834939  0.36674434  1
  O  O26  1  0.03635074  0.92165061  0.86674434  1
  O  O27  1  0.53634974  0.07834939  0.13325566  1
  O  O28  1  0.25000100  0.33360857  0.49376058  1
  O  O29  1  0.75000000  0.66639243  0.50623942  1
  O  O30  1  0.75000000  0.83360757  0.00623842  1
  O  O31  1  0.25000100  0.16639243  0.99376058  1
  O  O32  1  0.75000000  0.13988835  0.95871820  1
  O  O33  1  0.25000100  0.86011165  0.04128080  1
  O  O34  1  0.25000100  0.63988835  0.54128080  1
  O  O35  1  0.75000000  0.36011265  0.45871920  1
  O  O36  1  0.75000000  0.22064843  0.75404571  1
  O  O37  1  0.25000100  0.77935157  0.24595529  1
  O  O38  1  0.25000100  0.72064843  0.74595429  1
  O  O39  1  0.75000000  0.27935257  0.25404471  1
  O  O40  1  0.44427089  0.14608499  0.36439611  1
  O  O41  1  0.94427089  0.85391501  0.63560389  1
  O  O42  1  0.55572911  0.64608399  0.13560389  1
  O  O43  1  0.05572911  0.35391501  0.86439611  1
  O  O44  1  0.55572911  0.85391501  0.63560389  1
  O  O45  1  0.05572911  0.14608499  0.36439611  1
  O  O46  1  0.44427089  0.35391501  0.86439611  1
  O  O47  1  0.94427089  0.64608399  0.13560389  1
  O  O48  1  0.75000000  0.48802957  0.99323933  1
  O  O49  1  0.25000100  0.03927212  0.71720743  1
  O  O50  1  0.25000100  0.46072688  0.21720743  1
  O  O51  1  0.75000000  0.53927212  0.78279257  1
  O  O52  1  0.75000000  0.01197043  0.49323933  1
  O  O53  1  0.25000100  0.98802957  0.50676067  1
  O  O54  1  0.25000100  0.51196943  0.00675967  1
  O  O55  1  0.75000000  0.96072788  0.28279257  1
