# generated using pymatgen
data_LaYMg6
_symmetry_space_group_name_H-M   'P 1'
_cell_length_a   6.56148138
_cell_length_b   8.42134131
_cell_length_c   5.02471942
_cell_angle_alpha   90.00000000
_cell_angle_beta   90.00000000
_cell_angle_gamma   129.92062131
_symmetry_Int_Tables_number   1
_chemical_formula_structural   LaYMg6
_chemical_formula_sum   'La1 Y1 Mg6'
_cell_volume   212.93797143
_cell_formula_units_Z   1
loop_
 _symmetry_equiv_pos_site_id
 _symmetry_equiv_pos_as_xyz
  1  'x, y, z'
loop_
 _atom_site_type_symbol
 _atom_site_label
 _atom_site_symmetry_multiplicity
 _atom_site_fract_x
 _atom_site_fract_y
 _atom_site_fract_z
 _atom_site_occupancy
  La  La0  1  0.25283653  0.87641777  0.25000000  1
  Y  Y1  1  0.23878688  0.36939294  0.25000000  1
  Mg  Mg2  1  0.74362194  0.37799748  0.25000000  1
  Mg  Mg3  1  0.74362194  0.86562346  0.25000000  1
  Mg  Mg4  1  0.26036030  0.14207311  0.75000000  1
  Mg  Mg5  1  0.26036030  0.61828819  0.75000000  1
  Mg  Mg6  1  0.75192823  0.12596461  0.75000000  1
  Mg  Mg7  1  0.74848389  0.62424244  0.75000000  1
