# generated using pymatgen
data_Mg6ZnSn
_symmetry_space_group_name_H-M   'P 1'
_cell_length_a   6.38891798
_cell_length_b   6.38891747
_cell_length_c   5.06699043
_cell_angle_alpha   90.00000000
_cell_angle_beta   90.00000000
_cell_angle_gamma   121.16121954
_symmetry_Int_Tables_number   1
_chemical_formula_structural   Mg6ZnSn
_chemical_formula_sum   'Mg6 Zn1 Sn1'
_cell_volume   176.98385961
_cell_formula_units_Z   1
loop_
 _symmetry_equiv_pos_site_id
 _symmetry_equiv_pos_as_xyz
  1  'x, y, z'
loop_
 _atom_site_type_symbol
 _atom_site_label
 _atom_site_symmetry_multiplicity
 _atom_site_fract_x
 _atom_site_fract_y
 _atom_site_fract_z
 _atom_site_occupancy
  Mg  Mg0  1  0.16536685  0.82928783  0.25000000  1
  Mg  Mg1  1  0.67071217  0.33463315  0.25000000  1
  Mg  Mg2  1  0.66883332  0.83116668  0.25000000  1
  Mg  Mg3  1  0.33265864  0.65414378  0.75000000  1
  Mg  Mg4  1  0.84585622  0.16734136  0.75000000  1
  Mg  Mg5  1  0.83397852  0.66602148  0.75000000  1
  Zn  Zn6  1  0.14591759  0.35408241  0.25000000  1
  Sn  Sn7  1  0.33667669  0.16332331  0.75000000  1
