# generated using pymatgen
data_Mg6ZnSn
_symmetry_space_group_name_H-M   'P 1'
_cell_length_a   6.32945215
_cell_length_b   6.48467267
_cell_length_c   4.97812910
_cell_angle_alpha   90.00000000
_cell_angle_beta   90.00000000
_cell_angle_gamma   120.81460793
_symmetry_Int_Tables_number   1
_chemical_formula_structural   Mg6ZnSn
_chemical_formula_sum   'Mg6 Zn1 Sn1'
_cell_volume   175.47982716
_cell_formula_units_Z   1
loop_
 _symmetry_equiv_pos_site_id
 _symmetry_equiv_pos_as_xyz
  1  'x, y, z'
loop_
 _atom_site_type_symbol
 _atom_site_label
 _atom_site_symmetry_multiplicity
 _atom_site_fract_x
 _atom_site_fract_y
 _atom_site_fract_z
 _atom_site_occupancy
  Mg  Mg0  1  0.66744068  0.33370135  0.25000000  1
  Mg  Mg1  1  0.66744068  0.83373832  0.25000000  1
  Mg  Mg2  1  0.33172610  0.17654421  0.75000000  1
  Mg  Mg3  1  0.33172610  0.65518289  0.75000000  1
  Mg  Mg4  1  0.84069573  0.17034837  0.75000000  1
  Mg  Mg5  1  0.82755491  0.66377795  0.75000000  1
  Zn  Zn6  1  0.16608630  0.33304265  0.25000000  1
  Sn  Sn7  1  0.16732951  0.83366426  0.25000000  1
