# generated using pymatgen
data_LiYMg6
_symmetry_space_group_name_H-M   'P 1'
_cell_length_a   6.58117620
_cell_length_b   6.58117564
_cell_length_c   5.16243075
_cell_angle_alpha   90.00000000
_cell_angle_beta   90.00000000
_cell_angle_gamma   120.41015557
_symmetry_Int_Tables_number   1
_chemical_formula_structural   LiYMg6
_chemical_formula_sum   'Li1 Y1 Mg6'
_cell_volume   192.83330871
_cell_formula_units_Z   1
loop_
 _symmetry_equiv_pos_site_id
 _symmetry_equiv_pos_as_xyz
  1  'x, y, z'
loop_
 _atom_site_type_symbol
 _atom_site_label
 _atom_site_symmetry_multiplicity
 _atom_site_fract_x
 _atom_site_fract_y
 _atom_site_fract_z
 _atom_site_occupancy
  Li  Li0  1  0.33593449  0.16406551  0.75000000  1
  Y  Y1  1  0.16789349  0.33210651  0.25000000  1
  Mg  Mg2  1  0.17496424  0.83757486  0.25000000  1
  Mg  Mg3  1  0.66242514  0.32503576  0.25000000  1
  Mg  Mg4  1  0.66289672  0.83710328  0.25000000  1
  Mg  Mg5  1  0.33456337  0.67166769  0.75000000  1
  Mg  Mg6  1  0.82833231  0.16543663  0.75000000  1
  Mg  Mg7  1  0.83299026  0.66700974  0.75000000  1
