# generated using pymatgen
data_Ca2La2Cu3O8
_symmetry_space_group_name_H-M   'P 1'
_cell_length_a   3.90603296
_cell_length_b   3.90603296
_cell_length_c   13.47490094
_cell_angle_alpha   98.33364974
_cell_angle_beta   98.33364974
_cell_angle_gamma   90.00000000
_symmetry_Int_Tables_number   1
_chemical_formula_structural   Ca2La2Cu3O8
_chemical_formula_sum   'Ca2 La2 Cu3 O8'
_cell_volume   201.22273502
_cell_formula_units_Z   1
loop_
 _symmetry_equiv_pos_site_id
 _symmetry_equiv_pos_as_xyz
  1  'x, y, z'
loop_
 _atom_site_type_symbol
 _atom_site_label
 _atom_site_symmetry_multiplicity
 _atom_site_fract_x
 _atom_site_fract_y
 _atom_site_fract_z
 _atom_site_occupancy
  Ca  Ca0  1  0.29596515  0.29596515  0.59193030  1
  Ca  Ca1  1  0.70403485  0.70403485  0.40806970  1
  La  La2  1  0.43149290  0.43149290  0.86298579  1
  La  La3  1  0.56850710  0.56850710  0.13701421  1
  Cu  Cu4  1  0.13696317  0.13696317  0.27392635  1
  Cu  Cu5  1  0.86303683  0.86303683  0.72607365  1
  Cu  Cu6  1  0.00000000  0.00000000  0.00000000  1
  O  O7  1  0.21356880  0.21356880  0.42713760  1
  O  O8  1  0.78643120  0.78643120  0.57286240  1
  O  O9  1  0.12266458  0.62266458  0.24532916  1
  O  O10  1  0.87733542  0.37733542  0.75467084  1
  O  O11  1  0.62266458  0.12266458  0.24532916  1
  O  O12  1  0.37733542  0.87733542  0.75467084  1
  O  O13  1  0.00000000  0.50000000  0.00000000  1
  O  O14  1  0.50000000  0.00000000  0.00000000  1
