# generated using pymatgen
data_NaMnO2
_symmetry_space_group_name_H-M   'P 1'
_cell_length_a   2.90039138
_cell_length_b   5.69742689
_cell_length_c   11.49971823
_cell_angle_alpha   89.99017753
_cell_angle_beta   89.99851659
_cell_angle_gamma   90.00020501
_symmetry_Int_Tables_number   1
_chemical_formula_structural   NaMnO2
_chemical_formula_sum   'Na4 Mn4 O8'
_cell_volume   190.03017145
_cell_formula_units_Z   4
loop_
 _symmetry_equiv_pos_site_id
 _symmetry_equiv_pos_as_xyz
  1  'x, y, z'
loop_
 _atom_site_type_symbol
 _atom_site_label
 _atom_site_symmetry_multiplicity
 _atom_site_fract_x
 _atom_site_fract_y
 _atom_site_fract_z
 _atom_site_occupancy
  Na  Na0  1  0.24998900  0.53054283  0.12489198  1
  Na  Na1  1  0.24998089  0.96927931  0.62476285  1
  Na  Na2  1  0.75007847  0.46804442  0.87514837  1
  Na  Na3  1  0.75008150  0.03204346  0.37501866  1
  Mn  Mn4  1  0.24999033  0.02492610  0.11989219  1
  Mn  Mn5  1  0.75002247  0.97348840  0.87977547  1
  Mn  Mn6  1  0.75003105  0.52659166  0.37990637  1
  Mn  Mn7  1  0.24997924  0.47487174  0.62008215  1
  O  O8  1  0.74998662  0.84573266  0.19076183  1
  O  O9  1  0.25002125  0.15318175  0.80929049  1
  O  O10  1  0.25004007  0.34694661  0.30942517  1
  O  O11  1  0.74998319  0.65416680  0.69087956  1
  O  O12  1  0.74999761  0.21406582  0.05236475  1
  O  O13  1  0.25001127  0.78472208  0.94765485  1
  O  O14  1  0.74999199  0.28593686  0.55245755  1
  O  O15  1  0.25003005  0.71545348  0.44768778  1
