# generated using pymatgen
data_LaMg14Cd
_symmetry_space_group_name_H-M   'P 1'
_cell_length_a   6.57497282
_cell_length_b   6.55569669
_cell_length_c   10.36680371
_cell_angle_alpha   90.00000000
_cell_angle_beta   90.00000000
_cell_angle_gamma   119.90307173
_symmetry_Int_Tables_number   1
_chemical_formula_structural   LaMg14Cd
_chemical_formula_sum   'La1 Mg14 Cd1'
_cell_volume   387.35723698
_cell_formula_units_Z   1
loop_
 _symmetry_equiv_pos_site_id
 _symmetry_equiv_pos_as_xyz
  1  'x, y, z'
loop_
 _atom_site_type_symbol
 _atom_site_label
 _atom_site_symmetry_multiplicity
 _atom_site_fract_x
 _atom_site_fract_y
 _atom_site_fract_z
 _atom_site_occupancy
  La  La0  1  0.16397943  0.33198922  0.12500000  1
  Mg  Mg1  1  0.16644067  0.33321984  0.62500000  1
  Mg  Mg2  1  0.16566257  0.83283078  0.62500000  1
  Mg  Mg3  1  0.65954335  0.32093617  0.12500000  1
  Mg  Mg4  1  0.66679681  0.33392986  0.62500000  1
  Mg  Mg5  1  0.65954335  0.83860618  0.12500000  1
  Mg  Mg6  1  0.66679681  0.83286595  0.62500000  1
  Mg  Mg7  1  0.33617283  0.16335276  0.38241261  1
  Mg  Mg8  1  0.33617283  0.16335276  0.86758739  1
  Mg  Mg9  1  0.33617283  0.67282106  0.38241261  1
  Mg  Mg10  1  0.33617283  0.67282106  0.86758739  1
  Mg  Mg11  1  0.82778683  0.16389391  0.38377587  1
  Mg  Mg12  1  0.82778683  0.16389391  0.86622413  1
  Mg  Mg13  1  0.83459147  0.66729623  0.36923644  1
  Mg  Mg14  1  0.83459147  0.66729623  0.88076356  1
  Cd  Cd15  1  0.18178912  0.84089406  0.12500000  1
