# generated using pymatgen
data_C2S2NCl3
_symmetry_space_group_name_H-M   'P 1'
_cell_length_a   6.08990671
_cell_length_b   10.43163414
_cell_length_c   11.76393639
_cell_angle_alpha   90.00000000
_cell_angle_beta   90.00000000
_cell_angle_gamma   90.00000000
_symmetry_Int_Tables_number   1
_chemical_formula_structural   C2S2NCl3
_chemical_formula_sum   'C8 S8 N4 Cl12'
_cell_volume   747.33557177
_cell_formula_units_Z   4
loop_
 _symmetry_equiv_pos_site_id
 _symmetry_equiv_pos_as_xyz
  1  'x, y, z'
loop_
 _atom_site_type_symbol
 _atom_site_label
 _atom_site_symmetry_multiplicity
 _atom_site_fract_x
 _atom_site_fract_y
 _atom_site_fract_z
 _atom_site_occupancy
  C  C0  1  0.29698070  0.49347088  0.17465198  1
  C  C1  1  0.20301930  0.50652912  0.67465198  1
  C  C2  1  0.70301930  0.99347088  0.32534802  1
  C  C3  1  0.79698070  0.00652912  0.82534802  1
  C  C4  1  0.16250863  0.57787116  0.11028669  1
  C  C5  1  0.33749137  0.42212884  0.61028669  1
  C  C6  1  0.83749137  0.07787116  0.38971331  1
  C  C7  1  0.66250863  0.92212884  0.88971331  1
  S  S8  1  0.04072894  0.87549509  0.43523322  1
  S  S9  1  0.45927106  0.12450491  0.93523322  1
  S  S10  1  0.95927106  0.37549509  0.06476678  1
  S  S11  1  0.54072894  0.62450491  0.56476678  1
  S  S12  1  0.22085448  0.33683058  0.16959194  1
  S  S13  1  0.27914552  0.66316942  0.66959194  1
  S  S14  1  0.77914552  0.83683058  0.33040806  1
  S  S15  1  0.72085448  0.16316942  0.83040806  1
  N  N16  1  0.00626786  0.02863301  0.44435275  1
  N  N17  1  0.49373214  0.97136699  0.94435275  1
  N  N18  1  0.99373214  0.52863301  0.05564725  1
  N  N19  1  0.50626786  0.47136699  0.55564725  1
  Cl  Cl20  1  0.28333920  0.26136676  0.60120090  1
  Cl  Cl21  1  0.21666080  0.73863324  0.10120090  1
  Cl  Cl22  1  0.71666080  0.76136676  0.89879910  1
  Cl  Cl23  1  0.78333920  0.23863324  0.39879910  1
  Cl  Cl24  1  0.03825666  0.10190258  0.09874231  1
  Cl  Cl25  1  0.46174334  0.89809742  0.59874231  1
  Cl  Cl26  1  0.96174334  0.60190258  0.40125769  1
  Cl  Cl27  1  0.53825666  0.39809742  0.90125769  1
  Cl  Cl28  1  0.47710319  0.03787025  0.25254337  1
  Cl  Cl29  1  0.02289681  0.96212975  0.75254337  1
  Cl  Cl30  1  0.52289681  0.53787025  0.24745663  1
  Cl  Cl31  1  0.97710319  0.46212975  0.74745663  1
