# generated using pymatgen
data_HfMg14Bi
_symmetry_space_group_name_H-M   'P 1'
_cell_length_a   6.38706769
_cell_length_b   6.38706718
_cell_length_c   10.48963551
_cell_angle_alpha   90.00000000
_cell_angle_beta   90.00000000
_cell_angle_gamma   120.00000271
_symmetry_Int_Tables_number   1
_chemical_formula_structural   HfMg14Bi
_chemical_formula_sum   'Hf1 Mg14 Bi1'
_cell_volume   370.59027667
_cell_formula_units_Z   1
loop_
 _symmetry_equiv_pos_site_id
 _symmetry_equiv_pos_as_xyz
  1  'x, y, z'
loop_
 _atom_site_type_symbol
 _atom_site_label
 _atom_site_symmetry_multiplicity
 _atom_site_fract_x
 _atom_site_fract_y
 _atom_site_fract_z
 _atom_site_occupancy
  Hf  Hf0  1  0.16666700  0.33333300  0.62500000  1
  Mg  Mg1  1  0.16427513  0.83213706  0.12500000  1
  Mg  Mg2  1  0.17054169  0.83527034  0.62500000  1
  Mg  Mg3  1  0.66786294  0.33572487  0.12500000  1
  Mg  Mg4  1  0.66472966  0.32945831  0.62500000  1
  Mg  Mg5  1  0.66786294  0.83213706  0.12500000  1
  Mg  Mg6  1  0.66472966  0.83527034  0.62500000  1
  Mg  Mg7  1  0.33101587  0.16898413  0.38086860  1
  Mg  Mg8  1  0.33101587  0.16898413  0.86913140  1
  Mg  Mg9  1  0.33101587  0.66203275  0.38086860  1
  Mg  Mg10  1  0.33101587  0.66203275  0.86913140  1
  Mg  Mg11  1  0.83796725  0.16898413  0.38086860  1
  Mg  Mg12  1  0.83796725  0.16898413  0.86913140  1
  Mg  Mg13  1  0.83333300  0.66666700  0.37907384  1
  Mg  Mg14  1  0.83333300  0.66666700  0.87092616  1
  Bi  Bi15  1  0.16666700  0.33333300  0.12500000  1
