# generated using pymatgen
data_TeMoWSeS2
_symmetry_space_group_name_H-M   'P 1'
_cell_length_a   3.30646479
_cell_length_b   3.30646959
_cell_length_c   37.62163142
_cell_angle_alpha   90.00014688
_cell_angle_beta   90.00000000
_cell_angle_gamma   119.99995212
_symmetry_Int_Tables_number   1
_chemical_formula_structural   TeMoWSeS2
_chemical_formula_sum   'Te2 Mo2 W2 Se2 S4'
_cell_volume   356.20244829
_cell_formula_units_Z   2
loop_
 _symmetry_equiv_pos_site_id
 _symmetry_equiv_pos_as_xyz
  1  'x, y, z'
loop_
 _atom_site_type_symbol
 _atom_site_label
 _atom_site_symmetry_multiplicity
 _atom_site_fract_x
 _atom_site_fract_y
 _atom_site_fract_z
 _atom_site_occupancy
  Te  Te0  1  0.33335385  0.66670870  0.70832879  1
  Te  Te1  1  0.33335220  0.66670541  0.60684512  1
  Mo  Mo2  1  0.33330880  0.66661759  0.09392611  1
  Mo  Mo3  1  0.66669090  0.33338180  0.65760538  1
  W  W4  1  0.33330992  0.66661983  0.46962025  1
  W  W5  1  0.66668968  0.33337935  0.28180008  1
  Se  Se6  1  0.66664985  0.33329871  0.42478066  1
  Se  Se7  1  0.66664677  0.33329253  0.51442662  1
  S  S8  1  0.33335232  0.66670563  0.32253156  1
  S  S9  1  0.66664486  0.33328871  0.05328412  1
  S  S10  1  0.66664761  0.33329421  0.13457477  1
  S  S11  1  0.33335326  0.66670752  0.24102454  1
