# generated using pymatgen
data_Mg15Co
_symmetry_space_group_name_H-M   'P 1'
_cell_length_a   6.29501663
_cell_length_b   6.29501613
_cell_length_c   9.97083068
_cell_angle_alpha   90.00000000
_cell_angle_beta   90.00000000
_cell_angle_gamma   120.00000259
_symmetry_Int_Tables_number   1
_chemical_formula_structural   Mg15Co
_chemical_formula_sum   'Mg15 Co1'
_cell_volume   342.18084183
_cell_formula_units_Z   1
loop_
 _symmetry_equiv_pos_site_id
 _symmetry_equiv_pos_as_xyz
  1  'x, y, z'
loop_
 _atom_site_type_symbol
 _atom_site_label
 _atom_site_symmetry_multiplicity
 _atom_site_fract_x
 _atom_site_fract_y
 _atom_site_fract_z
 _atom_site_occupancy
  Mg  Mg0  1  0.16666700  0.33333300  0.62500000  1
  Mg  Mg1  1  0.16211754  0.83105827  0.12500000  1
  Mg  Mg2  1  0.17073278  0.83536589  0.62500000  1
  Mg  Mg3  1  0.66894173  0.33788246  0.12500000  1
  Mg  Mg4  1  0.66463411  0.32926722  0.62500000  1
  Mg  Mg5  1  0.66894173  0.83105827  0.12500000  1
  Mg  Mg6  1  0.66463411  0.83536589  0.62500000  1
  Mg  Mg7  1  0.32621484  0.17378516  0.36045563  1
  Mg  Mg8  1  0.32621484  0.17378516  0.88954437  1
  Mg  Mg9  1  0.32621484  0.65243068  0.36045563  1
  Mg  Mg10  1  0.32621484  0.65243068  0.88954437  1
  Mg  Mg11  1  0.84756932  0.17378516  0.36045563  1
  Mg  Mg12  1  0.84756932  0.17378516  0.88954437  1
  Mg  Mg13  1  0.83333300  0.66666700  0.37893848  1
  Mg  Mg14  1  0.83333300  0.66666700  0.87106152  1
  Co  Co15  1  0.16666700  0.33333300  0.12500000  1
