# generated using pymatgen
data_TeMoWSeS2
_symmetry_space_group_name_H-M   'P 1'
_cell_length_a   3.30572482
_cell_length_b   3.30574790
_cell_length_c   44.77606845
_cell_angle_alpha   89.98742481
_cell_angle_beta   90.00000000
_cell_angle_gamma   119.99976908
_symmetry_Int_Tables_number   1
_chemical_formula_structural   TeMoWSeS2
_chemical_formula_sum   'Te2 Mo2 W2 Se2 S4'
_cell_volume   423.75419929
_cell_formula_units_Z   2
loop_
 _symmetry_equiv_pos_site_id
 _symmetry_equiv_pos_as_xyz
  1  'x, y, z'
loop_
 _atom_site_type_symbol
 _atom_site_label
 _atom_site_symmetry_multiplicity
 _atom_site_fract_x
 _atom_site_fract_y
 _atom_site_fract_z
 _atom_site_occupancy
  Te  Te0  1  0.66670741  0.33341383  0.42930749  1
  Te  Te1  1  0.66661721  0.33323343  0.51471379  1
  Mo  Mo2  1  0.33347960  0.66695920  0.09353586  1
  Mo  Mo3  1  0.33331761  0.66663523  0.47205388  1
  W  W4  1  0.66664109  0.33328218  0.27738193  1
  W  W5  1  0.66653188  0.33306376  0.65996387  1
  Se  Se6  1  0.33318147  0.66636393  0.31506400  1
  Se  Se7  1  0.33345058  0.66690217  0.23968502  1
  S  S8  1  0.33312335  0.66624770  0.69426448  1
  S  S9  1  0.66689961  0.33379821  0.05942301  1
  S  S10  1  0.66678313  0.33356526  0.12765123  1
  S  S11  1  0.33326705  0.66653510  0.62570345  1
