# generated using pymatgen
data_C13Cl12
_symmetry_space_group_name_H-M   'P 1'
_cell_length_a   8.59590406
_cell_length_b   8.76342707
_cell_length_c   16.22606206
_cell_angle_alpha   91.43786932
_cell_angle_beta   97.34794343
_cell_angle_gamma   118.51959632
_symmetry_Int_Tables_number   1
_chemical_formula_structural   C13Cl12
_chemical_formula_sum   'C26 Cl24'
_cell_volume   1059.94226400
_cell_formula_units_Z   2
loop_
 _symmetry_equiv_pos_site_id
 _symmetry_equiv_pos_as_xyz
  1  'x, y, z'
loop_
 _atom_site_type_symbol
 _atom_site_label
 _atom_site_symmetry_multiplicity
 _atom_site_fract_x
 _atom_site_fract_y
 _atom_site_fract_z
 _atom_site_occupancy
  C  C0  1  0.01918271  0.87871377  0.15957500  1
  C  C1  1  0.98081729  0.12128623  0.84042500  1
  C  C2  1  0.15005841  0.17959752  0.88166273  1
  C  C3  1  0.84994159  0.82040248  0.11833727  1
  C  C4  1  0.52436862  0.40041981  0.32042368  1
  C  C5  1  0.47563138  0.59958019  0.67957632  1
  C  C6  1  0.12893705  0.06161640  0.19734349  1
  C  C7  1  0.87106295  0.93838360  0.80265651  1
  C  C8  1  0.38739457  0.42921166  0.63951137  1
  C  C9  1  0.61260543  0.57078834  0.36048863  1
  C  C10  1  0.24522144  0.11360331  0.27137872  1
  C  C11  1  0.75477856  0.88639669  0.72862128  1
  C  C12  1  0.08173560  0.18329263  0.15323798  1
  C  C13  1  0.91826440  0.81670737  0.84676202  1
  C  C14  1  0.22753475  0.05956684  0.89834854  1
  C  C15  1  0.77246525  0.94043316  0.10165146  1
  C  C16  1  0.48502008  0.36716706  0.59903877  1
  C  C17  1  0.51497992  0.63283294  0.40096123  1
  C  C18  1  0.33868134  0.29120513  0.31794997  1
  C  C19  1  0.66131866  0.70879487  0.68205003  1
  C  C20  1  0.24543337  0.35194812  0.36286569  1
  C  C21  1  0.75456663  0.64805188  0.63713431  1
  C  C22  1  0.91343540  0.12955446  0.11247130  1
  C  C23  1  0.08656460  0.87044554  0.88752870  1
  C  C24  1  0.33184037  0.52196846  0.40363113  1
  C  C25  1  0.66815963  0.47803154  0.59636887  1
  Cl  Cl26  1  0.64269019  0.32690135  0.26973144  1
  Cl  Cl27  1  0.35730981  0.67309865  0.73026856  1
  Cl  Cl28  1  0.24221147  0.39737379  0.15265060  1
  Cl  Cl29  1  0.75778853  0.60262621  0.84734940  1
  Cl  Cl30  1  0.16385008  0.29603404  0.64105831  1
  Cl  Cl31  1  0.83614992  0.70396596  0.35894169  1
  Cl  Cl32  1  0.71024588  0.60493384  0.08522226  1
  Cl  Cl33  1  0.28975412  0.39506616  0.91477774  1
  Cl  Cl34  1  0.38033588  0.15780582  0.55249214  1
  Cl  Cl35  1  0.61966412  0.84219418  0.44750786  1
  Cl  Cl36  1  0.21470225  0.59515471  0.45562209  1
  Cl  Cl37  1  0.78529775  0.40484529  0.54437791  1
  Cl  Cl38  1  0.39027473  0.09730502  0.82743114  1
  Cl  Cl39  1  0.60972527  0.90269498  0.17256886  1
  Cl  Cl40  1  0.34631562  0.11007238  0.00358474  1
  Cl  Cl41  1  0.65368438  0.88992762  0.99641526  1
  Cl  Cl42  1  0.02225372  0.21768702  0.36687363  1
  Cl  Cl43  1  0.97774628  0.78231298  0.63312637  1
  Cl  Cl44  1  0.10342262  0.73615090  0.16487618  1
  Cl  Cl45  1  0.89657738  0.26384910  0.83512382  1
  Cl  Cl46  1  0.85050969  0.27396858  0.07283196  1
  Cl  Cl47  1  0.14949031  0.72603142  0.92716804  1
  Cl  Cl48  1  0.71102949  0.03021057  0.67209315  1
  Cl  Cl49  1  0.28897051  0.96978943  0.32790685  1
