# generated using pymatgen
data_Te3MoWS
_symmetry_space_group_name_H-M   'P 1'
_cell_length_a   3.45103021
_cell_length_b   3.45102499
_cell_length_c   39.39389626
_cell_angle_alpha   90.00006744
_cell_angle_beta   90.00000000
_cell_angle_gamma   120.00004991
_symmetry_Int_Tables_number   1
_chemical_formula_structural   Te3MoWS
_chemical_formula_sum   'Te6 Mo2 W2 S2'
_cell_volume   406.30878809
_cell_formula_units_Z   2
loop_
 _symmetry_equiv_pos_site_id
 _symmetry_equiv_pos_as_xyz
  1  'x, y, z'
loop_
 _atom_site_type_symbol
 _atom_site_label
 _atom_site_symmetry_multiplicity
 _atom_site_fract_x
 _atom_site_fract_y
 _atom_site_fract_z
 _atom_site_occupancy
  Te  Te0  1  0.33335318  0.66670735  0.32876799  1
  Te  Te1  1  0.33336083  0.66672265  0.70483989  1
  Te  Te2  1  0.66664799  0.33329499  0.42263498  1
  Te  Te3  1  0.66664505  0.33328909  0.51664916  1
  Te  Te4  1  0.33335935  0.66671969  0.23473208  1
  Te  Te5  1  0.33334813  0.66669726  0.61028893  1
  Mo  Mo6  1  0.33330920  0.66661840  0.46966753  1
  Mo  Mo7  1  0.66669159  0.33338318  0.28174501  1
  W  W8  1  0.33330799  0.66661598  0.09393699  1
  W  W9  1  0.66668698  0.33337396  0.65759027  1
  S  S10  1  0.66664486  0.33328871  0.05601089  1
  S  S11  1  0.66664487  0.33328873  0.13188428  1
