# generated using pymatgen
data_Mg14AlSi
_symmetry_space_group_name_H-M   'P 1'
_cell_length_a   6.24985313
_cell_length_b   6.24985265
_cell_length_c   10.25256935
_cell_angle_alpha   90.00000000
_cell_angle_beta   90.00000000
_cell_angle_gamma   120.00000261
_symmetry_Int_Tables_number   1
_chemical_formula_structural   Mg14AlSi
_chemical_formula_sum   'Mg14 Al1 Si1'
_cell_volume   346.81903510
_cell_formula_units_Z   1
loop_
 _symmetry_equiv_pos_site_id
 _symmetry_equiv_pos_as_xyz
  1  'x, y, z'
loop_
 _atom_site_type_symbol
 _atom_site_label
 _atom_site_symmetry_multiplicity
 _atom_site_fract_x
 _atom_site_fract_y
 _atom_site_fract_z
 _atom_site_occupancy
  Mg  Mg0  1  0.16691641  0.83345771  0.12500000  1
  Mg  Mg1  1  0.16620385  0.83310142  0.62500000  1
  Mg  Mg2  1  0.66654229  0.33308359  0.12500000  1
  Mg  Mg3  1  0.66689858  0.33379615  0.62500000  1
  Mg  Mg4  1  0.66654229  0.83345771  0.12500000  1
  Mg  Mg5  1  0.66689858  0.83310142  0.62500000  1
  Mg  Mg6  1  0.33241261  0.16758739  0.37521282  1
  Mg  Mg7  1  0.33241261  0.16758739  0.87478718  1
  Mg  Mg8  1  0.33241261  0.66482622  0.37521282  1
  Mg  Mg9  1  0.33241261  0.66482622  0.87478718  1
  Mg  Mg10  1  0.83517378  0.16758739  0.37521282  1
  Mg  Mg11  1  0.83517378  0.16758739  0.87478718  1
  Mg  Mg12  1  0.83333300  0.66666700  0.37462739  1
  Mg  Mg13  1  0.83333300  0.66666700  0.87537261  1
  Al  Al14  1  0.16666700  0.33333300  0.12500000  1
  Si  Si15  1  0.16666700  0.33333300  0.62500000  1
