# generated using pymatgen
data_Te3MoWS
_symmetry_space_group_name_H-M   'P 1'
_cell_length_a   3.45199716
_cell_length_b   3.45214265
_cell_length_c   39.44800672
_cell_angle_alpha   89.99921118
_cell_angle_beta   90.00000000
_cell_angle_gamma   119.99860587
_symmetry_Int_Tables_number   1
_chemical_formula_structural   Te3MoWS
_chemical_formula_sum   'Te6 Mo2 W2 S2'
_cell_volume   407.11861378
_cell_formula_units_Z   2
loop_
 _symmetry_equiv_pos_site_id
 _symmetry_equiv_pos_as_xyz
  1  'x, y, z'
loop_
 _atom_site_type_symbol
 _atom_site_label
 _atom_site_symmetry_multiplicity
 _atom_site_fract_x
 _atom_site_fract_y
 _atom_site_fract_z
 _atom_site_occupancy
  Te  Te0  1  0.33334608  0.66669316  0.32901956  1
  Te  Te1  1  0.66665313  0.33330527  0.04694071  1
  Te  Te2  1  0.66664287  0.33328473  0.42275207  1
  Te  Te3  1  0.66664227  0.33328355  0.14085754  1
  Te  Te4  1  0.66663644  0.33327189  0.51667202  1
  Te  Te5  1  0.33334860  0.66669820  0.23462213  1
  Mo  Mo6  1  0.33329918  0.66659836  0.09385824  1
  Mo  Mo7  1  0.33329096  0.66658192  0.46967884  1
  W  W8  1  0.66668517  0.33337034  0.28177316  1
  W  W9  1  0.66670606  0.33341213  0.65751870  1
  S  S10  1  0.33337161  0.66674422  0.69534130  1
  S  S11  1  0.33337761  0.66675623  0.61971374  1
