# generated using pymatgen
data_C7Cl5
_symmetry_space_group_name_H-M   'P 1'
_cell_length_a   5.23038934
_cell_length_b   18.25547059
_cell_length_c   18.80780418
_cell_angle_alpha   90.00000000
_cell_angle_beta   90.00000000
_cell_angle_gamma   90.00000000
_symmetry_Int_Tables_number   1
_chemical_formula_structural   C7Cl5
_chemical_formula_sum   'C56 Cl40'
_cell_volume   1795.82968111
_cell_formula_units_Z   8
loop_
 _symmetry_equiv_pos_site_id
 _symmetry_equiv_pos_as_xyz
  1  'x, y, z'
loop_
 _atom_site_type_symbol
 _atom_site_label
 _atom_site_symmetry_multiplicity
 _atom_site_fract_x
 _atom_site_fract_y
 _atom_site_fract_z
 _atom_site_occupancy
  C  C0  1  0.06547165  0.18397050  0.21569646  1
  C  C1  1  0.93452835  0.81602950  0.78430354  1
  C  C2  1  0.43452835  0.31602950  0.71569646  1
  C  C3  1  0.93452835  0.18397050  0.28430354  1
  C  C4  1  0.56547165  0.68397050  0.28430354  1
  C  C5  1  0.06547165  0.81602950  0.71569646  1
  C  C6  1  0.56547165  0.31602950  0.78430354  1
  C  C7  1  0.43452835  0.68397050  0.21569646  1
  C  C8  1  0.36148649  0.24404010  0.13289354  1
  C  C9  1  0.63851351  0.75595990  0.86710646  1
  C  C10  1  0.13851351  0.25595990  0.63289354  1
  C  C11  1  0.63851351  0.24404010  0.36710646  1
  C  C12  1  0.86148649  0.74404010  0.36710646  1
  C  C13  1  0.36148649  0.75595990  0.63289354  1
  C  C14  1  0.86148649  0.25595990  0.86710646  1
  C  C15  1  0.13851351  0.74404010  0.13289354  1
  C  C16  1  0.06319585  0.12178020  0.17012239  1
  C  C17  1  0.93680415  0.87821980  0.82987761  1
  C  C18  1  0.43680415  0.37821980  0.67012239  1
  C  C19  1  0.93680415  0.12178020  0.32987761  1
  C  C20  1  0.56319585  0.62178020  0.32987761  1
  C  C21  1  0.06319585  0.87821980  0.67012239  1
  C  C22  1  0.56319585  0.37821980  0.82987761  1
  C  C23  1  0.43680415  0.62178020  0.17012239  1
  C  C24  1  0.18210640  0.25014743  0.19043525  1
  C  C25  1  0.81789360  0.74985257  0.80956475  1
  C  C26  1  0.31789360  0.24985257  0.69043525  1
  C  C27  1  0.81789360  0.25014743  0.30956475  1
  C  C28  1  0.68210640  0.75014743  0.30956475  1
  C  C29  1  0.18210640  0.74985257  0.69043525  1
  C  C30  1  0.68210640  0.24985257  0.80956475  1
  C  C31  1  0.31789360  0.75014743  0.19043525  1
  C  C32  1  0.09179662  0.31706775  0.22309721  1
  C  C33  1  0.90820338  0.68293225  0.77690279  1
  C  C34  1  0.40820338  0.18293225  0.72309721  1
  C  C35  1  0.90820338  0.31706775  0.27690279  1
  C  C36  1  0.59179662  0.81706775  0.27690279  1
  C  C37  1  0.09179662  0.68293225  0.72309721  1
  C  C38  1  0.59179662  0.18293225  0.77690279  1
  C  C39  1  0.40820338  0.81706775  0.22309721  1
  C  C40  1  0.38515756  0.17817325  0.09510839  1
  C  C41  1  0.61484244  0.82182675  0.90489161  1
  C  C42  1  0.11484244  0.32182675  0.59510839  1
  C  C43  1  0.61484244  0.17817325  0.40489161  1
  C  C44  1  0.88515756  0.67817325  0.40489161  1
  C  C45  1  0.38515756  0.82182675  0.59510839  1
  C  C46  1  0.88515756  0.32182675  0.90489161  1
  C  C47  1  0.11484244  0.67817325  0.09510839  1
  C  C48  1  0.22234755  0.11846474  0.11047262  1
  C  C49  1  0.77765245  0.88153526  0.88952738  1
  C  C50  1  0.27765245  0.38153526  0.61047262  1
  C  C51  1  0.77765245  0.11846474  0.38952738  1
  C  C52  1  0.72234755  0.61846474  0.38952738  1
  C  C53  1  0.22234755  0.88153526  0.61047262  1
  C  C54  1  0.72234755  0.38153526  0.88952738  1
  C  C55  1  0.27765245  0.61846474  0.11047262  1
  Cl  Cl56  1  0.43354789  0.31325523  0.39231981  1
  Cl  Cl57  1  0.56645211  0.68674477  0.60768019  1
  Cl  Cl58  1  0.06645211  0.18674477  0.89231981  1
  Cl  Cl59  1  0.56645211  0.31325523  0.10768019  1
  Cl  Cl60  1  0.93354789  0.81325523  0.10768019  1
  Cl  Cl61  1  0.43354789  0.68674477  0.89231981  1
  Cl  Cl62  1  0.93354789  0.18674477  0.60768019  1
  Cl  Cl63  1  0.06645211  0.81325523  0.39231981  1
  Cl  Cl64  1  0.22010035  0.04357044  0.05579899  1
  Cl  Cl65  1  0.77989965  0.95642956  0.94420101  1
  Cl  Cl66  1  0.27989965  0.45642956  0.55579899  1
  Cl  Cl67  1  0.77989965  0.04357044  0.44420101  1
  Cl  Cl68  1  0.72010035  0.54357044  0.44420101  1
  Cl  Cl69  1  0.22010035  0.95642956  0.55579899  1
  Cl  Cl70  1  0.72010035  0.45642956  0.94420101  1
  Cl  Cl71  1  0.27989965  0.54357044  0.05579899  1
  Cl  Cl72  1  0.39681756  0.16945867  0.47232998  1
  Cl  Cl73  1  0.60318244  0.83054133  0.52767002  1
  Cl  Cl74  1  0.10318244  0.33054133  0.97232998  1
  Cl  Cl75  1  0.60318244  0.16945867  0.02767002  1
  Cl  Cl76  1  0.89681756  0.66945867  0.02767002  1
  Cl  Cl77  1  0.39681756  0.83054133  0.97232998  1
  Cl  Cl78  1  0.89681756  0.33054133  0.52767002  1
  Cl  Cl79  1  0.10318244  0.66945867  0.47232998  1
  Cl  Cl80  1  0.16050623  0.05341132  0.31948010  1
  Cl  Cl81  1  0.83949377  0.94658868  0.68051990  1
  Cl  Cl82  1  0.33949377  0.44658868  0.81948010  1
  Cl  Cl83  1  0.83949377  0.05341132  0.18051990  1
  Cl  Cl84  1  0.66050623  0.55341132  0.18051990  1
  Cl  Cl85  1  0.16050623  0.94658868  0.81948010  1
  Cl  Cl86  1  0.66050623  0.44658868  0.68051990  1
  Cl  Cl87  1  0.33949377  0.55341132  0.31948010  1
  Cl  Cl88  1  0.18162666  0.40084476  0.19001135  1
  Cl  Cl89  1  0.81837334  0.59915524  0.80998865  1
  Cl  Cl90  1  0.31837334  0.09915524  0.69001135  1
  Cl  Cl91  1  0.81837334  0.40084476  0.30998865  1
  Cl  Cl92  1  0.68162666  0.90084476  0.30998865  1
  Cl  Cl93  1  0.18162666  0.59915524  0.69001135  1
  Cl  Cl94  1  0.68162666  0.09915524  0.80998865  1
  Cl  Cl95  1  0.31837334  0.90084476  0.19001135  1
