# generated using pymatgen
data_Te4Mo3W(SeS)2
_symmetry_space_group_name_H-M   'P 1'
_cell_length_a   3.39840178
_cell_length_b   3.39845986
_cell_length_c   38.61682728
_cell_angle_alpha   89.99829545
_cell_angle_beta   90.00000000
_cell_angle_gamma   119.99943465
_symmetry_Int_Tables_number   1
_chemical_formula_structural   Te4Mo3W(SeS)2
_chemical_formula_sum   'Te4 Mo3 W1 Se2 S2'
_cell_volume   386.24828371
_cell_formula_units_Z   1
loop_
 _symmetry_equiv_pos_site_id
 _symmetry_equiv_pos_as_xyz
  1  'x, y, z'
loop_
 _atom_site_type_symbol
 _atom_site_label
 _atom_site_symmetry_multiplicity
 _atom_site_fract_x
 _atom_site_fract_y
 _atom_site_fract_z
 _atom_site_occupancy
  Te  Te0  1  0.66665376  0.33330653  0.04547792  1
  Te  Te1  1  0.66665631  0.33331161  0.42112658  1
  Te  Te2  1  0.66663890  0.33327681  0.14244146  1
  Te  Te3  1  0.66664084  0.33328069  0.51815695  1
  Mo  Mo4  1  0.33331263  0.66662526  0.09390705  1
  Mo  Mo5  1  0.33331462  0.66662924  0.46963001  1
  Mo  Mo6  1  0.66669736  0.33339472  0.28178901  1
  W  W7  1  0.66667595  0.33335189  0.65753956  1
  Se  Se8  1  0.33333773  0.66667647  0.70033620  1
  Se  Se9  1  0.33334497  0.66669095  0.61475806  1
  S  S10  1  0.33336712  0.66673524  0.32070315  1
  S  S11  1  0.33335980  0.66672059  0.24288205  1
