# generated using pymatgen
data_Mg14AlNiO16
_symmetry_space_group_name_H-M   'P 1'
_cell_length_a   8.44067963
_cell_length_b   8.61042367
_cell_length_c   4.22289298
_cell_angle_alpha   90.00000000
_cell_angle_beta   90.00000000
_cell_angle_gamma   90.00000000
_symmetry_Int_Tables_number   1
_chemical_formula_structural   Mg14AlNiO16
_chemical_formula_sum   'Mg14 Al1 Ni1 O16'
_cell_volume   306.91068830
_cell_formula_units_Z   1
loop_
 _symmetry_equiv_pos_site_id
 _symmetry_equiv_pos_as_xyz
  1  'x, y, z'
loop_
 _atom_site_type_symbol
 _atom_site_label
 _atom_site_symmetry_multiplicity
 _atom_site_fract_x
 _atom_site_fract_y
 _atom_site_fract_z
 _atom_site_occupancy
  Mg  Mg0  1  0.50000000  0.00000000  0.00000000  1
  Mg  Mg1  1  0.50000000  0.50000000  0.00000000  1
  Mg  Mg2  1  0.00000000  0.25518855  0.50000000  1
  Mg  Mg3  1  0.00000000  0.74481145  0.50000000  1
  Mg  Mg4  1  0.50000000  0.25208743  0.50000000  1
  Mg  Mg5  1  0.50000000  0.74791257  0.50000000  1
  Mg  Mg6  1  0.24987411  0.00000000  0.50000000  1
  Mg  Mg7  1  0.24600405  0.50000000  0.50000000  1
  Mg  Mg8  1  0.75012589  0.00000000  0.50000000  1
  Mg  Mg9  1  0.75399595  0.50000000  0.50000000  1
  Mg  Mg10  1  0.24676309  0.25442563  0.00000000  1
  Mg  Mg11  1  0.24676309  0.74557437  0.00000000  1
  Mg  Mg12  1  0.75323691  0.25442563  0.00000000  1
  Mg  Mg13  1  0.75323691  0.74557437  0.00000000  1
  Al  Al14  1  0.00000000  0.00000000  0.00000000  1
  Ni  Ni15  1  0.00000000  0.50000000  0.00000000  1
  O  O16  1  0.23918331  0.00000000  0.00000000  1
  O  O17  1  0.25670831  0.50000000  0.00000000  1
  O  O18  1  0.76081669  0.00000000  0.00000000  1
  O  O19  1  0.74329169  0.50000000  0.00000000  1
  O  O20  1  0.24849833  0.24942204  0.50000000  1
  O  O21  1  0.24849833  0.75057796  0.50000000  1
  O  O22  1  0.75150167  0.24942204  0.50000000  1
  O  O23  1  0.75150167  0.75057796  0.50000000  1
  O  O24  1  0.00000000  0.00000000  0.50000000  1
  O  O25  1  0.00000000  0.50000000  0.50000000  1
  O  O26  1  0.50000000  0.00000000  0.50000000  1
  O  O27  1  0.50000000  0.50000000  0.50000000  1
  O  O28  1  0.00000000  0.21239494  0.00000000  1
  O  O29  1  0.00000000  0.78760506  0.00000000  1
  O  O30  1  0.50000000  0.24585294  0.00000000  1
  O  O31  1  0.50000000  0.75414706  0.00000000  1
