# generated using pymatgen
data_Mg30TiNiO32
_symmetry_space_group_name_H-M   'P 1'
_cell_length_a   8.56097335
_cell_length_b   8.51582239
_cell_length_c   8.51582239
_cell_angle_alpha   90.00000000
_cell_angle_beta   90.00000000
_cell_angle_gamma   90.00000000
_symmetry_Int_Tables_number   1
_chemical_formula_structural   Mg30TiNiO32
_chemical_formula_sum   'Mg30 Ti1 Ni1 O32'
_cell_volume   620.83520377
_cell_formula_units_Z   1
loop_
 _symmetry_equiv_pos_site_id
 _symmetry_equiv_pos_as_xyz
  1  'x, y, z'
loop_
 _atom_site_type_symbol
 _atom_site_label
 _atom_site_symmetry_multiplicity
 _atom_site_fract_x
 _atom_site_fract_y
 _atom_site_fract_z
 _atom_site_occupancy
  Mg  Mg0  1  0.00000000  0.00000000  0.50000000  1
  Mg  Mg1  1  0.00000000  0.50000000  0.00000000  1
  Mg  Mg2  1  0.50000000  0.00000000  0.00000000  1
  Mg  Mg3  1  0.50000000  0.00000000  0.50000000  1
  Mg  Mg4  1  0.50000000  0.50000000  0.00000000  1
  Mg  Mg5  1  0.50000000  0.50000000  0.50000000  1
  Mg  Mg6  1  0.00000000  0.24388144  0.24388144  1
  Mg  Mg7  1  0.00000000  0.24388144  0.75611856  1
  Mg  Mg8  1  0.00000000  0.75611856  0.24388144  1
  Mg  Mg9  1  0.00000000  0.75611856  0.75611856  1
  Mg  Mg10  1  0.50000000  0.24848618  0.24848618  1
  Mg  Mg11  1  0.50000000  0.24848618  0.75151382  1
  Mg  Mg12  1  0.50000000  0.75151382  0.24848618  1
  Mg  Mg13  1  0.50000000  0.75151382  0.75151382  1
  Mg  Mg14  1  0.24881676  0.00000000  0.24614748  1
  Mg  Mg15  1  0.24881676  0.00000000  0.75385252  1
  Mg  Mg16  1  0.25235598  0.50000000  0.24702139  1
  Mg  Mg17  1  0.25235598  0.50000000  0.75297861  1
  Mg  Mg18  1  0.75118324  0.00000000  0.24614748  1
  Mg  Mg19  1  0.75118324  0.00000000  0.75385252  1
  Mg  Mg20  1  0.74764402  0.50000000  0.24702139  1
  Mg  Mg21  1  0.74764402  0.50000000  0.75297861  1
  Mg  Mg22  1  0.24881676  0.24614748  0.00000000  1
  Mg  Mg23  1  0.25235598  0.24702139  0.50000000  1
  Mg  Mg24  1  0.24881676  0.75385252  0.00000000  1
  Mg  Mg25  1  0.25235598  0.75297861  0.50000000  1
  Mg  Mg26  1  0.75118324  0.24614748  0.00000000  1
  Mg  Mg27  1  0.74764402  0.24702139  0.50000000  1
  Mg  Mg28  1  0.75118324  0.75385252  0.00000000  1
  Mg  Mg29  1  0.74764402  0.75297861  0.50000000  1
  Ti  Ti30  1  0.00000000  0.50000000  0.50000000  1
  Ni  Ni31  1  0.00000000  0.00000000  0.00000000  1
  O  O32  1  0.26671224  0.00000000  0.00000000  1
  O  O33  1  0.24996893  0.00000000  0.50000000  1
  O  O34  1  0.24996893  0.50000000  0.00000000  1
  O  O35  1  0.24870229  0.50000000  0.50000000  1
  O  O36  1  0.73328776  0.00000000  0.00000000  1
  O  O37  1  0.75003107  0.00000000  0.50000000  1
  O  O38  1  0.75003107  0.50000000  0.00000000  1
  O  O39  1  0.75129771  0.50000000  0.50000000  1
  O  O40  1  0.24898780  0.25054337  0.25054337  1
  O  O41  1  0.24898780  0.25054337  0.74945663  1
  O  O42  1  0.24898780  0.74945663  0.25054337  1
  O  O43  1  0.24898780  0.74945663  0.74945663  1
  O  O44  1  0.75101220  0.25054337  0.25054337  1
  O  O45  1  0.75101220  0.25054337  0.74945663  1
  O  O46  1  0.75101220  0.74945663  0.25054337  1
  O  O47  1  0.75101220  0.74945663  0.74945663  1
  O  O48  1  0.00000000  0.00000000  0.26143143  1
  O  O49  1  0.00000000  0.00000000  0.73856857  1
  O  O50  1  0.00000000  0.50000000  0.25674285  1
  O  O51  1  0.00000000  0.50000000  0.74325715  1
  O  O52  1  0.50000000  0.00000000  0.25330619  1
  O  O53  1  0.50000000  0.00000000  0.74669381  1
  O  O54  1  0.50000000  0.50000000  0.25145547  1
  O  O55  1  0.50000000  0.50000000  0.74854453  1
  O  O56  1  0.00000000  0.26143143  0.00000000  1
  O  O57  1  0.00000000  0.25674285  0.50000000  1
  O  O58  1  0.00000000  0.73856857  0.00000000  1
  O  O59  1  0.00000000  0.74325715  0.50000000  1
  O  O60  1  0.50000000  0.25330619  0.00000000  1
  O  O61  1  0.50000000  0.25145547  0.50000000  1
  O  O62  1  0.50000000  0.74669381  0.00000000  1
  O  O63  1  0.50000000  0.74854453  0.50000000  1
