# generated using pymatgen
data_Mg30NiBiO32
_symmetry_space_group_name_H-M   'P 1'
_cell_length_a   8.56581488
_cell_length_b   8.62479658
_cell_length_c   8.62479658
_cell_angle_alpha   90.00000000
_cell_angle_beta   90.00000000
_cell_angle_gamma   90.00000000
_symmetry_Int_Tables_number   1
_chemical_formula_structural   Mg30NiBiO32
_chemical_formula_sum   'Mg30 Ni1 Bi1 O32'
_cell_volume   637.18626551
_cell_formula_units_Z   1
loop_
 _symmetry_equiv_pos_site_id
 _symmetry_equiv_pos_as_xyz
  1  'x, y, z'
loop_
 _atom_site_type_symbol
 _atom_site_label
 _atom_site_symmetry_multiplicity
 _atom_site_fract_x
 _atom_site_fract_y
 _atom_site_fract_z
 _atom_site_occupancy
  Mg  Mg0  1  0.00000000  0.00000000  0.50000000  1
  Mg  Mg1  1  0.00000000  0.50000000  0.00000000  1
  Mg  Mg2  1  0.50000000  0.00000000  0.00000000  1
  Mg  Mg3  1  0.50000000  0.00000000  0.50000000  1
  Mg  Mg4  1  0.50000000  0.50000000  0.00000000  1
  Mg  Mg5  1  0.50000000  0.50000000  0.50000000  1
  Mg  Mg6  1  0.00000000  0.23898331  0.23898331  1
  Mg  Mg7  1  0.00000000  0.23898331  0.76101669  1
  Mg  Mg8  1  0.00000000  0.76101669  0.23898331  1
  Mg  Mg9  1  0.00000000  0.76101669  0.76101669  1
  Mg  Mg10  1  0.50000000  0.24812911  0.24812911  1
  Mg  Mg11  1  0.50000000  0.24812911  0.75187089  1
  Mg  Mg12  1  0.50000000  0.75187089  0.24812911  1
  Mg  Mg13  1  0.50000000  0.75187089  0.75187089  1
  Mg  Mg14  1  0.24810351  0.00000000  0.24691762  1
  Mg  Mg15  1  0.24810351  0.00000000  0.75308238  1
  Mg  Mg16  1  0.25647749  0.50000000  0.24154785  1
  Mg  Mg17  1  0.25647749  0.50000000  0.75845215  1
  Mg  Mg18  1  0.75189649  0.00000000  0.24691762  1
  Mg  Mg19  1  0.75189649  0.00000000  0.75308238  1
  Mg  Mg20  1  0.74352251  0.50000000  0.24154785  1
  Mg  Mg21  1  0.74352251  0.50000000  0.75845215  1
  Mg  Mg22  1  0.24810351  0.24691762  0.00000000  1
  Mg  Mg23  1  0.25647749  0.24154785  0.50000000  1
  Mg  Mg24  1  0.24810351  0.75308238  0.00000000  1
  Mg  Mg25  1  0.25647749  0.75845215  0.50000000  1
  Mg  Mg26  1  0.75189649  0.24691762  0.00000000  1
  Mg  Mg27  1  0.74352251  0.24154785  0.50000000  1
  Mg  Mg28  1  0.75189649  0.75308238  0.00000000  1
  Mg  Mg29  1  0.74352251  0.75845215  0.50000000  1
  Ni  Ni30  1  0.00000000  0.00000000  0.00000000  1
  Bi  Bi31  1  0.00000000  0.50000000  0.50000000  1
  O  O32  1  0.25801592  0.00000000  0.00000000  1
  O  O33  1  0.25481779  0.00000000  0.50000000  1
  O  O34  1  0.25481779  0.50000000  0.00000000  1
  O  O35  1  0.26712105  0.50000000  0.50000000  1
  O  O36  1  0.74198408  0.00000000  0.00000000  1
  O  O37  1  0.74518221  0.00000000  0.50000000  1
  O  O38  1  0.74518221  0.50000000  0.00000000  1
  O  O39  1  0.73287895  0.50000000  0.50000000  1
  O  O40  1  0.24943696  0.25063605  0.25063605  1
  O  O41  1  0.24943696  0.25063605  0.74936395  1
  O  O42  1  0.24943696  0.74936395  0.25063605  1
  O  O43  1  0.24943696  0.74936395  0.74936395  1
  O  O44  1  0.75056304  0.25063605  0.25063605  1
  O  O45  1  0.75056304  0.25063605  0.74936395  1
  O  O46  1  0.75056304  0.74936395  0.25063605  1
  O  O47  1  0.75056304  0.74936395  0.74936395  1
  O  O48  1  0.00000000  0.00000000  0.26366651  1
  O  O49  1  0.00000000  0.00000000  0.73633349  1
  O  O50  1  0.00000000  0.50000000  0.23482713  1
  O  O51  1  0.00000000  0.50000000  0.76517287  1
  O  O52  1  0.50000000  0.00000000  0.25077973  1
  O  O53  1  0.50000000  0.00000000  0.74922027  1
  O  O54  1  0.50000000  0.50000000  0.24844522  1
  O  O55  1  0.50000000  0.50000000  0.75155478  1
  O  O56  1  0.00000000  0.26366651  0.00000000  1
  O  O57  1  0.00000000  0.23482713  0.50000000  1
  O  O58  1  0.00000000  0.73633349  0.00000000  1
  O  O59  1  0.00000000  0.76517287  0.50000000  1
  O  O60  1  0.50000000  0.25077973  0.00000000  1
  O  O61  1  0.50000000  0.24844522  0.50000000  1
  O  O62  1  0.50000000  0.74922027  0.00000000  1
  O  O63  1  0.50000000  0.75155478  0.50000000  1
