# generated using pymatgen
data_Ba2V2F11
_symmetry_space_group_name_H-M   'P 1'
_cell_length_a   7.84871586
_cell_length_b   7.84871556
_cell_length_c   14.38830925
_cell_angle_alpha   90.00000000
_cell_angle_beta   90.00000000
_cell_angle_gamma   119.99999419
_symmetry_Int_Tables_number   1
_chemical_formula_structural   Ba2V2F11
_chemical_formula_sum   'Ba6 V6 F33'
_cell_volume   767.60468742
_cell_formula_units_Z   3
loop_
 _symmetry_equiv_pos_site_id
 _symmetry_equiv_pos_as_xyz
  1  'x, y, z'
loop_
 _atom_site_type_symbol
 _atom_site_label
 _atom_site_symmetry_multiplicity
 _atom_site_fract_x
 _atom_site_fract_y
 _atom_site_fract_z
 _atom_site_occupancy
  Ba  Ba0  1  0.58467218  0.17109810  0.65571928  1
  Ba  Ba1  1  0.15438572  0.45917647  0.80966835  1
  Ba  Ba2  1  0.58642592  0.41532782  0.98905228  1
  Ba  Ba3  1  0.54082353  0.69520725  0.47633435  1
  Ba  Ba4  1  0.30479275  0.84561428  0.14300135  1
  Ba  Ba5  1  0.82890190  0.41357408  0.32238528  1
  V  V6  1  0.63440350  0.97341881  0.88656929  1
  V  V7  1  0.84706673  0.77464101  0.72729794  1
  V  V8  1  0.22535899  0.07242672  0.39396394  1
  V  V9  1  0.33901631  0.36559650  0.21990229  1
  V  V10  1  0.92757328  0.15293327  0.06063094  1
  V  V11  1  0.02658119  0.66098369  0.55323529  1
  F  F12  1  0.65704838  0.06067789  0.02817653  1
  F  F13  1  0.51580998  0.71691522  0.94087040  1
  F  F14  1  0.40363051  0.34295162  0.36150953  1
  F  F15  1  0.11068617  0.50332213  0.48857510  1
  F  F16  1  0.52174580  0.27748259  0.18218129  1
  F  F17  1  0.95949618  0.60556133  0.17445958  1
  F  F18  1  0.49667787  0.60736405  0.15524210  1
  F  F19  1  0.39443867  0.35393585  0.84112658  1
  F  F20  1  0.75573679  0.47825420  0.51551429  1
  F  F21  1  0.20420916  0.28689246  0.09215416  1
  F  F22  1  0.39263595  0.88931383  0.82190910  1
  F  F23  1  0.93932211  0.59636949  0.69484353  1
  F  F24  1  0.33070973  0.05066665  0.00913781  1
  F  F25  1  0.98415705  0.39715497  0.01433083  1
  F  F26  1  0.71995692  0.66929027  0.34247081  1
  F  F27  1  0.28308478  0.79889576  0.60753640  1
  F  F28  1  0.92412187  0.09289231  0.92262685  1
  F  F29  1  0.08268230  0.79579084  0.42548716  1
  F  F30  1  0.01658743  0.10056600  0.40634534  1
  F  F31  1  0.94933335  0.28004308  0.67580381  1
  F  F32  1  0.08397858  0.98341257  0.73967934  1
  F  F33  1  0.60284503  0.58700208  0.68099783  1
  F  F34  1  0.41299792  0.01584295  0.34766383  1
  F  F35  1  0.16877044  0.07587813  0.25595985  1
  F  F36  1  0.71310754  0.91731770  0.75882116  1
  F  F37  1  0.72251641  0.24426321  0.84884829  1
  F  F38  1  0.20110424  0.48419002  0.27420340  1
  F  F39  1  0.82323796  0.68947512  0.84795424  1
  F  F40  1  0.86623716  0.17676204  0.18128724  1
  F  F41  1  0.89943400  0.91602142  0.07301234  1
  F  F42  1  0.64606415  0.04050382  0.50779258  1
  F  F43  1  0.90710769  0.83122956  0.58929285  1
  F  F44  1  0.31052488  0.13376284  0.51462024  1
