# generated using pymatgen
data_Ca2Mg
_symmetry_space_group_name_H-M   'P 1'
_cell_length_a   10.66108160
_cell_length_b   6.59695851
_cell_length_c   6.68425657
_cell_angle_alpha   90.00000000
_cell_angle_beta   117.08110594
_cell_angle_gamma   90.00000000
_symmetry_Int_Tables_number   1
_chemical_formula_structural   Ca2Mg
_chemical_formula_sum   'Ca8 Mg4'
_cell_volume   418.56723106
_cell_formula_units_Z   4
loop_
 _symmetry_equiv_pos_site_id
 _symmetry_equiv_pos_as_xyz
  1  'x, y, z'
loop_
 _atom_site_type_symbol
 _atom_site_label
 _atom_site_symmetry_multiplicity
 _atom_site_fract_x
 _atom_site_fract_y
 _atom_site_fract_z
 _atom_site_occupancy
  Ca  Ca0  1  0.16826089  0.62313559  0.22073249  1
  Ca  Ca1  1  0.33173911  0.12313559  0.27926751  1
  Ca  Ca2  1  0.16826089  0.37686441  0.72073249  1
  Ca  Ca3  1  0.33173911  0.87686441  0.77926751  1
  Ca  Ca4  1  0.66826089  0.12313559  0.22073249  1
  Ca  Ca5  1  0.83173911  0.62313559  0.27926751  1
  Ca  Ca6  1  0.66826089  0.87686441  0.72073249  1
  Ca  Ca7  1  0.83173911  0.37686441  0.77926751  1
  Mg  Mg8  1  0.50000000  0.41872637  0.75000000  1
  Mg  Mg9  1  0.00000000  0.08127363  0.25000000  1
  Mg  Mg10  1  0.00000000  0.91872637  0.75000000  1
  Mg  Mg11  1  0.50000000  0.58127363  0.25000000  1
