# generated using pymatgen
data_Ce2Mg
_symmetry_space_group_name_H-M   'P 1'
_cell_length_a   3.25348202
_cell_length_b   3.25348224
_cell_length_c   17.03375427
_cell_angle_alpha   90.00000000
_cell_angle_beta   90.00000000
_cell_angle_gamma   119.99999780
_symmetry_Int_Tables_number   1
_chemical_formula_structural   Ce2Mg
_chemical_formula_sum   'Ce4 Mg2'
_cell_volume   156.14851918
_cell_formula_units_Z   2
loop_
 _symmetry_equiv_pos_site_id
 _symmetry_equiv_pos_as_xyz
  1  'x, y, z'
loop_
 _atom_site_type_symbol
 _atom_site_label
 _atom_site_symmetry_multiplicity
 _atom_site_fract_x
 _atom_site_fract_y
 _atom_site_fract_z
 _atom_site_occupancy
  Ce  Ce0  1  0.33333300  0.66666700  0.91837100  1
  Ce  Ce1  1  0.66666700  0.33333300  0.74925577  1
  Ce  Ce2  1  0.33333300  0.66666700  0.25074423  1
  Ce  Ce3  1  0.66666700  0.33333300  0.08162900  1
  Mg  Mg4  1  0.33333300  0.66666700  0.57827980  1
  Mg  Mg5  1  0.66666700  0.33333300  0.42172020  1
