# generated using pymatgen
data_KLiMg30O31
_symmetry_space_group_name_H-M   'P 1'
_cell_length_a   8.46673974
_cell_length_b   8.63580818
_cell_length_c   8.63580818
_cell_angle_alpha   90.00000000
_cell_angle_beta   90.00000000
_cell_angle_gamma   90.00000000
_symmetry_Int_Tables_number   1
_chemical_formula_structural   KLiMg30O31
_chemical_formula_sum   'K1 Li1 Mg30 O31'
_cell_volume   631.42559834
_cell_formula_units_Z   1
loop_
 _symmetry_equiv_pos_site_id
 _symmetry_equiv_pos_as_xyz
  1  'x, y, z'
loop_
 _atom_site_type_symbol
 _atom_site_label
 _atom_site_symmetry_multiplicity
 _atom_site_fract_x
 _atom_site_fract_y
 _atom_site_fract_z
 _atom_site_occupancy
  K  K0  1  0.05575226  0.00000000  0.00000000  1
  Li  Li1  1  0.99633473  0.50000000  0.50000000  1
  Mg  Mg2  1  0.99231798  0.00000000  0.50000000  1
  Mg  Mg3  1  0.99231798  0.50000000  0.00000000  1
  Mg  Mg4  1  0.52032129  0.00000000  0.00000000  1
  Mg  Mg5  1  0.50365376  0.00000000  0.50000000  1
  Mg  Mg6  1  0.50365376  0.50000000  0.00000000  1
  Mg  Mg7  1  0.50029804  0.50000000  0.50000000  1
  Mg  Mg8  1  0.99733413  0.25511778  0.25511778  1
  Mg  Mg9  1  0.99733413  0.25511778  0.74488222  1
  Mg  Mg10  1  0.99733413  0.74488222  0.25511778  1
  Mg  Mg11  1  0.99733413  0.74488222  0.74488222  1
  Mg  Mg12  1  0.49939095  0.24933410  0.24933410  1
  Mg  Mg13  1  0.49939095  0.24933410  0.75066590  1
  Mg  Mg14  1  0.49939095  0.75066590  0.24933410  1
  Mg  Mg15  1  0.49939095  0.75066590  0.75066590  1
  Mg  Mg16  1  0.24733790  0.00000000  0.27785342  1
  Mg  Mg17  1  0.24733790  0.00000000  0.72214658  1
  Mg  Mg18  1  0.24492727  0.50000000  0.25668027  1
  Mg  Mg19  1  0.24492727  0.50000000  0.74331973  1
  Mg  Mg20  1  0.75700582  0.00000000  0.24868073  1
  Mg  Mg21  1  0.75700582  0.00000000  0.75131927  1
  Mg  Mg22  1  0.75207477  0.50000000  0.25415425  1
  Mg  Mg23  1  0.75207477  0.50000000  0.74584575  1
  Mg  Mg24  1  0.24733790  0.27785342  0.00000000  1
  Mg  Mg25  1  0.24492727  0.25668027  0.50000000  1
  Mg  Mg26  1  0.24733790  0.72214658  0.00000000  1
  Mg  Mg27  1  0.24492727  0.74331973  0.50000000  1
  Mg  Mg28  1  0.75700582  0.24868073  0.00000000  1
  Mg  Mg29  1  0.75207477  0.25415425  0.50000000  1
  Mg  Mg30  1  0.75700582  0.75131927  0.00000000  1
  Mg  Mg31  1  0.75207477  0.74584575  0.50000000  1
  O  O32  1  0.25708829  0.00000000  0.50000000  1
  O  O33  1  0.25708829  0.50000000  0.00000000  1
  O  O34  1  0.25664796  0.50000000  0.50000000  1
  O  O35  1  0.75030845  0.00000000  0.00000000  1
  O  O36  1  0.74307196  0.00000000  0.50000000  1
  O  O37  1  0.74307196  0.50000000  0.00000000  1
  O  O38  1  0.74124797  0.50000000  0.50000000  1
  O  O39  1  0.24808401  0.24256491  0.24256491  1
  O  O40  1  0.24808401  0.24256491  0.75743509  1
  O  O41  1  0.24808401  0.75743509  0.24256491  1
  O  O42  1  0.24808401  0.75743509  0.75743509  1
  O  O43  1  0.74772068  0.24904391  0.24904391  1
  O  O44  1  0.74772068  0.24904391  0.75095609  1
  O  O45  1  0.74772068  0.75095609  0.24904391  1
  O  O46  1  0.74772068  0.75095609  0.75095609  1
  O  O47  1  0.00198598  0.00000000  0.27026432  1
  O  O48  1  0.00198598  0.00000000  0.72973568  1
  O  O49  1  0.00056832  0.50000000  0.24669063  1
  O  O50  1  0.00056832  0.50000000  0.75330937  1
  O  O51  1  0.49159822  0.00000000  0.24234526  1
  O  O52  1  0.49159822  0.00000000  0.75765474  1
  O  O53  1  0.49617829  0.50000000  0.24799567  1
  O  O54  1  0.49617829  0.50000000  0.75200433  1
  O  O55  1  0.00198598  0.27026432  0.00000000  1
  O  O56  1  0.00056832  0.24669063  0.50000000  1
  O  O57  1  0.00198598  0.72973568  0.00000000  1
  O  O58  1  0.00056832  0.75330937  0.50000000  1
  O  O59  1  0.49159822  0.24234526  0.00000000  1
  O  O60  1  0.49617829  0.24799567  0.50000000  1
  O  O61  1  0.49159822  0.75765474  0.00000000  1
  O  O62  1  0.49617829  0.75200433  0.50000000  1
