# generated using pymatgen
data_MgBi2
_symmetry_space_group_name_H-M   'P 1'
_cell_length_a   13.07625942
_cell_length_b   3.39036721
_cell_length_c   8.30812089
_cell_angle_alpha   90.00000000
_cell_angle_beta   106.09994384
_cell_angle_gamma   90.00000000
_symmetry_Int_Tables_number   1
_chemical_formula_structural   MgBi2
_chemical_formula_sum   'Mg4 Bi8'
_cell_volume   353.88061147
_cell_formula_units_Z   4
loop_
 _symmetry_equiv_pos_site_id
 _symmetry_equiv_pos_as_xyz
  1  'x, y, z'
loop_
 _atom_site_type_symbol
 _atom_site_label
 _atom_site_symmetry_multiplicity
 _atom_site_fract_x
 _atom_site_fract_y
 _atom_site_fract_z
 _atom_site_occupancy
  Mg  Mg0  1  0.35793745  -0.00000000  0.48159332  1
  Mg  Mg1  1  0.14206255  0.50000000  0.51840668  1
  Mg  Mg2  1  0.85793745  0.50000000  0.48159332  1
  Mg  Mg3  1  0.64206255  0.00000000  0.51840668  1
  Bi  Bi4  1  0.21302009  0.50000000  0.18805771  1
  Bi  Bi5  1  0.47257679  0.50000000  0.23429746  1
  Bi  Bi6  1  0.02742321  0.00000000  0.76570254  1
  Bi  Bi7  1  0.28697991  0.00000000  0.81194229  1
  Bi  Bi8  1  0.71302009  -0.00000000  0.18805771  1
  Bi  Bi9  1  0.97257679  -0.00000000  0.23429746  1
  Bi  Bi10  1  0.52742321  0.50000000  0.76570254  1
  Bi  Bi11  1  0.78697991  0.50000000  0.81194229  1
