# generated using pymatgen
data_Ag3P3HO9
_symmetry_space_group_name_H-M   'P 1'
_cell_length_a   7.78284583
_cell_length_b   7.78284583
_cell_length_c   9.11421967
_cell_angle_alpha   113.05484403
_cell_angle_beta   113.70726229
_cell_angle_gamma   94.04579620
_symmetry_Int_Tables_number   1
_chemical_formula_structural   Ag3P3HO9
_chemical_formula_sum   'Ag6 P6 H2 O18'
_cell_volume   447.75418222
_cell_formula_units_Z   2
loop_
 _symmetry_equiv_pos_site_id
 _symmetry_equiv_pos_as_xyz
  1  'x, y, z'
loop_
 _atom_site_type_symbol
 _atom_site_label
 _atom_site_symmetry_multiplicity
 _atom_site_fract_x
 _atom_site_fract_y
 _atom_site_fract_z
 _atom_site_occupancy
  Ag  Ag0  1  0.17605065  0.67605065  0.50000000  1
  Ag  Ag1  1  0.82394935  0.32394935  0.50000000  1
  Ag  Ag2  1  0.51228145  0.81673115  0.03624253  1
  Ag  Ag3  1  0.48771855  0.18326885  0.96375747  1
  Ag  Ag4  1  0.78048862  0.47603892  0.96375747  1
  Ag  Ag5  1  0.21951138  0.52396108  0.03624253  1
  P  P6  1  0.04743626  0.93749493  0.26341222  1
  P  P7  1  0.95256374  0.06250507  0.73658778  1
  P  P8  1  0.67408271  0.78402404  0.73658778  1
  P  P9  1  0.32591729  0.21597596  0.26341222  1
  P  P10  1  0.29929673  0.29092614  0.59022287  1
  P  P11  1  0.70070327  0.70907386  0.40977713  1
  H  H12  1  0.73146940  0.32114708  0.05261648  1
  H  H13  1  0.26853060  0.67885292  0.94738352  1
  O  O14  1  0.18741843  0.00544441  0.19286284  1
  O  O15  1  0.81258157  0.99455559  0.80713716  1
  O  O16  1  0.49573586  0.17728907  0.22440833  1
  O  O17  1  0.50426414  0.82271093  0.77559167  1
  O  O18  1  0.95288074  0.27132754  0.77559167  1
  O  O19  1  0.04711926  0.72867246  0.22440833  1
  O  O20  1  0.18321892  0.06233039  0.48233949  1
  O  O21  1  0.81678108  0.93766961  0.51766051  1
  O  O22  1  0.57999091  0.70087944  0.51766051  1
  O  O23  1  0.42000909  0.29912056  0.48233949  1
  O  O24  1  0.85920121  0.99033361  0.20198715  1
  O  O25  1  0.14079879  0.00966639  0.79801285  1
  O  O26  1  0.78834646  0.65721406  0.79801285  1
  O  O27  1  0.21165354  0.34278594  0.20198715  1
  O  O28  1  0.15936039  0.41251890  0.57187929  1
  O  O29  1  0.84063961  0.58748110  0.42812071  1
  O  O30  1  0.55490137  0.66764747  0.22254884  1
  O  O31  1  0.44509863  0.33235253  0.77745116  1
