# generated using pymatgen
data_InAs4Pd15
_symmetry_space_group_name_H-M   'P 1'
_cell_length_a   4.45657604
_cell_length_b   4.45657604
_cell_length_c   18.47709198
_cell_angle_alpha   90.00000000
_cell_angle_beta   96.92657763
_cell_angle_gamma   120.00000000
_symmetry_Int_Tables_number   1
_chemical_formula_structural   InAs4Pd15
_chemical_formula_sum   'In1 As4 Pd15'
_cell_volume   314.71300840
_cell_formula_units_Z   1
loop_
 _symmetry_equiv_pos_site_id
 _symmetry_equiv_pos_as_xyz
  1  'x, y, z'
loop_
 _atom_site_type_symbol
 _atom_site_label
 _atom_site_symmetry_multiplicity
 _atom_site_fract_x
 _atom_site_fract_y
 _atom_site_fract_z
 _atom_site_occupancy
  In  In0  1  -0.00000000  0.00000000  0.00000000  1
  As  As1  1  0.80174752  0.40087376  0.20262128  1
  As  As2  1  0.60037989  0.80018995  0.40056984  1
  As  As3  1  0.39962011  0.19981005  0.59943016  1
  As  As4  1  0.19825248  0.59912624  0.79737872  1
  Pd  Pd5  1  0.89694071  0.94847036  0.84541107  1
  Pd  Pd6  1  0.10052309  0.55026154  0.65078463  1
  Pd  Pd7  1  0.30144816  0.15072408  0.45217224  1
  Pd  Pd8  1  0.70529120  0.35264560  0.05793681  1
  Pd  Pd9  1  0.49809665  0.74904832  0.24714497  1
  Pd  Pd10  1  0.29470880  0.64735440  0.94206319  1
  Pd  Pd11  1  0.50190335  0.25095168  0.75285503  1
  Pd  Pd12  1  0.69855184  0.84927592  0.54782776  1
  Pd  Pd13  1  0.10305929  0.05152964  0.15458893  1
  Pd  Pd14  1  0.89947691  0.44973846  0.34921537  1
  Pd  Pd15  1  0.60307741  0.30153871  0.90461612  1
  Pd  Pd16  1  0.79821693  0.89910847  0.69732540  1
  Pd  Pd17  1  -0.00000000  0.50000000  0.50000000  1
  Pd  Pd18  1  0.39692259  0.69846129  0.09538388  1
  Pd  Pd19  1  0.20178307  0.10089153  0.30267460  1
