# generated using pymatgen
data_MgFeNiP2O9
_symmetry_space_group_name_H-M   'P 1'
_cell_length_a   6.28447263
_cell_length_b   7.24748791
_cell_length_c   14.20242834
_cell_angle_alpha   89.87309934
_cell_angle_beta   90.00059274
_cell_angle_gamma   89.99970488
_symmetry_Int_Tables_number   1
_chemical_formula_structural   MgFeNiP2O9
_chemical_formula_sum   'Mg4 Fe4 Ni4 P8 O36'
_cell_volume   646.87129615
_cell_formula_units_Z   4
loop_
 _symmetry_equiv_pos_site_id
 _symmetry_equiv_pos_as_xyz
  1  'x, y, z'
loop_
 _atom_site_type_symbol
 _atom_site_label
 _atom_site_symmetry_multiplicity
 _atom_site_fract_x
 _atom_site_fract_y
 _atom_site_fract_z
 _atom_site_occupancy
  Mg  Mg0  1  0.75001364  0.90882028  0.77535410  1
  Mg  Mg1  1  0.74998734  0.59080611  0.27674835  1
  Mg  Mg2  1  0.24999195  0.09061750  0.22447322  1
  Mg  Mg3  1  0.24999287  0.40998501  0.72335760  1
  Fe  Fe4  1  0.75000630  0.35428986  0.88152585  1
  Fe  Fe5  1  0.24999543  0.64569225  0.11845507  1
  Fe  Fe6  1  0.24999966  0.85449300  0.61943828  1
  Fe  Fe7  1  0.74999487  0.14596386  0.38056938  1
  Ni  Ni8  1  0.49997243  0.99994091  0.00016741  1
  Ni  Ni9  1  0.50004694  0.49995798  0.50007295  1
  Ni  Ni10  1  -0.00005531  0.49996097  0.50007339  1
  Ni  Ni11  1  0.00010351  0.99993437  0.00017242  1
  P  P12  1  0.25000579  0.35736822  0.92925085  1
  P  P13  1  0.74999979  0.64257824  0.07084990  1
  P  P14  1  0.74999431  0.85859542  0.57022881  1
  P  P15  1  0.24998966  0.14137358  0.42943026  1
  P  P16  1  0.74998996  0.38124472  0.69563622  1
  P  P17  1  0.24998860  0.61877659  0.30421473  1
  P  P18  1  0.25000997  0.88094600  0.80503349  1
  P  P19  1  0.74999614  0.11898802  0.19526210  1
  O  O20  1  0.03903414  0.61008549  0.36105738  1
  O  O21  1  0.53901838  0.39006890  0.63879277  1
  O  O22  1  0.96146873  0.10881121  0.13891682  1
  O  O23  1  0.46151214  0.89078327  0.86141167  1
  O  O24  1  0.96096202  0.39007755  0.63879291  1
  O  O25  1  0.46094470  0.61009130  0.36105822  1
  O  O26  1  0.03852739  0.89077378  0.86142209  1
  O  O27  1  0.53853788  0.10880214  0.13890671  1
  O  O28  1  0.24999391  0.33322079  0.47752619  1
  O  O29  1  0.74998821  0.66683813  0.52207936  1
  O  O30  1  0.75003719  0.83455791  0.02245727  1
  O  O31  1  0.25002318  0.16540571  0.97763971  1
  O  O32  1  0.75004995  0.13333563  0.95024741  1
  O  O33  1  0.25004886  0.86665145  0.04983567  1
  O  O34  1  0.24999617  0.63079371  0.55251181  1
  O  O35  1  0.74998944  0.36920945  0.44749495  1
  O  O36  1  0.75000324  0.19973783  0.75670085  1
  O  O37  1  0.24998069  0.80030711  0.24314321  1
  O  O38  1  0.25000156  0.69894618  0.74477866  1
  O  O39  1  0.74997614  0.30114272  0.25541138  1
  O  O40  1  0.43738900  0.12791139  0.35894959  1
  O  O41  1  0.93735881  0.87212810  0.64073806  1
  O  O42  1  0.56242685  0.62914180  0.14079321  1
  O  O43  1  0.06237100  0.37101187  0.85933625  1
  O  O44  1  0.56263279  0.87214306  0.64073778  1
  O  O45  1  0.06258438  0.12792312  0.35894841  1
  O  O46  1  0.43763522  0.37099041  0.85933552  1
  O  O47  1  0.93756663  0.62909902  0.14079394  1
  O  O48  1  0.74999112  0.96226836  0.27192381  1
  O  O49  1  0.24999045  0.03785633  0.72848764  1
  O  O50  1  0.24999853  0.46109633  0.22846577  1
  O  O51  1  0.74998906  0.53892548  0.77139206  1
  O  O52  1  0.75000080  0.00659069  0.49565520  1
  O  O53  1  0.24998838  0.99301157  0.50386096  1
  O  O54  1  0.24999244  0.50447050  0.00449603  1
  O  O55  1  0.74996680  0.49545988  0.99558637  1
