# generated using pymatgen
data_Ca(CoO2)2
_symmetry_space_group_name_H-M   'P 1'
_cell_length_a   3.14091273
_cell_length_b   9.71539374
_cell_length_c   9.88066043
_cell_angle_alpha   90.00304549
_cell_angle_beta   90.01614134
_cell_angle_gamma   89.71752694
_symmetry_Int_Tables_number   1
_chemical_formula_structural   Ca(CoO2)2
_chemical_formula_sum   'Ca4 Co8 O16'
_cell_volume   301.50669030
_cell_formula_units_Z   4
loop_
 _symmetry_equiv_pos_site_id
 _symmetry_equiv_pos_as_xyz
  1  'x, y, z'
loop_
 _atom_site_type_symbol
 _atom_site_label
 _atom_site_symmetry_multiplicity
 _atom_site_fract_x
 _atom_site_fract_y
 _atom_site_fract_z
 _atom_site_occupancy
  Ca  Ca0  1  0.26483384  0.75105978  0.14579192  1
  Ca  Ca1  1  0.26457418  0.25103136  0.35390835  1
  Ca  Ca2  1  0.72925349  0.75064545  0.64484331  1
  Ca  Ca3  1  0.72948161  0.25084049  0.85542441  1
  Co  Co4  1  0.73565090  0.56964007  0.38782576  1
  Co  Co5  1  0.73555612  0.06967023  0.11212999  1
  Co  Co6  1  0.25605932  0.06689897  0.61354985  1
  Co  Co7  1  0.75466368  0.43369021  0.11163477  1
  Co  Co8  1  0.25149078  0.43276553  0.61306872  1
  Co  Co9  1  0.75444752  0.93365768  0.38846035  1
  Co  Co10  1  0.25061796  0.93289533  0.88671513  1
  Co  Co11  1  0.25468715  0.56662180  0.88636264  1
  O  O12  1  0.20523977  0.89439349  0.52333516  1
  O  O13  1  0.74957716  0.10634078  0.47575734  1
  O  O14  1  0.34036342  0.99749881  0.25411504  1
  O  O15  1  0.75845507  0.89270823  0.02392205  1
  O  O16  1  0.74965982  0.60615292  0.02426484  1
  O  O17  1  0.76134379  0.24932450  0.17757924  1
  O  O18  1  0.23933440  0.10764790  0.97596229  1
  O  O19  1  0.23494388  0.24901528  0.68096310  1
  O  O20  1  0.34026193  0.49739877  0.24583687  1
  O  O21  1  0.71920348  0.99839749  0.75066732  1
  O  O22  1  0.23961894  0.60765737  0.52399627  1
  O  O23  1  0.23472444  0.74899086  0.81921340  1
  O  O24  1  0.76198149  0.74940199  0.32216926  1
  O  O25  1  0.71976853  0.49849160  0.74954294  1
  O  O26  1  0.20549460  0.39441239  0.97697533  1
  O  O27  1  0.75871173  0.39275069  0.47598535  1
