# generated using pymatgen
data_Ca2W3O8
_symmetry_space_group_name_H-M   'P 1'
_cell_length_a   6.52036414
_cell_length_b   6.52036448
_cell_length_c   10.32126302
_cell_angle_alpha   90.00000000
_cell_angle_beta   90.00000000
_cell_angle_gamma   120.00000270
_symmetry_Int_Tables_number   1
_chemical_formula_structural   Ca2W3O8
_chemical_formula_sum   'Ca4 W6 O16'
_cell_volume   380.02064286
_cell_formula_units_Z   2
loop_
 _symmetry_equiv_pos_site_id
 _symmetry_equiv_pos_as_xyz
  1  'x, y, z'
loop_
 _atom_site_type_symbol
 _atom_site_label
 _atom_site_symmetry_multiplicity
 _atom_site_fract_x
 _atom_site_fract_y
 _atom_site_fract_z
 _atom_site_occupancy
  Ca  Ca0  1  0.66666700  0.33333400  0.02988687  1
  Ca  Ca1  1  0.33333300  0.66666600  0.52988787  1
  Ca  Ca2  1  0.66666700  0.33333400  0.41709901  1
  Ca  Ca3  1  0.33333300  0.66666600  0.91710001  1
  W  W4  1  0.67113177  0.83556688  0.24511718  1
  W  W5  1  0.83556788  0.16443412  0.74511718  1
  W  W6  1  0.16443412  0.32886923  0.24511718  1
  W  W7  1  0.83556588  0.67113177  0.74511718  1
  W  W8  1  0.32886923  0.16443412  0.74511718  1
  W  W9  1  0.16443412  0.83556688  0.24511718  1
  O  O10  1  0.84067736  0.15932364  0.15457685  1
  O  O11  1  0.68135372  0.84067736  0.65457585  1
  O  O12  1  0.15932364  0.31864728  0.65457585  1
  O  O13  1  0.84067636  0.68135372  0.15457685  1
  O  O14  1  0.31864628  0.15932364  0.15457685  1
  O  O15  1  0.15932364  0.84067736  0.65457585  1
  O  O16  1  0.52484855  0.47515045  0.85418769  1
  O  O17  1  0.04969911  0.52484855  0.35418669  1
  O  O18  1  0.47515145  0.95030189  0.35418669  1
  O  O19  1  0.52484855  0.04969911  0.85418769  1
  O  O20  1  -0.00000000  -0.00000000  0.34653765  1
  O  O21  1  -0.00000000  -0.00000000  0.84653765  1
  O  O22  1  0.33333300  0.66666600  0.13833131  1
  O  O23  1  0.95029989  0.47515045  0.85418769  1
  O  O24  1  0.47515045  0.52484855  0.35418669  1
  O  O25  1  0.66666700  0.33333400  0.63833131  1
