# generated using pymatgen
data_V(GeO3)2
_symmetry_space_group_name_H-M   'P 1'
_cell_length_a   5.46232224
_cell_length_b   8.95402480
_cell_length_c   10.32729829
_cell_angle_alpha   90.00000000
_cell_angle_beta   106.90085321
_cell_angle_gamma   90.00000000
_symmetry_Int_Tables_number   1
_chemical_formula_structural   V(GeO3)2
_chemical_formula_sum   'V4 Ge8 O24'
_cell_volume   483.28987755
_cell_formula_units_Z   4
loop_
 _symmetry_equiv_pos_site_id
 _symmetry_equiv_pos_as_xyz
  1  'x, y, z'
loop_
 _atom_site_type_symbol
 _atom_site_label
 _atom_site_symmetry_multiplicity
 _atom_site_fract_x
 _atom_site_fract_y
 _atom_site_fract_z
 _atom_site_occupancy
  V  V0  1  0.96062301  0.65580304  0.23753683  1
  V  V1  1  0.53937699  0.15580304  0.76246317  1
  V  V2  1  0.03937699  0.34419696  0.76246317  1
  V  V3  1  0.46062301  0.84419696  0.23753683  1
  Ge  Ge4  1  0.85286991  0.33325808  0.05131286  1
  Ge  Ge5  1  0.64713009  0.83325808  0.94868714  1
  Ge  Ge6  1  0.14713009  0.66674192  0.94868714  1
  Ge  Ge7  1  0.35286991  0.16674192  0.05131286  1
  Ge  Ge8  1  0.10663055  0.34652111  0.47988750  1
  Ge  Ge9  1  0.39336945  0.84652111  0.52011250  1
  Ge  Ge10  1  0.89336945  0.65347889  0.52011250  1
  Ge  Ge11  1  0.60663055  0.15347889  0.47988750  1
  O  O12  1  0.35090807  0.27705989  0.41140860  1
  O  O13  1  0.14909193  0.77705989  0.58859140  1
  O  O14  1  0.64909193  0.72294011  0.58859140  1
  O  O15  1  0.85090807  0.22294011  0.41140860  1
  O  O16  1  0.18212806  0.29870452  0.11587088  1
  O  O17  1  0.31787194  0.79870452  0.88412912  1
  O  O18  1  0.81787194  0.70129548  0.88413012  1
  O  O19  1  0.68212806  0.20129548  0.11586988  1
  O  O20  1  0.58168086  0.96877318  0.40387302  1
  O  O21  1  0.91831914  0.46877318  0.59612698  1
  O  O22  1  0.41831914  0.03122682  0.59612698  1
  O  O23  1  0.08168086  0.53122682  0.40387302  1
  O  O24  1  0.31384118  0.99090798  0.12124272  1
  O  O25  1  0.18615882  0.49090798  0.87875728  1
  O  O26  1  0.68615882  0.00909202  0.87875728  1
  O  O27  1  0.81384118  0.50909202  0.12124272  1
  O  O28  1  0.75839541  0.32176096  0.87152068  1
  O  O29  1  0.74160459  0.82176096  0.12847932  1
  O  O30  1  0.24160459  0.67823904  0.12847932  1
  O  O31  1  0.25839541  0.17823904  0.87152068  1
  O  O32  1  0.27598844  0.29751529  0.66260220  1
  O  O33  1  0.22401156  0.79751529  0.33739780  1
  O  O34  1  0.72401156  0.70248471  0.33739780  1
  O  O35  1  0.77598844  0.20248471  0.66260220  1
