# generated using pymatgen
data_Sr2YCu2NiO7
_symmetry_space_group_name_H-M   'P 1'
_cell_length_a   5.42577735
_cell_length_b   5.51791931
_cell_length_c   12.18443179
_cell_angle_alpha   103.10949647
_cell_angle_beta   102.89800865
_cell_angle_gamma   90.00836888
_symmetry_Int_Tables_number   1
_chemical_formula_structural   Sr2YCu2NiO7
_chemical_formula_sum   'Sr4 Y2 Cu4 Ni2 O14'
_cell_volume   345.82290509
_cell_formula_units_Z   2
loop_
 _symmetry_equiv_pos_site_id
 _symmetry_equiv_pos_as_xyz
  1  'x, y, z'
loop_
 _atom_site_type_symbol
 _atom_site_label
 _atom_site_symmetry_multiplicity
 _atom_site_fract_x
 _atom_site_fract_y
 _atom_site_fract_z
 _atom_site_occupancy
  Sr  Sr0  1  0.33540473  0.33362759  0.69416935  1
  Sr  Sr1  1  0.64148286  0.66551632  0.30492819  1
  Sr  Sr2  1  0.83574911  0.86170058  0.69424708  1
  Sr  Sr3  1  0.14205501  0.13696959  0.30489554  1
  Y  Y4  1  0.98989852  0.99706530  0.99911391  1
  Y  Y5  1  0.49014993  0.49713274  0.99923934  1
  Cu  Cu6  1  0.91588437  0.42644793  0.85445452  1
  Cu  Cu7  1  0.06129556  0.56982841  0.14494959  1
  Cu  Cu8  1  0.41516670  0.92470144  0.85307303  1
  Cu  Cu9  1  0.56036923  0.06971657  0.14348064  1
  Ni  Ni10  1  0.27789013  0.67708617  0.49963843  1
  Ni  Ni11  1  0.77701414  0.32167879  0.49985616  1
  O  O12  1  0.13024729  0.36275429  0.49924334  1
  O  O13  1  0.63134100  0.63582996  0.49962505  1
  O  O14  1  0.18148768  0.19186200  0.87609898  1
  O  O15  1  0.30419401  0.80322954  0.12158667  1
  O  O16  1  0.68236375  0.18146027  0.87614436  1
  O  O17  1  0.80484616  0.81417305  0.12278802  1
  O  O18  1  0.67048962  0.67948347  0.87115432  1
  O  O19  1  0.79874729  0.31470143  0.12782814  1
  O  O20  1  0.16983929  0.68732898  0.87010860  1
  O  O21  1  0.29925019  0.30760198  0.12785119  1
  O  O22  1  0.29100121  0.86341937  0.64825910  1
  O  O23  1  0.63867522  0.13267321  0.35241287  1
  O  O24  1  0.79055647  0.28452904  0.64846741  1
  O  O25  1  0.14170553  0.71409197  0.35067318  1
