# generated using pymatgen
data_MgV2O4
_symmetry_space_group_name_H-M   'P 1'
_cell_length_a   6.06869949
_cell_length_b   6.06869921
_cell_length_c   6.03185648
_cell_angle_alpha   60.20061929
_cell_angle_beta   60.20062274
_cell_angle_gamma   59.46652036
_symmetry_Int_Tables_number   1
_chemical_formula_structural   MgV2O4
_chemical_formula_sum   'Mg2 V4 O8'
_cell_volume   156.90815650
_cell_formula_units_Z   2
loop_
 _symmetry_equiv_pos_site_id
 _symmetry_equiv_pos_as_xyz
  1  'x, y, z'
loop_
 _atom_site_type_symbol
 _atom_site_label
 _atom_site_symmetry_multiplicity
 _atom_site_fract_x
 _atom_site_fract_y
 _atom_site_fract_z
 _atom_site_occupancy
  Mg  Mg0  1  0.12500000  0.62500000  0.62500000  1
  Mg  Mg1  1  0.62500000  0.12500000  0.62500000  1
  V  V2  1  0.99419418  0.99419418  0.00580582  1
  V  V3  1  0.25580582  0.25580582  0.24419418  1
  V  V4  1  0.62500000  0.62500000  0.12500000  1
  V  V5  1  0.62500000  0.62500000  0.62500000  1
  O  O6  1  0.38573301  0.38573301  0.37563010  1
  O  O7  1  0.38897162  0.85424345  0.37839246  1
  O  O8  1  0.38573301  0.38573301  0.85290388  1
  O  O9  1  0.85424345  0.38897162  0.37839246  1
  O  O10  1  0.39575655  0.86102838  0.87160754  1
  O  O11  1  0.86102838  0.39575655  0.87160754  1
  O  O12  1  0.86426699  0.86426699  0.39709612  1
  O  O13  1  0.86426699  0.86426699  0.87436990  1
