# generated using pymatgen
data_CaMn2O4
_symmetry_space_group_name_H-M   'P 1'
_cell_length_a   6.47932820
_cell_length_b   6.05420465
_cell_length_c   19.29937109
_cell_angle_alpha   61.73150831
_cell_angle_beta   57.36856018
_cell_angle_gamma   62.07632717
_symmetry_Int_Tables_number   1
_chemical_formula_structural   CaMn2O4
_chemical_formula_sum   'Ca6 Mn12 O24'
_cell_volume   537.89409081
_cell_formula_units_Z   6
loop_
 _symmetry_equiv_pos_site_id
 _symmetry_equiv_pos_as_xyz
  1  'x, y, z'
loop_
 _atom_site_type_symbol
 _atom_site_label
 _atom_site_symmetry_multiplicity
 _atom_site_fract_x
 _atom_site_fract_y
 _atom_site_fract_z
 _atom_site_occupancy
  Ca  Ca0  1  0.12093373  0.11850432  0.04965289  1
  Ca  Ca1  1  0.10318060  0.12882078  0.38426855  1
  Ca  Ca2  1  0.49501250  0.49944217  0.33527197  1
  Ca  Ca3  1  0.09705075  0.11788292  0.72482436  1
  Ca  Ca4  1  0.52327356  0.49833781  0.99437626  1
  Ca  Ca5  1  0.87280168  0.88013087  0.61956067  1
  Mn  Mn6  1  0.49803028  0.50226467  0.16593858  1
  Mn  Mn7  1  0.50228521  0.00047921  0.16619675  1
  Mn  Mn8  1  0.47931283  0.50817188  0.50227988  1
  Mn  Mn9  1  0.01076805  0.49007622  0.16821183  1
  Mn  Mn10  1  0.48396985  0.00035645  0.50372012  1
  Mn  Mn11  1  0.49431235  0.50380720  0.66488779  1
  Mn  Mn12  1  0.88359881  0.87942941  0.28060361  1
  Mn  Mn13  1  0.50749035  0.49917672  0.83063792  1
  Mn  Mn14  1  0.98780308  0.49066280  0.51028386  1
  Mn  Mn15  1  0.50686376  0.00186439  0.83076920  1
  Mn  Mn16  1  0.02548905  0.49785785  0.82731587  1
  Mn  Mn17  1  0.89389641  0.87684296  0.95228414  1
  O  O18  1  0.27169385  0.22266621  0.10745930  1
  O  O19  1  0.29419477  0.23870910  0.24041534  1
  O  O20  1  0.24349131  0.69701547  0.10000180  1
  O  O21  1  0.69575789  0.25772422  0.09605933  1
  O  O22  1  0.22710808  0.23726524  0.44818200  1
  O  O23  1  0.29172512  0.74190825  0.24058518  1
  O  O24  1  0.25273713  0.28623545  0.57993297  1
  O  O25  1  0.77304913  0.27951791  0.23637447  1
  O  O26  1  0.70950435  0.76446542  0.08969304  1
  O  O27  1  0.23623159  0.69663577  0.44666723  1
  O  O28  1  0.67506910  0.25661611  0.43681807  1
  O  O29  1  0.74502293  0.77210195  0.22675524  1
  O  O30  1  0.27939136  0.27736985  0.74986646  1
  O  O31  1  0.30112733  0.73957116  0.57293386  1
  O  O32  1  0.70787421  0.32095462  0.57215924  1
  O  O33  1  0.30242476  0.24656017  0.90147574  1
  O  O34  1  0.70763720  0.73475307  0.41796250  1
  O  O35  1  0.27993486  0.69859869  0.74728584  1
  O  O36  1  0.69095431  0.27813243  0.75129722  1
  O  O37  1  0.71378804  0.74758807  0.57221492  1
  O  O38  1  0.29720606  0.74168814  0.90514542  1
  O  O39  1  0.80034660  0.27239491  0.89329722  1
  O  O40  1  0.71601649  0.74940685  0.76251729  1
  O  O41  1  0.80164269  0.74800930  0.89381705  1
