# generated using pymatgen
data_ZnCu2(MoO4)2
_symmetry_space_group_name_H-M   'P 1'
_cell_length_a   6.59676805
_cell_length_b   8.71030201
_cell_length_c   12.63325440
_cell_angle_alpha   90.00000000
_cell_angle_beta   91.72736745
_cell_angle_gamma   90.00000000
_symmetry_Int_Tables_number   1
_chemical_formula_structural   ZnCu2(MoO4)2
_chemical_formula_sum   'Zn4 Cu8 Mo8 O32'
_cell_volume   725.57493257
_cell_formula_units_Z   4
loop_
 _symmetry_equiv_pos_site_id
 _symmetry_equiv_pos_as_xyz
  1  'x, y, z'
loop_
 _atom_site_type_symbol
 _atom_site_label
 _atom_site_symmetry_multiplicity
 _atom_site_fract_x
 _atom_site_fract_y
 _atom_site_fract_z
 _atom_site_occupancy
  Zn  Zn0  1  0.10822277  0.16454052  0.05260675  1
  Zn  Zn1  1  0.89177723  0.83545948  0.94739325  1
  Zn  Zn2  1  0.89177723  0.66454052  0.44739325  1
  Zn  Zn3  1  0.10822277  0.33545948  0.55260675  1
  Cu  Cu4  1  0.76894072  0.18016832  0.86724626  1
  Cu  Cu5  1  0.37765774  0.05350263  0.61949438  1
  Cu  Cu6  1  0.62234226  0.94649737  0.38050562  1
  Cu  Cu7  1  0.23105928  0.81983168  0.13275374  1
  Cu  Cu8  1  0.76894072  0.31983168  0.36724626  1
  Cu  Cu9  1  0.37765774  0.44649737  0.11949438  1
  Cu  Cu10  1  0.23105928  0.68016832  0.63275374  1
  Cu  Cu11  1  0.62234226  0.55350263  0.88050562  1
  Mo  Mo12  1  0.09945579  0.45668752  0.84551232  1
  Mo  Mo13  1  0.09945579  0.04331248  0.34551232  1
  Mo  Mo14  1  0.61125977  0.08213925  0.13121580  1
  Mo  Mo15  1  0.90054421  0.95668752  0.65448768  1
  Mo  Mo16  1  0.38874023  0.91786075  0.86878420  1
  Mo  Mo17  1  0.38874023  0.58213925  0.36878420  1
  Mo  Mo18  1  0.61125977  0.41786075  0.63121580  1
  Mo  Mo19  1  0.90054421  0.54331248  0.15448768  1
  O  O20  1  0.04046702  0.23331641  0.40069976  1
  O  O21  1  0.65914651  0.01273230  0.60026466  1
  O  O22  1  0.17870316  0.57617408  0.46484756  1
  O  O23  1  0.82129684  0.07617408  0.03515244  1
  O  O24  1  0.04046702  0.26668359  0.90069976  1
  O  O25  1  0.95953298  0.76668359  0.59930024  1
  O  O26  1  0.08367360  0.10340228  0.61344553  1
  O  O27  1  0.50467444  0.89606118  0.13603984  1
  O  O28  1  0.50467444  0.60393882  0.63603984  1
  O  O29  1  0.30636803  0.87045844  0.73479452  1
  O  O30  1  0.69363197  0.37045844  0.76520548  1
  O  O31  1  0.49532556  0.10393882  0.86396016  1
  O  O32  1  0.91632640  0.89659772  0.38655447  1
  O  O33  1  0.87920924  0.54307084  0.29696603  1
  O  O34  1  0.40630441  0.29022671  0.58571541  1
  O  O35  1  0.40630441  0.20977329  0.08571541  1
  O  O36  1  0.12079076  0.04307084  0.20303397  1
  O  O37  1  0.49532556  0.39606118  0.36396016  1
  O  O38  1  0.12079076  0.45692916  0.70303397  1
  O  O39  1  0.82129684  0.42382592  0.53515244  1
  O  O40  1  0.65914651  0.48726770  0.10026466  1
  O  O41  1  0.69363197  0.12954156  0.26520548  1
  O  O42  1  0.95953298  0.73331641  0.09930024  1
  O  O43  1  0.08367360  0.39659772  0.11344553  1
  O  O44  1  0.17870316  0.92382592  0.96484756  1
  O  O45  1  0.59369559  0.79022671  0.91428459  1
  O  O46  1  0.34085349  0.98726770  0.39973534  1
  O  O47  1  0.34085349  0.51273230  0.89973534  1
  O  O48  1  0.91632640  0.60340228  0.88655447  1
  O  O49  1  0.59369559  0.70977329  0.41428459  1
  O  O50  1  0.30636803  0.62954156  0.23479452  1
  O  O51  1  0.87920924  0.95692916  0.79696603  1
