# generated using pymatgen
data_MnZn(Si2O5)2
_symmetry_space_group_name_H-M   'P 1'
_cell_length_a   7.40022598
_cell_length_b   7.40022598
_cell_length_c   14.92547585
_cell_angle_alpha   90.00000000
_cell_angle_beta   90.00000000
_cell_angle_gamma   90.00000000
_symmetry_Int_Tables_number   1
_chemical_formula_structural   MnZn(Si2O5)2
_chemical_formula_sum   'Mn4 Zn4 Si16 O40'
_cell_volume   817.36897662
_cell_formula_units_Z   4
loop_
 _symmetry_equiv_pos_site_id
 _symmetry_equiv_pos_as_xyz
  1  'x, y, z'
loop_
 _atom_site_type_symbol
 _atom_site_label
 _atom_site_symmetry_multiplicity
 _atom_site_fract_x
 _atom_site_fract_y
 _atom_site_fract_z
 _atom_site_occupancy
  Mn  Mn0  1  0.25000000  0.25000000  0.56322176  1
  Mn  Mn1  1  0.75000000  0.75000000  0.93677824  1
  Mn  Mn2  1  0.75000000  0.75000000  0.43677824  1
  Mn  Mn3  1  0.25000000  0.25000000  0.06322176  1
  Zn  Zn4  1  0.25000000  0.75000000  0.50000000  1
  Zn  Zn5  1  0.75000000  0.25000000  0.50000000  1
  Zn  Zn6  1  0.75000000  0.25000000  -0.00000000  1
  Zn  Zn7  1  0.25000000  0.75000000  -0.00000000  1
  Si  Si8  1  0.90469963  0.48932981  0.64539867  1
  Si  Si9  1  0.59530037  0.01067019  0.64539867  1
  Si  Si10  1  0.98932981  0.40469963  0.85460133  1
  Si  Si11  1  0.48932981  0.59530037  0.64539867  1
  Si  Si12  1  0.01067019  0.90469963  0.64539867  1
  Si  Si13  1  0.09530037  0.98932981  0.85460133  1
  Si  Si14  1  0.40469963  0.51067019  0.85460133  1
  Si  Si15  1  0.51067019  0.09530037  0.85460133  1
  Si  Si16  1  0.09530037  0.51067019  0.35460133  1
  Si  Si17  1  0.40469963  0.98932981  0.35460133  1
  Si  Si18  1  0.01067019  0.59530037  0.14539867  1
  Si  Si19  1  0.51067019  0.40469963  0.35460133  1
  Si  Si20  1  0.98932981  0.09530037  0.35460133  1
  Si  Si21  1  0.90469963  0.01067019  0.14539867  1
  Si  Si22  1  0.59530037  0.48932981  0.14539867  1
  Si  Si23  1  0.48932981  0.90469963  0.14539867  1
  O  O24  1  0.97412667  0.33710275  0.57559979  1
  O  O25  1  0.52587333  0.16289725  0.57559979  1
  O  O26  1  0.83710275  0.47412667  0.92440021  1
  O  O27  1  0.33710275  0.52587333  0.57559979  1
  O  O28  1  0.16289725  0.97412667  0.57559979  1
  O  O29  1  0.02587333  0.83710275  0.92440021  1
  O  O30  1  0.47412667  0.66289725  0.92440021  1
  O  O31  1  0.66289725  0.02587333  0.92440021  1
  O  O32  1  0.02587333  0.66289725  0.42440021  1
  O  O33  1  0.47412667  0.83710275  0.42440021  1
  O  O34  1  0.16289725  0.52587333  0.07559979  1
  O  O35  1  0.66289725  0.47412667  0.42440021  1
  O  O36  1  0.83710275  0.02587333  0.42440021  1
  O  O37  1  0.97412667  0.16289725  0.07559979  1
  O  O38  1  0.52587333  0.33710275  0.07559979  1
  O  O39  1  0.00723324  0.31201836  0.37278188  1
  O  O40  1  0.33710275  0.97412667  0.07559979  1
  O  O41  1  0.50723324  0.81201836  0.62721812  1
  O  O42  1  0.18798164  0.49276676  0.87278188  1
  O  O43  1  0.68798164  0.50723324  0.62721812  1
  O  O44  1  0.81201836  0.99276676  0.62721812  1
  O  O45  1  0.00723324  0.18798164  0.87278188  1
  O  O46  1  0.49276676  0.31201836  0.87278188  1
  O  O47  1  0.31201836  0.00723324  0.87278188  1
  O  O48  1  0.44042970  0.94042970  0.25000000  1
  O  O49  1  0.55957030  0.44042970  0.25000000  1
  O  O50  1  0.94042970  0.05957130  0.25000000  1
  O  O51  1  0.05957130  0.55957030  0.25000000  1
  O  O52  1  0.55957030  0.05957130  0.75000000  1
  O  O53  1  0.44042970  0.55957030  0.75000000  1
  O  O54  1  0.05957130  0.94042970  0.75000000  1
  O  O55  1  0.94042970  0.44042970  0.75000000  1
  O  O56  1  0.68798164  0.99276676  0.12721812  1
  O  O57  1  0.50723324  0.68798164  0.12721812  1
  O  O58  1  0.99276676  0.81201836  0.12721812  1
  O  O59  1  0.18798164  0.00723324  0.37278188  1
  O  O60  1  0.31201836  0.49276676  0.37278188  1
  O  O61  1  0.81201836  0.50723324  0.12721812  1
  O  O62  1  0.49276676  0.18798164  0.37278188  1
  O  O63  1  0.99276676  0.68798164  0.62721812  1
