# generated using pymatgen
data_CaV(SiO3)2
_symmetry_space_group_name_H-M   'P 1'
_cell_length_a   5.41491533
_cell_length_b   9.60480965
_cell_length_c   19.39268727
_cell_angle_alpha   90.00000000
_cell_angle_beta   90.00000000
_cell_angle_gamma   90.00000000
_symmetry_Int_Tables_number   1
_chemical_formula_structural   CaV(SiO3)2
_chemical_formula_sum   'Ca8 V8 Si16 O48'
_cell_volume   1008.59875224
_cell_formula_units_Z   8
loop_
 _symmetry_equiv_pos_site_id
 _symmetry_equiv_pos_as_xyz
  1  'x, y, z'
loop_
 _atom_site_type_symbol
 _atom_site_label
 _atom_site_symmetry_multiplicity
 _atom_site_fract_x
 _atom_site_fract_y
 _atom_site_fract_z
 _atom_site_occupancy
  Ca  Ca0  1  0.62440307  0.14624681  0.62228744  1
  Ca  Ca1  1  0.37559693  0.85375319  0.37771256  1
  Ca  Ca2  1  0.62440307  0.64624681  0.87771256  1
  Ca  Ca3  1  0.12440307  0.85375319  0.87771256  1
  Ca  Ca4  1  0.87559693  0.14624681  0.12228744  1
  Ca  Ca5  1  0.37559693  0.35375319  0.12228744  1
  Ca  Ca6  1  0.12440307  0.35375319  0.62228744  1
  Ca  Ca7  1  0.87559693  0.64624681  0.37771256  1
  V  V8  1  0.36495258  0.98060207  0.12615728  1
  V  V9  1  0.63504742  0.01939793  0.87384272  1
  V  V10  1  0.86495258  0.01939793  0.37384272  1
  V  V11  1  0.13504742  0.98060207  0.62615728  1
  V  V12  1  0.36495258  0.48060207  0.37384272  1
  V  V13  1  0.63504742  0.51939793  0.62615728  1
  V  V14  1  0.86495258  0.51939793  0.12615728  1
  V  V15  1  0.13504742  0.48060207  0.87384272  1
  Si  Si16  1  0.55140525  0.66338730  0.22908336  1
  Si  Si17  1  0.72904061  0.83406838  0.52402153  1
  Si  Si18  1  0.77095939  0.83406838  0.02402153  1
  Si  Si19  1  0.94859475  0.16338730  0.77091664  1
  Si  Si20  1  0.05140525  0.33661270  0.27091664  1
  Si  Si21  1  0.44859475  0.83661270  0.72908336  1
  Si  Si22  1  0.22904161  0.66593162  0.52402153  1
  Si  Si23  1  0.72904061  0.33406838  0.97597847  1
  Si  Si24  1  0.77095939  0.33406838  0.47597847  1
  Si  Si25  1  0.94859475  0.66338730  0.72908336  1
  Si  Si26  1  0.44859475  0.33661270  0.77091664  1
  Si  Si27  1  0.55140525  0.16338730  0.27091664  1
  Si  Si28  1  0.27095839  0.16593162  0.47597847  1
  Si  Si29  1  0.05140525  0.83661270  0.22908336  1
  Si  Si30  1  0.27095839  0.66593162  0.02402153  1
  Si  Si31  1  0.22904161  0.16593162  0.97597847  1
  O  O32  1  0.95160206  0.51747076  0.68881962  1
  O  O33  1  0.30903392  0.03099770  0.93319613  1
  O  O34  1  0.04839794  0.48252924  0.31118038  1
  O  O35  1  0.73734222  0.34964519  0.05993052  1
  O  O36  1  0.23734222  0.15035481  0.05993052  1
  O  O37  1  0.93383715  0.20783169  0.95431739  1
  O  O38  1  0.97429434  0.65217116  0.81244093  1
  O  O39  1  0.02570566  0.84782884  0.31244093  1
  O  O40  1  0.73734222  0.84964519  0.44006948  1
  O  O41  1  0.97429434  0.15217116  0.68755907  1
  O  O42  1  0.45160206  0.48252924  0.81118038  1
  O  O43  1  0.76265778  0.34964519  0.55993052  1
  O  O44  1  0.69096608  0.96900230  0.06680387  1
  O  O45  1  0.47429434  0.84782884  0.81244093  1
  O  O46  1  0.54839794  0.01747076  0.31118038  1
  O  O47  1  0.30903392  0.53099770  0.56680387  1
  O  O48  1  0.45160206  0.98252924  0.68881962  1
  O  O49  1  0.16979741  0.77415286  0.70278217  1
  O  O50  1  0.33020259  0.77415286  0.20278217  1
  O  O51  1  0.56616285  0.70783169  0.04568261  1
  O  O52  1  0.76265778  0.84964519  0.94006948  1
  O  O53  1  0.52570566  0.65217116  0.31244093  1
  O  O54  1  0.80903392  0.46900230  0.93319613  1
  O  O55  1  0.16979741  0.27415286  0.79721783  1
  O  O56  1  0.26265778  0.15035481  0.55993052  1
  O  O57  1  0.52570566  0.15217116  0.18755907  1
  O  O58  1  0.69096608  0.46900230  0.43319613  1
  O  O59  1  0.23734222  0.65035481  0.44006948  1
  O  O60  1  0.19096608  0.53099770  0.06680387  1
  O  O61  1  0.66979741  0.72584714  0.70278217  1
  O  O62  1  0.04839794  0.98252924  0.18881962  1
  O  O63  1  0.83020259  0.72584714  0.20278217  1
  O  O64  1  0.83020259  0.22584714  0.29721783  1
  O  O65  1  0.80903392  0.96900230  0.56680387  1
  O  O66  1  0.26265778  0.65035481  0.94006948  1
  O  O67  1  0.19096608  0.03099770  0.43319613  1
  O  O68  1  0.33020259  0.27415286  0.29721783  1
  O  O69  1  0.06616285  0.79216831  0.04568261  1
  O  O70  1  0.43383715  0.79216831  0.54568261  1
  O  O71  1  0.66979741  0.22584714  0.79721783  1
  O  O72  1  0.43383715  0.29216831  0.95431739  1
  O  O73  1  0.56616285  0.20783169  0.45431739  1
  O  O74  1  0.06616285  0.29216831  0.45431739  1
  O  O75  1  0.47429434  0.34782884  0.68755907  1
  O  O76  1  0.54839794  0.51747076  0.18881962  1
  O  O77  1  0.93383715  0.70783169  0.54568261  1
  O  O78  1  0.02570566  0.34782884  0.18755907  1
  O  O79  1  0.95160206  0.01747076  0.81118038  1
