# generated using pymatgen
data_LaMgFeCoO6
_symmetry_space_group_name_H-M   'P 1'
_cell_length_a   5.43666157
_cell_length_b   5.29529489
_cell_length_c   7.58916744
_cell_angle_alpha   90.40081636
_cell_angle_beta   90.01473260
_cell_angle_gamma   89.99746942
_symmetry_Int_Tables_number   1
_chemical_formula_structural   LaMgFeCoO6
_chemical_formula_sum   'La2 Mg2 Fe2 Co2 O12'
_cell_volume   218.47711015
_cell_formula_units_Z   2
loop_
 _symmetry_equiv_pos_site_id
 _symmetry_equiv_pos_as_xyz
  1  'x, y, z'
loop_
 _atom_site_type_symbol
 _atom_site_label
 _atom_site_symmetry_multiplicity
 _atom_site_fract_x
 _atom_site_fract_y
 _atom_site_fract_z
 _atom_site_occupancy
  La  La0  1  0.03396651  0.99327809  0.25080413  1
  La  La1  1  0.46578350  0.49144965  0.75159024  1
  Mg  Mg2  1  0.55889347  0.52814143  0.25176002  1
  Mg  Mg3  1  0.94194392  0.02874234  0.75093935  1
  Fe  Fe4  1  0.49926358  0.00140103  0.00303181  1
  Fe  Fe5  1  0.00082085  0.50374169  0.50318244  1
  Co  Co6  1  0.50158234  0.00087101  0.49945767  1
  Co  Co7  1  0.99846681  0.50096590  -0.00014729  1
  O  O8  1  0.01744668  0.62794526  0.75488908  1
  O  O9  1  0.19847807  0.20086464  0.94148698  1
  O  O10  1  0.20679689  0.18790922  0.55646960  1
  O  O11  1  0.29250259  0.68778459  0.05732606  1
  O  O12  1  0.30200322  0.70112282  0.44164012  1
  O  O13  1  0.48282448  0.12721032  0.25450249  1
  O  O14  1  0.54539378  0.92596497  0.74483181  1
  O  O15  1  0.73018574  0.26019237  0.55092391  1
  O  O16  1  0.74325323  0.27241263  0.94545673  1
  O  O17  1  0.75761055  0.77439625  0.44565200  1
  O  O18  1  0.76893744  0.75854301  0.05096598  1
  O  O19  1  0.95384636  0.42706077  0.24523584  1
