# generated using pymatgen
data_ZnCr(Si2O5)2
_symmetry_space_group_name_H-M   'P 1'
_cell_length_a   7.34538890
_cell_length_b   7.34538890
_cell_length_c   14.94235551
_cell_angle_alpha   90.00000000
_cell_angle_beta   90.00000000
_cell_angle_gamma   90.00000000
_symmetry_Int_Tables_number   1
_chemical_formula_structural   ZnCr(Si2O5)2
_chemical_formula_sum   'Zn4 Cr4 Si16 O40'
_cell_volume   806.21087802
_cell_formula_units_Z   4
loop_
 _symmetry_equiv_pos_site_id
 _symmetry_equiv_pos_as_xyz
  1  'x, y, z'
loop_
 _atom_site_type_symbol
 _atom_site_label
 _atom_site_symmetry_multiplicity
 _atom_site_fract_x
 _atom_site_fract_y
 _atom_site_fract_z
 _atom_site_occupancy
  Zn  Zn0  1  0.25000000  0.75000000  0.50000000  1
  Zn  Zn1  1  0.75000000  0.25000000  0.50000000  1
  Zn  Zn2  1  0.75000000  0.25000000  0.00000000  1
  Zn  Zn3  1  0.25000000  0.75000000  0.00000000  1
  Cr  Cr4  1  0.25000000  0.25000000  0.56886556  1
  Cr  Cr5  1  0.75000000  0.75000000  0.93113444  1
  Cr  Cr6  1  0.75000000  0.75000000  0.43113444  1
  Cr  Cr7  1  0.25000000  0.25000000  0.06886556  1
  Si  Si8  1  0.90820649  0.49036070  0.64528095  1
  Si  Si9  1  0.59179351  0.00963930  0.64528095  1
  Si  Si10  1  0.99036070  0.40820649  0.85471905  1
  Si  Si11  1  0.49036070  0.59179351  0.64528095  1
  Si  Si12  1  0.00963930  0.90820649  0.64528095  1
  Si  Si13  1  0.09179351  0.99036070  0.85471905  1
  Si  Si14  1  0.40820649  0.50963930  0.85471905  1
  Si  Si15  1  0.50963930  0.09179351  0.85471905  1
  Si  Si16  1  0.09179351  0.50963930  0.35471905  1
  Si  Si17  1  0.40820649  0.99036070  0.35471905  1
  Si  Si18  1  0.00963930  0.59179351  0.14528095  1
  Si  Si19  1  0.50963930  0.40820649  0.35471905  1
  Si  Si20  1  0.99036070  0.09179351  0.35471905  1
  Si  Si21  1  0.90820649  0.00963930  0.14528095  1
  Si  Si22  1  0.59179351  0.49036070  0.14528095  1
  Si  Si23  1  0.49036070  0.90820649  0.14528095  1
  O  O24  1  0.97929296  0.33611471  0.57555990  1
  O  O25  1  0.52070704  0.16388529  0.57555990  1
  O  O26  1  0.83611471  0.47929296  0.92444010  1
  O  O27  1  0.33611471  0.52070704  0.57555990  1
  O  O28  1  0.16388529  0.97929296  0.57555990  1
  O  O29  1  0.02070704  0.83611471  0.92444010  1
  O  O30  1  0.47929296  0.66388529  0.92444010  1
  O  O31  1  0.66388529  0.02070704  0.92444010  1
  O  O32  1  0.02070704  0.66388529  0.42444010  1
  O  O33  1  0.47929296  0.83611471  0.42444010  1
  O  O34  1  0.16388529  0.52070704  0.07555990  1
  O  O35  1  0.66388529  0.47929296  0.42444010  1
  O  O36  1  0.83611471  0.02070704  0.42444010  1
  O  O37  1  0.97929296  0.16388529  0.07555990  1
  O  O38  1  0.52070704  0.33611471  0.07555990  1
  O  O39  1  0.00318289  0.31025687  0.37365331  1
  O  O40  1  0.33611471  0.97929296  0.07555990  1
  O  O41  1  0.50318289  0.81025687  0.62634669  1
  O  O42  1  0.18974313  0.49681711  0.87365331  1
  O  O43  1  0.68974313  0.50318289  0.62634669  1
  O  O44  1  0.81025687  0.99681711  0.62634669  1
  O  O45  1  0.00318289  0.18974313  0.87365331  1
  O  O46  1  0.49681711  0.31025687  0.87365331  1
  O  O47  1  0.31025687  0.00318289  0.87365331  1
  O  O48  1  0.44248619  0.94248619  0.25000000  1
  O  O49  1  0.55751381  0.44248619  0.25000000  1
  O  O50  1  0.94248619  0.05751481  0.25000000  1
  O  O51  1  0.05751481  0.55751381  0.25000000  1
  O  O52  1  0.55751381  0.05751481  0.75000000  1
  O  O53  1  0.44248619  0.55751381  0.75000000  1
  O  O54  1  0.05751481  0.94248619  0.75000000  1
  O  O55  1  0.94248619  0.44248619  0.75000000  1
  O  O56  1  0.68974313  0.99681711  0.12634669  1
  O  O57  1  0.50318289  0.68974313  0.12634669  1
  O  O58  1  0.99681711  0.81025687  0.12634669  1
  O  O59  1  0.18974313  0.00318289  0.37365331  1
  O  O60  1  0.31025687  0.49681711  0.37365331  1
  O  O61  1  0.81025687  0.50318289  0.12634669  1
  O  O62  1  0.49681711  0.18974313  0.37365331  1
  O  O63  1  0.99681711  0.68974313  0.62634669  1
