# generated using pymatgen
data_CaP2(WO5)2
_symmetry_space_group_name_H-M   'P 1'
_cell_length_a   7.26197316
_cell_length_b   7.26197217
_cell_length_c   8.93182714
_cell_angle_alpha   102.88740080
_cell_angle_beta   102.88740219
_cell_angle_gamma   116.83075526
_symmetry_Int_Tables_number   1
_chemical_formula_structural   CaP2(WO5)2
_chemical_formula_sum   'Ca2 P4 W4 O20'
_cell_volume   380.30670608
_cell_formula_units_Z   2
loop_
 _symmetry_equiv_pos_site_id
 _symmetry_equiv_pos_as_xyz
  1  'x, y, z'
loop_
 _atom_site_type_symbol
 _atom_site_label
 _atom_site_symmetry_multiplicity
 _atom_site_fract_x
 _atom_site_fract_y
 _atom_site_fract_z
 _atom_site_occupancy
  Ca  Ca0  1  0.49676714  0.99676714  0.50000000  1
  Ca  Ca1  1  0.24676714  0.24676714  1.00000000  1
  P  P2  1  0.04041007  0.04040007  0.59075700  1
  P  P3  1  0.69965307  0.19964307  0.90924300  1
  P  P4  1  0.44964307  0.44965307  0.40924300  1
  P  P5  1  0.29040007  0.79041007  0.09075700  1
  W  W6  1  0.87223741  0.61867268  0.25175568  1
  W  W7  1  0.36691700  0.62048073  0.74824432  1
  W  W8  1  0.87048073  0.11691700  0.24824432  1
  W  W9  1  0.86867268  0.62223741  0.75175568  1
  O  O10  1  0.56778607  0.53477117  0.29335554  1
  O  O11  1  0.65688743  0.66155191  0.82921902  1
  O  O12  1  0.30842909  0.60649548  0.97708322  1
  O  O13  1  0.78477117  0.31778607  0.79335554  1
  O  O14  1  0.21785957  0.24701733  0.29020599  1
  O  O15  1  0.42675947  0.63201826  0.51988769  1
  O  O16  1  0.07766741  0.58233288  0.67078098  1
  O  O17  1  0.83233288  0.82766741  0.17078098  1
  O  O18  1  0.91155191  0.40688743  0.32921902  1
  O  O19  1  0.17765358  0.70681134  0.20979401  1
  O  O20  1  0.24141563  0.27443253  0.70664446  1
  O  O21  1  0.49701733  0.96785957  0.79020599  1
  O  O22  1  0.95681134  0.92765358  0.70979401  1
  O  O23  1  0.15687278  0.86213156  0.98011231  1
  O  O24  1  0.11213156  0.90687278  0.48011231  1
  O  O25  1  0.88201826  0.17675947  0.01988769  1
  O  O26  1  0.85649548  0.05842909  0.47708322  1
  O  O27  1  0.62941226  0.33134587  0.02291678  1
  O  O28  1  0.52443253  0.99141562  0.20664446  1
  O  O29  1  0.58134587  0.37941226  0.52291678  1
