# generated using pymatgen
data_LaFeWO6
_symmetry_space_group_name_H-M   'P 1'
_cell_length_a   5.56890658
_cell_length_b   5.53364828
_cell_length_c   7.84393542
_cell_angle_alpha   90.01562639
_cell_angle_beta   90.00000000
_cell_angle_gamma   90.00000000
_symmetry_Int_Tables_number   1
_chemical_formula_structural   LaFeWO6
_chemical_formula_sum   'La2 Fe2 W2 O12'
_cell_volume   241.72160976
_cell_formula_units_Z   2
loop_
 _symmetry_equiv_pos_site_id
 _symmetry_equiv_pos_as_xyz
  1  'x, y, z'
loop_
 _atom_site_type_symbol
 _atom_site_label
 _atom_site_symmetry_multiplicity
 _atom_site_fract_x
 _atom_site_fract_y
 _atom_site_fract_z
 _atom_site_occupancy
  La  La0  1  0.02797527  0.99332879  0.24832460  1
  La  La1  1  0.47202473  0.49332879  0.74832460  1
  Fe  Fe2  1  0.50344115  0.99772680  0.99957435  1
  Fe  Fe3  1  0.99655885  0.49772680  0.49957435  1
  W  W4  1  0.50638788  0.99825687  0.49864124  1
  W  W5  1  0.99361212  0.49825687  0.99864124  1
  O  O6  1  0.00972760  0.54574859  0.75478177  1
  O  O7  1  0.22460330  0.23498679  0.97519902  1
  O  O8  1  0.23829723  0.22655097  0.52732453  1
  O  O9  1  0.26170277  0.72655097  0.02732453  1
  O  O10  1  0.27539670  0.73498679  0.47519902  1
  O  O11  1  0.49027240  0.04574859  0.25478177  1
  O  O12  1  0.50723046  0.93034612  0.74525996  1
  O  O13  1  0.71556371  0.27568794  0.53404342  1
  O  O14  1  0.71945924  0.28697012  0.96704011  1
  O  O15  1  0.78054076  0.78697012  0.46704011  1
  O  O16  1  0.78443629  0.77568794  0.03404342  1
  O  O17  1  0.99276954  0.43034612  0.24525996  1
