# generated using pymatgen
data_LaTaZnFeO6
_symmetry_space_group_name_H-M   'P 1'
_cell_length_a   5.96564896
_cell_length_b   5.49540797
_cell_length_c   7.85701656
_cell_angle_alpha   89.02804869
_cell_angle_beta   90.00000000
_cell_angle_gamma   90.00000000
_symmetry_Int_Tables_number   1
_chemical_formula_structural   LaTaZnFeO6
_chemical_formula_sum   'La2 Ta2 Zn2 Fe2 O12'
_cell_volume   257.54481487
_cell_formula_units_Z   2
loop_
 _symmetry_equiv_pos_site_id
 _symmetry_equiv_pos_as_xyz
  1  'x, y, z'
loop_
 _atom_site_type_symbol
 _atom_site_label
 _atom_site_symmetry_multiplicity
 _atom_site_fract_x
 _atom_site_fract_y
 _atom_site_fract_z
 _atom_site_occupancy
  La  La0  1  0.06912854  0.97572614  0.25119801  1
  La  La1  1  0.43087146  0.47572614  0.75119801  1
  Ta  Ta2  1  0.53715447  0.00004011  0.49782872  1
  Ta  Ta3  1  0.96284553  0.50004011  0.99782872  1
  Zn  Zn4  1  0.38907481  0.48077424  0.24909160  1
  Zn  Zn5  1  0.11092519  0.98077424  0.74909160  1
  Fe  Fe6  1  0.51633981  0.99427586  0.00573656  1
  Fe  Fe7  1  0.98366019  0.49427586  0.50573656  1
  O  O8  1  0.03322528  0.63295633  0.75864779  1
  O  O9  1  0.17341788  0.20711727  0.93980508  1
  O  O10  1  0.20800014  0.18570397  0.55144268  1
  O  O11  1  0.29199986  0.68570397  0.05144268  1
  O  O12  1  0.32658212  0.70711727  0.43980508  1
  O  O13  1  0.46677472  0.13295633  0.25864579  1
  O  O14  1  0.49148094  0.90735536  0.74056405  1
  O  O15  1  0.68466879  0.29762005  0.55238924  1
  O  O16  1  0.70151578  0.31843068  0.95329726  1
  O  O17  1  0.79848422  0.81843068  0.45329726  1
  O  O18  1  0.81533121  0.79762005  0.05238924  1
  O  O19  1  0.00851906  0.40735536  0.24056405  1
