# generated using pymatgen
data_LaMgFeSbO6
_symmetry_space_group_name_H-M   'P 1'
_cell_length_a   5.64940328
_cell_length_b   5.42761860
_cell_length_c   8.09941898
_cell_angle_alpha   89.97550543
_cell_angle_beta   90.00000000
_cell_angle_gamma   90.00000000
_symmetry_Int_Tables_number   1
_chemical_formula_structural   LaMgFeSbO6
_chemical_formula_sum   'La2 Mg2 Fe2 Sb2 O12'
_cell_volume   248.35089282
_cell_formula_units_Z   2
loop_
 _symmetry_equiv_pos_site_id
 _symmetry_equiv_pos_as_xyz
  1  'x, y, z'
loop_
 _atom_site_type_symbol
 _atom_site_label
 _atom_site_symmetry_multiplicity
 _atom_site_fract_x
 _atom_site_fract_y
 _atom_site_fract_z
 _atom_site_occupancy
  La  La0  1  0.04475263  0.98502454  0.25085166  1
  La  La1  1  0.45524737  0.48502454  0.75085166  1
  Mg  Mg2  1  0.55736560  0.53008190  0.25598120  1
  Mg  Mg3  1  0.94263440  0.03008190  0.75598120  1
  Fe  Fe4  1  0.49883837  0.00037739  0.99836152  1
  Fe  Fe5  1  0.00116163  0.50037739  0.49836152  1
  Sb  Sb6  1  0.50394289  0.00170709  0.49827720  1
  Sb  Sb7  1  0.99605711  0.50170709  0.99827720  1
  O  O8  1  0.04049907  0.64907409  0.76924459  1
  O  O9  1  0.18829520  0.19479035  0.93850242  1
  O  O10  1  0.20422907  0.17440372  0.57315195  1
  O  O11  1  0.29577093  0.67440372  0.07315195  1
  O  O12  1  0.31170480  0.69479035  0.43850242  1
  O  O13  1  0.45950093  0.14907409  0.26924359  1
  O  O14  1  0.56985665  0.89836936  0.73329907  1
  O  O15  1  0.71884476  0.28023547  0.55948611  1
  O  O16  1  0.73250752  0.28593509  0.92284429  1
  O  O17  1  0.76749248  0.78593509  0.42284429  1
  O  O18  1  0.78115524  0.78023547  0.05948611  1
  O  O19  1  0.93014335  0.39836936  0.23329907  1
