# generated using pymatgen
data_ZnCrBiO5
_symmetry_space_group_name_H-M   'P 1'
_cell_length_a   5.38683089
_cell_length_b   7.75301021
_cell_length_c   11.70392051
_cell_angle_alpha   90.00000000
_cell_angle_beta   90.00000000
_cell_angle_gamma   106.35103141
_symmetry_Int_Tables_number   1
_chemical_formula_structural   ZnCrBiO5
_chemical_formula_sum   'Zn4 Cr4 Bi4 O20'
_cell_volume   469.03462406
_cell_formula_units_Z   4
loop_
 _symmetry_equiv_pos_site_id
 _symmetry_equiv_pos_as_xyz
  1  'x, y, z'
loop_
 _atom_site_type_symbol
 _atom_site_label
 _atom_site_symmetry_multiplicity
 _atom_site_fract_x
 _atom_site_fract_y
 _atom_site_fract_z
 _atom_site_occupancy
  Zn  Zn0  1  0.61700542  0.17135209  0.91819922  1
  Zn  Zn1  1  0.38299458  0.82864791  0.08180078  1
  Zn  Zn2  1  0.88299458  0.32864791  0.41819922  1
  Zn  Zn3  1  0.11700542  0.67135209  0.58180078  1
  Cr  Cr4  1  0.78354210  0.96866324  0.64403777  1
  Cr  Cr5  1  0.21645790  0.03133676  0.35596223  1
  Cr  Cr6  1  0.71645790  0.53133676  0.14403777  1
  Cr  Cr7  1  0.28354210  0.46866324  0.85596223  1
  Bi  Bi8  1  0.11129616  0.16979003  0.10368639  1
  Bi  Bi9  1  0.88870384  0.83020997  0.89631361  1
  Bi  Bi10  1  0.61129616  0.66979003  0.39631361  1
  Bi  Bi11  1  0.38870384  0.33020997  0.60368639  1
  O  O12  1  0.56392687  0.33317054  0.07745678  1
  O  O13  1  0.02887132  0.33031870  0.92681164  1
  O  O14  1  0.49593183  0.65055543  0.17898331  1
  O  O15  1  0.75495887  0.51114273  0.52407870  1
  O  O16  1  0.79222293  0.49025822  0.28679481  1
  O  O17  1  0.29222293  0.99025822  0.21320519  1
  O  O18  1  0.52887132  0.83031870  0.57318836  1
  O  O19  1  0.47112868  0.16968130  0.42681164  1
  O  O20  1  0.24504113  0.48885727  0.47592130  1
  O  O21  1  0.93607313  0.16682946  0.57745678  1
  O  O22  1  0.20777707  0.50974178  0.71320519  1
  O  O23  1  0.43607313  0.66682946  0.92254322  1
  O  O24  1  0.06392687  0.83317054  0.42254322  1
  O  O25  1  0.70777707  0.00974178  0.78679481  1
  O  O26  1  0.74504113  0.98885727  0.02407870  1
  O  O27  1  0.25495887  0.01114273  0.97592130  1
  O  O28  1  0.50406817  0.34944457  0.82101669  1
  O  O29  1  0.97112868  0.66968130  0.07318836  1
  O  O30  1  0.00406817  0.84944457  0.67898331  1
  O  O31  1  0.99593183  0.15055543  0.32101669  1
