# generated using pymatgen
data_MgTiSn(PO4)3
_symmetry_space_group_name_H-M   'P 1'
_cell_length_a   8.65502192
_cell_length_b   8.65502143
_cell_length_c   8.65502190
_cell_angle_alpha   60.75553626
_cell_angle_beta   60.75553861
_cell_angle_gamma   60.75554206
_symmetry_Int_Tables_number   1
_chemical_formula_structural   MgTiSn(PO4)3
_chemical_formula_sum   'Mg2 Ti2 Sn2 P6 O24'
_cell_volume   466.26223690
_cell_formula_units_Z   2
loop_
 _symmetry_equiv_pos_site_id
 _symmetry_equiv_pos_as_xyz
  1  'x, y, z'
loop_
 _atom_site_type_symbol
 _atom_site_label
 _atom_site_symmetry_multiplicity
 _atom_site_fract_x
 _atom_site_fract_y
 _atom_site_fract_z
 _atom_site_occupancy
  Mg  Mg0  1  0.00459635  0.00459635  0.00459635  1
  Mg  Mg1  1  0.50459635  0.50459635  0.50459635  1
  Ti  Ti2  1  0.14407871  0.14407871  0.14407871  1
  Ti  Ti3  1  0.64407871  0.64407871  0.64407871  1
  Sn  Sn4  1  0.35460365  0.35460365  0.35460365  1
  Sn  Sn5  1  0.85460365  0.85460365  0.85460365  1
  P  P6  1  0.04664565  0.44992056  0.74944583  1
  P  P7  1  0.44992056  0.74944583  0.04664565  1
  P  P8  1  0.74944583  0.04664565  0.44992056  1
  P  P9  1  0.24944583  0.94992056  0.54664565  1
  P  P10  1  0.54664565  0.24944583  0.94992056  1
  P  P11  1  0.94992056  0.54664565  0.24944583  1
  O  O12  1  0.10576624  0.51684590  0.31023657  1
  O  O13  1  0.31023657  0.10576624  0.51684590  1
  O  O14  1  0.05947283  0.25825571  0.90918226  1
  O  O15  1  0.51684590  0.31023657  0.10576624  1
  O  O16  1  0.01684590  0.60576624  0.81023657  1
  O  O17  1  0.24413254  0.43689241  0.59056391  1
  O  O18  1  0.25825571  0.90918226  0.05947283  1
  O  O19  1  0.43689241  0.59056391  0.24413254  1
  O  O20  1  0.18329850  0.99526296  0.39079742  1
  O  O21  1  0.59056391  0.24413254  0.43689241  1
  O  O22  1  0.09056391  0.93689241  0.74413254  1
  O  O23  1  0.39079742  0.18329850  0.99526296  1
  O  O24  1  0.60576624  0.81023657  0.01684590  1
  O  O25  1  0.90918226  0.05947283  0.25825571  1
  O  O26  1  0.40918226  0.75825571  0.55947283  1
  O  O27  1  0.81023657  0.01684590  0.60576624  1
  O  O28  1  0.55947283  0.40918226  0.75825571  1
  O  O29  1  0.74413254  0.09056391  0.93689241  1
  O  O30  1  0.75825571  0.55947283  0.40918226  1
  O  O31  1  0.99526296  0.39079742  0.18329850  1
  O  O32  1  0.49526296  0.68329850  0.89079742  1
  O  O33  1  0.93689241  0.74413254  0.09056391  1
  O  O34  1  0.68329850  0.89079742  0.49526296  1
  O  O35  1  0.89079742  0.49526296  0.68329850  1
