# generated using pymatgen
data_Ba2YNi2F11
_symmetry_space_group_name_H-M   'P 1'
_cell_length_a   7.86001283
_cell_length_b   7.86001199
_cell_length_c   13.50238930
_cell_angle_alpha   90.00000000
_cell_angle_beta   90.00000000
_cell_angle_gamma   120.00000472
_symmetry_Int_Tables_number   1
_chemical_formula_structural   Ba2YNi2F11
_chemical_formula_sum   'Ba6 Y3 Ni6 F33'
_cell_volume   722.41657146
_cell_formula_units_Z   3
loop_
 _symmetry_equiv_pos_site_id
 _symmetry_equiv_pos_as_xyz
  1  'x, y, z'
loop_
 _atom_site_type_symbol
 _atom_site_label
 _atom_site_symmetry_multiplicity
 _atom_site_fract_x
 _atom_site_fract_y
 _atom_site_fract_z
 _atom_site_occupancy
  Ba  Ba0  1  0.55291749  0.18758095  0.66429599  1
  Ba  Ba1  1  0.18629090  0.52911708  0.81723624  1
  Ba  Ba2  1  0.63466346  0.44708251  0.99762899  1
  Ba  Ba3  1  0.47088292  0.65717282  0.48390224  1
  Ba  Ba4  1  0.34282718  0.81370910  0.15056924  1
  Ba  Ba5  1  0.81241905  0.36533654  0.33096199  1
  Y  Y6  1  0.12654783  0.00182071  0.89481144  1
  Y  Y7  1  0.87527488  0.87345217  0.22814444  1
  Y  Y8  1  0.99817929  0.12472512  0.56147744  1
  Ni  Ni9  1  0.63356744  0.99685935  0.88260269  1
  Ni  Ni10  1  0.78500593  0.73670989  0.71857755  1
  Ni  Ni11  1  0.26329011  0.04829604  0.38524355  1
  Ni  Ni12  1  0.36329191  0.36643256  0.21593569  1
  Ni  Ni13  1  0.95170396  0.21499407  0.05191055  1
  Ni  Ni14  1  0.00314065  0.63670809  0.54926869  1
  F  F15  1  0.66517594  0.09285782  0.02374537  1
  F  F16  1  0.51354980  0.72244533  0.93163284  1
  F  F17  1  0.42768188  0.33482406  0.35707837  1
  F  F18  1  0.08356908  0.42297898  0.49723577  1
  F  F19  1  0.56549817  0.29859948  0.17680085  1
  F  F20  1  0.95680907  0.65513192  0.19305618  1
  F  F21  1  0.57702102  0.66059010  0.16390277  1
  F  F22  1  0.34486808  0.30167615  0.85972318  1
  F  F23  1  0.73310030  0.43450183  0.51013385  1
  F  F24  1  0.24293370  0.33362958  0.07871060  1
  F  F25  1  0.33940990  0.91643092  0.83056977  1
  F  F26  1  0.90714218  0.57231812  0.69041237  1
  F  F27  1  0.30151377  0.01552049  0.01566501  1
  F  F28  1  0.01434540  0.48665927  0.01053232  1
  F  F29  1  0.71400772  0.69848623  0.34899801  1
  F  F30  1  0.27755467  0.79110447  0.59829884  1
  F  F31  1  0.95197644  0.15213341  0.90156100  1
  F  F32  1  0.09069588  0.75706630  0.41204360  1
  F  F33  1  0.00517633  0.07155021  0.38931052  1
  F  F34  1  0.98447951  0.28599228  0.68233101  1
  F  F35  1  0.06637388  0.99482367  0.72264452  1
  F  F36  1  0.51334073  0.52768513  0.67719932  1
  F  F37  1  0.47231487  0.98565460  0.34386532  1
  F  F38  1  0.20015697  0.04802356  0.23489400  1
  F  F39  1  0.66637042  0.90930412  0.74537760  1
  F  F40  1  0.70140052  0.26689970  0.84346785  1
  F  F41  1  0.20889553  0.48645020  0.26496584  1
  F  F42  1  0.86583555  0.71407329  0.86219661  1
  F  F43  1  0.84823774  0.13416445  0.19552961  1
  F  F44  1  0.92844979  0.93362612  0.05597752  1
  F  F45  1  0.69832385  0.04319093  0.52638918  1
  F  F46  1  0.84786659  0.79984303  0.56822700  1
  F  F47  1  0.28592671  0.15176226  0.52886261  1
