# generated using pymatgen
data_PWO5
_symmetry_space_group_name_H-M   'P 1'
_cell_length_a   7.11519048
_cell_length_b   7.11518997
_cell_length_c   9.08327529
_cell_angle_alpha   101.59109804
_cell_angle_beta   101.59109503
_cell_angle_gamma   119.14328935
_symmetry_Int_Tables_number   1
_chemical_formula_structural   PWO5
_chemical_formula_sum   'P4 W4 O20'
_cell_volume   368.67527247
_cell_formula_units_Z   4
loop_
 _symmetry_equiv_pos_site_id
 _symmetry_equiv_pos_as_xyz
  1  'x, y, z'
loop_
 _atom_site_type_symbol
 _atom_site_label
 _atom_site_symmetry_multiplicity
 _atom_site_fract_x
 _atom_site_fract_y
 _atom_site_fract_z
 _atom_site_occupancy
  P  P0  1  0.02949777  0.03047215  0.57126722  1
  P  P1  1  0.70823055  0.20920493  0.92873278  1
  P  P2  1  0.45920493  0.45823055  0.42873278  1
  P  P3  1  0.28047215  0.77949777  0.07126722  1
  W  W4  1  0.87350174  0.61788323  0.25286849  1
  W  W5  1  0.36501475  0.62063226  0.74713151  1
  W  W6  1  0.87063226  0.11501475  0.24713151  1
  W  W7  1  0.86788323  0.62350174  0.75286849  1
  O  O8  1  0.59751977  0.55723188  0.32210064  1
  O  O9  1  0.65938791  0.66608410  0.83522385  1
  O  O10  1  0.30673288  0.60453872  0.95795414  1
  O  O11  1  0.80723188  0.34751977  0.82210064  1
  O  O12  1  0.21802114  0.25003453  0.31839425  1
  O  O13  1  0.42637837  0.63238974  0.53682636  1
  O  O14  1  0.07416406  0.58086025  0.66477615  1
  O  O15  1  0.83086025  0.82416406  0.16477615  1
  O  O16  1  0.91608410  0.40938791  0.33522385  1
  O  O17  1  0.14962689  0.68164028  0.18160575  1
  O  O18  1  0.23513124  0.27542113  0.67789936  1
  O  O19  1  0.50003453  0.96802114  0.81839425  1
  O  O20  1  0.93164028  0.89962689  0.68160575  1
  O  O21  1  0.13955401  0.84556537  0.96317363  1
  O  O22  1  0.09556537  0.88955401  0.46317363  1
  O  O23  1  0.88238974  0.17637837  0.03682637  1
  O  O24  1  0.85453872  0.05673288  0.45795414  1
  O  O25  1  0.64658458  0.34877874  0.04204586  1
  O  O26  1  0.52542113  0.98513124  0.17789936  1
  O  O27  1  0.59877874  0.39658459  0.54204586  1
