# generated using pymatgen
data_ZnCo3P3O13
_symmetry_space_group_name_H-M   'P 1'
_cell_length_a   6.29419044
_cell_length_b   7.49787542
_cell_length_c   10.04703040
_cell_angle_alpha   100.36357004
_cell_angle_beta   90.00000000
_cell_angle_gamma   90.00000000
_symmetry_Int_Tables_number   1
_chemical_formula_structural   ZnCo3P3O13
_chemical_formula_sum   'Zn2 Co6 P6 O26'
_cell_volume   466.41480572
_cell_formula_units_Z   2
loop_
 _symmetry_equiv_pos_site_id
 _symmetry_equiv_pos_as_xyz
  1  'x, y, z'
loop_
 _atom_site_type_symbol
 _atom_site_label
 _atom_site_symmetry_multiplicity
 _atom_site_fract_x
 _atom_site_fract_y
 _atom_site_fract_z
 _atom_site_occupancy
  Zn  Zn0  1  0.75000000  0.62828935  0.17807315  1
  Zn  Zn1  1  0.25000000  0.37171065  0.82192685  1
  Co  Co2  1  0.25000000  0.35115519  0.20288398  1
  Co  Co3  1  0.75000000  0.64884481  0.79711602  1
  Co  Co4  1  0.25000000  0.79133581  0.43167788  1
  Co  Co5  1  0.50000000  -0.00000000  -0.00000000  1
  Co  Co6  1  0.75000000  0.20866419  0.56832212  1
  Co  Co7  1  0.00000000  -0.00000000  -0.00000000  1
  P  P8  1  0.25000000  0.22341787  0.49714368  1
  P  P9  1  0.75000000  0.77658213  0.50285632  1
  P  P10  1  0.25000000  0.73444924  0.76057066  1
  P  P11  1  0.75000000  0.26555076  0.23942934  1
  P  P12  1  0.75000000  0.31739996  0.88927176  1
  P  P13  1  0.25000000  0.68260004  0.11072824  1
  O  O14  1  0.75000000  0.36861658  0.74661389  1
  O  O15  1  0.55870009  0.74597443  0.40500616  1
  O  O16  1  0.25000000  0.78319357  0.62101955  1
  O  O17  1  0.54162996  0.21025069  0.90322507  1
  O  O18  1  0.75000000  0.64834672  0.60534479  1
  O  O19  1  0.75000000  0.87629160  0.90577042  1
  O  O20  1  0.25000000  0.35165328  0.39465521  1
  O  O21  1  0.04162996  0.78974931  0.09677493  1
  O  O22  1  0.25000000  0.02626747  0.41262037  1
  O  O23  1  0.75000000  0.97373253  0.58737963  1
  O  O24  1  0.06138754  0.61182203  0.78860368  1
  O  O25  1  0.25000000  0.12370840  0.09422958  1
  O  O26  1  0.56138754  0.38817797  0.21139632  1
  O  O27  1  0.75000000  0.51037291  0.97735367  1
  O  O28  1  0.75000000  0.21680643  0.37898045  1
  O  O29  1  0.45837004  0.78974931  0.09677493  1
  O  O30  1  0.94129991  0.74597443  0.40500616  1
  O  O31  1  0.44129991  0.25402557  0.59499384  1
  O  O32  1  0.43861246  0.61182203  0.78860368  1
  O  O33  1  0.25000000  0.63138342  0.25338611  1
  O  O34  1  0.75000000  0.08777377  0.13124016  1
  O  O35  1  0.25000000  0.91222623  0.86875984  1
  O  O36  1  0.93861246  0.38817797  0.21139632  1
  O  O37  1  0.95837004  0.21025069  0.90322507  1
  O  O38  1  0.05870009  0.25402557  0.59499384  1
  O  O39  1  0.25000000  0.48962709  0.02264633  1
