# generated using pymatgen
data_Ca2Ta2VO8
_symmetry_space_group_name_H-M   'P 1'
_cell_length_a   5.51596033
_cell_length_b   6.31761967
_cell_length_c   10.09232744
_cell_angle_alpha   108.24591209
_cell_angle_beta   91.56703178
_cell_angle_gamma   90.00036087
_symmetry_Int_Tables_number   1
_chemical_formula_structural   Ca2Ta2VO8
_chemical_formula_sum   'Ca4 Ta4 V2 O16'
_cell_volume   333.87358474
_cell_formula_units_Z   2
loop_
 _symmetry_equiv_pos_site_id
 _symmetry_equiv_pos_as_xyz
  1  'x, y, z'
loop_
 _atom_site_type_symbol
 _atom_site_label
 _atom_site_symmetry_multiplicity
 _atom_site_fract_x
 _atom_site_fract_y
 _atom_site_fract_z
 _atom_site_occupancy
  Ca  Ca0  1  0.75536161  0.47188340  0.58373050  1
  Ca  Ca1  1  0.74229169  0.88802695  0.41575144  1
  Ca  Ca2  1  0.24237411  0.52668984  0.41606839  1
  Ca  Ca3  1  0.25531063  0.11044864  0.58388345  1
  Ta  Ta4  1  0.75816954  0.26103002  0.22479844  1
  Ta  Ta5  1  0.73945122  0.03597735  0.77487786  1
  Ta  Ta6  1  0.23942911  0.73733847  0.77497335  1
  Ta  Ta7  1  0.25810111  0.96229985  0.22479716  1
  V  V8  1  0.74877868  0.63386248  0.99989287  1
  V  V9  1  0.24874223  0.36430428  0.99986913  1
  O  O10  1  0.09096312  0.19521178  0.14178289  1
  O  O11  1  0.40652499  0.05340150  0.85779046  1
  O  O12  1  0.90647216  0.80269241  0.85776124  1
  O  O13  1  0.59114953  0.94476389  0.14207742  1
  O  O14  1  0.59573923  0.40934497  0.11437553  1
  O  O15  1  0.90172047  0.29481489  0.88533173  1
  O  O16  1  0.40169926  0.58890003  0.88537862  1
  O  O17  1  0.09580855  0.70335838  0.11450266  1
  O  O18  1  0.50008222  0.24200979  0.36140255  1
  O  O19  1  0.99756951  0.88023965  0.63832017  1
  O  O20  1  0.34421940  0.83672937  0.37072708  1
  O  O21  1  0.15333268  0.46574643  0.62911225  1
  O  O22  1  0.65337369  0.16182410  0.62907544  1
  O  O23  1  0.84443903  0.53270724  0.37053210  1
  O  O24  1  0.00009144  0.11826465  0.36143292  1
  O  O25  1  0.49752180  0.75647464  0.63831134  1
