# generated using pymatgen
data_Ca4Ni5(TeO6)3
_symmetry_space_group_name_H-M   'P 1'
_cell_length_a   9.14802015
_cell_length_b   9.14802032
_cell_length_c   10.51432902
_cell_angle_alpha   86.85998019
_cell_angle_beta   86.85997963
_cell_angle_gamma   58.46607666
_symmetry_Int_Tables_number   1
_chemical_formula_structural   Ca4Ni5(TeO6)3
_chemical_formula_sum   'Ca8 Ni10 Te6 O36'
_cell_volume   748.49106592
_cell_formula_units_Z   2
loop_
 _symmetry_equiv_pos_site_id
 _symmetry_equiv_pos_as_xyz
  1  'x, y, z'
loop_
 _atom_site_type_symbol
 _atom_site_label
 _atom_site_symmetry_multiplicity
 _atom_site_fract_x
 _atom_site_fract_y
 _atom_site_fract_z
 _atom_site_occupancy
  Ca  Ca0  1  0.84342991  0.51852985  0.34230050  1
  Ca  Ca1  1  0.46614899  0.54034465  0.16750380  1
  Ca  Ca2  1  0.48147015  0.15657009  0.65769950  1
  Ca  Ca3  1  0.45965535  0.53385101  0.83249620  1
  Ca  Ca4  1  0.14922701  0.85760664  0.66811751  1
  Ca  Ca5  1  0.12669357  0.23568957  0.84152739  1
  Ca  Ca6  1  0.76431043  0.87330643  0.15847261  1
  Ca  Ca7  1  0.14239336  0.85077299  0.33188249  1
  Ni  Ni8  1  0.79956272  0.51458569  0.98179796  1
  Ni  Ni9  1  0.12279453  0.19136114  0.48156055  1
  Ni  Ni10  1  0.32580608  0.33254625  0.31054198  1
  Ni  Ni11  1  0.94132692  0.71683273  0.81055123  1
  Ni  Ni12  1  0.66745375  0.67419392  0.68945802  1
  Ni  Ni13  1  0.97531647  0.02468353  0.00000000  1
  Ni  Ni14  1  0.63309342  0.36690658  0.50000000  1
  Ni  Ni15  1  0.28316727  0.05867408  0.18944877  1
  Ni  Ni16  1  0.80863886  0.87720547  0.51843945  1
  Ni  Ni17  1  0.48541431  0.20043728  0.01820204  1
  Te  Te18  1  0.46521328  0.87769856  0.93360195  1
  Te  Te19  1  0.80389146  0.19599146  0.25025636  1
  Te  Te20  1  0.80400854  0.19610854  0.74974364  1
  Te  Te21  1  0.48607581  0.85684416  0.43423654  1
  Te  Te22  1  0.14315584  0.51392419  0.56576346  1
  Te  Te23  1  0.12230144  0.53478672  0.06639805  1
  O  O24  1  0.41536684  0.09847911  0.85840352  1
  O  O25  1  0.76790035  0.41921152  0.80995405  1
  O  O26  1  0.59387114  0.62642818  0.51844465  1
  O  O27  1  0.75810772  0.11174208  0.41379691  1
  O  O28  1  0.58078848  0.23209965  0.19004595  1
  O  O29  1  0.88825792  0.24189228  0.58620309  1
  O  O30  1  0.41270541  0.79820898  0.28267701  1
  O  O31  1  0.03027503  0.06188499  0.81812856  1
  O  O32  1  0.57799914  0.33019697  0.68213102  1
  O  O33  1  0.09225776  0.42698497  0.41890232  1
  O  O34  1  0.53959322  0.65115517  0.00902309  1
  O  O35  1  0.51629240  0.96491619  0.08059662  1
  O  O36  1  0.84069132  0.97268305  0.69014368  1
  O  O37  1  0.70483730  0.75284427  0.86442115  1
  O  O38  1  0.34884483  0.46040678  0.99097691  1
  O  O39  1  0.19585817  0.59356206  0.21733071  1
  O  O40  1  0.06877510  0.74082775  0.49081706  1
  O  O41  1  0.24715573  0.29516270  0.13557885  1
  O  O42  1  0.37357182  0.40612886  0.48155535  1
  O  O43  1  0.25917225  0.93122490  0.50918294  1
  O  O44  1  0.70666913  0.80723756  0.35904540  1
  O  O45  1  0.90352662  0.63888615  0.63532581  1
  O  O46  1  0.93811501  0.96972497  0.18187144  1
  O  O47  1  0.40643794  0.80414183  0.78266929  1
  O  O48  1  0.01449895  0.76508515  0.98159181  1
  O  O49  1  0.71978620  0.15043515  0.91394805  1
  O  O50  1  0.03508381  0.48370760  0.91940338  1
  O  O51  1  0.20179102  0.58729459  0.71732299  1
  O  O52  1  0.02731695  0.15930868  0.30985632  1
  O  O53  1  0.36111385  0.09647338  0.36467419  1
  O  O54  1  0.19276244  0.29333087  0.64095460  1
  O  O55  1  0.84956485  0.28021380  0.08605195  1
  O  O56  1  0.66980303  0.42200086  0.31786898  1
  O  O57  1  0.57301503  0.90774224  0.58109768  1
  O  O58  1  0.23491485  0.98550105  0.01840819  1
  O  O59  1  0.90152089  0.58463316  0.14159648  1
