# generated using pymatgen
data_ZrGaCu
_symmetry_space_group_name_H-M   'P 1'
_cell_length_a   4.24857591
_cell_length_b   4.24602892
_cell_length_c   6.55977176
_cell_angle_alpha   90.00000000
_cell_angle_beta   89.98134962
_cell_angle_gamma   60.01982910
_symmetry_Int_Tables_number   1
_chemical_formula_structural   ZrGaCu
_chemical_formula_sum   'Zr2 Ga2 Cu2'
_cell_volume   102.50201485
_cell_formula_units_Z   2
loop_
 _symmetry_equiv_pos_site_id
 _symmetry_equiv_pos_as_xyz
  1  'x, y, z'
loop_
 _atom_site_type_symbol
 _atom_site_label
 _atom_site_symmetry_multiplicity
 _atom_site_fract_x
 _atom_site_fract_y
 _atom_site_fract_z
 _atom_site_occupancy
  Zr  Zr0  1  0.99978959  0.00010520  0.77115042  1
  Zr  Zr1  1  0.00021041  0.99989480  0.22884958  1
  Ga  Ga2  1  0.66644009  0.66677995  0.45898408  1
  Ga  Ga3  1  0.33355991  0.33322005  0.54101592  1
  Cu  Cu4  1  0.33342012  0.33328994  0.97455034  1
  Cu  Cu5  1  0.66657988  0.66671006  0.02544966  1
