# generated using pymatgen
data_Mg2Nb2AgO8
_symmetry_space_group_name_H-M   'P 1'
_cell_length_a   5.24784429
_cell_length_b   6.16517980
_cell_length_c   10.56353422
_cell_angle_alpha   108.52492219
_cell_angle_beta   91.87043207
_cell_angle_gamma   89.45480044
_symmetry_Int_Tables_number   1
_chemical_formula_structural   Mg2Nb2AgO8
_chemical_formula_sum   'Mg4 Nb4 Ag2 O16'
_cell_volume   323.89006630
_cell_formula_units_Z   2
loop_
 _symmetry_equiv_pos_site_id
 _symmetry_equiv_pos_as_xyz
  1  'x, y, z'
loop_
 _atom_site_type_symbol
 _atom_site_label
 _atom_site_symmetry_multiplicity
 _atom_site_fract_x
 _atom_site_fract_y
 _atom_site_fract_z
 _atom_site_occupancy
  Mg  Mg0  1  0.75117484  0.40938153  0.54137477  1
  Mg  Mg1  1  0.74589493  0.86936279  0.45504495  1
  Mg  Mg2  1  0.24451635  0.58770264  0.45715720  1
  Mg  Mg3  1  0.24991310  0.12758117  0.54330364  1
  Nb  Nb4  1  0.73118782  0.28232349  0.24438239  1
  Nb  Nb5  1  0.76379163  0.04524062  0.75440683  1
  Nb  Nb6  1  0.26470603  0.71518042  0.75394987  1
  Nb  Nb7  1  0.23254486  0.95187768  0.24397411  1
  Ag  Ag8  1  0.74770897  0.66714690  0.99943915  1
  Ag  Ag9  1  0.25043191  0.33062541  0.99859022  1
  O  O10  1  0.05457780  0.17370370  0.16151895  1
  O  O11  1  0.43855496  0.03282616  0.83921167  1
  O  O12  1  0.94141438  0.82316310  0.83713568  1
  O  O13  1  0.55768365  0.96507829  0.15942559  1
  O  O14  1  0.57588327  0.41361665  0.12684750  1
  O  O15  1  0.91707108  0.30382636  0.87385962  1
  O  O16  1  0.42229221  0.58473336  0.87137334  1
  O  O17  1  0.08113516  0.69240268  0.12379345  1
  O  O18  1  0.44979958  0.29279535  0.38047727  1
  O  O19  1  0.04574806  0.91441823  0.61626911  1
  O  O20  1  0.37559115  0.83563987  0.38638677  1
  O  O21  1  0.12059279  0.45159411  0.61110692  1
  O  O22  1  0.62035363  0.16116132  0.61187286  1
  O  O23  1  0.87530202  0.54543903  0.38759008  1
  O  O24  1  0.95064255  0.08220823  0.38222463  1
  O  O25  1  0.54611331  0.70459291  0.61808946  1
