# generated using pymatgen
data_LiMn2O4
_symmetry_space_group_name_H-M   'P 1'
_cell_length_a   10.18755867
_cell_length_b   10.61675511
_cell_length_c   5.27374741
_cell_angle_alpha   32.25039601
_cell_angle_beta   28.19386392
_cell_angle_gamma   16.34721842
_symmetry_Int_Tables_number   1
_chemical_formula_structural   LiMn2O4
_chemical_formula_sum   'Li1 Mn2 O4'
_cell_volume   75.85006428
_cell_formula_units_Z   1
loop_
 _symmetry_equiv_pos_site_id
 _symmetry_equiv_pos_as_xyz
  1  'x, y, z'
loop_
 _atom_site_type_symbol
 _atom_site_label
 _atom_site_symmetry_multiplicity
 _atom_site_fract_x
 _atom_site_fract_y
 _atom_site_fract_z
 _atom_site_occupancy
  Li  Li0  1  0.50000200  0.00000000  0.49999800  1
  Mn  Mn1  1  -0.00000000  0.00000000  0.00000000  1
  Mn  Mn2  1  -0.00000000  0.50000000  0.00000000  1
  O  O3  1  0.27310322  0.99999900  0.26203340  1
  O  O4  1  0.23433875  0.49999900  0.30961701  1
  O  O5  1  0.72689978  0.99999800  0.73796760  1
  O  O6  1  0.76566425  0.49999800  0.69038399  1
