# generated using pymatgen
data_Ca2Nb2FeO8
_symmetry_space_group_name_H-M   'P 1'
_cell_length_a   5.53394366
_cell_length_b   6.34258742
_cell_length_c   10.08608334
_cell_angle_alpha   108.62859022
_cell_angle_beta   91.30116959
_cell_angle_gamma   89.82425456
_symmetry_Int_Tables_number   1
_chemical_formula_structural   Ca2Nb2FeO8
_chemical_formula_sum   'Ca4 Nb4 Fe2 O16'
_cell_volume   335.37967999
_cell_formula_units_Z   2
loop_
 _symmetry_equiv_pos_site_id
 _symmetry_equiv_pos_as_xyz
  1  'x, y, z'
loop_
 _atom_site_type_symbol
 _atom_site_label
 _atom_site_symmetry_multiplicity
 _atom_site_fract_x
 _atom_site_fract_y
 _atom_site_fract_z
 _atom_site_occupancy
  Ca  Ca0  1  0.75763349  0.47469668  0.58213983  1
  Ca  Ca1  1  0.74395666  0.89148341  0.41713408  1
  Ca  Ca2  1  0.24428376  0.52635752  0.41781573  1
  Ca  Ca3  1  0.25726502  0.10948125  0.58235139  1
  Nb  Nb4  1  0.75642709  0.26424395  0.22394640  1
  Nb  Nb5  1  0.74280656  0.04345423  0.77577862  1
  Nb  Nb6  1  0.24479063  0.73799768  0.77586882  1
  Nb  Nb7  1  0.25726277  0.95588503  0.22352845  1
  Fe  Fe8  1  0.75383306  0.64163710  0.99816559  1
  Fe  Fe9  1  0.24973607  0.35974980  0.00091413  1
  O  O10  1  0.09221045  0.19410726  0.14157310  1
  O  O11  1  0.40683356  0.06196794  0.85849314  1
  O  O12  1  0.90978530  0.80474413  0.85867637  1
  O  O13  1  0.59289651  0.94209975  0.14243764  1
  O  O14  1  0.59156997  0.41058282  0.11494589  1
  O  O15  1  0.90696546  0.30141993  0.88686303  1
  O  O16  1  0.41318551  0.59334163  0.88538535  1
  O  O17  1  0.09669684  0.69746950  0.11158677  1
  O  O18  1  0.50631244  0.24373805  0.36606169  1
  O  O19  1  0.99476713  0.88143083  0.63460822  1
  O  O20  1  0.34684450  0.83281016  0.36963454  1
  O  O21  1  0.15515782  0.46578468  0.62954242  1
  O  O22  1  0.65407317  0.16809584  0.62999353  1
  O  O23  1  0.84666683  0.53516569  0.37037187  1
  O  O24  1  0.00718174  0.12002387  0.36622472  1
  O  O25  1  0.49489267  0.75814029  0.63418770  1
