# generated using pymatgen
data_CaTi4O6
_symmetry_space_group_name_H-M   'P 1'
_cell_length_a   3.06817747
_cell_length_b   5.18795442
_cell_length_c   15.13394207
_cell_angle_alpha   90.00000000
_cell_angle_beta   90.00000000
_cell_angle_gamma   107.19963481
_symmetry_Int_Tables_number   1
_chemical_formula_structural   CaTi4O6
_chemical_formula_sum   'Ca2 Ti8 O12'
_cell_volume   230.12271690
_cell_formula_units_Z   2
loop_
 _symmetry_equiv_pos_site_id
 _symmetry_equiv_pos_as_xyz
  1  'x, y, z'
loop_
 _atom_site_type_symbol
 _atom_site_label
 _atom_site_symmetry_multiplicity
 _atom_site_fract_x
 _atom_site_fract_y
 _atom_site_fract_z
 _atom_site_occupancy
  Ca  Ca0  1  0.65369225  0.30738651  0.75000000  1
  Ca  Ca1  1  0.34630775  0.69261349  0.25000000  1
  Ti  Ti2  1  0.85014983  0.70030265  0.03999707  1
  Ti  Ti3  1  0.39830336  0.79660472  0.62663115  1
  Ti  Ti4  1  0.14984817  0.29969635  0.96000293  1
  Ti  Ti5  1  0.60169664  0.20339528  0.37336985  1
  Ti  Ti6  1  0.85014983  0.70030265  0.46000293  1
  Ti  Ti7  1  0.14984817  0.29969635  0.53999707  1
  Ti  Ti8  1  0.60169664  0.20339528  0.12663015  1
  Ti  Ti9  1  0.39830336  0.79660472  0.87336885  1
  O  O10  1  0.49999900  -0.00000000  0.50000000  1
  O  O11  1  0.49999900  -0.00000000  -0.00000000  1
  O  O12  1  0.03601920  0.07203641  0.84609494  1
  O  O13  1  0.96398080  0.92796359  0.15390606  1
  O  O14  1  0.96398080  0.92796359  0.34609394  1
  O  O15  1  0.03601920  0.07203641  0.65390606  1
  O  O16  1  0.76427910  0.52856020  0.90648833  1
  O  O17  1  0.23571990  0.47144080  0.09351167  1
  O  O18  1  0.23571990  0.47144080  0.40648833  1
  O  O19  1  0.76427910  0.52856020  0.59351167  1
  O  O20  1  0.33278895  0.66557789  0.75000000  1
  O  O21  1  0.66720905  0.33442111  0.25000000  1
