# generated using pymatgen
data_Ca(CoO2)2
_symmetry_space_group_name_H-M   'P 1'
_cell_length_a   3.11677659
_cell_length_b   5.18801523
_cell_length_c   9.78481355
_cell_angle_alpha   90.00000000
_cell_angle_beta   90.00000000
_cell_angle_gamma   107.48057049
_symmetry_Int_Tables_number   1
_chemical_formula_structural   Ca(CoO2)2
_chemical_formula_sum   'Ca2 Co4 O8'
_cell_volume   150.91255746
_cell_formula_units_Z   2
loop_
 _symmetry_equiv_pos_site_id
 _symmetry_equiv_pos_as_xyz
  1  'x, y, z'
loop_
 _atom_site_type_symbol
 _atom_site_label
 _atom_site_symmetry_multiplicity
 _atom_site_fract_x
 _atom_site_fract_y
 _atom_site_fract_z
 _atom_site_occupancy
  Ca  Ca0  1  0.39251828  0.78503656  0.75000000  1
  Ca  Ca1  1  0.60748172  0.21496344  0.25000000  1
  Co  Co2  1  0.86455386  0.72910872  0.06725610  1
  Co  Co3  1  0.13544614  0.27089128  0.93274390  1
  Co  Co4  1  0.86455386  0.72910872  0.43274390  1
  Co  Co5  1  0.13544614  0.27089128  0.56725610  1
  O  O6  1  0.22738209  0.45476619  0.39298537  1
  O  O7  1  0.77261791  0.54523381  0.60701463  1
  O  O8  1  0.77261791  0.54523381  0.89298537  1
  O  O9  1  0.22738209  0.45476619  0.10701463  1
  O  O10  1  0.93239633  0.86479266  0.25000000  1
  O  O11  1  0.06760367  0.13520734  0.75000000  1
  O  O12  1  0.50000000  -0.00000000  -0.00000000  1
  O  O13  1  0.50000000  -0.00000000  0.50000000  1
