# generated using pymatgen
data_Mg2Nb2CuO8
_symmetry_space_group_name_H-M   'P 1'
_cell_length_a   5.16518213
_cell_length_b   6.07383702
_cell_length_c   10.02869657
_cell_angle_alpha   107.66940349
_cell_angle_beta   91.65865427
_cell_angle_gamma   89.94665856
_symmetry_Int_Tables_number   1
_chemical_formula_structural   Mg2Nb2CuO8
_chemical_formula_sum   'Mg4 Nb4 Cu2 O16'
_cell_volume   299.64638641
_cell_formula_units_Z   2
loop_
 _symmetry_equiv_pos_site_id
 _symmetry_equiv_pos_as_xyz
  1  'x, y, z'
loop_
 _atom_site_type_symbol
 _atom_site_label
 _atom_site_symmetry_multiplicity
 _atom_site_fract_x
 _atom_site_fract_y
 _atom_site_fract_z
 _atom_site_occupancy
  Mg  Mg0  1  0.75378903  0.41312784  0.54313688  1
  Mg  Mg1  1  0.74953803  0.86970041  0.45615615  1
  Mg  Mg2  1  0.24949592  0.58317936  0.45502521  1
  Mg  Mg3  1  0.25375025  0.12753464  0.54387104  1
  Nb  Nb4  1  0.73710784  0.27990112  0.23083836  1
  Nb  Nb5  1  0.76632655  0.04966629  0.76866200  1
  Nb  Nb6  1  0.26665059  0.71662150  0.76787558  1
  Nb  Nb7  1  0.23716821  0.94813958  0.23108440  1
  Cu  Cu8  1  0.75156989  0.65093043  0.99967425  1
  Cu  Cu9  1  0.25122495  0.34738736  0.99975523  1
  O  O10  1  0.07042448  0.18334625  0.14389481  1
  O  O11  1  0.43321106  0.03914337  0.85524055  1
  O  O12  1  0.93350796  0.81369990  0.85485554  1
  O  O13  1  0.57061909  0.95675477  0.14399425  1
  O  O14  1  0.56259460  0.41896145  0.11248005  1
  O  O15  1  0.93892384  0.30847930  0.88743993  1
  O  O16  1  0.43963043  0.57731823  0.88688428  1
  O  O17  1  0.06344278  0.69003677  0.11255380  1
  O  O18  1  0.45496063  0.28942472  0.37488352  1
  O  O19  1  0.04817750  0.91468883  0.62427124  1
  O  O20  1  0.37912863  0.83432168  0.38222593  1
  O  O21  1  0.12420190  0.45169439  0.61693439  1
  O  O22  1  0.62399749  0.16402625  0.61780126  1
  O  O23  1  0.87906886  0.54557106  0.38149955  1
  O  O24  1  0.95449468  0.08311629  0.37512419  1
  O  O25  1  0.54856279  0.70760422  0.62383460  1
