# generated using pymatgen
data_KNa7V8O20
_symmetry_space_group_name_H-M   'P 1'
_cell_length_a   10.92765923
_cell_length_b   11.22802917
_cell_length_c   16.58692444
_cell_angle_alpha   109.78274662
_cell_angle_beta   108.81192485
_cell_angle_gamma   89.99790988
_symmetry_Int_Tables_number   1
_chemical_formula_structural   KNa7V8O20
_chemical_formula_sum   'K4 Na28 V32 O80'
_cell_volume   1799.09410595
_cell_formula_units_Z   4
loop_
 _symmetry_equiv_pos_site_id
 _symmetry_equiv_pos_as_xyz
  1  'x, y, z'
loop_
 _atom_site_type_symbol
 _atom_site_label
 _atom_site_symmetry_multiplicity
 _atom_site_fract_x
 _atom_site_fract_y
 _atom_site_fract_z
 _atom_site_occupancy
  K  K0  1  0.30639022  0.06740229  0.11491511  1
  K  K1  1  0.80634420  0.06741455  0.11492025  1
  K  K2  1  0.05633922  0.79752390  0.11490735  1
  K  K3  1  0.55632444  0.79755459  0.11491103  1
  Na  Na4  1  0.30319285  0.06801020  0.60731826  1
  Na  Na5  1  0.30250354  0.56639315  0.10669783  1
  Na  Na6  1  0.30291154  0.56772771  0.60720112  1
  Na  Na7  1  0.80320167  0.06802953  0.60730835  1
  Na  Na8  1  0.80252052  0.56637692  0.10668675  1
  Na  Na9  1  0.80290101  0.56770669  0.60719682  1
  Na  Na10  1  0.19676376  0.43363784  0.39402885  1
  Na  Na11  1  0.19583343  0.43110729  0.89128785  1
  Na  Na12  1  0.19707528  0.93263975  0.39560757  1
  Na  Na13  1  0.19502946  0.93126479  0.89046958  1
  Na  Na14  1  0.69675668  0.43363555  0.39403336  1
  Na  Na15  1  0.69588622  0.43108420  0.89129140  1
  Na  Na16  1  0.69709675  0.93264605  0.39561978  1
  Na  Na17  1  0.69499798  0.93129032  0.89047288  1
  Na  Na18  1  0.05249629  0.29028344  0.10667341  1
  Na  Na19  1  0.05316532  0.28926199  0.60730524  1
  Na  Na20  1  0.05289787  0.78950611  0.60720924  1
  Na  Na21  1  0.55253036  0.29027740  0.10670075  1
  Na  Na22  1  0.55321989  0.28927576  0.60730682  1
  Na  Na23  1  0.55291947  0.78950352  0.60720495  1
  Na  Na24  1  0.44710825  0.21296112  0.39560794  1
  Na  Na25  1  0.44587171  0.21014278  0.89127878  1
  Na  Na26  1  0.44677732  0.71039318  0.39403420  1
  Na  Na27  1  0.44500940  0.70926199  0.89047506  1
  Na  Na28  1  0.94706776  0.21295201  0.39561577  1
  Na  Na29  1  0.94585378  0.21017378  0.89129323  1
  Na  Na30  1  0.94675144  0.71041259  0.39404093  1
  Na  Na31  1  0.94503004  0.70920832  0.89047362  1
  V  V32  1  0.00033402  0.99616389  0.99387768  1
  V  V33  1  0.00555978  0.99796641  0.50080966  1
  V  V34  1  0.00269838  0.49503962  0.99724974  1
  V  V35  1  0.00499989  0.49843902  0.49992674  1
  V  V36  1  0.50034979  0.99619909  0.99388423  1
  V  V37  1  0.50551673  0.99795927  0.50079165  1
  V  V38  1  0.50269088  0.49503993  0.99722864  1
  V  V39  1  0.50496315  0.49840272  0.49992920  1
  V  V40  1  0.25269896  0.25216368  0.99723828  1
  V  V41  1  0.25553412  0.25284786  0.50081618  1
  V  V42  1  0.25040842  0.74773905  0.99386531  1
  V  V43  1  0.25498091  0.75149468  0.49992676  1
  V  V44  1  0.75269878  0.25211225  0.99723403  1
  V  V45  1  0.75554765  0.25283708  0.50080763  1
  V  V46  1  0.75036394  0.74769450  0.99387740  1
  V  V47  1  0.75498741  0.75151019  0.49994461  1
  V  V48  1  0.11105534  0.09605550  0.25583205  1
  V  V49  1  0.10349421  0.08979415  0.74948876  1
  V  V50  1  0.10385900  0.58705955  0.25125311  1
  V  V51  1  0.10216145  0.58704766  0.74798531  1
  V  V52  1  0.61102120  0.09602307  0.25579321  1
  V  V53  1  0.60345481  0.08980180  0.74948896  1
  V  V54  1  0.60386030  0.58707641  0.25120909  1
  V  V55  1  0.60215810  0.58706094  0.74800080  1
  V  V56  1  0.35385404  0.41415754  0.25122131  1
  V  V57  1  0.35344015  0.40973730  0.74947258  1
  V  V58  1  0.36104276  0.90985375  0.25585098  1
  V  V59  1  0.35219997  0.91092735  0.74803113  1
  V  V60  1  0.85381125  0.41413879  0.25122443  1
  V  V61  1  0.85344848  0.40968387  0.74945026  1
  V  V62  1  0.86103295  0.90985651  0.25583999  1
  V  V63  1  0.85216002  0.91090782  0.74800112  1
  O  O64  1  0.13660536  0.12929430  0.48972664  1
  O  O65  1  0.13239564  0.12966939  0.98635376  1
  O  O66  1  0.13576867  0.62850607  0.48929079  1
  O  O67  1  0.13399221  0.62469275  0.98595893  1
  O  O68  1  0.63660955  0.12930142  0.48973005  1
  O  O69  1  0.63237761  0.12965068  0.98635845  1
  O  O70  1  0.63577526  0.62850228  0.48928473  1
  O  O71  1  0.63399915  0.62468043  0.98595865  1
  O  O72  1  0.13068311  0.38592857  0.00766282  1
  O  O73  1  0.13152383  0.38794244  0.51131687  1
  O  O74  1  0.12293153  0.88231915  0.00141346  1
  O  O75  1  0.13275968  0.88787958  0.51252636  1
  O  O76  1  0.63064963  0.38594255  0.00765074  1
  O  O77  1  0.63152350  0.38795334  0.51131847  1
  O  O78  1  0.62289533  0.88233362  0.00140438  1
  O  O79  1  0.63274775  0.88789817  0.51252508  1
  O  O80  1  0.38662649  0.11041934  0.48973508  1
  O  O81  1  0.38401129  0.11127002  0.98596300  1
  O  O82  1  0.38579639  0.61078851  0.48929961  1
  O  O83  1  0.38235877  0.60671148  0.98636770  1
  O  O84  1  0.88661342  0.11041358  0.48973491  1
  O  O85  1  0.88398235  0.11129218  0.98596156  1
  O  O86  1  0.88578402  0.61076173  0.48928841  1
  O  O87  1  0.88234972  0.60672208  0.98636089  1
  O  O88  1  0.38067032  0.37170938  0.00766105  1
  O  O89  1  0.38276612  0.37463914  0.51252038  1
  O  O90  1  0.37290099  0.86906747  0.00142066  1
  O  O91  1  0.38150745  0.87337144  0.51132235  1
  O  O92  1  0.88066811  0.37169327  0.00765369  1
  O  O93  1  0.88278166  0.37464194  0.51252013  1
  O  O94  1  0.87290858  0.86907743  0.00142054  1
  O  O95  1  0.88152404  0.87337152  0.51131055  1
  O  O96  1  0.07468146  0.09391157  0.14202905  1
  O  O97  1  0.08284185  0.09933514  0.64139544  1
  O  O98  1  0.08114215  0.58596557  0.14000254  1
  O  O99  1  0.08220597  0.59890537  0.64064852  1
  O  O100  1  0.57468296  0.09390906  0.14202825  1
  O  O101  1  0.58285193  0.09933020  0.64139268  1
  O  O102  1  0.58116676  0.58597982  0.13999448  1
  O  O103  1  0.58220575  0.59890143  0.64065618  1
  O  O104  1  0.44155905  0.39996232  0.35807032  1
  O  O105  1  0.44090913  0.39802941  0.85686736  1
  O  O106  1  0.44587967  0.89435567  0.36182094  1
  O  O107  1  0.43927263  0.89962071  0.85545105  1
  O  O108  1  0.94154851  0.39995275  0.35807251  1
  O  O109  1  0.94090938  0.39804573  0.85689249  1
  O  O110  1  0.94586279  0.89437583  0.36181513  1
  O  O111  1  0.93924651  0.89961748  0.85539905  1
  O  O112  1  0.33114869  0.30401957  0.13999151  1
  O  O113  1  0.33285810  0.29207986  0.64141137  1
  O  O114  1  0.32467794  0.79810758  0.14202655  1
  O  O115  1  0.33222395  0.79170736  0.64062396  1
  O  O116  1  0.83116784  0.30403336  0.14000766  1
  O  O117  1  0.83285113  0.29207346  0.64141079  1
  O  O118  1  0.82467521  0.79812951  0.14203314  1
  O  O119  1  0.83222080  0.79174555  0.64065077  1
  O  O120  1  0.19586511  0.21741577  0.36179960  1
  O  O121  1  0.19091387  0.20882770  0.85689855  1
  O  O122  1  0.19154453  0.70807223  0.35805474  1
  O  O123  1  0.18924435  0.70579444  0.85541017  1
  O  O124  1  0.69586756  0.21741986  0.36180893  1
  O  O125  1  0.69094470  0.20885238  0.85689346  1
  O  O126  1  0.69156630  0.70810842  0.35809985  1
  O  O127  1  0.68924942  0.70580746  0.85542763  1
  O  O128  1  0.45032844  0.05796357  0.26448311  1
  O  O129  1  0.43303962  0.05940995  0.74931048  1
  O  O130  1  0.43329238  0.56319521  0.25236250  1
  O  O131  1  0.43257288  0.55831007  0.74940155  1
  O  O132  1  0.95031747  0.05796086  0.26448758  1
  O  O133  1  0.93300297  0.05938048  0.74931213  1
  O  O134  1  0.93329236  0.56320594  0.25236394  1
  O  O135  1  0.93257013  0.55826762  0.74939414  1
  O  O136  1  0.18323189  0.43917831  0.25234896  1
  O  O137  1  0.18293942  0.43988768  0.74931396  1
  O  O138  1  0.20022498  0.95658278  0.26449323  1
  O  O139  1  0.18254459  0.94120134  0.74939468  1
  O  O140  1  0.68323056  0.43916391  0.25235678  1
  O  O141  1  0.68300261  0.43989918  0.74932168  1
  O  O142  1  0.70022408  0.95656414  0.26450362  1
  O  O143  1  0.68255757  0.94114058  0.74940145  1
