# generated using pymatgen
data_Sr2Ti2O5
_symmetry_space_group_name_H-M   'P 1'
_cell_length_a   5.64938523
_cell_length_b   5.67717253
_cell_length_c   8.87524511
_cell_angle_alpha   108.65275761
_cell_angle_beta   108.55811850
_cell_angle_gamma   90.00000000
_symmetry_Int_Tables_number   1
_chemical_formula_structural   Sr2Ti2O5
_chemical_formula_sum   'Sr4 Ti4 O10'
_cell_volume   254.02888100
_cell_formula_units_Z   2
loop_
 _symmetry_equiv_pos_site_id
 _symmetry_equiv_pos_as_xyz
  1  'x, y, z'
loop_
 _atom_site_type_symbol
 _atom_site_label
 _atom_site_symmetry_multiplicity
 _atom_site_fract_x
 _atom_site_fract_y
 _atom_site_fract_z
 _atom_site_occupancy
  Sr  Sr0  1  0.61617729  0.12441807  0.22530453  1
  Sr  Sr1  1  0.39087276  0.87558193  0.77469547  1
  Sr  Sr2  1  0.11617729  0.60088646  0.22530453  1
  Sr  Sr3  1  0.89087276  0.39911354  0.77469547  1
  Ti  Ti4  1  0.00421345  0.00000000  0.00000000  1
  Ti  Ti5  1  0.50421345  0.50000000  0.00000000  1
  Ti  Ti6  1  0.22713561  0.21086544  0.50000000  1
  Ti  Ti7  1  0.72713561  0.78913456  0.50000000  1
  O  O8  1  0.24687339  0.24480210  0.98899047  1
  O  O9  1  0.25788292  0.75519790  0.01100953  1
  O  O10  1  0.74687339  0.24418837  0.98899047  1
  O  O11  1  0.75788292  0.75581163  0.01100953  1
  O  O12  1  0.13338257  0.16014992  0.26219021  1
  O  O13  1  0.87119236  0.83985008  0.73780979  1
  O  O14  1  0.63338257  0.60204029  0.26219021  1
  O  O15  1  0.37119236  0.39795971  0.73780979  1
  O  O16  1  0.91626966  0.07264950  0.50000000  1
  O  O17  1  0.41626966  0.92735050  0.50000000  1
