# generated using pymatgen
data_Sr4Ca4FeCo7O24
_symmetry_space_group_name_H-M   'P 1'
_cell_length_a   7.75343702
_cell_length_b   7.59774495
_cell_length_c   7.75343702
_cell_angle_alpha   90.09521523
_cell_angle_beta   90.00813492
_cell_angle_gamma   89.90478477
_symmetry_Int_Tables_number   1
_chemical_formula_structural   Sr4Ca4FeCo7O24
_chemical_formula_sum   'Sr4 Ca4 Fe1 Co7 O24'
_cell_volume   456.74314058
_cell_formula_units_Z   1
loop_
 _symmetry_equiv_pos_site_id
 _symmetry_equiv_pos_as_xyz
  1  'x, y, z'
loop_
 _atom_site_type_symbol
 _atom_site_label
 _atom_site_symmetry_multiplicity
 _atom_site_fract_x
 _atom_site_fract_y
 _atom_site_fract_z
 _atom_site_occupancy
  Sr  Sr0  1  0.25408199  0.24805514  0.25378770  1
  Sr  Sr1  1  0.25400783  0.24777456  0.74599217  1
  Sr  Sr2  1  0.74621230  0.24805514  0.74591801  1
  Sr  Sr3  1  0.74606556  0.75139857  0.25393444  1
  Ca  Ca4  1  0.25594229  0.75608767  0.25719176  1
  Ca  Ca5  1  0.25724829  0.75471791  0.74275171  1
  Ca  Ca6  1  0.74335257  0.24462249  0.25664743  1
  Ca  Ca7  1  0.74280824  0.75608767  0.74405771  1
  Fe  Fe8  1  0.00003982  0.99837960  -0.00003982  1
  Co  Co9  1  0.00002946  0.99856849  0.49991669  1
  Co  Co10  1  -0.00021858  0.50081274  0.00021858  1
  Co  Co11  1  -0.00008782  0.50168121  0.50017636  1
  Co  Co12  1  0.50008331  0.99856849  0.99997054  1
  Co  Co13  1  0.50027838  0.99918720  0.49972162  1
  Co  Co14  1  0.49982364  0.50168121  0.00008782  1
  Co  Co15  1  0.50007444  0.50170870  0.49992556  1
  O  O16  1  0.24852584  0.99439660  0.99910575  1
  O  O17  1  0.25429577  0.99304876  0.49918143  1
  O  O18  1  0.26476406  0.50375521  0.00089212  1
  O  O19  1  0.25577708  0.50904876  0.50120633  1
  O  O20  1  0.75177642  0.99742071  -0.00027654  1
  O  O21  1  0.74579426  0.99756843  0.50151676  1
  O  O22  1  0.73497136  0.50146297  0.99905572  1
  O  O23  1  0.74401210  0.50092352  0.49949497  1
  O  O24  1  0.99712239  0.26662091  0.00287761  1
  O  O25  1  0.99806196  0.23629110  0.49785361  1
  O  O26  1  0.00225572  0.73261838  0.99774428  1
  O  O27  1  0.00150458  0.76286612  0.50128989  1
  O  O28  1  0.50214639  0.23629110  0.00193804  1
  O  O29  1  0.50286068  0.24958177  0.49713932  1
  O  O30  1  0.49871011  0.76286612  0.99849542  1
  O  O31  1  0.49785613  0.75022780  0.50214387  1
  O  O32  1  0.00027654  0.99742071  0.24822358  1
  O  O33  1  0.00089425  0.99439660  0.75147416  1
  O  O34  1  0.00094428  0.50146297  0.26502864  1
  O  O35  1  0.99910788  0.50375521  0.73523594  1
  O  O36  1  0.49848324  0.99756843  0.25420574  1
  O  O37  1  0.50081857  0.99304876  0.74570423  1
  O  O38  1  0.50050503  0.50092352  0.25598790  1
  O  O39  1  0.49879367  0.50904876  0.74422292  1
