# generated using pymatgen
data_Ba6Sr2CoCu7O24
_symmetry_space_group_name_H-M   'P 1'
_cell_length_a   7.96963328
_cell_length_b   7.98715235
_cell_length_c   7.98715235
_cell_angle_alpha   89.87121842
_cell_angle_beta   90.00000000
_cell_angle_gamma   90.00000000
_symmetry_Int_Tables_number   1
_chemical_formula_structural   Ba6Sr2CoCu7O24
_chemical_formula_sum   'Ba6 Sr2 Co1 Cu7 O24'
_cell_volume   508.41830469
_cell_formula_units_Z   1
loop_
 _symmetry_equiv_pos_site_id
 _symmetry_equiv_pos_as_xyz
  1  'x, y, z'
loop_
 _atom_site_type_symbol
 _atom_site_label
 _atom_site_symmetry_multiplicity
 _atom_site_fract_x
 _atom_site_fract_y
 _atom_site_fract_z
 _atom_site_occupancy
  Ba  Ba0  1  0.24984487  0.24813419  0.24772270  1
  Ba  Ba1  1  0.24969766  0.75197922  0.24802078  1
  Ba  Ba2  1  0.24984487  0.75227730  0.75186581  1
  Ba  Ba3  1  0.75015513  0.24813419  0.24772270  1
  Ba  Ba4  1  0.75030234  0.75197922  0.24802078  1
  Ba  Ba5  1  0.75015513  0.75227730  0.75186581  1
  Sr  Sr6  1  0.25142017  0.24688794  0.75311206  1
  Sr  Sr7  1  0.74857983  0.24688794  0.75311206  1
  Co  Co8  1  -0.00000000  0.49643338  0.50356662  1
  Cu  Cu9  1  -0.00000000  0.00022012  0.99977988  1
  Cu  Cu10  1  -0.00000000  -0.00036433  0.50064517  1
  Cu  Cu11  1  -0.00000000  0.49935483  0.00036433  1
  Cu  Cu12  1  0.50000000  0.00043042  0.99956958  1
  Cu  Cu13  1  0.50000000  0.00009505  0.50002533  1
  Cu  Cu14  1  0.50000000  0.49997467  0.99990495  1
  Cu  Cu15  1  0.50000000  0.49948351  0.50051649  1
  O  O16  1  0.25075405  0.00759113  0.99240887  1
  O  O17  1  0.24892680  0.00741399  0.50758709  1
  O  O18  1  0.24892680  0.49241291  0.99258601  1
  O  O19  1  0.24335570  0.49463699  0.50536301  1
  O  O20  1  0.74924595  0.00759113  0.99240887  1
  O  O21  1  0.75107320  0.00741399  0.50758709  1
  O  O22  1  0.75107320  0.49241291  0.99258601  1
  O  O23  1  0.75664430  0.49463699  0.50536301  1
  O  O24  1  -0.00000000  0.25166362  0.98743974  1
  O  O25  1  -0.00000000  0.25662303  0.50830522  1
  O  O26  1  -0.00000000  0.74827477  0.99852566  1
  O  O27  1  -0.00000000  0.74138911  0.50187869  1
  O  O28  1  0.50000000  0.24985496  0.98767127  1
  O  O29  1  0.50000000  0.25206313  0.51241923  1
  O  O30  1  0.50000000  0.75024733  0.99806335  1
  O  O31  1  0.50000000  0.74783625  0.50194403  1
  O  O32  1  -0.00000000  0.00147434  0.25172523  1
  O  O33  1  -0.00000000  0.01256026  0.74833638  1
  O  O34  1  -0.00000000  0.49812131  0.25861089  1
  O  O35  1  -0.00000000  0.49169478  0.74337697  1
  O  O36  1  0.50000000  0.00193665  0.24975267  1
  O  O37  1  0.50000000  0.01232873  0.75014504  1
  O  O38  1  0.50000000  0.49805597  0.25216375  1
  O  O39  1  0.50000000  0.48758077  0.74793687  1
