# generated using pymatgen
data_Sr6Ca2Co5(CuO8)3
_symmetry_space_group_name_H-M   'P 1'
_cell_length_a   7.61789114
_cell_length_b   7.82215632
_cell_length_c   7.75283774
_cell_angle_alpha   90.00000000
_cell_angle_beta   89.95441809
_cell_angle_gamma   90.00000000
_symmetry_Int_Tables_number   1
_chemical_formula_structural   Sr6Ca2Co5(CuO8)3
_chemical_formula_sum   'Sr6 Ca2 Co5 Cu3 O24'
_cell_volume   461.97854854
_cell_formula_units_Z   1
loop_
 _symmetry_equiv_pos_site_id
 _symmetry_equiv_pos_as_xyz
  1  'x, y, z'
loop_
 _atom_site_type_symbol
 _atom_site_label
 _atom_site_symmetry_multiplicity
 _atom_site_fract_x
 _atom_site_fract_y
 _atom_site_fract_z
 _atom_site_occupancy
  Sr  Sr0  1  0.24928045  0.24660614  0.24939055  1
  Sr  Sr1  1  0.24920441  0.24669123  0.75065804  1
  Sr  Sr2  1  0.24899492  0.75308757  0.75062182  1
  Sr  Sr3  1  0.75079559  0.24669123  0.24934196  1
  Sr  Sr4  1  0.75071955  0.24660614  0.75060945  1
  Sr  Sr5  1  0.75100508  0.75308757  0.24937818  1
  Ca  Ca6  1  0.24898963  0.75561717  0.24870582  1
  Ca  Ca7  1  0.75101037  0.75561717  0.75129418  1
  Co  Co8  1  0.00000000  0.50292399  0.50000000  1
  Co  Co9  1  0.50000000  0.99837550  -0.00000000  1
  Co  Co10  1  0.50000000  0.99865553  0.50000000  1
  Co  Co11  1  0.50000000  0.50147004  -0.00000000  1
  Co  Co12  1  0.50000000  0.50163035  0.50000000  1
  Cu  Cu13  1  0.00000000  0.99938582  -0.00000000  1
  Cu  Cu14  1  0.00000000  0.00012507  0.50000000  1
  Cu  Cu15  1  0.00000000  0.50102586  -0.00000000  1
  O  O16  1  0.25809377  0.99589967  0.00261999  1
  O  O17  1  0.25741357  0.99609240  0.49750616  1
  O  O18  1  0.26081775  0.50396117  0.00258630  1
  O  O19  1  0.24059131  0.50338312  0.49888727  1
  O  O20  1  0.74190623  0.99589967  0.99738001  1
  O  O21  1  0.74258643  0.99609240  0.50249384  1
  O  O22  1  0.73918225  0.50396117  0.99741370  1
  O  O23  1  0.75940869  0.50338312  0.50111273  1
  O  O24  1  0.00000000  0.25060336  -0.00000000  1
  O  O25  1  0.00000000  0.24943350  0.50000000  1
  O  O26  1  0.00000000  0.74954669  -0.00000000  1
  O  O27  1  0.00000000  0.75153979  0.50000000  1
  O  O28  1  0.50000000  0.24983390  -0.00000000  1
  O  O29  1  0.50000000  0.25075507  0.50000000  1
  O  O30  1  0.50000000  0.74993367  -0.00000000  1
  O  O31  1  0.50000000  0.74945888  0.50000000  1
  O  O32  1  0.00484739  0.99319835  0.25019155  1
  O  O33  1  0.99515261  0.99319835  0.74980845  1
  O  O34  1  0.00322137  0.50458987  0.25054481  1
  O  O35  1  0.99677863  0.50458987  0.74945519  1
  O  O36  1  0.49778399  0.99475662  0.24956250  1
  O  O37  1  0.50221601  0.99475662  0.75043750  1
  O  O38  1  0.49785160  0.50376818  0.26564054  1
  O  O39  1  0.50214840  0.50376818  0.73435946  1
