# generated using pymatgen
data_TcCl3
_symmetry_space_group_name_H-M   'P 1'
_cell_length_a   5.73997914
_cell_length_b   5.73997914
_cell_length_c   6.67862571
_cell_angle_alpha   99.31829134
_cell_angle_beta   99.31829134
_cell_angle_gamma   114.96419734
_symmetry_Int_Tables_number   1
_chemical_formula_structural   TcCl3
_chemical_formula_sum   'Tc2 Cl6'
_cell_volume   190.22038813
_cell_formula_units_Z   2
loop_
 _symmetry_equiv_pos_site_id
 _symmetry_equiv_pos_as_xyz
  1  'x, y, z'
loop_
 _atom_site_type_symbol
 _atom_site_label
 _atom_site_symmetry_multiplicity
 _atom_site_fract_x
 _atom_site_fract_y
 _atom_site_fract_z
 _atom_site_occupancy
  Tc  Tc0  1  0.85830287  0.14169713  -0.00000000  1
  Tc  Tc1  1  0.14169713  0.85830287  -0.00000000  1
  Cl  Cl2  1  0.24083770  0.24083770  0.25273912  1
  Cl  Cl3  1  0.75916230  0.75916230  0.74726088  1
  Cl  Cl4  1  0.56409297  0.90474758  0.20244109  1
  Cl  Cl5  1  0.90474758  0.56409297  0.20244109  1
  Cl  Cl6  1  0.43590703  0.09525242  0.79755891  1
  Cl  Cl7  1  0.09525242  0.43590703  0.79755891  1
