# generated using pymatgen
data_Mg2Zn
_symmetry_space_group_name_H-M   'P 1'
_cell_length_a   9.20186106
_cell_length_b   5.10600000
_cell_length_c   6.00892393
_cell_angle_alpha   90.00000000
_cell_angle_beta   123.34968595
_cell_angle_gamma   90.00000000
_symmetry_Int_Tables_number   1
_chemical_formula_structural   Mg2Zn
_chemical_formula_sum   'Mg8 Zn4'
_cell_volume   235.83689984
_cell_formula_units_Z   4
loop_
 _symmetry_equiv_pos_site_id
 _symmetry_equiv_pos_as_xyz
  1  'x, y, z'
loop_
 _atom_site_type_symbol
 _atom_site_label
 _atom_site_symmetry_multiplicity
 _atom_site_fract_x
 _atom_site_fract_y
 _atom_site_fract_z
 _atom_site_occupancy
  Mg  Mg0  1  0.16864513  0.58477002  0.75120434  1
  Mg  Mg1  1  0.33135487  0.08477002  0.74879566  1
  Mg  Mg2  1  0.16864513  0.41522998  0.25120434  1
  Mg  Mg3  1  0.33135487  0.91522998  0.24879566  1
  Mg  Mg4  1  0.66864513  0.08477002  0.75120434  1
  Mg  Mg5  1  0.83135487  0.58477002  0.74879566  1
  Mg  Mg6  1  0.66864513  0.91522998  0.25120434  1
  Mg  Mg7  1  0.83135487  0.41522998  0.24879566  1
  Zn  Zn8  1  0.50000000  0.41762742  0.25000000  1
  Zn  Zn9  1  -0.00000000  0.08237258  0.75000000  1
  Zn  Zn10  1  -0.00000000  0.91762742  0.25000000  1
  Zn  Zn11  1  0.50000000  0.58237258  0.75000000  1
