# generated using pymatgen
data_Y2Mg
_symmetry_space_group_name_H-M   'P 1'
_cell_length_a   3.71694335
_cell_length_b   17.43086559
_cell_length_c   5.57494711
_cell_angle_alpha   90.00000000
_cell_angle_beta   90.00000000
_cell_angle_gamma   90.00000000
_symmetry_Int_Tables_number   1
_chemical_formula_structural   Y2Mg
_chemical_formula_sum   'Y8 Mg4'
_cell_volume   361.19825844
_cell_formula_units_Z   4
loop_
 _symmetry_equiv_pos_site_id
 _symmetry_equiv_pos_as_xyz
  1  'x, y, z'
loop_
 _atom_site_type_symbol
 _atom_site_label
 _atom_site_symmetry_multiplicity
 _atom_site_fract_x
 _atom_site_fract_y
 _atom_site_fract_z
 _atom_site_occupancy
  Y  Y0  1  0.50000000  0.38465159  0.25000000  1
  Y  Y1  1  0.50000000  0.06011585  0.25000000  1
  Y  Y2  1  -0.00000000  0.43988415  0.75000000  1
  Y  Y3  1  0.00000000  0.11534841  0.75000000  1
  Y  Y4  1  -0.00000000  0.88465159  0.25000000  1
  Y  Y5  1  0.00000000  0.56011585  0.25000000  1
  Y  Y6  1  0.50000000  0.93988415  0.75000000  1
  Y  Y7  1  0.50000000  0.61534841  0.75000000  1
  Mg  Mg8  1  -0.00000000  0.22270954  0.25000000  1
  Mg  Mg9  1  0.50000000  0.27729046  0.75000000  1
  Mg  Mg10  1  0.50000000  0.72270954  0.25000000  1
  Mg  Mg11  1  0.00000000  0.77729046  0.75000000  1
