# generated using pymatgen
data_Mg5Sn
_symmetry_space_group_name_H-M   'P 1'
_cell_length_a   5.53080652
_cell_length_b   5.53080665
_cell_length_c   15.73638303
_cell_angle_alpha   90.00000000
_cell_angle_beta   90.00000000
_cell_angle_gamma   119.99999922
_symmetry_Int_Tables_number   1
_chemical_formula_structural   Mg5Sn
_chemical_formula_sum   'Mg15 Sn3'
_cell_volume   416.88137783
_cell_formula_units_Z   3
loop_
 _symmetry_equiv_pos_site_id
 _symmetry_equiv_pos_as_xyz
  1  'x, y, z'
loop_
 _atom_site_type_symbol
 _atom_site_label
 _atom_site_symmetry_multiplicity
 _atom_site_fract_x
 _atom_site_fract_y
 _atom_site_fract_z
 _atom_site_occupancy
  Mg  Mg0  1  0.33354661  0.00021361  0.33333300  1
  Mg  Mg1  1  0.66666700  0.33333300  0.16643704  1
  Mg  Mg2  1  0.99978639  0.33333300  0.33333300  1
  Mg  Mg3  1  0.66666700  0.66645339  0.33333300  1
  Mg  Mg4  1  -0.00000000  -0.00000000  0.16689696  1
  Mg  Mg5  1  0.00021361  0.33354661  0.66666700  1
  Mg  Mg6  1  0.33333300  0.66666700  0.49977004  1
  Mg  Mg7  1  0.66645339  0.66666700  0.66666700  1
  Mg  Mg8  1  0.33333300  0.99978639  0.66666700  1
  Mg  Mg9  1  0.66666700  0.33333300  0.50022996  1
  Mg  Mg10  1  0.66688061  0.66688061  0.00000000  1
  Mg  Mg11  1  -0.00000000  0.00000000  0.83310304  1
  Mg  Mg12  1  0.33311939  0.00000000  -0.00000000  1
  Mg  Mg13  1  1.00000000  0.33311939  -0.00000000  1
  Mg  Mg14  1  0.33333300  0.66666700  0.83356296  1
  Sn  Sn15  1  0.33333300  0.66666700  0.16666700  1
  Sn  Sn16  1  -0.00000000  0.00000000  0.50000000  1
  Sn  Sn17  1  0.66666700  0.33333300  0.83333300  1
