# generated using pymatgen
data_K
_symmetry_space_group_name_H-M   'P 1'
_cell_length_a   5.43192849
_cell_length_b   10.81724083
_cell_length_c   10.92195117
_cell_angle_alpha   90.00000000
_cell_angle_beta   90.00000000
_cell_angle_gamma   90.00000000
_symmetry_Int_Tables_number   1
_chemical_formula_structural   K
_chemical_formula_sum   K8
_cell_volume   641.75723461
_cell_formula_units_Z   8
loop_
 _symmetry_equiv_pos_site_id
 _symmetry_equiv_pos_as_xyz
  1  'x, y, z'
loop_
 _atom_site_type_symbol
 _atom_site_label
 _atom_site_symmetry_multiplicity
 _atom_site_fract_x
 _atom_site_fract_y
 _atom_site_fract_z
 _atom_site_occupancy
  K  K0  1  0.75000000  0.47014245  0.66127842  1
  K  K1  1  0.75000000  0.97014245  0.83872158  1
  K  K2  1  0.25000000  0.52985755  0.33872158  1
  K  K3  1  0.25000000  0.02985755  0.16127842  1
  K  K4  1  0.75000000  0.34633246  0.06764570  1
  K  K5  1  0.75000000  0.84633246  0.43235430  1
  K  K6  1  0.25000000  0.65366754  0.93235430  1
  K  K7  1  0.25000000  0.15366754  0.56764570  1
