# generated using pymatgen
data_Cs2Se
_symmetry_space_group_name_H-M   'P 1'
_cell_length_a   5.42580722
_cell_length_b   8.75898980
_cell_length_c   6.50240109
_cell_angle_alpha   90.00000000
_cell_angle_beta   65.27220003
_cell_angle_gamma   90.00000000
_symmetry_Int_Tables_number   1
_chemical_formula_structural   Cs2Se
_chemical_formula_sum   'Cs4 Se2'
_cell_volume   280.68809494
_cell_formula_units_Z   2
loop_
 _symmetry_equiv_pos_site_id
 _symmetry_equiv_pos_as_xyz
  1  'x, y, z'
loop_
 _atom_site_type_symbol
 _atom_site_label
 _atom_site_symmetry_multiplicity
 _atom_site_fract_x
 _atom_site_fract_y
 _atom_site_fract_z
 _atom_site_occupancy
  Cs  Cs0  1  0.51446225  0.54137943  0.47046197  1
  Cs  Cs1  1  0.48553775  0.04137943  0.52953803  1
  Cs  Cs2  1  0.19250374  0.82284872  0.11744259  1
  Cs  Cs3  1  0.80749626  0.32284872  0.88255741  1
  Se  Se4  1  0.87946216  0.76077186  0.74316277  1
  Se  Se5  1  0.12053784  0.26077186  0.25683723  1
