# generated using pymatgen
data_Mg2Zn
_symmetry_space_group_name_H-M   'P 1'
_cell_length_a   3.10575018
_cell_length_b   15.53305557
_cell_length_c   4.95529324
_cell_angle_alpha   90.00000000
_cell_angle_beta   90.00000000
_cell_angle_gamma   90.00000000
_symmetry_Int_Tables_number   1
_chemical_formula_structural   Mg2Zn
_chemical_formula_sum   'Mg8 Zn4'
_cell_volume   239.05221653
_cell_formula_units_Z   4
loop_
 _symmetry_equiv_pos_site_id
 _symmetry_equiv_pos_as_xyz
  1  'x, y, z'
loop_
 _atom_site_type_symbol
 _atom_site_label
 _atom_site_symmetry_multiplicity
 _atom_site_fract_x
 _atom_site_fract_y
 _atom_site_fract_z
 _atom_site_occupancy
  Mg  Mg0  1  -0.00000000  0.37824690  0.25000000  1
  Mg  Mg1  1  -0.00000000  0.06040264  0.25000000  1
  Mg  Mg2  1  0.50000000  0.43959736  0.75000000  1
  Mg  Mg3  1  0.50000000  0.12175310  0.75000000  1
  Mg  Mg4  1  0.50000000  0.87824690  0.25000000  1
  Mg  Mg5  1  0.50000000  0.56040264  0.25000000  1
  Mg  Mg6  1  0.00000000  0.93959736  0.75000000  1
  Mg  Mg7  1  0.00000000  0.62175310  0.75000000  1
  Zn  Zn8  1  0.50000000  0.22221548  0.25000000  1
  Zn  Zn9  1  0.00000000  0.27778452  0.75000000  1
  Zn  Zn10  1  -0.00000000  0.72221548  0.25000000  1
  Zn  Zn11  1  0.50000000  0.77778452  0.75000000  1
