# generated using pymatgen
data_Ba5(SnS4)2
_symmetry_space_group_name_H-M   'P 1'
_cell_length_a   12.16417093
_cell_length_b   12.14394896
_cell_length_c   13.47198449
_cell_angle_alpha   63.21067772
_cell_angle_beta   90.00000000
_cell_angle_gamma   90.00000000
_symmetry_Int_Tables_number   1
_chemical_formula_structural   Ba5(SnS4)2
_chemical_formula_sum   'Ba20 Sn8 S32'
_cell_volume   1776.49863525
_cell_formula_units_Z   4
loop_
 _symmetry_equiv_pos_site_id
 _symmetry_equiv_pos_as_xyz
  1  'x, y, z'
loop_
 _atom_site_type_symbol
 _atom_site_label
 _atom_site_symmetry_multiplicity
 _atom_site_fract_x
 _atom_site_fract_y
 _atom_site_fract_z
 _atom_site_occupancy
  Ba  Ba0  1  0.83426023  0.10161198  0.80763475  1
  Ba  Ba1  1  0.16573977  0.09075327  0.80763475  1
  Ba  Ba2  1  0.33426023  0.59075327  0.80763475  1
  Ba  Ba3  1  0.66573977  0.60161198  0.80763475  1
  Ba  Ba4  1  0.16573977  0.89838802  0.19236525  1
  Ba  Ba5  1  0.83426023  0.90924673  0.19236525  1
  Ba  Ba6  1  0.66573977  0.40924673  0.19236525  1
  Ba  Ba7  1  0.33426023  0.39838802  0.19236525  1
  Ba  Ba8  1  0.00188759  0.43163601  0.80551637  1
  Ba  Ba9  1  0.99811241  0.76284762  0.80551637  1
  Ba  Ba10  1  0.50188759  0.26284762  0.80551637  1
  Ba  Ba11  1  0.49811241  0.93163601  0.80551637  1
  Ba  Ba12  1  0.99811241  0.56836399  0.19448363  1
  Ba  Ba13  1  0.00188759  0.23715238  0.19448363  1
  Ba  Ba14  1  0.49811241  0.73715238  0.19448363  1
  Ba  Ba15  1  0.50188759  0.06836399  0.19448363  1
  Ba  Ba16  1  0.25000000  0.49272727  0.50000000  1
  Ba  Ba17  1  0.75000000  0.00727273  0.50000000  1
  Ba  Ba18  1  0.75000000  0.50727273  0.50000000  1
  Ba  Ba19  1  0.25000000  0.99272727  0.50000000  1
  Sn  Sn20  1  0.24772026  0.73136811  0.00000000  1
  Sn  Sn21  1  0.75227974  0.26863189  1.00000000  1
  Sn  Sn22  1  0.74772026  0.76863189  1.00000000  1
  Sn  Sn23  1  0.25227974  0.23136811  0.00000000  1
  Sn  Sn24  1  0.50000000  0.75043182  0.49913636  1
  Sn  Sn25  1  -0.00000000  0.25043182  0.49913636  1
  Sn  Sn26  1  0.50000000  0.24956818  0.50086364  1
  Sn  Sn27  1  -0.00000000  0.74956818  0.50086364  1
  S  S28  1  0.14809182  0.53354128  1.00000000  1
  S  S29  1  0.85190818  0.46645872  0.00000000  1
  S  S30  1  0.64809182  0.96645872  0.00000000  1
  S  S31  1  0.35190818  0.03354128  1.00000000  1
  S  S32  1  0.84917498  0.68791635  0.62765077  1
  S  S33  1  0.15082502  0.68443287  0.62765077  1
  S  S34  1  0.34917498  0.18443287  0.62765077  1
  S  S35  1  0.65082502  0.18791635  0.62765077  1
  S  S36  1  0.15082502  0.31208365  0.37234923  1
  S  S37  1  0.84917498  0.31556713  0.37234923  1
  S  S38  1  0.65082502  0.81556713  0.37234923  1
  S  S39  1  0.34917498  0.81208365  0.37234923  1
  S  S40  1  0.50498046  0.53591766  0.62682172  1
  S  S41  1  0.49501954  0.83726063  0.62682172  1
  S  S42  1  0.00498046  0.33726063  0.62682172  1
  S  S43  1  0.99501954  0.03591766  0.62682172  1
  S  S44  1  0.49501954  0.46408234  0.37317828  1
  S  S45  1  0.50498046  0.16273937  0.37317828  1
  S  S46  1  0.99501954  0.66273937  0.37317828  1
  S  S47  1  0.00498046  0.96408234  0.37317828  1
  S  S48  1  0.24930215  0.63121217  0.22973914  1
  S  S49  1  0.75069785  0.13904869  0.22973914  1
  S  S50  1  0.74930215  0.63904869  0.22973914  1
  S  S51  1  0.25069785  0.13121217  0.22973914  1
  S  S52  1  0.75069785  0.36878783  0.77026086  1
  S  S53  1  0.24930215  0.86095131  0.77026086  1
  S  S54  1  0.25069785  0.36095131  0.77026086  1
  S  S55  1  0.74930215  0.86878783  0.77026086  1
  S  S56  1  0.45464494  0.65155968  0.00000000  1
  S  S57  1  0.54535506  0.34844032  1.00000000  1
  S  S58  1  0.95464494  0.84844032  1.00000000  1
  S  S59  1  0.04535506  0.15155968  0.00000000  1
