# generated using pymatgen
data_Mg2Zn
_symmetry_space_group_name_H-M   'P 1'
_cell_length_a   11.16227744
_cell_length_b   3.10999477
_cell_length_c   7.17988975
_cell_angle_alpha   90.00000000
_cell_angle_beta   106.42882249
_cell_angle_gamma   90.00000000
_symmetry_Int_Tables_number   1
_chemical_formula_structural   Mg2Zn
_chemical_formula_sum   'Mg8 Zn4'
_cell_volume   239.07086828
_cell_formula_units_Z   4
loop_
 _symmetry_equiv_pos_site_id
 _symmetry_equiv_pos_as_xyz
  1  'x, y, z'
loop_
 _atom_site_type_symbol
 _atom_site_label
 _atom_site_symmetry_multiplicity
 _atom_site_fract_x
 _atom_site_fract_y
 _atom_site_fract_z
 _atom_site_occupancy
  Mg  Mg0  1  0.35729437  0.50000000  0.96366660  1
  Mg  Mg1  1  0.46981922  0.00000000  0.68393521  1
  Mg  Mg2  1  0.03018078  0.50000000  0.31606479  1
  Mg  Mg3  1  0.14270563  0.00000000  0.03633340  1
  Mg  Mg4  1  0.85729437  0.00000000  0.96366660  1
  Mg  Mg5  1  0.96981922  0.50000000  0.68393521  1
  Mg  Mg6  1  0.53018078  0.00000000  0.31606479  1
  Mg  Mg7  1  0.64270563  0.50000000  0.03633340  1
  Zn  Zn8  1  0.19654660  -0.00000000  0.63831963  1
  Zn  Zn9  1  0.30345340  0.50000000  0.36168037  1
  Zn  Zn10  1  0.69654660  0.50000000  0.63831963  1
  Zn  Zn11  1  0.80345340  0.00000000  0.36168037  1
