# generated using pymatgen
data_YUAl4
_symmetry_space_group_name_H-M   'P 1'
_cell_length_a   5.53526650
_cell_length_b   5.53526650
_cell_length_c   5.53526650
_cell_angle_alpha   90.00000000
_cell_angle_beta   60.00000000
_cell_angle_gamma   120.00000000
_symmetry_Int_Tables_number   1
_chemical_formula_structural   YUAl4
_chemical_formula_sum   'Y1 U1 Al4'
_cell_volume   119.92248201
_cell_formula_units_Z   1
loop_
 _symmetry_equiv_pos_site_id
 _symmetry_equiv_pos_as_xyz
  1  'x, y, z'
loop_
 _atom_site_type_symbol
 _atom_site_label
 _atom_site_symmetry_multiplicity
 _atom_site_fract_x
 _atom_site_fract_y
 _atom_site_fract_z
 _atom_site_occupancy
  Y  Y0  1  0.00000000  0.00000000  -0.00000000  1
  U  U1  1  0.50000000  0.75000000  0.75000000  1
  Al  Al2  1  0.75108097  0.37554048  0.87337855  1
  Al  Al3  1  0.24891903  0.37554048  0.37554048  1
  Al  Al4  1  0.24891903  0.87337855  0.37554048  1
  Al  Al5  1  0.75108097  0.37554048  0.37554048  1
