# generated using pymatgen
data_Mg5Bi
_symmetry_space_group_name_H-M   'P 1'
_cell_length_a   11.84316101
_cell_length_b   3.33708407
_cell_length_c   7.76696332
_cell_angle_alpha   90.00000000
_cell_angle_beta   106.44904439
_cell_angle_gamma   90.00000000
_symmetry_Int_Tables_number   1
_chemical_formula_structural   Mg5Bi
_chemical_formula_sum   'Mg10 Bi2'
_cell_volume   294.39960419
_cell_formula_units_Z   2
loop_
 _symmetry_equiv_pos_site_id
 _symmetry_equiv_pos_as_xyz
  1  'x, y, z'
loop_
 _atom_site_type_symbol
 _atom_site_label
 _atom_site_symmetry_multiplicity
 _atom_site_fract_x
 _atom_site_fract_y
 _atom_site_fract_z
 _atom_site_occupancy
  Mg  Mg0  1  0.00269477  0.00000000  0.99446443  1
  Mg  Mg1  1  0.16577575  0.50000000  0.33387399  1
  Mg  Mg2  1  0.05813249  -0.00000000  0.61581685  1
  Mg  Mg3  1  0.33164802  0.00000000  0.67053016  1
  Mg  Mg4  1  0.21860587  0.50000000  0.93819680  1
  Mg  Mg5  1  0.50269477  0.50000000  0.99446443  1
  Mg  Mg6  1  0.66577575  -0.00000000  0.33387399  1
  Mg  Mg7  1  0.55813249  0.50000000  0.61581685  1
  Mg  Mg8  1  0.83164802  0.50000000  0.67053016  1
  Mg  Mg9  1  0.71860587  0.00000000  0.93819680  1
  Bi  Bi10  1  0.38981010  0.00000000  0.28045077  1
  Bi  Bi11  1  0.88981010  0.50000000  0.28045077  1
