# generated using pymatgen
data_Sr5Mg
_symmetry_space_group_name_H-M   'P 1'
_cell_length_a   6.64819428
_cell_length_b   4.23713266
_cell_length_c   20.80901573
_cell_angle_alpha   90.00000000
_cell_angle_beta   90.00000000
_cell_angle_gamma   90.00000000
_symmetry_Int_Tables_number   1
_chemical_formula_structural   Sr5Mg
_chemical_formula_sum   'Sr10 Mg2'
_cell_volume   586.17501380
_cell_formula_units_Z   2
loop_
 _symmetry_equiv_pos_site_id
 _symmetry_equiv_pos_as_xyz
  1  'x, y, z'
loop_
 _atom_site_type_symbol
 _atom_site_label
 _atom_site_symmetry_multiplicity
 _atom_site_fract_x
 _atom_site_fract_y
 _atom_site_fract_z
 _atom_site_occupancy
  Sr  Sr0  1  0.00000000  -0.00000000  0.00086140  1
  Sr  Sr1  1  0.00000000  -0.00000000  0.67429463  1
  Sr  Sr2  1  0.00000000  0.50000000  0.83032043  1
  Sr  Sr3  1  0.50000000  0.00000000  0.56810287  1
  Sr  Sr4  1  0.50000000  0.00000000  0.87267650  1
  Sr  Sr5  1  0.00000000  0.50000000  0.50086140  1
  Sr  Sr6  1  0.00000000  0.50000000  0.17429463  1
  Sr  Sr7  1  0.00000000  -0.00000000  0.33032043  1
  Sr  Sr8  1  0.50000000  0.50000000  0.06810287  1
  Sr  Sr9  1  0.50000000  0.50000000  0.37267650  1
  Mg  Mg10  1  0.50000000  0.50000000  0.72041117  1
  Mg  Mg11  1  0.50000000  -0.00000000  0.22041117  1
