# generated using pymatgen
data_ScBiO3
_symmetry_space_group_name_H-M   'P 1'
_cell_length_a   5.70557205
_cell_length_b   6.01484037
_cell_length_c   5.70557148
_cell_angle_alpha   118.31320680
_cell_angle_beta   60.00000329
_cell_angle_gamma   118.31320590
_symmetry_Int_Tables_number   1
_chemical_formula_structural   ScBiO3
_chemical_formula_sum   'Sc2 Bi2 O6'
_cell_volume   141.88024502
_cell_formula_units_Z   2
loop_
 _symmetry_equiv_pos_site_id
 _symmetry_equiv_pos_as_xyz
  1  'x, y, z'
loop_
 _atom_site_type_symbol
 _atom_site_label
 _atom_site_symmetry_multiplicity
 _atom_site_fract_x
 _atom_site_fract_y
 _atom_site_fract_z
 _atom_site_occupancy
  Sc  Sc0  1  0.14863609  0.44590926  0.14863609  1
  Sc  Sc1  1  0.85136391  0.55409074  0.85136391  1
  Bi  Bi2  1  0.36305029  0.08915086  0.36305029  1
  Bi  Bi3  1  0.63694971  0.91084914  0.63694971  1
  O  O4  1  0.02289177  0.26325904  0.44662216  1
  O  O5  1  0.55337784  0.73674096  0.20625489  1
  O  O6  1  0.20625489  0.73674096  0.97710823  1
  O  O7  1  0.79374511  0.26325904  0.02289177  1
  O  O8  1  0.44662216  0.26325904  0.79374511  1
  O  O9  1  0.97710823  0.73674096  0.55337784  1
