# generated using pymatgen
data_Sb(PO3)5
_symmetry_space_group_name_H-M   'P 1'
_cell_length_a   10.44434779
_cell_length_b   14.01926137
_cell_length_c   9.22207820
_cell_angle_alpha   90.00000000
_cell_angle_beta   67.13453200
_cell_angle_gamma   90.00000000
_symmetry_Int_Tables_number   1
_chemical_formula_structural   Sb(PO3)5
_chemical_formula_sum   'Sb4 P20 O60'
_cell_volume   1244.20740190
_cell_formula_units_Z   4
loop_
 _symmetry_equiv_pos_site_id
 _symmetry_equiv_pos_as_xyz
  1  'x, y, z'
loop_
 _atom_site_type_symbol
 _atom_site_label
 _atom_site_symmetry_multiplicity
 _atom_site_fract_x
 _atom_site_fract_y
 _atom_site_fract_z
 _atom_site_occupancy
  Sb  Sb0  1  0.00002755  0.99998580  0.49993370  1
  Sb  Sb1  1  0.49997245  0.00001420  0.50006630  1
  Sb  Sb2  1  0.50002755  0.50001420  0.49993370  1
  Sb  Sb3  1  0.99997245  0.49998580  0.50006630  1
  P  P4  1  0.26011275  0.25015384  0.01931524  1
  P  P5  1  0.23340144  0.91632124  0.16460640  1
  P  P6  1  0.23342800  0.58352226  0.16476451  1
  P  P7  1  0.25556548  0.85634240  0.47042567  1
  P  P8  1  0.25554242  0.64362429  0.47054779  1
  P  P9  1  0.24445758  0.35637571  0.52945221  1
  P  P10  1  0.24443452  0.14365760  0.52957433  1
  P  P11  1  0.26657200  0.41647774  0.83523549  1
  P  P12  1  0.26659856  0.08367876  0.83539360  1
  P  P13  1  0.23988725  0.74984616  0.98068476  1
  P  P14  1  0.76011275  0.24984616  0.01931524  1
  P  P15  1  0.73340144  0.58367876  0.16460640  1
  P  P16  1  0.73342800  0.91647774  0.16476451  1
  P  P17  1  0.75556548  0.64365760  0.47042567  1
  P  P18  1  0.75554242  0.85637571  0.47054779  1
  P  P19  1  0.74445758  0.14362429  0.52945221  1
  P  P20  1  0.74443452  0.35634240  0.52957433  1
  P  P21  1  0.76657200  0.08352226  0.83523549  1
  P  P22  1  0.76659856  0.41632124  0.83539360  1
  P  P23  1  0.73988725  0.75015384  0.98068476  1
  O  O24  1  0.11583975  0.25013310  0.02789898  1
  O  O25  1  0.15244304  0.83870833  0.11451730  1
  O  O26  1  0.15241618  0.66113409  0.11475526  1
  O  O27  1  0.11610140  0.51403991  0.27848016  1
  O  O28  1  0.11605345  0.98581550  0.27833095  1
  O  O29  1  0.11203573  0.37989920  0.50267782  1
  O  O30  1  0.11201720  0.12007528  0.50280893  1
  O  O31  1  0.13108269  0.91960688  0.56704883  1
  O  O32  1  0.13102755  0.58038656  0.56719122  1
  O  O33  1  0.28114295  0.85549471  0.29485942  1
  O  O34  1  0.28121992  0.64435480  0.29495072  1
  O  O35  1  0.35479270  0.96665448  0.05548856  1
  O  O36  1  0.31104519  0.25025198  0.14674764  1
  O  O37  1  0.35480497  0.53317641  0.05561142  1
  O  O38  1  0.21512349  0.74999454  0.52921762  1
  O  O39  1  0.28487651  0.25000546  0.47078238  1
  O  O40  1  0.14519503  0.46682359  0.94438858  1
  O  O41  1  0.18895481  0.74974802  0.85325236  1
  O  O42  1  0.14520730  0.03334552  0.94451144  1
  O  O43  1  0.21878008  0.35564520  0.70504928  1
  O  O44  1  0.21885705  0.14450529  0.70514058  1
  O  O45  1  0.36897245  0.41961344  0.43280878  1
  O  O46  1  0.36891731  0.08039312  0.43295117  1
  O  O47  1  0.38798280  0.87992472  0.49719107  1
  O  O48  1  0.38796427  0.62010080  0.49732218  1
  O  O49  1  0.38394655  0.01418450  0.72166905  1
  O  O50  1  0.38389860  0.48596009  0.72151984  1
  O  O51  1  0.61583975  0.24986690  0.02789898  1
  O  O52  1  0.34758382  0.33886591  0.88524474  1
  O  O53  1  0.34755696  0.16129167  0.88548270  1
  O  O54  1  0.65244304  0.66129167  0.11451730  1
  O  O55  1  0.65241618  0.83886591  0.11475526  1
  O  O56  1  0.38416025  0.74986690  0.97210102  1
  O  O57  1  0.61610140  0.98596009  0.27848016  1
  O  O58  1  0.61605345  0.51418450  0.27833095  1
  O  O59  1  0.61203573  0.12010080  0.50267782  1
  O  O60  1  0.61201720  0.37992472  0.50280893  1
  O  O61  1  0.63108269  0.58039312  0.56704883  1
  O  O62  1  0.63102755  0.91961344  0.56719122  1
  O  O63  1  0.78114295  0.64450529  0.29485942  1
  O  O64  1  0.78121992  0.85564520  0.29495072  1
  O  O65  1  0.85479270  0.53334552  0.05548856  1
  O  O66  1  0.81104519  0.24974802  0.14674764  1
  O  O67  1  0.85480497  0.96682359  0.05561142  1
  O  O68  1  0.71512349  0.75000546  0.52921762  1
  O  O69  1  0.78487651  0.24999454  0.47078238  1
  O  O70  1  0.64519503  0.03317641  0.94438858  1
  O  O71  1  0.68895481  0.75025198  0.85325236  1
  O  O72  1  0.64520730  0.46665448  0.94451144  1
  O  O73  1  0.71878008  0.14435480  0.70504928  1
  O  O74  1  0.71885705  0.35549471  0.70514058  1
  O  O75  1  0.86897245  0.08038656  0.43280878  1
  O  O76  1  0.86891731  0.41960688  0.43295117  1
  O  O77  1  0.88798280  0.62007528  0.49719107  1
  O  O78  1  0.88796427  0.87989920  0.49732218  1
  O  O79  1  0.88394655  0.48581550  0.72166905  1
  O  O80  1  0.88389860  0.01403991  0.72151984  1
  O  O81  1  0.84758382  0.16113409  0.88524474  1
  O  O82  1  0.84755696  0.33870833  0.88548270  1
  O  O83  1  0.88416025  0.75013310  0.97210102  1
