# generated using pymatgen
data_Ti3Cr2Co(PO4)6
_symmetry_space_group_name_H-M   'P 1'
_cell_length_a   8.64684167
_cell_length_b   8.64684180
_cell_length_c   8.64684165
_cell_angle_alpha   59.93554368
_cell_angle_beta   59.93554108
_cell_angle_gamma   59.93554143
_symmetry_Int_Tables_number   1
_chemical_formula_structural   Ti3Cr2Co(PO4)6
_chemical_formula_sum   'Ti3 Cr2 Co1 P6 O24'
_cell_volume   456.48038312
_cell_formula_units_Z   1
loop_
 _symmetry_equiv_pos_site_id
 _symmetry_equiv_pos_as_xyz
  1  'x, y, z'
loop_
 _atom_site_type_symbol
 _atom_site_label
 _atom_site_symmetry_multiplicity
 _atom_site_fract_x
 _atom_site_fract_y
 _atom_site_fract_z
 _atom_site_occupancy
  Ti  Ti0  1  0.14433949  0.14433949  0.14433949  1
  Ti  Ti1  1  0.35487138  0.35487138  0.35487138  1
  Ti  Ti2  1  0.64595388  0.64595388  0.64595388  1
  Cr  Cr3  1  0.99714504  0.99714504  0.99714504  1
  Cr  Cr4  1  0.49945239  0.49945239  0.49945239  1
  Co  Co5  1  0.85511828  0.85511828  0.85511828  1
  P  P6  1  0.04331618  0.75159206  0.45789694  1
  P  P7  1  0.45789694  0.04331618  0.75159206  1
  P  P8  1  0.25026146  0.54346709  0.95727456  1
  P  P9  1  0.54346709  0.95727456  0.25026146  1
  P  P10  1  0.95727456  0.25026146  0.54346709  1
  P  P11  1  0.75159206  0.45789694  0.04331618  1
  O  O12  1  0.12016325  0.31287754  0.49373403  1
  O  O13  1  0.31287754  0.49373403  0.12016325  1
  O  O14  1  0.05801816  0.91498549  0.26072866  1
  O  O15  1  0.49373403  0.12016325  0.31287754  1
  O  O16  1  0.01282521  0.80659763  0.61274278  1
  O  O17  1  0.23500293  0.58378793  0.43428185  1
  O  O18  1  0.26072866  0.05801816  0.91498549  1
  O  O19  1  0.43428185  0.23500293  0.58378793  1
  O  O20  1  0.19420976  0.37764791  0.00023538  1
  O  O21  1  0.58378793  0.43428185  0.23500293  1
  O  O22  1  0.08908906  0.73435088  0.94685563  1
  O  O23  1  0.37764791  0.00023538  0.19420976  1
  O  O24  1  0.61274278  0.01282521  0.80659763  1
  O  O25  1  0.91498549  0.26072866  0.05801816  1
  O  O26  1  0.41817681  0.55466318  0.76623483  1
  O  O27  1  0.80659763  0.61274278  0.01282521  1
  O  O28  1  0.55466318  0.76623483  0.41817681  1
  O  O29  1  0.73435088  0.94685563  0.08908906  1
  O  O30  1  0.76623483  0.41817681  0.55466318  1
  O  O31  1  0.00023538  0.19420976  0.37764791  1
  O  O32  1  0.49974870  0.87758282  0.69477281  1
  O  O33  1  0.94685563  0.08908906  0.73435088  1
  O  O34  1  0.69477281  0.49974870  0.87758282  1
  O  O35  1  0.87758282  0.69477281  0.49974870  1
