# generated using pymatgen
data_LiCeMg14
_symmetry_space_group_name_H-M   'P 1'
_cell_length_a   6.50461576
_cell_length_b   6.42872358
_cell_length_c   10.38949924
_cell_angle_alpha   90.00000000
_cell_angle_beta   90.00000000
_cell_angle_gamma   119.61479216
_symmetry_Int_Tables_number   1
_chemical_formula_structural   LiCeMg14
_chemical_formula_sum   'Li1 Ce1 Mg14'
_cell_volume   377.69771309
_cell_formula_units_Z   1
loop_
 _symmetry_equiv_pos_site_id
 _symmetry_equiv_pos_as_xyz
  1  'x, y, z'
loop_
 _atom_site_type_symbol
 _atom_site_label
 _atom_site_symmetry_multiplicity
 _atom_site_fract_x
 _atom_site_fract_y
 _atom_site_fract_z
 _atom_site_occupancy
  Li  Li0  1  0.16999964  0.33499932  0.12500000  1
  Ce  Ce1  1  0.16623118  0.83311509  0.12500000  1
  Mg  Mg2  1  0.16716672  0.33358286  0.62500000  1
  Mg  Mg3  1  0.16627805  0.83313852  0.62500000  1
  Mg  Mg4  1  0.66342770  0.33619515  0.12500000  1
  Mg  Mg5  1  0.66642410  0.33377811  0.62500000  1
  Mg  Mg6  1  0.66342770  0.82723154  0.12500000  1
  Mg  Mg7  1  0.66642410  0.83264499  0.62500000  1
  Mg  Mg8  1  0.33457646  0.16958960  0.37787987  1
  Mg  Mg9  1  0.33457646  0.16958960  0.87212013  1
  Mg  Mg10  1  0.33457646  0.66498786  0.37787987  1
  Mg  Mg11  1  0.33457646  0.66498786  0.87212013  1
  Mg  Mg12  1  0.83446276  0.16723188  0.37188641  1
  Mg  Mg13  1  0.83446276  0.16723188  0.87811359  1
  Mg  Mg14  1  0.83169473  0.66584786  0.37825892  1
  Mg  Mg15  1  0.83169473  0.66584786  0.87174108  1
