# generated using pymatgen
data_Zn(FeO2)2
_symmetry_space_group_name_H-M   'P 1'
_cell_length_a   6.04049674
_cell_length_b   6.04049703
_cell_length_c   24.16479912
_cell_angle_alpha   60.00385440
_cell_angle_beta   60.00385287
_cell_angle_gamma   59.99999815
_symmetry_Int_Tables_number   1
_chemical_formula_structural   Zn(FeO2)2
_chemical_formula_sum   'Zn8 Fe16 O32'
_cell_volume   623.50337553
_cell_formula_units_Z   8
loop_
 _symmetry_equiv_pos_site_id
 _symmetry_equiv_pos_as_xyz
  1  'x, y, z'
loop_
 _atom_site_type_symbol
 _atom_site_label
 _atom_site_symmetry_multiplicity
 _atom_site_fract_x
 _atom_site_fract_y
 _atom_site_fract_z
 _atom_site_occupancy
  Zn  Zn0  1  0.00458643  0.00458643  0.99656018  1
  Zn  Zn1  1  0.00317942  0.00317942  0.24761544  1
  Zn  Zn2  1  0.62654897  0.62654897  0.03008827  1
  Zn  Zn3  1  -0.00051240  -0.00051240  0.50038430  1
  Zn  Zn4  1  0.99945568  0.99945568  0.75040824  1
  Zn  Zn5  1  0.62733878  0.62733878  0.27949592  1
  Zn  Zn6  1  0.24983052  0.24983052  0.56262711  1
  Zn  Zn7  1  0.24687052  0.24687052  0.81484711  1
  Fe  Fe8  1  0.24709109  0.24709109  0.06468168  1
  Fe  Fe9  1  0.12076490  0.62640972  0.15660392  1
  Fe  Fe10  1  0.62640972  0.12076490  0.15660392  1
  Fe  Fe11  1  0.24748569  0.24748569  0.31438573  1
  Fe  Fe12  1  0.62640972  0.62640972  0.15660392  1
  Fe  Fe13  1  0.12214976  0.62613166  0.40639673  1
  Fe  Fe14  1  0.62613166  0.12214976  0.40639673  1
  Fe  Fe15  1  0.62613166  0.62613166  0.40639673  1
  Fe  Fe16  1  0.12360571  0.62425850  0.65696932  1
  Fe  Fe17  1  0.62425850  0.12360571  0.65696932  1
  Fe  Fe18  1  0.62350597  0.62350597  0.53237053  1
  Fe  Fe19  1  0.62425850  0.62425850  0.65696932  1
  Fe  Fe20  1  0.12083563  0.62584015  0.90687102  1
  Fe  Fe21  1  0.62353797  0.62353797  0.78234652  1
  Fe  Fe22  1  0.62584015  0.12083563  0.90687102  1
  Fe  Fe23  1  0.62584015  0.62584015  0.90687102  1
  O  O24  1  0.37698484  0.37698484  0.09782284  1
  O  O25  1  0.38276168  0.38276168  0.21292874  1
  O  O26  1  0.37698484  0.85473898  0.09782284  1
  O  O27  1  0.85473898  0.37698484  0.09782284  1
  O  O28  1  0.40389064  0.86983019  0.21411224  1
  O  O29  1  0.37194336  0.37194336  0.34883380  1
  O  O30  1  0.86983019  0.40389064  0.21411224  1
  O  O31  1  0.38838808  0.38838808  0.45870894  1
  O  O32  1  0.37194336  0.86077807  0.34883380  1
  O  O33  1  0.86624277  0.86624277  0.10031792  1
  O  O34  1  0.86983019  0.86983019  0.21411224  1
  O  O35  1  0.86077807  0.37194336  0.34883380  1
  O  O36  1  0.40739382  0.86430671  0.46599819  1
  O  O37  1  0.38596132  0.38596132  0.59570041  1
  O  O38  1  0.86430671  0.40739382  0.46599819  1
  O  O39  1  0.38503369  0.38503369  0.71122473  1
  O  O40  1  0.38596132  0.84527574  0.59570041  1
  O  O41  1  0.86538915  0.86538915  0.35095814  1
  O  O42  1  0.84527574  0.38596132  0.59570041  1
  O  O43  1  0.86430671  0.86430671  0.46599819  1
  O  O44  1  0.40601279  0.86527582  0.71585889  1
  O  O45  1  0.38670264  0.38670264  0.84624063  1
  O  O46  1  0.86527582  0.40601279  0.71585889  1
  O  O47  1  0.37961342  0.37961342  0.96528994  1
  O  O48  1  0.38670264  0.84163219  0.84624063  1
  O  O49  1  0.86500411  0.86500411  0.60124692  1
  O  O50  1  0.84163219  0.38670264  0.84624063  1
  O  O51  1  0.86527582  0.86527582  0.71585889  1
  O  O52  1  0.40480020  0.87199906  0.96280042  1
  O  O53  1  0.87199906  0.40480020  0.96280042  1
  O  O54  1  0.86548213  0.86548213  0.85088841  1
  O  O55  1  0.87199906  0.87199906  0.96280042  1
