# generated using pymatgen
data_Ni(PO3)3
_symmetry_space_group_name_H-M   'P 1'
_cell_length_a   9.78771938
_cell_length_b   9.45546587
_cell_length_c   9.44646567
_cell_angle_alpha   108.62490921
_cell_angle_beta   104.96511193
_cell_angle_gamma   109.71671299
_symmetry_Int_Tables_number   1
_chemical_formula_structural   Ni(PO3)3
_chemical_formula_sum   'Ni4 P12 O36'
_cell_volume   711.23766025
_cell_formula_units_Z   4
loop_
 _symmetry_equiv_pos_site_id
 _symmetry_equiv_pos_as_xyz
  1  'x, y, z'
loop_
 _atom_site_type_symbol
 _atom_site_label
 _atom_site_symmetry_multiplicity
 _atom_site_fract_x
 _atom_site_fract_y
 _atom_site_fract_z
 _atom_site_occupancy
  Ni  Ni0  1  0.72304218  0.77484712  0.25534482  1
  Ni  Ni1  1  0.21173901  0.29117164  0.09242703  1
  Ni  Ni2  1  0.27695782  0.22515288  0.74465518  1
  Ni  Ni3  1  0.78826099  0.70882836  0.90757297  1
  P  P4  1  0.40765051  0.56593860  0.69910070  1
  P  P5  1  0.83714432  0.21707004  0.95031208  1
  P  P6  1  0.29028241  0.66032436  0.42903629  1
  P  P7  1  0.35526888  0.60524767  0.00242386  1
  P  P8  1  0.09767731  0.84608842  0.48831914  1
  P  P9  1  0.92382108  0.09315048  0.18721305  1
  P  P10  1  0.07617892  0.90684952  0.81278695  1
  P  P11  1  0.64473112  0.39475233  0.99757614  1
  P  P12  1  0.59234949  0.43406140  0.30089930  1
  P  P13  1  0.90232269  0.15391158  0.51168086  1
  P  P14  1  0.70971759  0.33967564  0.57096371  1
  P  P15  1  0.16285568  0.78292996  0.04968792  1
  O  O16  1  0.05190705  0.18898887  0.63983871  1
  O  O17  1  0.28136901  0.92520109  0.21535368  1
  O  O18  1  0.75495926  0.48404835  0.72973329  1
  O  O19  1  0.13931546  0.69601777  0.41006728  1
  O  O20  1  0.80089863  0.37404902  0.99531373  1
  O  O21  1  0.49906678  0.74104136  0.15156364  1
  O  O22  1  0.19910137  0.62595098  0.00468627  1
  O  O23  1  0.70291641  0.39565923  0.42702604  1
  O  O24  1  0.34472777  0.37940121  0.63546354  1
  O  O25  1  0.08317901  0.14502250  0.18071846  1
  O  O26  1  0.41928572  0.32808549  0.25309020  1
  O  O27  1  0.29708359  0.60434077  0.57297396  1
  O  O28  1  0.71863099  0.07479891  0.78464632  1
  O  O29  1  0.50093322  0.25895864  0.84843636  1
  O  O30  1  0.65527223  0.62059879  0.36453646  1
  O  O31  1  0.99511783  0.71974800  0.03943404  1
  O  O32  1  0.76007000  0.98591444  0.43823630  1
  O  O33  1  0.81365827  0.90714972  0.11974953  1
  O  O34  1  0.94809295  0.81101113  0.36016129  1
  O  O35  1  0.68539278  0.57638147  0.03551048  1
  O  O36  1  0.23993000  0.01408656  0.56176370  1
  O  O37  1  0.31460722  0.42361853  0.96448952  1
  O  O38  1  0.35991873  0.63743002  0.84698934  1
  O  O39  1  0.91682099  0.85497750  0.81928154  1
  O  O40  1  0.82530401  0.17070489  0.09724977  1
  O  O41  1  0.24504074  0.51595165  0.27026671  1
  O  O42  1  0.55679472  0.18678400  0.51967684  1
  O  O43  1  0.05880517  0.80626081  0.63186795  1
  O  O44  1  0.86068454  0.30398223  0.58993272  1
  O  O45  1  0.64008127  0.36256998  0.15301066  1
  O  O46  1  0.94119483  0.19373919  0.36813205  1
  O  O47  1  0.58071428  0.67191451  0.74690980  1
  O  O48  1  0.17469599  0.82929511  0.90275023  1
  O  O49  1  0.18634173  0.09285028  0.88025047  1
  O  O50  1  0.44320528  0.81321600  0.48032316  1
  O  O51  1  0.00488217  0.28025200  0.96056596  1
