# generated using pymatgen
data_V2H38S4(N2O9)3
_symmetry_space_group_name_H-M   'P 1'
_cell_length_a   7.24670710
_cell_length_b   7.92120995
_cell_length_c   13.61126298
_cell_angle_alpha   90.74073435
_cell_angle_beta   91.92241575
_cell_angle_gamma   83.90241661
_symmetry_Int_Tables_number   1
_chemical_formula_structural   V2H38S4(N2O9)3
_chemical_formula_sum   'V2 H38 S4 N6 O27'
_cell_volume   776.43095409
_cell_formula_units_Z   1
loop_
 _symmetry_equiv_pos_site_id
 _symmetry_equiv_pos_as_xyz
  1  'x, y, z'
loop_
 _atom_site_type_symbol
 _atom_site_label
 _atom_site_symmetry_multiplicity
 _atom_site_fract_x
 _atom_site_fract_y
 _atom_site_fract_z
 _atom_site_occupancy
  V  V0  1  0.45618901  0.57147413  0.76783441  1
  V  V1  1  0.54381099  0.42852587  0.23216559  1
  H  H2  1  0.02199379  0.06027626  0.89667208  1
  H  H3  1  0.10384665  0.56397606  0.00148735  1
  H  H4  1  0.15277161  0.17773761  0.68216983  1
  H  H5  1  0.09829723  0.34017388  0.26767835  1
  H  H6  1  0.10381875  0.53337008  0.28480125  1
  H  H7  1  0.18644567  0.39681350  0.43253263  1
  H  H8  1  0.12954183  0.93166943  0.81208528  1
  H  H9  1  0.17078475  0.34145939  0.74757037  1
  H  H10  1  0.18284492  0.30187702  0.54732448  1
  H  H11  1  0.24470703  0.07605736  0.87620117  1
  H  H12  1  0.18817604  0.90443909  0.93634472  1
  H  H13  1  0.23595786  0.50441905  0.54004584  1
  H  H14  1  0.19034258  0.98623665  0.35808454  1
  H  H15  1  0.27996533  0.81397676  0.42090863  1
  H  H16  1  0.38137487  0.34486236  0.50147387  1
  H  H17  1  0.40336678  0.25897957  0.07703909  1
  H  H18  1  0.42762862  0.12963134  0.16794050  1
  H  H19  1  0.34909484  0.85010697  0.30076467  1
  H  H20  1  0.41774512  0.96392024  0.39606842  1
  H  H21  1  0.58225488  0.03607976  0.60393158  1
  H  H22  1  0.65090516  0.14989303  0.69923533  1
  H  H23  1  0.57237138  0.87036866  0.83205950  1
  H  H24  1  0.59663322  0.74102043  0.92296091  1
  H  H25  1  0.61862513  0.65513764  0.49852613  1
  H  H26  1  0.72003467  0.18602324  0.57909137  1
  H  H27  1  0.80965742  0.01376335  0.64191546  1
  H  H28  1  0.76404214  0.49558095  0.45995416  1
  H  H29  1  0.81182396  0.09556091  0.06365528  1
  H  H30  1  0.75529297  0.92394264  0.12379883  1
  H  H31  1  0.81715508  0.69812298  0.45267552  1
  H  H32  1  0.82921525  0.65854061  0.25242963  1
  H  H33  1  0.87045817  0.06833057  0.18791472  1
  H  H34  1  0.81355433  0.60318650  0.56746737  1
  H  H35  1  0.89618125  0.46662992  0.71519875  1
  H  H36  1  0.90170277  0.65982612  0.73232165  1
  H  H37  1  0.84722839  0.82226239  0.31783017  1
  H  H38  1  0.89615335  0.43602394  0.99851265  1
  H  H39  1  0.97800621  0.93972374  0.10332792  1
  S  S40  1  0.23775070  0.85794072  0.62462743  1
  S  S41  1  0.40881177  0.75648106  0.10105619  1
  S  S42  1  0.59118823  0.24351894  0.89894381  1
  S  S43  1  0.76224930  0.14205928  0.37537257  1
  N  N44  1  0.14633671  0.99141933  0.87993784  1
  N  N45  1  0.24298159  0.38607797  0.50500093  1
  N  N46  1  0.30810654  0.90222921  0.36912178  1
  N  N47  1  0.69189346  0.09777079  0.63087822  1
  N  N48  1  0.75701841  0.61392203  0.49499907  1
  N  N49  1  0.85366329  0.00858067  0.12006216  1
  O  O50  1  0.08039482  0.27236833  0.71567917  1
  O  O51  1  0.06528261  0.87971430  0.68152794  1
  O  O52  1  0.16441483  0.42172532  0.30560797  1
  O  O53  1  0.28378667  0.02377697  0.58812755  1
  O  O54  1  0.22125957  0.73546208  0.54174976  1
  O  O55  1  0.23140154  0.80243160  0.04494598  1
  O  O56  1  0.24905115  0.56113659  0.81156189  1
  O  O57  1  0.39915723  0.24952616  0.15085399  1
  O  O58  1  0.39286785  0.57907289  0.13948892  1
  O  O59  1  0.42677872  0.24496763  0.96012055  1
  O  O60  1  0.46733145  0.44895173  0.66791802  1
  O  O61  1  0.40023000  0.79374039  0.69287275  1
  O  O62  1  0.43033773  0.87375455  0.18586753  1
  O  O63  1  0.56966227  0.12624545  0.81413247  1
  O  O64  1  0.59977000  0.20625961  0.30712725  1
  O  O65  1  0.53266855  0.55104827  0.33208198  1
  O  O66  1  0.57322128  0.75503237  0.03987945  1
  O  O67  1  0.60713215  0.42092711  0.86051108  1
  O  O68  1  0.60084277  0.75047384  0.84914601  1
  O  O69  1  0.75094885  0.43886341  0.18843811  1
  O  O70  1  0.76859846  0.19756840  0.95505402  1
  O  O71  1  0.77874043  0.26453792  0.45825024  1
  O  O72  1  0.71621333  0.97622303  0.41187245  1
  O  O73  1  0.83558517  0.57827468  0.69439203  1
  O  O74  1  0.93471739  0.12028570  0.31847206  1
  O  O75  1  0.91960518  0.72763167  0.28432083  1
  O  O76  1  0.00000000  0.50000000  0.00000000  1
