# generated using pymatgen
data_Li9Mn2Co5O16
_symmetry_space_group_name_H-M   'P 1'
_cell_length_a   5.00219634
_cell_length_b   9.81018255
_cell_length_c   5.86410450
_cell_angle_alpha   89.61348936
_cell_angle_beta   89.94232363
_cell_angle_gamma   100.73133821
_symmetry_Int_Tables_number   1
_chemical_formula_structural   Li9Mn2Co5O16
_chemical_formula_sum   'Li9 Mn2 Co5 O16'
_cell_volume   282.72613436
_cell_formula_units_Z   1
loop_
 _symmetry_equiv_pos_site_id
 _symmetry_equiv_pos_as_xyz
  1  'x, y, z'
loop_
 _atom_site_type_symbol
 _atom_site_label
 _atom_site_symmetry_multiplicity
 _atom_site_fract_x
 _atom_site_fract_y
 _atom_site_fract_z
 _atom_site_occupancy
  Li  Li0  1  0.73820813  0.24776609  0.99740449  1
  Li  Li1  1  0.74121195  0.75272055  0.25232221  1
  Li  Li2  1  0.73843143  0.24633417  0.50242639  1
  Li  Li3  1  0.25878805  0.24727945  0.24767779  1
  Li  Li4  1  0.26179187  0.75223391  0.50259551  1
  Li  Li5  1  0.25988610  0.24656787  0.74922208  1
  Li  Li6  1  0.74011390  0.75343213  0.75077792  1
  Li  Li7  1  0.26156857  0.75366583  0.99757361  1
  Li  Li8  1  0.50000000  0.00000000  0.75000000  1
  Mn  Mn9  1  0.99921811  0.00022077  0.99650193  1
  Mn  Mn10  1  0.00078189  0.99977923  0.50349807  1
  Co  Co11  1  0.00000000  0.50000000  0.25000000  1
  Co  Co12  1  0.00000000  0.50000000  0.75000000  1
  Co  Co13  1  0.49859933  0.49974027  0.50050576  1
  Co  Co14  1  0.50140067  0.50025973  -0.00050576  1
  Co  Co15  1  0.50000000  0.00000000  0.25000000  1
  O  O16  1  0.89993143  0.11162921  0.74725700  1
  O  O17  1  0.86339260  0.61608351  0.00316897  1
  O  O18  1  0.86922001  0.10720145  0.24803147  1
  O  O19  1  0.35891999  0.11053075  0.01452656  1
  O  O20  1  0.36299214  0.61630390  0.25245258  1
  O  O21  1  0.36082560  0.10955137  0.48331181  1
  O  O22  1  0.86493475  0.61473935  0.50548385  1
  O  O23  1  0.36793159  0.61826168  0.75196126  1
  O  O24  1  0.63700786  0.38369610  0.24754742  1
  O  O25  1  0.64108001  0.88946925  0.48547344  1
  O  O26  1  0.63206841  0.38173832  0.74803874  1
  O  O27  1  0.13660740  0.38391649  0.49683103  1
  O  O28  1  0.10006857  0.88837079  0.75274300  1
  O  O29  1  0.13506525  0.38526065  0.99451615  1
  O  O30  1  0.63917440  0.89044863  0.01668819  1
  O  O31  1  0.13077999  0.89279855  0.25196853  1
