# generated using pymatgen
data_V3F10
_symmetry_space_group_name_H-M   'P 1'
_cell_length_a   7.31207440
_cell_length_b   6.43143552
_cell_length_c   7.70057810
_cell_angle_alpha   90.07802387
_cell_angle_beta   90.00001978
_cell_angle_gamma   89.99997856
_symmetry_Int_Tables_number   1
_chemical_formula_structural   V3F10
_chemical_formula_sum   'V6 F20'
_cell_volume   362.13578999
_cell_formula_units_Z   2
loop_
 _symmetry_equiv_pos_site_id
 _symmetry_equiv_pos_as_xyz
  1  'x, y, z'
loop_
 _atom_site_type_symbol
 _atom_site_label
 _atom_site_symmetry_multiplicity
 _atom_site_fract_x
 _atom_site_fract_y
 _atom_site_fract_z
 _atom_site_occupancy
  V  V0  1  0.99829452  0.00000000  1.00000000  1
  V  V1  1  0.27366833  0.50000000  0.50000100  1
  V  V2  1  0.27252921  0.50000000  0.00000000  1
  V  V3  1  0.72791663  0.50000000  0.50000000  1
  V  V4  1  0.72649730  0.50000000  1.00000000  1
  V  V5  1  0.00206112  1.00000000  0.49999900  1
  F  F6  1  0.99505394  0.06748417  0.74823953  1
  F  F7  1  0.99505294  0.93251583  0.25176047  1
  F  F8  1  0.01240239  0.50000000  1.00000000  1
  F  F9  1  0.19945678  0.20520191  0.46153486  1
  F  F10  1  0.19945678  0.79479909  0.53846514  1
  F  F11  1  0.19371691  0.20393310  0.04753159  1
  F  F12  1  0.19371591  0.79606691  0.95246841  1
  F  F13  1  0.27125906  0.56963988  0.24097331  1
  F  F14  1  0.27125806  0.43035912  0.75902570  1
  F  F15  1  0.50912213  0.33656450  0.45417482  1
  F  F16  1  0.50912214  0.66343550  0.54582518  1
  F  F17  1  0.49081749  0.33564297  0.04494935  1
  F  F18  1  0.49081749  0.66435703  0.95505065  1
  F  F19  1  0.73133985  0.43750174  0.74243049  1
  F  F20  1  0.73133885  0.56249726  0.25756951  1
  F  F21  1  0.80385559  0.20586372  0.46000555  1
  F  F22  1  0.80385459  0.79413528  0.53999445  1
  F  F23  1  0.80366678  0.20633728  0.04087005  1
  F  F24  1  0.80366778  0.79366172  0.95912995  1
  F  F25  1  0.99006041  0.50000000  0.50000000  1
