# generated using pymatgen
data_YZrO3
_symmetry_space_group_name_H-M   'P 1'
_cell_length_a   9.07894080
_cell_length_b   9.07894080
_cell_length_c   9.07894080
_cell_angle_alpha   70.57662221
_cell_angle_beta   70.58881425
_cell_angle_gamma   109.57915253
_symmetry_Int_Tables_number   1
_chemical_formula_structural   YZrO3
_chemical_formula_sum   'Y8 Zr8 O24'
_cell_volume   576.07960619
_cell_formula_units_Z   8
loop_
 _symmetry_equiv_pos_site_id
 _symmetry_equiv_pos_as_xyz
  1  'x, y, z'
loop_
 _atom_site_type_symbol
 _atom_site_label
 _atom_site_symmetry_multiplicity
 _atom_site_fract_x
 _atom_site_fract_y
 _atom_site_fract_z
 _atom_site_occupancy
  Y  Y0  1  0.75000000  0.23803020  0.51196980  1
  Y  Y1  1  0.25000000  0.26196980  0.98803020  1
  Y  Y2  1  0.52349080  0.75000000  0.72650920  1
  Y  Y3  1  0.97650920  0.25000000  0.77349080  1
  Y  Y4  1  0.22841545  0.47841545  0.25000000  1
  Y  Y5  1  0.27158455  0.02158455  0.75000000  1
  Y  Y6  1  0.25000000  0.77118587  0.47881413  1
  Y  Y7  1  0.75000000  0.72881413  0.02118587  1
  Zr  Zr8  1  0.49637275  0.02123710  0.00231996  1
  Zr  Zr9  1  0.97644294  0.47876290  0.02486435  1
  Zr  Zr10  1  0.52355706  0.49869271  0.49768004  1
  Zr  Zr11  1  0.00362725  0.00130729  0.47513565  1
  Zr  Zr12  1  0.49189058  0.25000000  0.25810942  1
  Zr  Zr13  1  0.00810942  0.75000000  0.24189058  1
  Zr  Zr14  1  0.75721376  0.50721376  0.75000000  1
  Zr  Zr15  1  0.74278624  0.99278624  0.25000000  1
  O  O16  1  0.73573111  0.97617295  0.00010499  1
  O  O17  1  0.02372206  0.52382705  0.74044184  1
  O  O18  1  0.47627794  0.73583609  0.49989501  1
  O  O19  1  0.76426889  0.76416391  0.75955816  1
  O  O20  1  0.24218803  0.26448281  0.72698326  1
  O  O21  1  0.49146607  0.96917130  0.77301674  1
  O  O22  1  0.25781197  0.53082870  0.97770522  1
  O  O23  1  0.00853393  0.23551719  0.52229478  1
  O  O24  1  0.01871039  0.75976450  0.97230603  1
  O  O25  1  0.48128961  0.50898358  0.25894589  1
  O  O26  1  0.26792947  0.74023550  0.24105411  1
  O  O27  1  0.23207053  0.99101642  0.52769397  1
  O  O28  1  0.25253813  0.00711333  0.01870153  1
  O  O29  1  0.97418514  0.49288667  0.25457520  1
  O  O30  1  0.52581486  0.27123966  0.48129847  1
  O  O31  1  0.24746187  0.22876034  0.24542480  1
  O  O32  1  0.76512838  0.74226522  0.27177807  1
  O  O33  1  0.51404328  0.03690645  0.22822193  1
  O  O34  1  0.73487162  0.46309355  0.02286316  1
  O  O35  1  0.98595672  0.75773478  0.47713684  1
  O  O36  1  0.97057608  0.23822120  0.03388088  1
  O  O37  1  0.52942392  0.49554304  0.73235488  1
  O  O38  1  0.72789792  0.26177880  0.76764512  1
  O  O39  1  0.77210208  0.00445696  0.46611912  1
