# generated using pymatgen
data_Cd(Mo3Se4)2
_symmetry_space_group_name_H-M   'P 1'
_cell_length_a   6.83078869
_cell_length_b   6.83078869
_cell_length_c   6.83078887
_cell_angle_alpha   91.51072980
_cell_angle_beta   91.51072973
_cell_angle_gamma   91.51072675
_symmetry_Int_Tables_number   1
_chemical_formula_structural   Cd(Mo3Se4)2
_chemical_formula_sum   'Cd1 Mo6 Se8'
_cell_volume   318.38406249
_cell_formula_units_Z   1
loop_
 _symmetry_equiv_pos_site_id
 _symmetry_equiv_pos_as_xyz
  1  'x, y, z'
loop_
 _atom_site_type_symbol
 _atom_site_label
 _atom_site_symmetry_multiplicity
 _atom_site_fract_x
 _atom_site_fract_y
 _atom_site_fract_z
 _atom_site_occupancy
  Cd  Cd0  1  0.00000000  0.00000000  -0.00000000  1
  Mo  Mo1  1  0.58138098  0.76588315  0.44640869  1
  Mo  Mo2  1  0.76588315  0.44640869  0.58138098  1
  Mo  Mo3  1  0.44640869  0.58138098  0.76588315  1
  Mo  Mo4  1  0.41861902  0.23411685  0.55359131  1
  Mo  Mo5  1  0.23411685  0.55359131  0.41861902  1
  Mo  Mo6  1  0.55359131  0.41861902  0.23411685  1
  Se  Se7  1  0.77093939  0.77093939  0.77093939  1
  Se  Se8  1  0.22906061  0.22906061  0.22906061  1
  Se  Se9  1  0.62390024  0.25997742  0.87451235  1
  Se  Se10  1  0.25997742  0.87451235  0.62390024  1
  Se  Se11  1  0.87451235  0.62390024  0.25997742  1
  Se  Se12  1  0.37609976  0.74002258  0.12548765  1
  Se  Se13  1  0.74002258  0.12548765  0.37609976  1
  Se  Se14  1  0.12548765  0.37609976  0.74002258  1
