# generated using pymatgen
data_Ba(MoSe)3
_symmetry_space_group_name_H-M   'P 1'
_cell_length_a   4.53056013
_cell_length_b   9.09712505
_cell_length_c   9.10430227
_cell_angle_alpha   120.04259837
_cell_angle_beta   90.00000000
_cell_angle_gamma   90.00000000
_symmetry_Int_Tables_number   1
_chemical_formula_structural   Ba(MoSe)3
_chemical_formula_sum   'Ba2 Mo6 Se6'
_cell_volume   324.82300697
_cell_formula_units_Z   2
loop_
 _symmetry_equiv_pos_site_id
 _symmetry_equiv_pos_as_xyz
  1  'x, y, z'
loop_
 _atom_site_type_symbol
 _atom_site_label
 _atom_site_symmetry_multiplicity
 _atom_site_fract_x
 _atom_site_fract_y
 _atom_site_fract_z
 _atom_site_occupancy
  Ba  Ba0  1  0.75000000  0.66633708  0.33294855  1
  Ba  Ba1  1  0.25000000  0.33366292  0.66705145  1
  Mo  Mo2  1  0.75000000  0.96741488  0.81631707  1
  Mo  Mo3  1  0.75000000  0.18392788  0.15110242  1
  Mo  Mo4  1  0.75000000  0.84893349  0.03299044  1
  Mo  Mo5  1  0.25000000  0.03258512  0.18368293  1
  Mo  Mo6  1  0.25000000  0.81607212  0.84889758  1
  Mo  Mo7  1  0.25000000  0.15106651  0.96700956  1
  Se  Se8  1  0.75000000  0.63109113  0.69762240  1
  Se  Se9  1  0.75000000  0.30230082  0.93366063  1
  Se  Se10  1  0.75000000  0.06612795  0.36834744  1
  Se  Se11  1  0.25000000  0.36890887  0.30237760  1
  Se  Se12  1  0.25000000  0.69769918  0.06633937  1
  Se  Se13  1  0.25000000  0.93387205  0.63165256  1
