# generated using pymatgen
data_CdH6C2I2(NO)2
_symmetry_space_group_name_H-M   'P 1'
_cell_length_a   4.27601390
_cell_length_b   7.90087759
_cell_length_c   8.44492016
_cell_angle_alpha   115.20070477
_cell_angle_beta   95.04882503
_cell_angle_gamma   92.13312381
_symmetry_Int_Tables_number   1
_chemical_formula_structural   CdH6C2I2(NO)2
_chemical_formula_sum   'Cd1 H6 C2 I2 N2 O2'
_cell_volume   256.26441244
_cell_formula_units_Z   1
loop_
 _symmetry_equiv_pos_site_id
 _symmetry_equiv_pos_as_xyz
  1  'x, y, z'
loop_
 _atom_site_type_symbol
 _atom_site_label
 _atom_site_symmetry_multiplicity
 _atom_site_fract_x
 _atom_site_fract_y
 _atom_site_fract_z
 _atom_site_occupancy
  Cd  Cd0  1  0.50000000  0.50000000  0.50000000  1
  H  H1  1  0.63103791  0.36799243  0.03104362  1
  H  H2  1  0.36896209  0.63200757  0.96895638  1
  H  H3  1  0.77856598  0.15159416  0.90472231  1
  H  H4  1  0.22143402  0.84840584  0.09527769  1
  H  H5  1  0.70438062  0.18592817  0.64575677  1
  H  H6  1  0.29561938  0.81407183  0.35424323  1
  C  C7  1  0.63802100  0.29871168  0.76731207  1
  C  C8  1  0.36197900  0.70128832  0.23268793  1
  I  I9  1  0.95367360  0.21438623  0.33111129  1
  I  I10  1  0.04632640  0.78561377  0.66888871  1
  N  N11  1  0.68818555  0.27143830  0.91160314  1
  N  N12  1  0.31181445  0.72856170  0.08839686  1
  O  O13  1  0.52523833  0.44288506  0.76441047  1
  O  O14  1  0.47476167  0.55711494  0.23558953  1
