# generated using pymatgen
data_LiNi(PO3)5
_symmetry_space_group_name_H-M   'P 1'
_cell_length_a   10.21285432
_cell_length_b   13.65053197
_cell_length_c   9.02593864
_cell_angle_alpha   90.00000000
_cell_angle_beta   100.56817805
_cell_angle_gamma   90.00000000
_symmetry_Int_Tables_number   1
_chemical_formula_structural   LiNi(PO3)5
_chemical_formula_sum   'Li4 Ni4 P20 O60'
_cell_volume   1236.96985272
_cell_formula_units_Z   4
loop_
 _symmetry_equiv_pos_site_id
 _symmetry_equiv_pos_as_xyz
  1  'x, y, z'
loop_
 _atom_site_type_symbol
 _atom_site_label
 _atom_site_symmetry_multiplicity
 _atom_site_fract_x
 _atom_site_fract_y
 _atom_site_fract_z
 _atom_site_occupancy
  Li  Li0  1  0.96726865  0.89643793  0.89951508  1
  Li  Li1  1  0.03273135  0.39643793  0.10048492  1
  Li  Li2  1  0.53273135  0.10356207  0.10048492  1
  Li  Li3  1  0.46726865  0.60356207  0.89951508  1
  Ni  Ni4  1  0.25000000  0.50000000  0.50000000  1
  Ni  Ni5  1  0.75000000  0.50000000  0.50000000  1
  Ni  Ni6  1  0.25000000  0.00000000  0.50000000  1
  Ni  Ni7  1  0.75000000  0.00000000  0.50000000  1
  P  P8  1  0.83847326  0.57225897  0.19675107  1
  P  P9  1  0.77013256  0.25085971  0.99884064  1
  P  P10  1  0.00010658  0.85852734  0.47913240  1
  P  P11  1  0.33847326  0.92774103  0.19675107  1
  P  P12  1  0.67557290  0.08299424  0.81062069  1
  P  P13  1  0.49989342  0.14147266  0.52086760  1
  P  P14  1  0.49574904  0.36154016  0.51988013  1
  P  P15  1  -0.00010658  0.35852734  0.52086760  1
  P  P16  1  0.16152674  0.07225897  0.80324893  1
  P  P17  1  0.17557290  0.41700576  0.81062069  1
  P  P18  1  0.32442710  0.58299424  0.18937931  1
  P  P19  1  0.22986744  0.75085971  0.00115936  1
  P  P20  1  0.27013256  0.24914029  0.99884064  1
  P  P21  1  0.50010658  0.64147266  0.47913240  1
  P  P22  1  0.66152674  0.42774103  0.80324893  1
  P  P23  1  0.82442710  0.91700576  0.18937931  1
  P  P24  1  0.50425096  0.86154016  0.48011987  1
  P  P25  1  0.00425096  0.63845984  0.48011987  1
  P  P26  1  0.72986744  0.74914029  0.00115936  1
  P  P27  1  0.99574904  0.13845984  0.51988013  1
  O  O28  1  0.64832261  0.62518356  0.49371474  1
  O  O29  1  0.05837468  0.14301561  0.69736839  1
  O  O30  1  0.43179891  0.64691031  0.30461072  1
  O  O31  1  0.07390559  0.07241684  0.43715899  1
  O  O32  1  0.56820109  0.14691031  0.69538928  1
  O  O33  1  0.57390559  0.42758316  0.43715899  1
  O  O34  1  0.75481339  0.98815243  0.27719450  1
  O  O35  1  0.34503925  0.73208030  0.92137951  1
  O  O36  1  0.25469997  0.15304678  0.89647657  1
  O  O37  1  0.24745601  0.01495673  0.71356514  1
  O  O38  1  0.78224516  0.16904775  0.87394058  1
  O  O39  1  0.92352865  0.92231428  0.56853125  1
  O  O40  1  0.07647135  0.42231428  0.43146875  1
  O  O41  1  0.55837468  0.35698439  0.69736839  1
  O  O42  1  0.25254399  0.98504327  0.28643486  1
  O  O43  1  0.57647135  0.07768572  0.43146875  1
  O  O44  1  0.24530003  0.84695322  0.10352343  1
  O  O45  1  0.34645725  0.37560912  0.50361525  1
  O  O46  1  0.44162532  0.85698439  0.30263161  1
  O  O47  1  0.51814256  0.25196776  0.46937746  1
  O  O48  1  0.84503925  0.76791970  0.92137951  1
  O  O49  1  0.42352865  0.57768572  0.56853125  1
  O  O50  1  0.48185744  0.75196776  0.53062254  1
  O  O51  1  0.21775484  0.66904775  0.12605942  1
  O  O52  1  0.24518661  0.48815243  0.72280550  1
  O  O53  1  0.35167739  0.12518356  0.50628526  1
  O  O54  1  0.92609441  0.57241684  0.56284101  1
  O  O55  1  0.74745601  0.48504327  0.71356514  1
  O  O56  1  0.75469997  0.34695322  0.89647657  1
  O  O57  1  0.59918147  0.73698811  0.89261862  1
  O  O58  1  0.40588635  0.99032775  0.09868874  1
  O  O59  1  0.74518661  0.01184757  0.72280550  1
  O  O60  1  0.15354275  0.62439088  0.49638475  1
  O  O61  1  0.85167739  0.37481644  0.50628526  1
  O  O62  1  0.90588635  0.50967225  0.09868874  1
  O  O63  1  0.01814256  0.24803224  0.46937746  1
  O  O64  1  0.15496075  0.26791970  0.07862049  1
  O  O65  1  0.38939201  0.54505345  0.06674853  1
  O  O66  1  0.28224516  0.33095225  0.87394058  1
  O  O67  1  0.94162532  0.64301561  0.30263161  1
  O  O68  1  0.61060799  0.04505345  0.93325147  1
  O  O69  1  0.74530003  0.65304678  0.10352343  1
  O  O70  1  0.59411365  0.49032775  0.90131126  1
  O  O71  1  0.40081853  0.23698811  0.10738138  1
  O  O72  1  0.25481339  0.51184757  0.27719450  1
  O  O73  1  0.65496075  0.23208030  0.07862049  1
  O  O74  1  0.90081853  0.26301189  0.10738138  1
  O  O75  1  0.09411365  0.00967225  0.90131126  1
  O  O76  1  0.75254399  0.51495673  0.28643486  1
  O  O77  1  0.65354275  0.87560912  0.49638475  1
  O  O78  1  0.14832261  0.87481644  0.49371474  1
  O  O79  1  0.88939201  0.95494655  0.06674853  1
  O  O80  1  0.98185744  0.74803224  0.53062254  1
  O  O81  1  0.42609441  0.92758316  0.56284101  1
  O  O82  1  0.09918147  0.76301189  0.89261862  1
  O  O83  1  0.11060799  0.45494655  0.93325147  1
  O  O84  1  0.71775484  0.83095225  0.12605942  1
  O  O85  1  0.84645725  0.12439088  0.50361525  1
  O  O86  1  0.06820109  0.35308969  0.69538928  1
  O  O87  1  0.93179891  0.85308969  0.30461072  1
