# generated using pymatgen
data_NaCaSiO4
_symmetry_space_group_name_H-M   'P 1'
_cell_length_a   5.44929018
_cell_length_b   5.40832779
_cell_length_c   7.15836168
_cell_angle_alpha   90.00000000
_cell_angle_beta   90.00000000
_cell_angle_gamma   116.71965273
_symmetry_Int_Tables_number   1
_chemical_formula_structural   NaCaSiO4
_chemical_formula_sum   'Na2 Ca2 Si2 O8'
_cell_volume   188.44024671
_cell_formula_units_Z   2
loop_
 _symmetry_equiv_pos_site_id
 _symmetry_equiv_pos_as_xyz
  1  'x, y, z'
loop_
 _atom_site_type_symbol
 _atom_site_label
 _atom_site_symmetry_multiplicity
 _atom_site_fract_x
 _atom_site_fract_y
 _atom_site_fract_z
 _atom_site_occupancy
  Na  Na0  1  0.34137826  0.71937842  0.25000000  1
  Na  Na1  1  0.65862174  0.28062158  0.75000000  1
  Ca  Ca2  1  -0.00000000  -0.00000000  0.50000000  1
  Ca  Ca3  1  -0.00000000  -0.00000000  -0.00000000  1
  Si  Si4  1  0.33214704  0.62283610  0.75000000  1
  Si  Si5  1  0.66785296  0.37716390  0.25000000  1
  O  O6  1  0.23337363  0.28943024  0.75000000  1
  O  O7  1  0.76662637  0.71056976  0.25000000  1
  O  O8  1  0.33274468  0.19592540  0.25000000  1
  O  O9  1  0.66725532  0.80407460  0.75000000  1
  O  O10  1  0.21557053  0.71174354  0.55972131  1
  O  O11  1  0.78442947  0.28825646  0.05972131  1
  O  O12  1  0.78442947  0.28825646  0.44027869  1
  O  O13  1  0.21557053  0.71174354  0.94027869  1
