# generated using pymatgen
data_Ni3(P2O7)2
_symmetry_space_group_name_H-M   'P 1'
_cell_length_a   5.28530009
_cell_length_b   6.38109985
_cell_length_c   16.03483542
_cell_angle_alpha   81.73833600
_cell_angle_beta   80.53098380
_cell_angle_gamma   73.04344568
_symmetry_Int_Tables_number   1
_chemical_formula_structural   Ni3(P2O7)2
_chemical_formula_sum   'Ni6 P8 O28'
_cell_volume   507.60063918
_cell_formula_units_Z   2
loop_
 _symmetry_equiv_pos_site_id
 _symmetry_equiv_pos_as_xyz
  1  'x, y, z'
loop_
 _atom_site_type_symbol
 _atom_site_label
 _atom_site_symmetry_multiplicity
 _atom_site_fract_x
 _atom_site_fract_y
 _atom_site_fract_z
 _atom_site_occupancy
  Ni  Ni0  1  0.79513100  0.72279598  0.40515782  1
  Ni  Ni1  1  0.20486900  0.27720402  0.59484218  1
  Ni  Ni2  1  0.04347644  0.63476923  0.81369255  1
  Ni  Ni3  1  0.22968452  0.95994840  0.33160632  1
  Ni  Ni4  1  0.95652356  0.36523077  0.18630745  1
  Ni  Ni5  1  0.77031548  0.04005160  0.66839368  1
  P  P6  1  0.63877834  0.57482311  0.67841280  1
  P  P7  1  0.30060286  0.77995334  0.54349011  1
  P  P8  1  0.69939714  0.22004666  0.45650989  1
  P  P9  1  0.55883536  0.23475877  0.07838444  1
  P  P10  1  0.36122166  0.42517689  0.32158720  1
  P  P11  1  0.82287032  0.88820592  0.20921339  1
  P  P12  1  0.17712968  0.11179408  0.79078661  1
  P  P13  1  0.44116464  0.76524123  0.92161556  1
  O  O14  1  0.74181407  0.67354769  0.90938394  1
  O  O15  1  0.61671251  0.45135929  0.26932898  1
  O  O16  1  0.38328749  0.54864071  0.73067102  1
  O  O17  1  0.40813497  0.84428539  0.45110470  1
  O  O18  1  0.99832461  0.96779238  0.77858236  1
  O  O19  1  0.21885956  0.28271513  0.28764719  1
  O  O20  1  0.36072358  0.14801516  0.70680001  1
  O  O21  1  0.70718783  0.39086177  0.09830755  1
  O  O22  1  0.63927642  0.85198484  0.29319999  1
  O  O23  1  0.42808773  0.29707804  0.41298993  1
  O  O24  1  0.87922002  0.01580335  0.41388674  1
  O  O25  1  0.01420167  0.32467618  0.82544508  1
  O  O26  1  0.82941089  0.40568387  0.44575992  1
  O  O27  1  0.82851051  0.34840085  0.65818550  1
  O  O28  1  0.25818593  0.32645231  0.09061606  1
  O  O29  1  0.78114044  0.71728487  0.71235281  1
  O  O30  1  0.59186503  0.15571461  0.54889530  1
  O  O31  1  0.12077998  0.98419665  0.58611326  1
  O  O32  1  0.17058911  0.59431613  0.55424008  1
  O  O33  1  0.29281217  0.60913823  0.90169245  1
  O  O34  1  0.17148949  0.65159915  0.34181450  1
  O  O35  1  0.00167539  0.03220762  0.22141764  1
  O  O36  1  0.98579833  0.67532382  0.17455492  1
  O  O37  1  0.32838616  0.83541331  0.00995111  1
  O  O38  1  0.57191227  0.70292196  0.58701007  1
  O  O39  1  0.38551652  0.98174584  0.85349190  1
  O  O40  1  0.67161384  0.16458669  0.99004889  1
  O  O41  1  0.61448348  0.01825416  0.14650810  1
