# generated using pymatgen
data_Lu(Mo3Se4)2
_symmetry_space_group_name_H-M   'P 1'
_cell_length_a   6.75871615
_cell_length_b   6.75871642
_cell_length_c   6.75871615
_cell_angle_alpha   89.62026970
_cell_angle_beta   90.37972479
_cell_angle_gamma   90.37973030
_symmetry_Int_Tables_number   1
_chemical_formula_structural   Lu(Mo3Se4)2
_chemical_formula_sum   'Lu1 Mo6 Se8'
_cell_volume   308.71956302
_cell_formula_units_Z   1
loop_
 _symmetry_equiv_pos_site_id
 _symmetry_equiv_pos_as_xyz
  1  'x, y, z'
loop_
 _atom_site_type_symbol
 _atom_site_label
 _atom_site_symmetry_multiplicity
 _atom_site_fract_x
 _atom_site_fract_y
 _atom_site_fract_z
 _atom_site_occupancy
  Lu  Lu0  1  -0.00000000  -0.00000000  0.00000000  1
  Mo  Mo1  1  0.42232533  0.44214270  0.76709149  1
  Mo  Mo2  1  0.23290851  0.57767467  0.44214270  1
  Mo  Mo3  1  0.55785730  0.76709149  0.57767467  1
  Mo  Mo4  1  0.57767467  0.55785730  0.23290851  1
  Mo  Mo5  1  0.76709149  0.42232533  0.55785730  1
  Mo  Mo6  1  0.44214270  0.23290851  0.42232533  1
  Se  Se7  1  0.23397942  0.76602058  0.76602058  1
  Se  Se8  1  0.76602058  0.23397942  0.23397942  1
  Se  Se9  1  0.36865682  0.87770665  0.24333651  1
  Se  Se10  1  0.75666349  0.63134318  0.87770665  1
  Se  Se11  1  0.12229335  0.24333651  0.63134318  1
  Se  Se12  1  0.63134318  0.12229335  0.75666349  1
  Se  Se13  1  0.24333651  0.36865682  0.12229335  1
  Se  Se14  1  0.87770665  0.75666349  0.36865682  1
