# generated using pymatgen
data_Co3(P2O7)2
_symmetry_space_group_name_H-M   'P 1'
_cell_length_a   5.71195504
_cell_length_b   6.87690177
_cell_length_c   7.51170324
_cell_angle_alpha   76.51890238
_cell_angle_beta   73.82455905
_cell_angle_gamma   72.57337297
_symmetry_Int_Tables_number   1
_chemical_formula_structural   Co3(P2O7)2
_chemical_formula_sum   'Co3 P4 O14'
_cell_volume   266.74407340
_cell_formula_units_Z   1
loop_
 _symmetry_equiv_pos_site_id
 _symmetry_equiv_pos_as_xyz
  1  'x, y, z'
loop_
 _atom_site_type_symbol
 _atom_site_label
 _atom_site_symmetry_multiplicity
 _atom_site_fract_x
 _atom_site_fract_y
 _atom_site_fract_z
 _atom_site_occupancy
  Co  Co0  1  0.75414775  0.52271150  0.66294897  1
  Co  Co1  1  0.24585225  0.47728850  0.33705103  1
  Co  Co2  1  -0.00000000  0.00000000  -0.00000000  1
  P  P3  1  0.20579075  0.70976976  0.67333824  1
  P  P4  1  0.37117405  0.30902213  0.93457599  1
  P  P5  1  0.62882595  0.69097787  0.06542401  1
  P  P6  1  0.79420925  0.29023024  0.32666176  1
  O  O7  1  0.47953960  0.68705156  0.55518666  1
  O  O8  1  0.72899429  0.84865125  0.11037236  1
  O  O9  1  0.93608985  0.36436913  0.44176474  1
  O  O10  1  0.27100571  0.15134875  0.88962764  1
  O  O11  1  0.06391015  0.63563087  0.55823526  1
  O  O12  1  0.34190774  0.30617349  0.14232601  1
  O  O13  1  0.07312193  0.91299550  0.73790468  1
  O  O14  1  0.21315960  0.53803696  0.86058196  1
  O  O15  1  0.92687807  0.08700450  0.26209532  1
  O  O16  1  0.52046040  0.31294844  0.44481334  1
  O  O17  1  0.34504917  0.70580179  0.17158478  1
  O  O18  1  0.65495083  0.29419821  0.82841522  1
  O  O19  1  0.78684040  0.46196304  0.13941804  1
  O  O20  1  0.65809226  0.69382651  0.85767399  1
