# generated using pymatgen
data_K2AsAuI6
_symmetry_space_group_name_H-M   'P 1'
_cell_length_a   8.25453480
_cell_length_b   8.25453523
_cell_length_c   8.25453522
_cell_angle_alpha   59.99999866
_cell_angle_beta   59.99999802
_cell_angle_gamma   59.99999810
_symmetry_Int_Tables_number   1
_chemical_formula_structural   K2AsAuI6
_chemical_formula_sum   'K2 As1 Au1 I6'
_cell_volume   397.70663658
_cell_formula_units_Z   1
loop_
 _symmetry_equiv_pos_site_id
 _symmetry_equiv_pos_as_xyz
  1  'x, y, z'
loop_
 _atom_site_type_symbol
 _atom_site_label
 _atom_site_symmetry_multiplicity
 _atom_site_fract_x
 _atom_site_fract_y
 _atom_site_fract_z
 _atom_site_occupancy
  K  K0  1  0.25000000  0.25000000  0.25000000  1
  K  K1  1  0.75000000  0.75000000  0.75000000  1
  As  As2  1  -0.00000000  -0.00000000  -0.00000000  1
  Au  Au3  1  0.50000000  0.50000000  0.50000000  1
  I  I4  1  0.24788683  0.75211317  0.24788683  1
  I  I5  1  0.75211317  0.75211317  0.24788683  1
  I  I6  1  0.75211317  0.24788683  0.75211317  1
  I  I7  1  0.75211317  0.24788683  0.24788683  1
  I  I8  1  0.24788683  0.75211317  0.75211317  1
  I  I9  1  0.24788683  0.24788683  0.75211317  1
