# generated using pymatgen
data_H5SeNO4
_symmetry_space_group_name_H-M   'P 1'
_cell_length_a   4.66996691
_cell_length_b   7.73095501
_cell_length_c   10.69680922
_cell_angle_alpha   68.59758698
_cell_angle_beta   100.96208579
_cell_angle_gamma   90.44151916
_symmetry_Int_Tables_number   1
_chemical_formula_structural   H5SeNO4
_chemical_formula_sum   'H15 Se3 N3 O12'
_cell_volume   352.19309981
_cell_formula_units_Z   3
loop_
 _symmetry_equiv_pos_site_id
 _symmetry_equiv_pos_as_xyz
  1  'x, y, z'
loop_
 _atom_site_type_symbol
 _atom_site_label
 _atom_site_symmetry_multiplicity
 _atom_site_fract_x
 _atom_site_fract_y
 _atom_site_fract_z
 _atom_site_occupancy
  H  H0  1  0.28441667  0.22613260  0.74264042  1
  H  H1  1  0.70975105  0.96799771  0.25602804  1
  H  H2  1  0.83639838  0.57253016  0.94185743  1
  H  H3  1  0.16183888  0.51489111  0.05861924  1
  H  H4  1  0.34584494  0.34623875  0.58251136  1
  H  H5  1  0.66256818  0.92616479  0.41817043  1
  H  H6  1  0.62675946  0.27217598  0.71850844  1
  H  H7  1  0.37429999  0.99013549  0.28612712  1
  H  H8  1  0.08984967  0.42705987  0.93393606  1
  H  H9  1  0.91259147  0.35669260  0.06306861  1
  H  H10  1  0.86554730  0.86648098  0.68966234  1
  H  H11  1  0.13401600  0.55659903  0.30941119  1
  H  H12  1  0.54748574  0.88682689  0.99345420  1
  H  H13  1  0.44910080  0.11807925  0.65886459  1
  H  H14  1  0.54508381  0.77555862  0.34205426  1
  Se  Se15  1  0.30072690  0.74747124  0.66764402  1
  Se  Se16  1  0.69702745  0.41476293  0.33263648  1
  Se  Se17  1  0.01204184  0.00666701  0.00266974  1
  N  N18  1  0.00007535  0.47060838  0.99944974  1
  N  N19  1  0.42589032  0.24154057  0.67545915  1
  N  N20  1  0.57346075  0.91569638  0.32578498  1
  O  O21  1  0.46986375  0.55982336  0.79358552  1
  O  O22  1  0.52438359  0.35257050  0.20744893  1
  O  O23  1  0.71947973  0.89868207  0.94074877  1
  O  O24  1  0.29615215  0.85045885  0.06097817  1
  O  O25  1  0.53393155  0.91370658  0.61489790  1
  O  O26  1  0.46628336  0.52751406  0.38561625  1
  O  O27  1  0.07710096  0.84403181  0.74485684  1
  O  O28  1  0.92260937  0.58984995  0.25455140  1
  O  O29  1  0.09221832  0.70966603  0.53914440  1
  O  O30  1  0.90458139  0.24926788  0.46103932  1
  O  O31  1  0.05084859  0.19422354  0.86907296  1
  O  O32  1  0.93677233  0.06709503  0.12750168  1
