# generated using pymatgen
data_UCrCo
_symmetry_space_group_name_H-M   'P 1'
_cell_length_a   5.09126657
_cell_length_b   5.09126657
_cell_length_c   5.09126657
_cell_angle_alpha   96.57178184
_cell_angle_beta   59.93029695
_cell_angle_gamma   127.83536942
_symmetry_Int_Tables_number   1
_chemical_formula_structural   UCrCo
_chemical_formula_sum   'U2 Cr2 Co2'
_cell_volume   86.53332961
_cell_formula_units_Z   2
loop_
 _symmetry_equiv_pos_site_id
 _symmetry_equiv_pos_as_xyz
  1  'x, y, z'
loop_
 _atom_site_type_symbol
 _atom_site_label
 _atom_site_symmetry_multiplicity
 _atom_site_fract_x
 _atom_site_fract_y
 _atom_site_fract_z
 _atom_site_occupancy
  U  U0  1  0.50000000  0.73162242  0.76837758  1
  U  U1  1  -0.00000000  0.01837758  0.98162242  1
  Cr  Cr2  1  0.25000000  0.87500000  0.37500000  1
  Cr  Cr3  1  0.75000000  0.37500000  0.37500000  1
  Co  Co4  1  0.75000000  0.37500000  0.87500000  1
  Co  Co5  1  0.25000000  0.37500000  0.37500000  1
