# generated using pymatgen
data_Li4MnCo3O8
_symmetry_space_group_name_H-M   'P 1'
_cell_length_a   3.02201478
_cell_length_b   6.00146242
_cell_length_c   8.09538510
_cell_angle_alpha   89.15597341
_cell_angle_beta   88.69564384
_cell_angle_gamma   95.51622716
_symmetry_Int_Tables_number   1
_chemical_formula_structural   Li4MnCo3O8
_chemical_formula_sum   'Li4 Mn1 Co3 O8'
_cell_volume   146.08310077
_cell_formula_units_Z   1
loop_
 _symmetry_equiv_pos_site_id
 _symmetry_equiv_pos_as_xyz
  1  'x, y, z'
loop_
 _atom_site_type_symbol
 _atom_site_label
 _atom_site_symmetry_multiplicity
 _atom_site_fract_x
 _atom_site_fract_y
 _atom_site_fract_z
 _atom_site_occupancy
  Li  Li0  1  -0.00009065  0.50183888  0.00250841  1
  Li  Li1  1  0.50000000  0.25000000  0.25000000  1
  Li  Li2  1  0.50000000  0.75000000  0.75000000  1
  Li  Li3  1  0.00009065  0.99816112  0.49749159  1
  Mn  Mn4  1  0.50000000  0.25000000  0.75000000  1
  Co  Co5  1  0.00207613  0.99717717  0.00203344  1
  Co  Co6  1  0.50000000  0.75000000  0.25000000  1
  Co  Co7  1  0.99792387  0.50282283  0.49796656  1
  O  O8  1  0.47596408  0.23710589  0.99289324  1
  O  O9  1  0.97742941  0.98567719  0.23794655  1
  O  O10  1  0.97623731  0.49489578  0.73734972  1
  O  O11  1  0.47686638  0.73779113  0.48688373  1
  O  O12  1  0.52313362  0.76220887  0.01311627  1
  O  O13  1  0.02257059  0.51432281  0.26205345  1
  O  O14  1  0.02376269  0.00510422  0.76265028  1
  O  O15  1  0.52403592  0.26289411  0.50710676  1
