# generated using pymatgen
data_Ti2ZnSn2O7
_symmetry_space_group_name_H-M   'P 1'
_cell_length_a   6.89701250
_cell_length_b   6.89701229
_cell_length_c   9.26656341
_cell_angle_alpha   103.53731576
_cell_angle_beta   103.53731530
_cell_angle_gamma   98.60674371
_symmetry_Int_Tables_number   1
_chemical_formula_structural   Ti2ZnSn2O7
_chemical_formula_sum   'Ti4 Zn2 Sn4 O14'
_cell_volume   406.78358022
_cell_formula_units_Z   2
loop_
 _symmetry_equiv_pos_site_id
 _symmetry_equiv_pos_as_xyz
  1  'x, y, z'
loop_
 _atom_site_type_symbol
 _atom_site_label
 _atom_site_symmetry_multiplicity
 _atom_site_fract_x
 _atom_site_fract_y
 _atom_site_fract_z
 _atom_site_occupancy
  Ti  Ti0  1  0.17437782  0.59786511  0.37311039  1
  Ti  Ti1  1  0.40213489  0.82562218  0.12688961  1
  Ti  Ti2  1  0.82562218  0.40213489  0.62688961  1
  Ti  Ti3  1  0.59786511  0.17437782  0.87311039  1
  Zn  Zn4  1  0.73392610  0.26607390  0.25000000  1
  Zn  Zn5  1  0.26607390  0.73392610  0.75000000  1
  Sn  Sn6  1  0.78388474  0.77627819  0.01631664  1
  Sn  Sn7  1  0.22372181  0.21611526  0.48368336  1
  Sn  Sn8  1  0.21611526  0.22372181  0.98368336  1
  Sn  Sn9  1  0.77627819  0.78388474  0.51631664  1
  O  O10  1  0.00354519  0.76842635  0.40051824  1
  O  O11  1  0.23157365  0.99645481  0.09948176  1
  O  O12  1  0.99645481  0.23157365  0.59948176  1
  O  O13  1  0.76842635  0.00354519  0.90051824  1
  O  O14  1  0.03884175  0.32732779  0.29367425  1
  O  O15  1  0.67267221  0.96115825  0.20632575  1
  O  O16  1  0.96115825  0.67267221  0.70632575  1
  O  O17  1  0.32732779  0.03884175  0.79367425  1
  O  O18  1  0.68254309  0.42605816  0.43962437  1
  O  O19  1  0.57394184  0.31745691  0.06037563  1
  O  O20  1  0.31745691  0.57394184  0.56037563  1
  O  O21  1  0.42605816  0.68254309  0.93962437  1
  O  O22  1  0.33531411  0.66468589  0.25000000  1
  O  O23  1  0.66468589  0.33531411  0.75000000  1
