# generated using pymatgen
data_NaV6O15
_symmetry_space_group_name_H-M   'P 1'
_cell_length_a   5.76771144
_cell_length_b   8.13205765
_cell_length_c   9.00668570
_cell_angle_alpha   88.23669930
_cell_angle_beta   86.43788639
_cell_angle_gamma   98.58124960
_symmetry_Int_Tables_number   1
_chemical_formula_structural   NaV6O15
_chemical_formula_sum   'Na1 V6 O15'
_cell_volume   416.56439066
_cell_formula_units_Z   1
loop_
 _symmetry_equiv_pos_site_id
 _symmetry_equiv_pos_as_xyz
  1  'x, y, z'
loop_
 _atom_site_type_symbol
 _atom_site_label
 _atom_site_symmetry_multiplicity
 _atom_site_fract_x
 _atom_site_fract_y
 _atom_site_fract_z
 _atom_site_occupancy
  Na  Na0  1  0.01752817  0.97501486  0.50850471  1
  V  V1  1  0.04170570  0.19379452  0.08881832  1
  V  V2  1  0.35943712  0.60696805  0.45819024  1
  V  V3  1  0.41672278  0.72230180  0.08981846  1
  V  V4  1  0.58376774  0.27431884  0.90995998  1
  V  V5  1  0.80711889  0.40289203  0.55523575  1
  V  V6  1  0.94911477  0.79908597  0.92210411  1
  O  O7  1  0.99209919  0.98819210  0.01617381  1
  O  O8  1  0.07626429  0.17580643  0.26684268  1
  O  O9  1  0.29406000  0.31022858  0.98941647  1
  O  O10  1  0.13798793  0.45111809  0.53883996  1
  O  O11  1  0.32681241  0.60199479  0.25564869  1
  O  O12  1  0.19554473  0.69650018  0.95409625  1
  O  O13  1  0.31128702  0.79080904  0.51273776  1
  O  O14  1  0.46071707  0.91472614  0.13489194  1
  O  O15  1  0.55575656  0.08740729  0.84948752  1
  O  O16  1  0.70707734  0.21668039  0.50121925  1
  O  O17  1  0.79069548  0.29023886  0.05716801  1
  O  O18  1  0.70177874  0.40609255  0.75895971  1
  O  O19  1  0.65076689  0.57626903  0.48666862  1
  O  O20  1  0.68969514  0.67210284  0.00679780  1
  O  O21  1  0.92706203  0.83345762  0.74441999  1
