# generated using pymatgen
data_TiF4
_symmetry_space_group_name_H-M   'P 1'
_cell_length_a   5.17257072
_cell_length_b   5.47301400
_cell_length_c   6.39160112
_cell_angle_alpha   122.83314640
_cell_angle_beta   107.36353710
_cell_angle_gamma   87.58723242
_symmetry_Int_Tables_number   1
_chemical_formula_structural   TiF4
_chemical_formula_sum   'Ti2 F8'
_cell_volume   143.48411738
_cell_formula_units_Z   2
loop_
 _symmetry_equiv_pos_site_id
 _symmetry_equiv_pos_as_xyz
  1  'x, y, z'
loop_
 _atom_site_type_symbol
 _atom_site_label
 _atom_site_symmetry_multiplicity
 _atom_site_fract_x
 _atom_site_fract_y
 _atom_site_fract_z
 _atom_site_occupancy
  Ti  Ti0  1  0.00426852  0.52825677  0.99840721  1
  Ti  Ti1  1  0.56998313  0.10002149  0.99705097  1
  F  F2  1  0.89532471  0.38417050  0.21673473  1
  F  F3  1  0.66647619  0.24234080  0.78473971  1
  F  F4  1  0.04096701  0.58544240  0.76217287  1
  F  F5  1  0.20861688  0.17800773  0.85369342  1
  F  F6  1  0.31799949  0.70226652  0.26077910  1
  F  F7  1  0.45012246  0.17169741  0.25312692  1
  F  F8  1  0.82906195  0.86147784  0.14326133  1
  F  F9  1  0.50182667  0.73895656  0.71750176  1
