# generated using pymatgen
data_Li5Co3O8
_symmetry_space_group_name_H-M   'P 1'
_cell_length_a   2.98413376
_cell_length_b   5.13730268
_cell_length_c   9.84852217
_cell_angle_alpha   102.04943545
_cell_angle_beta   90.00000000
_cell_angle_gamma   73.11583180
_symmetry_Int_Tables_number   1
_chemical_formula_structural   Li5Co3O8
_chemical_formula_sum   'Li5 Co3 O8'
_cell_volume   140.99361069
_cell_formula_units_Z   1
loop_
 _symmetry_equiv_pos_site_id
 _symmetry_equiv_pos_as_xyz
  1  'x, y, z'
loop_
 _atom_site_type_symbol
 _atom_site_label
 _atom_site_symmetry_multiplicity
 _atom_site_fract_x
 _atom_site_fract_y
 _atom_site_fract_z
 _atom_site_occupancy
  Li  Li0  1  0.24490265  0.51019470  0.12412313  1
  Li  Li1  1  0.75509735  0.48980530  0.37587687  1
  Li  Li2  1  0.25386036  0.49227928  0.62316957  1
  Li  Li3  1  0.74613964  0.50772072  0.87683043  1
  Li  Li4  1  0.50000000  -0.00000000  0.25000000  1
  Co  Co5  1  0.99847900  0.00304199  0.01087889  1
  Co  Co6  1  0.00152100  0.99695801  0.48912111  1
  Co  Co7  1  0.50000000  -0.00000000  0.75000000  1
  O  O8  1  0.38450640  0.23098721  0.93088996  1
  O  O9  1  0.88072074  0.23855851  0.16957685  1
  O  O10  1  0.38785737  0.22428526  0.44152336  1
  O  O11  1  0.88961155  0.22077691  0.67592204  1
  O  O12  1  0.11927926  0.76144149  0.33042315  1
  O  O13  1  0.61549360  0.76901279  0.56911004  1
  O  O14  1  0.11038845  0.77922309  0.82407796  1
  O  O15  1  0.61214263  0.77571474  0.05847664  1
