# generated using pymatgen
data_Li5Mn2CoO8
_symmetry_space_group_name_H-M   'P 1'
_cell_length_a   2.87516073
_cell_length_b   10.20592375
_cell_length_c   5.07495979
_cell_angle_alpha   99.61027910
_cell_angle_beta   73.54456385
_cell_angle_gamma   90.00000037
_symmetry_Int_Tables_number   1
_chemical_formula_structural   Li5Mn2CoO8
_chemical_formula_sum   'Li5 Mn2 Co1 O8'
_cell_volume   140.63781225
_cell_formula_units_Z   1
loop_
 _symmetry_equiv_pos_site_id
 _symmetry_equiv_pos_as_xyz
  1  'x, y, z'
loop_
 _atom_site_type_symbol
 _atom_site_label
 _atom_site_symmetry_multiplicity
 _atom_site_fract_x
 _atom_site_fract_y
 _atom_site_fract_z
 _atom_site_occupancy
  Li  Li0  1  0.24559368  0.13889788  0.50881263  1
  Li  Li1  1  0.75440632  0.36110212  0.49118737  1
  Li  Li2  1  0.25281670  0.61822511  0.49436659  1
  Li  Li3  1  0.74718330  0.88177489  0.50563341  1
  Li  Li4  1  0.50000000  0.25000000  -0.00000000  1
  Mn  Mn5  1  0.98846077  0.01146568  0.02307846  1
  Mn  Mn6  1  0.01153923  0.48853432  0.97692154  1
  Co  Co7  1  0.50000000  0.75000000  -0.00000000  1
  O  O8  1  0.87923473  0.17381683  0.24153053  1
  O  O9  1  0.39420838  0.44812053  0.21158324  1
  O  O10  1  0.89486247  0.68596410  0.21027505  1
  O  O11  1  0.38159636  0.94349678  0.23680729  1
  O  O12  1  0.60579162  0.05187947  0.78841676  1
  O  O13  1  0.12076527  0.32618317  0.75846947  1
  O  O14  1  0.61840364  0.55650322  0.76319271  1
  O  O15  1  0.10513753  0.81403590  0.78972495  1
