# generated using pymatgen
data_Li5Mn(CoO4)2
_symmetry_space_group_name_H-M   'P 1'
_cell_length_a   5.88277707
_cell_length_b   5.79582407
_cell_length_c   5.79582417
_cell_angle_alpha   60.37788370
_cell_angle_beta   119.77945202
_cell_angle_gamma   119.77945429
_symmetry_Int_Tables_number   1
_chemical_formula_structural   Li5Mn(CoO4)2
_chemical_formula_sum   'Li5 Mn1 Co2 O8'
_cell_volume   140.59527705
_cell_formula_units_Z   1
loop_
 _symmetry_equiv_pos_site_id
 _symmetry_equiv_pos_as_xyz
  1  'x, y, z'
loop_
 _atom_site_type_symbol
 _atom_site_label
 _atom_site_symmetry_multiplicity
 _atom_site_fract_x
 _atom_site_fract_y
 _atom_site_fract_z
 _atom_site_occupancy
  Li  Li0  1  0.50000000  0.50000000  0.50000000  1
  Li  Li1  1  0.50000000  -0.00000000  -0.00000000  1
  Li  Li2  1  0.50000000  -0.00000000  0.50000000  1
  Li  Li3  1  0.50000000  0.50000000  -0.00000000  1
  Li  Li4  1  -0.00000000  0.50000000  0.50000000  1
  Mn  Mn5  1  -0.00000000  -0.00000000  -0.00000000  1
  Co  Co6  1  -0.00000000  0.50000000  -0.00000000  1
  Co  Co7  1  -0.00000000  -0.00000000  0.50000000  1
  O  O8  1  0.21589020  0.75049424  0.75049424  1
  O  O9  1  0.24074778  0.23775690  0.23775690  1
  O  O10  1  0.22386331  0.22339357  0.75478752  1
  O  O11  1  0.22386331  0.75478752  0.22339357  1
  O  O12  1  0.78410980  0.24950576  0.24950576  1
  O  O13  1  0.75925222  0.76224310  0.76224310  1
  O  O14  1  0.77613669  0.77660643  0.24521248  1
  O  O15  1  0.77613669  0.24521248  0.77660643  1
