# generated using pymatgen
data_Li5Mn(CoO4)2
_symmetry_space_group_name_H-M   'P 1'
_cell_length_a   2.90210334
_cell_length_b   10.21092161
_cell_length_c   5.13250325
_cell_angle_alpha   99.40412724
_cell_angle_beta   73.57749864
_cell_angle_gamma   89.99999967
_symmetry_Int_Tables_number   1
_chemical_formula_structural   Li5Mn(CoO4)2
_chemical_formula_sum   'Li5 Mn1 Co2 O8'
_cell_volume   143.75507219
_cell_formula_units_Z   1
loop_
 _symmetry_equiv_pos_site_id
 _symmetry_equiv_pos_as_xyz
  1  'x, y, z'
loop_
 _atom_site_type_symbol
 _atom_site_label
 _atom_site_symmetry_multiplicity
 _atom_site_fract_x
 _atom_site_fract_y
 _atom_site_fract_z
 _atom_site_occupancy
  Li  Li0  1  0.25013996  0.13256432  0.49972008  1
  Li  Li1  1  0.74265581  0.38390828  0.51468839  1
  Li  Li2  1  0.25734419  0.61609172  0.48531161  1
  Li  Li3  1  0.74986004  0.86743568  0.50027992  1
  Li  Li4  1  -0.00000000  0.50000000  0.00000000  1
  Mn  Mn5  1  -0.00000000  0.00000000  0.00000000  1
  Co  Co6  1  0.49145362  0.26944714  0.01709276  1
  Co  Co7  1  0.50854638  0.73055286  0.98290724  1
  O  O8  1  0.89143589  0.17694880  0.21712822  1
  O  O9  1  0.37755762  0.42449435  0.24488476  1
  O  O10  1  0.88582707  0.69720450  0.22834586  1
  O  O11  1  0.39019558  0.94488185  0.21960883  1
  O  O12  1  0.60980442  0.05511815  0.78039117  1
  O  O13  1  0.11417293  0.30279550  0.77165414  1
  O  O14  1  0.62244238  0.57550565  0.75511524  1
  O  O15  1  0.10856411  0.82305120  0.78287178  1
