# generated using pymatgen
data_Li5Co3O8
_symmetry_space_group_name_H-M   'P 1'
_cell_length_a   2.98994258
_cell_length_b   6.30588048
_cell_length_c   7.83314336
_cell_angle_alpha   92.30759333
_cell_angle_beta   78.99748004
_cell_angle_gamma   103.71400597
_symmetry_Int_Tables_number   1
_chemical_formula_structural   Li5Co3O8
_chemical_formula_sum   'Li5 Co3 O8'
_cell_volume   140.83819899
_cell_formula_units_Z   1
loop_
 _symmetry_equiv_pos_site_id
 _symmetry_equiv_pos_as_xyz
  1  'x, y, z'
loop_
 _atom_site_type_symbol
 _atom_site_label
 _atom_site_symmetry_multiplicity
 _atom_site_fract_x
 _atom_site_fract_y
 _atom_site_fract_z
 _atom_site_occupancy
  Li  Li0  1  0.12213072  0.86762321  0.62336176  1
  Li  Li1  1  0.37786928  0.63237679  0.87663824  1
  Li  Li2  1  0.62636412  0.38055405  0.12782582  1
  Li  Li3  1  0.87363588  0.11944595  0.37217418  1
  Li  Li4  1  0.25000000  0.75000000  0.25000000  1
  Co  Co5  1  0.99178441  0.99525810  0.01168928  1
  Co  Co6  1  0.50821559  0.50474190  0.48831072  1
  Co  Co7  1  0.75000000  0.25000000  0.75000000  1
  O  O8  1  0.17819883  0.29121625  0.93481860  1
  O  O9  1  0.44429693  0.05976017  0.17116631  1
  O  O10  1  0.66827368  0.78325209  0.44670473  1
  O  O11  1  0.93301067  0.54725711  0.68123577  1
  O  O12  1  0.05570307  0.44023983  0.32883369  1
  O  O13  1  0.32180117  0.20878375  0.56518140  1
  O  O14  1  0.56698933  0.95274289  0.81876423  1
  O  O15  1  0.83172632  0.71674791  0.05329527  1
