# generated using pymatgen
data_Li4MnCo3O8
_symmetry_space_group_name_H-M   'P 1'
_cell_length_a   5.14277877
_cell_length_b   5.02865831
_cell_length_c   5.92628763
_cell_angle_alpha   90.00000000
_cell_angle_beta   90.00000000
_cell_angle_gamma   108.81955553
_symmetry_Int_Tables_number   1
_chemical_formula_structural   Li4MnCo3O8
_chemical_formula_sum   'Li4 Mn1 Co3 O8'
_cell_volume   145.06789366
_cell_formula_units_Z   1
loop_
 _symmetry_equiv_pos_site_id
 _symmetry_equiv_pos_as_xyz
  1  'x, y, z'
loop_
 _atom_site_type_symbol
 _atom_site_label
 _atom_site_symmetry_multiplicity
 _atom_site_fract_x
 _atom_site_fract_y
 _atom_site_fract_z
 _atom_site_occupancy
  Li  Li0  1  0.50000000  0.50000000  0.00227780  1
  Li  Li1  1  0.50000000  -0.00000000  0.25000000  1
  Li  Li2  1  0.50000000  0.50000000  0.49772220  1
  Li  Li3  1  0.50000000  -0.00000000  0.75000000  1
  Mn  Mn4  1  -0.00000000  0.50000000  0.75000000  1
  Co  Co5  1  -0.00000000  -0.00000000  0.00227265  1
  Co  Co6  1  -0.00000000  0.50000000  0.25000000  1
  Co  Co7  1  -0.00000000  -0.00000000  0.49772735  1
  O  O8  1  0.22991707  0.73502514  0.98621379  1
  O  O9  1  0.23122778  0.24748286  0.25000000  1
  O  O10  1  0.22991707  0.73502514  0.51378621  1
  O  O11  1  0.22385480  0.25606989  0.75000000  1
  O  O12  1  0.77008293  0.26497486  0.98621379  1
  O  O13  1  0.76877222  0.75251714  0.25000000  1
  O  O14  1  0.77008293  0.26497486  0.51378621  1
  O  O15  1  0.77614520  0.74393011  0.75000000  1
