# generated using pymatgen
data_Zn4P3O13
_symmetry_space_group_name_H-M   'P 1'
_cell_length_a   5.09726218
_cell_length_b   9.59343091
_cell_length_c   13.40692969
_cell_angle_alpha   102.10788683
_cell_angle_beta   100.31381144
_cell_angle_gamma   102.78906760
_symmetry_Int_Tables_number   1
_chemical_formula_structural   Zn4P3O13
_chemical_formula_sum   'Zn8 P6 O26'
_cell_volume   607.38651072
_cell_formula_units_Z   2
loop_
 _symmetry_equiv_pos_site_id
 _symmetry_equiv_pos_as_xyz
  1  'x, y, z'
loop_
 _atom_site_type_symbol
 _atom_site_label
 _atom_site_symmetry_multiplicity
 _atom_site_fract_x
 _atom_site_fract_y
 _atom_site_fract_z
 _atom_site_occupancy
  Zn  Zn0  1  0.11638060  0.69072972  0.15401281  1
  Zn  Zn1  1  0.87803056  0.30693394  0.84972918  1
  Zn  Zn2  1  0.95191854  0.15885234  0.27684317  1
  Zn  Zn3  1  0.04533902  0.84538537  0.71922724  1
  Zn  Zn4  1  0.54429863  0.47076612  0.20394079  1
  Zn  Zn5  1  0.44482866  0.52549464  0.79513307  1
  Zn  Zn6  1  0.85634713  0.66165465  0.46285969  1
  Zn  Zn7  1  0.13815865  0.33647717  0.53651790  1
  P  P8  1  0.57571332  0.32625947  0.39476254  1
  P  P9  1  0.42082307  0.67353551  0.60659134  1
  P  P10  1  0.95192221  0.32782154  0.09337911  1
  P  P11  1  0.04491753  0.67557401  0.90787521  1
  P  P12  1  0.74712764  0.82179910  0.28566123  1
  P  P13  1  0.24971009  0.18071884  0.71660402  1
  O  O14  1  0.83518373  0.82882023  0.40364952  1
  O  O15  1  0.15709584  0.17227356  0.59871003  1
  O  O16  1  0.04364737  0.74473386  0.02215836  1
  O  O17  1  0.95485666  0.25689952  0.97945133  1
  O  O18  1  0.61886049  0.20232790  0.31282720  1
  O  O19  1  0.37884166  0.79642358  0.69026746  1
  O  O20  1  0.92749091  0.95140566  0.25817183  1
  O  O21  1  0.07241879  0.05195297  0.74605452  1
  O  O22  1  0.79204819  0.67577977  0.21818875  1
  O  O23  1  0.20419868  0.32630504  0.78504205  1
  O  O24  1  0.73127355  0.71571020  0.59756655  1
  O  O25  1  0.26573812  0.28461587  0.40388379  1
  O  O26  1  0.17446722  0.48644880  0.13411590  1
  O  O27  1  0.82732287  0.51910529  0.86192048  1
  O  O28  1  0.50259896  0.99865882  0.49833477  1
  O  O29  1  0.23023384  0.63716309  0.49707044  1
  O  O30  1  0.76748327  0.36552381  0.50460265  1
  O  O31  1  0.66528863  0.34843468  0.09929878  1
  O  O32  1  0.33289990  0.66287802  0.89651451  1
  O  O33  1  0.43821929  0.81589022  0.25916714  1
  O  O34  1  0.56014771  0.18905969  0.74123196  1
  O  O35  1  0.62328502  0.47387265  0.35511847  1
  O  O36  1  0.37337526  0.52539919  0.64507715  1
  O  O37  1  0.05905437  0.23453272  0.16317821  1
  O  O38  1  0.93959602  0.77698181  0.84056895  1
  O  O39  1  0.79085798  0.90980062  0.94979190  1
