# generated using pymatgen
data_Li4MnCo3O8
_symmetry_space_group_name_H-M   'P 1'
_cell_length_a   2.93462702
_cell_length_b   9.77065074
_cell_length_c   5.05559901
_cell_angle_alpha   85.43552791
_cell_angle_beta   88.32927649
_cell_angle_gamma   83.09232720
_symmetry_Int_Tables_number   1
_chemical_formula_structural   Li4MnCo3O8
_chemical_formula_sum   'Li4 Mn1 Co3 O8'
_cell_volume   143.42353876
_cell_formula_units_Z   1
loop_
 _symmetry_equiv_pos_site_id
 _symmetry_equiv_pos_as_xyz
  1  'x, y, z'
loop_
 _atom_site_type_symbol
 _atom_site_label
 _atom_site_symmetry_multiplicity
 _atom_site_fract_x
 _atom_site_fract_y
 _atom_site_fract_z
 _atom_site_occupancy
  Li  Li0  1  0.87325285  0.25172451  0.62579671  1
  Li  Li1  1  0.11547033  0.75485648  0.37503154  1
  Li  Li2  1  0.38452967  0.24514352  0.12496846  1
  Li  Li3  1  0.62674715  0.74827549  0.87420329  1
  Mn  Mn4  1  0.75000000  0.50000000  0.25000000  1
  Co  Co5  1  -0.00049316  0.99860403  -0.00056479  1
  Co  Co6  1  0.25000000  0.50000000  0.75000000  1
  Co  Co7  1  0.50049316  0.00139597  0.50056479  1
  O  O8  1  0.43431015  0.11593989  0.81543297  1
  O  O9  1  0.71435358  0.60655937  0.57342632  1
  O  O10  1  0.93681615  0.11702514  0.31242194  1
  O  O11  1  0.15862841  0.61403678  0.05332383  1
  O  O12  1  0.34137159  0.38596322  0.44667617  1
  O  O13  1  0.56318385  0.88297486  0.18757806  1
  O  O14  1  0.78564642  0.39344063  0.92657368  1
  O  O15  1  0.06568985  0.88406011  0.68456703  1
