# generated using pymatgen
data_Li5Mn(CoO4)2
_symmetry_space_group_name_H-M   'P 1'
_cell_length_a   5.04718612
_cell_length_b   5.78514033
_cell_length_c   5.76842873
_cell_angle_alpha   120.09587153
_cell_angle_beta   105.62242549
_cell_angle_gamma   89.99999976
_symmetry_Int_Tables_number   1
_chemical_formula_structural   Li5Mn(CoO4)2
_chemical_formula_sum   'Li5 Mn1 Co2 O8'
_cell_volume   138.48519039
_cell_formula_units_Z   1
loop_
 _symmetry_equiv_pos_site_id
 _symmetry_equiv_pos_as_xyz
  1  'x, y, z'
loop_
 _atom_site_type_symbol
 _atom_site_label
 _atom_site_symmetry_multiplicity
 _atom_site_fract_x
 _atom_site_fract_y
 _atom_site_fract_z
 _atom_site_occupancy
  Li  Li0  1  0.50187594  0.25010645  0.50021291  1
  Li  Li1  1  0.50000000  0.25517374  0.00000000  1
  Li  Li2  1  0.50000000  0.74482626  1.00000000  1
  Li  Li3  1  0.49812406  0.74989355  0.49978709  1
  Li  Li4  1  0.00000000  0.50000000  0.00000000  1
  Mn  Mn5  1  0.00000000  0.00000000  0.00000000  1
  Co  Co6  1  0.00000000  0.00000000  0.50000000  1
  Co  Co7  1  0.00000000  0.50000000  0.50000000  1
  O  O8  1  0.21999778  0.35927131  0.71854263  1
  O  O9  1  0.21787595  0.36149687  0.24981687  1
  O  O10  1  0.21787595  0.88832001  0.24981687  1
  O  O11  1  0.24547133  0.88507617  0.77015235  1
  O  O12  1  0.75452867  0.11492383  0.22984765  1
  O  O13  1  0.78212405  0.11167999  0.75018313  1
  O  O14  1  0.78212405  0.63850313  0.75018313  1
  O  O15  1  0.78000222  0.64072869  0.28145737  1
