# generated using pymatgen
data_Li7Co5O12
_symmetry_space_group_name_H-M   'P 1'
_cell_length_a   2.87580533
_cell_length_b   7.54402076
_cell_length_c   9.73709161
_cell_angle_alpha   87.45778327
_cell_angle_beta   81.50793040
_cell_angle_gamma   100.98789486
_symmetry_Int_Tables_number   1
_chemical_formula_structural   Li7Co5O12
_chemical_formula_sum   'Li7 Co5 O12'
_cell_volume   204.52856992
_cell_formula_units_Z   1
loop_
 _symmetry_equiv_pos_site_id
 _symmetry_equiv_pos_as_xyz
  1  'x, y, z'
loop_
 _atom_site_type_symbol
 _atom_site_label
 _atom_site_symmetry_multiplicity
 _atom_site_fract_x
 _atom_site_fract_y
 _atom_site_fract_z
 _atom_site_occupancy
  Li  Li0  1  0.57998683  0.91411060  0.75413595  1
  Li  Li1  1  0.41616789  0.08325101  0.25091622  1
  Li  Li2  1  0.25049911  0.25008199  0.74908378  1
  Li  Li3  1  0.08667917  0.41922340  0.24586405  1
  Li  Li4  1  0.75146542  0.74480224  0.24187140  1
  Li  Li5  1  0.91520158  0.58853076  0.75812860  1
  Li  Li6  1  0.33333300  0.66666700  -0.00000000  1
  Co  Co7  1  0.99720235  0.99370754  0.99930284  1
  Co  Co8  1  0.66946465  0.33962546  0.00069716  1
  Co  Co9  1  0.83333300  0.16666700  0.50000000  1
  Co  Co10  1  0.49842950  0.49834596  0.50148697  1
  Co  Co11  1  0.16823750  0.83498704  0.49851303  1
  O  O12  1  0.39212569  0.89432698  0.11007661  1
  O  O13  1  0.22029104  0.05056337  0.60998129  1
  O  O14  1  0.05452919  0.21159954  0.10254017  1
  O  O15  1  0.87655395  0.36922788  0.61612098  1
  O  O16  1  0.54330870  0.70745079  0.62083238  1
  O  O17  1  0.70236709  0.52013264  0.11539846  1
  O  O18  1  0.79011305  0.96410512  0.38387902  1
  O  O19  1  0.61213681  0.12173446  0.89745983  1
  O  O20  1  0.44637596  0.28276963  0.39001871  1
  O  O21  1  0.27454131  0.43900602  0.88992339  1
  O  O22  1  0.96429991  0.81320036  0.88460154  1
  O  O23  1  0.12335730  0.62588321  0.37916762  1
