# generated using pymatgen
data_Li4MnCo2O7
_symmetry_space_group_name_H-M   'P 1'
_cell_length_a   5.88623336
_cell_length_b   6.64830838
_cell_length_c   7.66421031
_cell_angle_alpha   114.81642437
_cell_angle_beta   78.72788450
_cell_angle_gamma   76.74749862
_symmetry_Int_Tables_number   1
_chemical_formula_structural   Li4MnCo2O7
_chemical_formula_sum   'Li8 Mn2 Co4 O14'
_cell_volume   250.12334129
_cell_formula_units_Z   2
loop_
 _symmetry_equiv_pos_site_id
 _symmetry_equiv_pos_as_xyz
  1  'x, y, z'
loop_
 _atom_site_type_symbol
 _atom_site_label
 _atom_site_symmetry_multiplicity
 _atom_site_fract_x
 _atom_site_fract_y
 _atom_site_fract_z
 _atom_site_occupancy
  Li  Li0  1  0.21572561  0.28923999  0.86057132  1
  Li  Li1  1  0.50226829  0.99226135  0.99916122  1
  Li  Li2  1  0.92829026  0.57390594  0.71585525  1
  Li  Li3  1  0.64051335  0.86308175  0.57229324  1
  Li  Li4  1  0.35698942  0.13715796  0.42584165  1
  Li  Li5  1  0.07745949  0.42974375  0.28422925  1
  Li  Li6  1  0.78052185  0.71493107  0.14455387  1
  Li  Li7  1  0.28384513  0.71684506  0.14486172  1
  Mn  Mn8  1  0.00355985  0.99299144  0.99926357  1
  Mn  Mn9  1  0.85687554  0.13541554  0.42513222  1
  Co  Co10  1  0.57265542  0.43108656  0.28451127  1
  Co  Co11  1  0.15716768  0.85260759  0.55588284  1
  Co  Co12  1  0.42772708  0.57647216  0.72610059  1
  Co  Co13  1  0.70132716  0.29315268  0.86495834  1
  O  O14  1  0.30206221  0.93152926  0.79992262  1
  O  O15  1  0.60309490  0.62875989  0.91185564  1
  O  O16  1  0.01239850  0.20973129  0.63400730  1
  O  O17  1  0.74004123  0.47142221  0.48368721  1
  O  O18  1  0.45164393  0.79127585  0.37126828  1
  O  O19  1  0.14806181  0.07157262  0.21555650  1
  O  O20  1  0.88357892  0.33686576  0.07307182  1
  O  O21  1  0.10347014  0.66450060  0.92540653  1
  O  O22  1  0.41846509  0.35409862  0.07462360  1
  O  O23  1  0.84673616  0.93700206  0.79158313  1
  O  O24  1  0.54820692  0.22094003  0.63782181  1
  O  O25  1  0.27647995  0.50526813  0.49442339  1
  O  O26  1  0.95453072  0.81465250  0.37176007  1
  O  O27  1  0.70630338  0.06348832  0.21179574  1
