# generated using pymatgen
data_Li4MnCo2O7
_symmetry_space_group_name_H-M   'P 1'
_cell_length_a   5.92739263
_cell_length_b   7.64568767
_cell_length_c   6.50318284
_cell_angle_alpha   104.74750102
_cell_angle_beta   76.82686355
_cell_angle_gamma   69.04458737
_symmetry_Int_Tables_number   1
_chemical_formula_structural   Li4MnCo2O7
_chemical_formula_sum   'Li8 Mn2 Co4 O14'
_cell_volume   249.00779031
_cell_formula_units_Z   2
loop_
 _symmetry_equiv_pos_site_id
 _symmetry_equiv_pos_as_xyz
  1  'x, y, z'
loop_
 _atom_site_type_symbol
 _atom_site_label
 _atom_site_symmetry_multiplicity
 _atom_site_fract_x
 _atom_site_fract_y
 _atom_site_fract_z
 _atom_site_occupancy
  Li  Li0  1  0.35697757  0.71560553  0.14571431  1
  Li  Li1  1  0.20450202  0.42936874  0.29224020  1
  Li  Li2  1  0.65264098  0.28491626  0.85061680  1
  Li  Li3  1  0.50016543  0.99868047  0.99714269  1
  Li  Li4  1  0.92857100  0.85714300  0.57142900  1
  Li  Li5  1  0.78517673  0.57028594  0.70982238  1
  Li  Li6  1  0.07196627  0.14400006  0.43303462  1
  Li  Li7  1  0.42857100  0.85714300  0.57142900  1
  Mn  Mn8  1  0.00414223  0.99707138  0.99668431  1
  Mn  Mn9  1  0.85300077  0.71721462  0.14617269  1
  Co  Co10  1  0.69959871  0.44239191  0.29819214  1
  Co  Co11  1  0.57304656  0.14340270  0.43167603  1
  Co  Co12  1  0.28409644  0.57088330  0.71118097  1
  Co  Co13  1  0.15754429  0.27189309  0.84466486  1
  O  O14  1  0.96877836  0.91755717  0.26473171  1
  O  O15  1  0.83246635  0.63882313  0.40489871  1
  O  O16  1  0.21760546  0.51600349  0.99100950  1
  O  O17  1  0.09697743  0.20397209  0.13203651  1
  O  O18  1  0.51392152  0.09358730  0.71104368  1
  O  O19  1  0.35581658  0.78897975  0.85554647  1
  O  O20  1  0.67321672  0.34833275  0.56300449  1
  O  O21  1  0.76016557  0.51031391  0.01082049  1
  O  O22  1  0.63953654  0.19828251  0.15184850  1
  O  O23  1  0.02467665  0.07546287  0.73795829  1
  O  O24  1  0.88836464  0.79672783  0.87812529  1
  O  O25  1  0.34322148  0.62069770  0.43181332  1
  O  O26  1  0.18392628  0.36595325  0.57985251  1
  O  O27  1  0.50132642  0.92530625  0.28731053  1
