# generated using pymatgen
data_Li4MnCo2O7
_symmetry_space_group_name_H-M   'P 1'
_cell_length_a   6.57472298
_cell_length_b   6.55301221
_cell_length_c   6.61814677
_cell_angle_alpha   71.38729579
_cell_angle_beta   107.89761980
_cell_angle_gamma   107.92635643
_symmetry_Int_Tables_number   1
_chemical_formula_structural   Li4MnCo2O7
_chemical_formula_sum   'Li8 Mn2 Co4 O14'
_cell_volume   250.09862431
_cell_formula_units_Z   2
loop_
 _symmetry_equiv_pos_site_id
 _symmetry_equiv_pos_as_xyz
  1  'x, y, z'
loop_
 _atom_site_type_symbol
 _atom_site_label
 _atom_site_symmetry_multiplicity
 _atom_site_fract_x
 _atom_site_fract_y
 _atom_site_fract_z
 _atom_site_occupancy
  Li  Li0  1  0.78182337  0.92583382  0.35513250  1
  Li  Li1  1  0.63337141  0.20491625  0.91839918  1
  Li  Li2  1  0.50045073  0.50354500  0.50189021  1
  Li  Li3  1  0.92457457  0.64640941  0.78369103  1
  Li  Li4  1  0.07527814  0.35980162  0.21883527  1
  Li  Li5  1  0.22431495  0.06619990  0.65261055  1
  Li  Li6  1  0.35878060  0.78671429  0.06756075  1
  Li  Li7  1  0.57062620  0.85868283  0.71603047  1
  Mn  Mn8  1  0.99595437  -0.00039421  0.99734168  1
  Mn  Mn9  1  0.85527887  0.28269508  0.57332158  1
  Co  Co10  1  0.70821347  0.57321584  0.12619578  1
  Co  Co11  1  0.43161569  0.14173018  0.29321253  1
  Co  Co12  1  0.29053990  0.44257968  0.85497533  1
  Co  Co13  1  0.15073466  0.71674279  0.42948111  1
  O  O14  1  0.70127999  0.89211293  0.04076800  1
  O  O15  1  0.55425786  0.18825202  0.59624305  1
  O  O16  1  0.39756748  0.45220455  0.17763275  1
  O  O17  1  0.83390937  0.59171754  0.45830289  1
  O  O18  1  0.96014721  0.30322766  0.87972190  1
  O  O19  1  0.10450064  0.02976274  0.30024411  1
  O  O20  1  0.24588278  0.73210490  0.74923745  1
  O  O21  1  0.89905684  0.98476418  0.69292475  1
  O  O22  1  0.75537170  0.25174296  0.27672452  1
  O  O23  1  0.60783635  0.52712661  0.84208046  1
  O  O24  1  0.02919288  0.69827245  0.10125882  1
  O  O25  1  0.16242476  0.39390411  0.54188490  1
  O  O26  1  0.30270182  0.11691542  0.96747950  1
  O  O27  1  0.44431339  0.82921943  0.38681891  1
