# generated using pymatgen
data_Y3Mn3Ga2Ge
_symmetry_space_group_name_H-M   'P 1'
_cell_length_a   4.14445600
_cell_length_b   7.02733213
_cell_length_c   7.02770947
_cell_angle_alpha   119.99257406
_cell_angle_beta   90.00000000
_cell_angle_gamma   90.00000000
_symmetry_Int_Tables_number   1
_chemical_formula_structural   Y3Mn3Ga2Ge
_chemical_formula_sum   'Y3 Mn3 Ga2 Ge1'
_cell_volume   177.26987438
_cell_formula_units_Z   1
loop_
 _symmetry_equiv_pos_site_id
 _symmetry_equiv_pos_as_xyz
  1  'x, y, z'
loop_
 _atom_site_type_symbol
 _atom_site_label
 _atom_site_symmetry_multiplicity
 _atom_site_fract_x
 _atom_site_fract_y
 _atom_site_fract_z
 _atom_site_occupancy
  Y  Y0  1  0.50000000  0.57962608  0.99852566  1
  Y  Y1  1  0.50000000  0.41879670  0.42040541  1
  Y  Y2  1  0.50000000  0.00159036  0.58106329  1
  Mn  Mn3  1  0.00000000  0.22923267  0.99639533  1
  Mn  Mn4  1  0.00000000  0.76699266  0.77112960  1
  Mn  Mn5  1  0.00000000  0.00374949  0.23262793  1
  Ga  Ga6  1  0.00000000  0.66675273  0.33322039  1
  Ga  Ga7  1  0.50000000  0.99996136  -0.00001596  1
  Ge  Ge8  1  -0.00000000  0.33319796  0.66664835  1
