# generated using pymatgen
data_Li4MnCo2O7
_symmetry_space_group_name_H-M   'P 1'
_cell_length_a   5.14559179
_cell_length_b   7.71291775
_cell_length_c   7.73776622
_cell_angle_alpha   119.35199973
_cell_angle_beta   108.87968090
_cell_angle_gamma   83.83868963
_symmetry_Int_Tables_number   1
_chemical_formula_structural   Li4MnCo2O7
_chemical_formula_sum   'Li8 Mn2 Co4 O14'
_cell_volume   252.77899007
_cell_formula_units_Z   2
loop_
 _symmetry_equiv_pos_site_id
 _symmetry_equiv_pos_as_xyz
  1  'x, y, z'
loop_
 _atom_site_type_symbol
 _atom_site_label
 _atom_site_symmetry_multiplicity
 _atom_site_fract_x
 _atom_site_fract_y
 _atom_site_fract_z
 _atom_site_occupancy
  Li  Li0  1  0.50461848  0.21550298  0.07659260  1
  Li  Li1  1  0.50077066  0.49238420  0.49326564  1
  Li  Li2  1  0.50355560  0.64243987  0.21637450  1
  Li  Li3  1  0.49644440  0.92898813  0.64076850  1
  Li  Li4  1  0.49922934  0.07904480  0.36387736  1
  Li  Li5  1  0.49538152  0.35592602  0.78055040  1
  Li  Li6  1  0.50000000  0.78571400  0.92857100  1
  Li  Li7  1  -0.00000000  0.28571400  0.42857100  1
  Mn  Mn8  1  0.00364597  0.00133377  0.00192766  1
  Mn  Mn9  1  0.99635403  0.57009523  0.85521534  1
  Co  Co10  1  -0.00548956  0.86245574  0.28864726  1
  Co  Co11  1  0.00691626  0.14511477  0.70525742  1
  Co  Co12  1  0.99308374  0.42631323  0.15188558  1
  Co  Co13  1  0.00548956  0.70897326  0.56849574  1
  O  O14  1  0.22214520  0.96415611  0.82468249  1
  O  O15  1  0.23176744  0.23070689  0.22607670  1
  O  O16  1  0.22153092  0.40423107  0.95926127  1
  O  O17  1  0.23200366  0.68000412  0.38522356  1
  O  O18  1  0.22235260  0.81726674  0.09004308  1
  O  O19  1  0.23510594  0.10282056  0.54313062  1
  O  O20  1  0.22014027  0.55019192  0.68470168  1
  O  O21  1  0.76489406  0.46860844  0.31401238  1
  O  O22  1  0.77764740  0.75416126  0.76709992  1
  O  O23  1  0.76799634  0.89142388  0.47191844  1
  O  O24  1  0.77846908  0.16719793  0.89788173  1
  O  O25  1  0.76823256  0.34072211  0.63106630  1
  O  O26  1  0.77785480  0.60727289  0.03246051  1
  O  O27  1  0.77985973  0.02123608  0.17244132  1
