# generated using pymatgen
data_Li4MnCo2O7
_symmetry_space_group_name_H-M   'P 1'
_cell_length_a   5.11586983
_cell_length_b   7.73383292
_cell_length_c   7.67440862
_cell_angle_alpha   118.99238876
_cell_angle_beta   107.96081981
_cell_angle_gamma   77.70160914
_symmetry_Int_Tables_number   1
_chemical_formula_structural   Li4MnCo2O7
_chemical_formula_sum   'Li8 Mn2 Co4 O14'
_cell_volume   251.90867523
_cell_formula_units_Z   2
loop_
 _symmetry_equiv_pos_site_id
 _symmetry_equiv_pos_as_xyz
  1  'x, y, z'
loop_
 _atom_site_type_symbol
 _atom_site_label
 _atom_site_symmetry_multiplicity
 _atom_site_fract_x
 _atom_site_fract_y
 _atom_site_fract_z
 _atom_site_occupancy
  Li  Li0  1  0.49704080  0.22792885  0.14914691  1
  Li  Li1  1  0.49922742  0.36095015  0.57228915  1
  Li  Li2  1  0.49790883  0.63027581  0.41429481  1
  Li  Li3  1  0.49606120  0.78251512  0.85489819  1
  Li  Li4  1  0.50058521  0.06983970  0.71320477  1
  Li  Li5  1  0.51335583  0.50506064  0.01110869  1
  Li  Li6  1  0.49833137  0.92595601  0.28639583  1
  Li  Li7  1  0.99781044  0.42929101  0.28411045  1
  Mn  Mn8  1  0.00038169  0.00241778  0.00343208  1
  Mn  Mn9  1  0.99851818  0.14398939  0.42647344  1
  Co  Co10  1  0.00445496  0.28890708  0.86759133  1
  Co  Co11  1  0.99271199  0.56872335  0.70729624  1
  Co  Co12  1  0.00241279  0.70614627  0.14868818  1
  Co  Co13  1  0.00348753  0.85106460  0.56971498  1
  O  O14  1  0.23059047  0.03476647  0.86524271  1
  O  O15  1  0.21957497  0.16493940  0.27478933  1
  O  O16  1  0.24411141  0.46538338  0.12731338  1
  O  O17  1  0.22569736  0.62090395  0.58135285  1
  O  O18  1  0.22888220  0.90394002  0.42730381  1
  O  O19  1  0.22190439  0.30894659  0.69425149  1
  O  O20  1  0.21736664  0.76277597  0.00114570  1
  O  O21  1  0.76764586  0.37920471  0.43575333  1
  O  O22  1  0.77029917  0.53645991  0.85929132  1
  O  O23  1  0.77207558  0.83166568  0.73366718  1
  O  O24  1  0.77730993  0.97874145  0.15374318  1
  O  O25  1  0.77455222  0.23343353  0.98648933  1
  O  O26  1  0.76668051  0.68728307  0.28494295  1
  O  O27  1  0.78102103  0.09849008  0.56606839  1
