# generated using pymatgen
data_Li4MnCo2O7
_symmetry_space_group_name_H-M   'P 1'
_cell_length_a   5.90980032
_cell_length_b   6.61241105
_cell_length_c   7.73737206
_cell_angle_alpha   115.08000251
_cell_angle_beta   79.00329498
_cell_angle_gamma   76.31380209
_symmetry_Int_Tables_number   1
_chemical_formula_structural   Li4MnCo2O7
_chemical_formula_sum   'Li8 Mn2 Co4 O14'
_cell_volume   251.10419500
_cell_formula_units_Z   2
loop_
 _symmetry_equiv_pos_site_id
 _symmetry_equiv_pos_as_xyz
  1  'x, y, z'
loop_
 _atom_site_type_symbol
 _atom_site_label
 _atom_site_symmetry_multiplicity
 _atom_site_fract_x
 _atom_site_fract_y
 _atom_site_fract_z
 _atom_site_occupancy
  Li  Li0  1  0.21285227  0.29441913  0.86202562  1
  Li  Li1  1  0.50202553  0.99477516  0.00402707  1
  Li  Li2  1  0.92771721  0.57056229  0.71246530  1
  Li  Li3  1  0.64373022  0.85369532  0.57062352  1
  Li  Li4  1  0.35237476  0.13845397  0.42591887  1
  Li  Li5  1  0.07574724  0.43016078  0.28304783  1
  Li  Li6  1  0.77805098  0.71785740  0.14807776  1
  Li  Li7  1  0.28719836  0.71795763  0.14379871  1
  Mn  Mn8  1  0.00580045  0.99804065  0.00070696  1
  Mn  Mn9  1  0.42613297  0.57101015  0.71776070  1
  Co  Co10  1  0.56531202  0.42972880  0.28033412  1
  Co  Co11  1  0.86530993  0.12552892  0.42212057  1
  Co  Co12  1  0.14900930  0.85511666  0.56062432  1
  Co  Co13  1  0.71264722  0.29341393  0.85853134  1
  O  O14  1  0.31305852  0.91098773  0.79280601  1
  O  O15  1  0.59929122  0.62912341  0.90942765  1
  O  O16  1  0.02042106  0.21051146  0.64657929  1
  O  O17  1  0.72367096  0.48699629  0.50160134  1
  O  O18  1  0.44975692  0.78465088  0.37137144  1
  O  O19  1  0.15552365  0.07540975  0.20879396  1
  O  O20  1  0.89634529  0.33653766  0.06721334  1
  O  O21  1  0.11869499  0.66159538  0.92113814  1
  O  O22  1  0.42203341  0.35411077  0.07189906  1
  O  O23  1  0.84931241  0.93696465  0.78962904  1
  O  O24  1  0.52874581  0.24050347  0.65102988  1
  O  O25  1  0.26346688  0.50763038  0.50803335  1
  O  O26  1  0.95229605  0.80719638  0.37034064  1
  O  O27  1  0.70347435  0.06706100  0.20007416  1
