# generated using pymatgen
data_Li4MnCo2O7
_symmetry_space_group_name_H-M   'P 1'
_cell_length_a   5.11624788
_cell_length_b   5.14699167
_cell_length_c   10.43508123
_cell_angle_alpha   84.75377162
_cell_angle_beta   103.29527326
_cell_angle_gamma   109.55773736
_symmetry_Int_Tables_number   1
_chemical_formula_structural   Li4MnCo2O7
_chemical_formula_sum   'Li8 Mn2 Co4 O14'
_cell_volume   251.96452853
_cell_formula_units_Z   2
loop_
 _symmetry_equiv_pos_site_id
 _symmetry_equiv_pos_as_xyz
  1  'x, y, z'
loop_
 _atom_site_type_symbol
 _atom_site_label
 _atom_site_symmetry_multiplicity
 _atom_site_fract_x
 _atom_site_fract_y
 _atom_site_fract_z
 _atom_site_occupancy
  Li  Li0  1  0.07142900  0.50000000  0.14285700  1
  Li  Li1  1  0.63801406  0.50246454  0.28237180  1
  Li  Li2  1  0.20821732  0.49607505  0.42640193  1
  Li  Li3  1  0.78875478  0.50072776  0.57353936  1
  Li  Li4  1  0.35410222  0.49927224  0.71217564  1
  Li  Li5  1  0.93463968  0.50392495  0.85931207  1
  Li  Li6  1  0.50484294  0.49753546  0.00334220  1
  Li  Li7  1  0.57142900  -0.00000000  0.14285700  1
  Mn  Mn8  1  0.00527789  0.00687725  0.00281669  1
  Mn  Mn9  1  0.13757911  0.99312275  0.28289731  1
  Co  Co10  1  0.70615643  0.99611041  0.42029049  1
  Co  Co11  1  0.28430124  0.99495571  0.57329110  1
  Co  Co12  1  0.85855576  0.00504429  0.71242390  1
  Co  Co13  1  0.43670057  0.00388959  0.86542351  1
  O  O14  1  0.76503072  0.22961333  0.99673382  1
  O  O15  1  0.29038058  0.22588664  0.14249345  1
  O  O16  1  0.89811488  0.21821669  0.29430080  1
  O  O17  1  0.43666000  0.21964709  0.42024901  1
  O  O18  1  0.02887884  0.22840001  0.57552357  1
  O  O19  1  0.59546352  0.22584749  0.71512104  1
  O  O20  1  0.17360287  0.23470998  0.86438279  1
  O  O21  1  0.37782628  0.77038667  0.28898018  1
  O  O22  1  0.96925513  0.76529002  0.42133121  1
  O  O23  1  0.54739348  0.77415251  0.57059296  1
  O  O24  1  0.11397816  0.77159999  0.71019043  1
  O  O25  1  0.70619700  0.78035291  0.86546599  1
  O  O26  1  0.24474212  0.78178331  0.99141420  1
  O  O27  1  0.85247642  0.77411336  0.14322055  1
