# generated using pymatgen
data_Li7Mn2(CoO4)3
_symmetry_space_group_name_H-M   'P 1'
_cell_length_a   5.07798049
_cell_length_b   6.50820100
_cell_length_c   6.65109289
_cell_angle_alpha   83.35903769
_cell_angle_beta   97.16307017
_cell_angle_gamma   95.75190836
_symmetry_Int_Tables_number   1
_chemical_formula_structural   Li7Mn2(CoO4)3
_chemical_formula_sum   'Li7 Mn2 Co3 O12'
_cell_volume   215.80735956
_cell_formula_units_Z   1
loop_
 _symmetry_equiv_pos_site_id
 _symmetry_equiv_pos_as_xyz
  1  'x, y, z'
loop_
 _atom_site_type_symbol
 _atom_site_label
 _atom_site_symmetry_multiplicity
 _atom_site_fract_x
 _atom_site_fract_y
 _atom_site_fract_z
 _atom_site_occupancy
  Li  Li0  1  0.76071114  0.25338494  0.25438875  1
  Li  Li1  1  0.75531778  0.57563430  0.91256535  1
  Li  Li2  1  0.24468222  0.09103170  0.42076865  1
  Li  Li3  1  0.23928886  0.41328206  0.07894425  1
  Li  Li4  1  0.75745708  0.92608205  0.58792039  1
  Li  Li5  1  0.24254292  0.74058495  0.74541261  1
  Li  Li6  1  0.00000000  0.33333300  0.66666700  1
  Mn  Mn7  1  0.99710964  0.00472685  0.99519780  1
  Mn  Mn8  1  0.00289036  0.66194015  0.33813520  1
  Co  Co9  1  0.50000000  0.83333300  0.16666700  1
  Co  Co10  1  0.48956883  0.17768825  0.82824576  1
  Co  Co11  1  0.51043117  0.48897875  0.50508724  1
  O  O12  1  0.87428399  0.26864400  0.96100671  1
  O  O13  1  0.87040824  0.63144083  0.59491398  1
  O  O14  1  0.35542497  0.10325592  0.11720208  1
  O  O15  1  0.39644013  0.44959621  0.79319355  1
  O  O16  1  0.87830062  0.94694492  0.27451635  1
  O  O17  1  0.35304649  0.77319978  0.44565749  1
  O  O18  1  0.60355987  0.21707079  0.54013945  1
  O  O19  1  0.64457503  0.56341008  0.21613192  1
  O  O20  1  0.12959176  0.03522517  0.73842002  1
  O  O21  1  0.12571601  0.39802300  0.37232629  1
  O  O22  1  0.64695351  0.89346722  0.88767551  1
  O  O23  1  0.12169938  0.71972208  0.05881665  1
