# generated using pymatgen
data_Li7Mn5O12
_symmetry_space_group_name_H-M   'P 1'
_cell_length_a   3.00691633
_cell_length_b   5.10012997
_cell_length_c   14.73232272
_cell_angle_alpha   97.89737721
_cell_angle_beta   86.64965559
_cell_angle_gamma   93.53846664
_symmetry_Int_Tables_number   1
_chemical_formula_structural   Li7Mn5O12
_chemical_formula_sum   'Li7 Mn5 O12'
_cell_volume   223.07514727
_cell_formula_units_Z   1
loop_
 _symmetry_equiv_pos_site_id
 _symmetry_equiv_pos_as_xyz
  1  'x, y, z'
loop_
 _atom_site_type_symbol
 _atom_site_label
 _atom_site_symmetry_multiplicity
 _atom_site_fract_x
 _atom_site_fract_y
 _atom_site_fract_z
 _atom_site_occupancy
  Li  Li0  1  0.91306825  0.42532743  0.15509771  1
  Li  Li1  1  0.24928826  0.75130013  0.50021743  1
  Li  Li2  1  0.57219021  0.09250528  0.84220669  1
  Li  Li3  1  0.42780979  0.90749472  0.15779331  1
  Li  Li4  1  0.75071174  0.24869987  0.49978257  1
  Li  Li5  1  0.08693175  0.57467257  0.84490229  1
  Li  Li6  1  0.50000000  0.50000000  0.00000000  1
  Mn  Mn7  1  0.00000000  0.00000000  0.00000000  1
  Mn  Mn8  1  0.83740671  0.83214472  0.33235010  1
  Mn  Mn9  1  0.33738220  0.33231875  0.33276108  1
  Mn  Mn10  1  0.66261780  0.66768125  0.66723892  1
  Mn  Mn11  1  0.16259329  0.16785528  0.66764990  1
  O  O12  1  0.49334129  0.18084591  0.07167860  1
  O  O13  1  0.77007549  0.54697074  0.41088808  1
  O  O14  1  0.10536951  0.87665801  0.74176924  1
  O  O15  1  0.95202871  0.73069851  0.07844184  1
  O  O16  1  0.26487975  0.04782224  0.41144861  1
  O  O17  1  0.59841056  0.38180199  0.74383672  1
  O  O18  1  0.40158944  0.61819801  0.25616328  1
  O  O19  1  0.73512025  0.95217776  0.58855139  1
  O  O20  1  0.04797129  0.26930149  0.92155816  1
  O  O21  1  0.89463049  0.12334199  0.25823076  1
  O  O22  1  0.22992451  0.45302926  0.58911192  1
  O  O23  1  0.50665871  0.81915409  0.92832140  1
