# generated using pymatgen
data_Li7Mn2(CoO4)3
_symmetry_space_group_name_H-M   'P 1'
_cell_length_a   5.19024208
_cell_length_b   7.70647524
_cell_length_c   5.73697030
_cell_angle_alpha   100.71949653
_cell_angle_beta   90.01151604
_cell_angle_gamma   107.80949574
_symmetry_Int_Tables_number   1
_chemical_formula_structural   Li7Mn2(CoO4)3
_chemical_formula_sum   'Li7 Mn2 Co3 O12'
_cell_volume   214.26096502
_cell_formula_units_Z   1
loop_
 _symmetry_equiv_pos_site_id
 _symmetry_equiv_pos_as_xyz
  1  'x, y, z'
loop_
 _atom_site_type_symbol
 _atom_site_label
 _atom_site_symmetry_multiplicity
 _atom_site_fract_x
 _atom_site_fract_y
 _atom_site_fract_z
 _atom_site_occupancy
  Li  Li0  1  0.50573254  0.99871235  0.75130753  1
  Li  Li1  1  0.84525092  0.34566065  0.58696952  1
  Li  Li2  1  0.15801682  0.65619004  0.41358549  1
  Li  Li3  1  0.49955069  0.99357252  0.24658663  1
  Li  Li4  1  0.82809863  0.34635988  0.08638283  1
  Li  Li5  1  0.15841795  0.65601497  0.91452825  1
  Li  Li6  1  0.66756101  0.66587419  0.16586213  1
  Mn  Mn7  1  0.00183637  0.99663252  -0.00082712  1
  Mn  Mn8  1  0.99733198  0.99574805  0.49874392  1
  Co  Co9  1  0.34006394  0.34453926  0.83861951  1
  Co  Co10  1  0.66910244  0.66551731  0.66648855  1
  Co  Co11  1  0.34250294  0.34490775  0.33447127  1
  O  O12  1  0.09634364  0.85649478  0.71326684  1
  O  O13  1  0.37751511  0.17111188  0.54025259  1
  O  O14  1  0.72256808  0.50075179  0.39193045  1
  O  O15  1  0.08678406  0.85131573  0.21398149  1
  O  O16  1  0.38723824  0.16352210  0.04226885  1
  O  O17  1  0.72037249  0.49891789  0.85900047  1
  O  O18  1  0.92959115  0.15067259  0.78712425  1
  O  O19  1  0.24828373  0.49950594  0.62479719  1
  O  O20  1  0.63063777  0.83722426  0.47198072  1
  O  O21  1  0.91720133  0.14335315  0.28551189  1
  O  O22  1  0.23743016  0.48096523  0.12099303  1
  O  O23  1  0.63256801  0.83643518  0.94617372  1
