# generated using pymatgen
data_UAl7GaFe4
_symmetry_space_group_name_H-M   'P 1'
_cell_length_a   5.13085075
_cell_length_b   6.68483999
_cell_length_c   6.68483999
_cell_angle_alpha   98.60691413
_cell_angle_beta   112.56725609
_cell_angle_gamma   67.43274391
_symmetry_Int_Tables_number   1
_chemical_formula_structural   UAl7GaFe4
_chemical_formula_sum   'U1 Al7 Ga1 Fe4'
_cell_volume   195.51378873
_cell_formula_units_Z   1
loop_
 _symmetry_equiv_pos_site_id
 _symmetry_equiv_pos_as_xyz
  1  'x, y, z'
loop_
 _atom_site_type_symbol
 _atom_site_label
 _atom_site_symmetry_multiplicity
 _atom_site_fract_x
 _atom_site_fract_y
 _atom_site_fract_z
 _atom_site_occupancy
  U  U0  1  -0.00000000  0.00124661  0.00124661  1
  Al  Al1  1  0.49759321  0.99909346  0.49728495  1
  Al  Al2  1  0.00059827  0.99909346  0.49728495  1
  Al  Al3  1  0.50240679  0.49728495  0.99909346  1
  Al  Al4  1  -0.00059827  0.49728495  0.99909346  1
  Al  Al5  1  0.64547058  0.35249363  0.64343479  1
  Al  Al6  1  0.35452942  0.64343479  0.35249363  1
  Al  Al7  1  0.00000000  0.35871668  0.35871668  1
  Ga  Ga8  1  -0.00000000  0.64725814  0.64725814  1
  Fe  Fe9  1  0.70079487  0.79675784  0.19834758  1
  Fe  Fe10  1  0.29920513  0.19834758  0.79675784  1
  Fe  Fe11  1  0.50000000  0.79470169  0.79470169  1
  Fe  Fe12  1  0.50000000  0.21428620  0.21428620  1
