# generated using pymatgen
data_Li7Mn2(CoO4)3
_symmetry_space_group_name_H-M   'P 1'
_cell_length_a   5.91688706
_cell_length_b   5.76276042
_cell_length_c   7.84072055
_cell_angle_alpha   100.35116927
_cell_angle_beta   113.14568766
_cell_angle_gamma   60.91483936
_symmetry_Int_Tables_number   1
_chemical_formula_structural   Li7Mn2(CoO4)3
_chemical_formula_sum   'Li7 Mn2 Co3 O12'
_cell_volume   214.80908987
_cell_formula_units_Z   1
loop_
 _symmetry_equiv_pos_site_id
 _symmetry_equiv_pos_as_xyz
  1  'x, y, z'
loop_
 _atom_site_type_symbol
 _atom_site_label
 _atom_site_symmetry_multiplicity
 _atom_site_fract_x
 _atom_site_fract_y
 _atom_site_fract_z
 _atom_site_occupancy
  Li  Li0  1  0.50473467  0.33480996  0.34435406  1
  Li  Li1  1  0.48779990  0.17115880  0.65742610  1
  Li  Li2  1  0.50471875  0.83230244  0.34345013  1
  Li  Li3  1  0.47410632  0.67338647  0.64910023  1
  Li  Li4  1  0.50698985  0.49779144  0.00028521  1
  Li  Li5  1  0.51164441  0.99396642  0.00357503  1
  Li  Li6  1  0.99675260  0.83426279  0.33380016  1
  Mn  Mn7  1  0.01268905  0.99458080  0.00399317  1
  Mn  Mn8  1  0.00744382  0.49874553  0.00564649  1
  Co  Co9  1  0.99135014  0.67015198  0.65423670  1
  Co  Co10  1  0.00126786  0.33211391  0.33292476  1
  Co  Co11  1  0.99488883  0.16807201  0.65420348  1
  O  O12  1  0.21587061  0.03104866  0.49955806  1
  O  O13  1  0.22810397  0.84586702  0.83754442  1
  O  O14  1  0.21700300  0.49623557  0.49663917  1
  O  O15  1  0.20980071  0.35809705  0.83174669  1
  O  O16  1  0.24566194  0.16433961  0.14637704  1
  O  O17  1  0.23535299  0.66800383  0.14788609  1
  O  O18  1  0.79480829  0.62871733  0.16316477  1
  O  O19  1  0.73929933  0.50750130  0.50747136  1
  O  O20  1  0.79644284  0.15678824  0.16246766  1
  O  O21  1  0.75893648  0.99556143  0.51545539  1
  O  O22  1  0.77856424  0.82692186  0.85856351  1
  O  O23  1  0.78576942  0.31957556  0.85013034  1
