# generated using pymatgen
data_Li9Co7O16
_symmetry_space_group_name_H-M   'P 1'
_cell_length_a   5.78611752
_cell_length_b   5.84056353
_cell_length_c   8.31465792
_cell_angle_alpha   89.42993200
_cell_angle_beta   90.00000000
_cell_angle_gamma   90.00000000
_symmetry_Int_Tables_number   1
_chemical_formula_structural   Li9Co7O16
_chemical_formula_sum   'Li9 Co7 O16'
_cell_volume   280.97319633
_cell_formula_units_Z   1
loop_
 _symmetry_equiv_pos_site_id
 _symmetry_equiv_pos_as_xyz
  1  'x, y, z'
loop_
 _atom_site_type_symbol
 _atom_site_label
 _atom_site_symmetry_multiplicity
 _atom_site_fract_x
 _atom_site_fract_y
 _atom_site_fract_z
 _atom_site_occupancy
  Li  Li0  1  0.74740697  0.24903986  0.24641459  1
  Li  Li1  1  0.74740697  0.75096014  0.75358541  1
  Li  Li2  1  0.50000000  -0.00000000  0.50000000  1
  Li  Li3  1  0.50000000  0.50000000  0.00000000  1
  Li  Li4  1  0.25259303  0.75096014  0.75358541  1
  Li  Li5  1  0.25259303  0.24903986  0.24641459  1
  Li  Li6  1  -0.00000000  0.50000000  0.00000000  1
  Li  Li7  1  -0.00000000  -0.00000000  0.50000000  1
  Li  Li8  1  0.50000000  -0.00000000  0.00000000  1
  Co  Co9  1  -0.00000000  -0.00000000  0.00000000  1
  Co  Co10  1  0.25354895  0.75610224  0.24495577  1
  Co  Co11  1  -0.00000000  0.50000000  0.50000000  1
  Co  Co12  1  0.74645105  0.75610224  0.24495577  1
  Co  Co13  1  0.74645105  0.24389776  0.75504423  1
  Co  Co14  1  0.50000000  0.50000000  0.50000000  1
  Co  Co15  1  0.25354895  0.24389776  0.75504423  1
  O  O16  1  0.77211818  0.23028191  0.99138316  1
  O  O17  1  0.75898030  0.72832741  0.49474055  1
  O  O18  1  0.50000000  0.97896106  0.25529990  1
  O  O19  1  0.50000000  0.49190303  0.74816173  1
  O  O20  1  0.24101970  0.72832741  0.49474055  1
  O  O21  1  0.22788182  0.23028191  0.99138316  1
  O  O22  1  -0.00000000  0.48046568  0.73210348  1
  O  O23  1  -0.00000000  0.99481859  0.23160048  1
  O  O24  1  0.75898030  0.27167259  0.50525945  1
  O  O25  1  0.77211818  0.76971809  0.00861684  1
  O  O26  1  0.50000000  0.02103894  0.74470010  1
  O  O27  1  0.50000000  0.50809697  0.25183827  1
  O  O28  1  0.22788182  0.76971809  0.00861684  1
  O  O29  1  0.24101970  0.27167259  0.50525945  1
  O  O30  1  -0.00000000  0.51953432  0.26789652  1
  O  O31  1  -0.00000000  0.00518141  0.76839952  1
