# generated using pymatgen
data_Li9Co7O16
_symmetry_space_group_name_H-M   'P 1'
_cell_length_a   5.10019840
_cell_length_b   7.68041846
_cell_length_c   7.68041828
_cell_angle_alpha   95.72577759
_cell_angle_beta   76.01834471
_cell_angle_gamma   76.01834693
_symmetry_Int_Tables_number   1
_chemical_formula_structural   Li9Co7O16
_chemical_formula_sum   'Li9 Co7 O16'
_cell_volume   279.26813514
_cell_formula_units_Z   1
loop_
 _symmetry_equiv_pos_site_id
 _symmetry_equiv_pos_as_xyz
  1  'x, y, z'
loop_
 _atom_site_type_symbol
 _atom_site_label
 _atom_site_symmetry_multiplicity
 _atom_site_fract_x
 _atom_site_fract_y
 _atom_site_fract_z
 _atom_site_occupancy
  Li  Li0  1  0.01123467  0.11872799  0.36872799  1
  Li  Li1  1  0.98876533  0.63127201  0.88127201  1
  Li  Li2  1  0.50234443  0.99660235  0.49186740  1
  Li  Li3  1  0.49765557  0.50813260  0.00339765  1
  Li  Li4  1  -0.00000000  0.87500000  0.62500000  1
  Li  Li5  1  -0.00000000  0.37500000  0.12500000  1
  Li  Li6  1  0.49765557  0.75339765  0.75813260  1
  Li  Li7  1  0.50234443  0.24186740  0.24660235  1
  Li  Li8  1  0.50000000  0.87500000  0.12500000  1
  Co  Co9  1  0.00000000  0.99770410  0.00229590  1
  Co  Co10  1  1.00000000  0.75229590  0.24770410  1
  Co  Co11  1  0.00000000  0.49967639  0.50032361  1
  Co  Co12  1  0.50000000  0.37500000  0.62500000  1
  Co  Co13  1  -0.00000000  0.25032361  0.74967639  1
  Co  Co14  1  0.50000000  0.62984024  0.37015976  1
  Co  Co15  1  0.50000000  0.12015976  0.87984024  1
  O  O16  1  0.78569370  0.98789522  0.23789522  1
  O  O17  1  0.76354100  0.49797895  0.74797895  1
  O  O18  1  0.26430943  0.85164065  0.37910373  1
  O  O19  1  0.27180416  0.35779869  0.85934922  1
  O  O20  1  0.74595335  0.73631328  0.47868750  1
  O  O21  1  0.74595335  0.22868750  0.98631328  1
  O  O22  1  0.27180416  0.60934922  0.60779869  1
  O  O23  1  0.26430943  0.12910373  0.10164065  1
  O  O24  1  0.23645900  0.25202105  0.50202105  1
  O  O25  1  0.21430630  0.76210478  0.01210478  1
  O  O26  1  0.72819584  0.14065078  0.64220131  1
  O  O27  1  0.73569057  0.62089627  0.14835935  1
  O  O28  1  0.25404665  0.01368672  0.77131250  1
  O  O29  1  0.25404665  0.52131250  0.26368672  1
  O  O30  1  0.73569057  0.89835935  0.87089627  1
  O  O31  1  0.72819584  0.39220131  0.39065078  1
