# generated using pymatgen
data_Li7Mn5O12
_symmetry_space_group_name_H-M   'P 1'
_cell_length_a   3.00941335
_cell_length_b   14.60238685
_cell_length_c   5.10000040
_cell_angle_alpha   92.41277329
_cell_angle_beta   86.42478281
_cell_angle_gamma   93.09713623
_symmetry_Int_Tables_number   1
_chemical_formula_structural   Li7Mn5O12
_chemical_formula_sum   'Li7 Mn5 O12'
_cell_volume   223.18595421
_cell_formula_units_Z   1
loop_
 _symmetry_equiv_pos_site_id
 _symmetry_equiv_pos_as_xyz
  1  'x, y, z'
loop_
 _atom_site_type_symbol
 _atom_site_label
 _atom_site_symmetry_multiplicity
 _atom_site_fract_x
 _atom_site_fract_y
 _atom_site_fract_z
 _atom_site_occupancy
  Li  Li0  1  0.00884082  0.17707604  0.67859312  1
  Li  Li1  1  0.50261768  0.49186700  0.50388549  1
  Li  Li2  1  0.00000000  0.83333300  0.33333300  1
  Li  Li3  1  0.49738232  0.17480000  0.16278151  1
  Li  Li4  1  0.99115918  0.48959096  0.98807388  1
  Li  Li5  1  0.50000000  0.83333300  0.83333300  1
  Li  Li6  1  0.50000000  0.33333300  0.83333300  1
  Mn  Mn7  1  0.99664544  0.00091468  0.99911959  1
  Mn  Mn8  1  0.00000000  0.33333300  0.33333300  1
  Mn  Mn9  1  0.00335456  0.66575232  0.66754741  1
  Mn  Mn10  1  0.49592860  0.00061055  0.49897965  1
  Mn  Mn11  1  0.50407140  0.66605645  0.16768735  1
  O  O12  1  0.47145431  0.07683966  0.82337509  1
  O  O13  1  0.99293687  0.41227091  0.64185214  1
  O  O14  1  0.47062963  0.74447519  0.49153866  1
  O  O15  1  0.97530602  0.07479442  0.32769640  1
  O  O16  1  0.53081286  0.40549900  0.18944361  1
  O  O17  1  0.97454936  0.74403141  0.99151975  1
  O  O18  1  0.46918714  0.26116800  0.47722339  1
  O  O19  1  0.02469398  0.59187258  0.33897060  1
  O  O20  1  0.52937037  0.92219081  0.17512734  1
  O  O21  1  0.00706313  0.25439609  0.02481486  1
  O  O22  1  0.52854569  0.58982734  0.84329191  1
  O  O23  1  0.02545064  0.92263459  0.67514625  1
