# generated using pymatgen
data_Li7Mn2(CoO4)3
_symmetry_space_group_name_H-M   'P 1'
_cell_length_a   5.85887544
_cell_length_b   5.90738803
_cell_length_c   6.43846525
_cell_angle_alpha   103.65408292
_cell_angle_beta   104.50598020
_cell_angle_gamma   87.94007344
_symmetry_Int_Tables_number   1
_chemical_formula_structural   Li7Mn2(CoO4)3
_chemical_formula_sum   'Li7 Mn2 Co3 O12'
_cell_volume   209.57502693
_cell_formula_units_Z   1
loop_
 _symmetry_equiv_pos_site_id
 _symmetry_equiv_pos_as_xyz
  1  'x, y, z'
loop_
 _atom_site_type_symbol
 _atom_site_label
 _atom_site_symmetry_multiplicity
 _atom_site_fract_x
 _atom_site_fract_y
 _atom_site_fract_z
 _atom_site_occupancy
  Li  Li0  1  0.16546347  0.16422625  0.65944844  1
  Li  Li1  1  0.83033702  0.33539108  0.34642535  1
  Li  Li2  1  0.50467745  0.49545842  0.99406967  1
  Li  Li3  1  0.16553371  0.66536232  0.66109093  1
  Li  Li4  1  0.82833454  0.84241546  0.34971769  1
  Li  Li5  1  0.49898714  0.99973594  0.99105400  1
  Li  Li6  1  0.66596879  0.16732188  0.66520547  1
  Mn  Mn7  1  0.99302531  0.99820005  0.00086341  1
  Mn  Mn8  1  0.99606877  0.49641272  0.99473291  1
  Co  Co9  1  0.34210344  0.33578600  0.33423260  1
  Co  Co10  1  0.66548259  0.66721026  0.66486608  1
  Co  Co11  1  0.33901184  0.83842768  0.34030267  1
  O  O12  1  0.90463259  0.90481935  0.68653137  1
  O  O13  1  0.53918684  0.06882673  0.32366295  1
  O  O14  1  0.24688062  0.26796575  0.01112461  1
  O  O15  1  0.91281359  0.43228438  0.68233688  1
  O  O16  1  0.58227232  0.61039195  0.35019902  1
  O  O17  1  0.23200651  0.74287527  0.01747190  1
  O  O18  1  0.43148885  0.42732785  0.63958432  1
  O  O19  1  0.11663688  0.59015168  0.31942309  1
  O  O20  1  0.75099808  0.72389119  0.98665577  1
  O  O21  1  0.42161333  0.89677672  0.64378708  1
  O  O22  1  0.08599366  0.06349444  0.32552078  1
  O  O23  1  0.78048266  0.26524664  0.01169302  1
