# generated using pymatgen
data_Li7Mn2(CoO4)3
_symmetry_space_group_name_H-M   'P 1'
_cell_length_a   5.12394751
_cell_length_b   7.75185485
_cell_length_c   5.80816698
_cell_angle_alpha   100.73628545
_cell_angle_beta   73.55094209
_cell_angle_gamma   102.32677970
_symmetry_Int_Tables_number   1
_chemical_formula_structural   Li7Mn2(CoO4)3
_chemical_formula_sum   'Li7 Mn2 Co3 O12'
_cell_volume   214.19953680
_cell_formula_units_Z   1
loop_
 _symmetry_equiv_pos_site_id
 _symmetry_equiv_pos_as_xyz
  1  'x, y, z'
loop_
 _atom_site_type_symbol
 _atom_site_label
 _atom_site_symmetry_multiplicity
 _atom_site_fract_x
 _atom_site_fract_y
 _atom_site_fract_z
 _atom_site_occupancy
  Li  Li0  1  0.49322000  0.18218731  0.67573534  1
  Li  Li1  1  0.48942513  0.49495142  0.50564458  1
  Li  Li2  1  0.50263278  0.82390536  0.33048716  1
  Li  Li3  1  0.50051705  0.17763034  0.16603785  1
  Li  Li4  1  0.49520224  0.49187032  0.99153790  1
  Li  Li5  1  0.50990662  0.82921250  0.83087331  1
  Li  Li6  1  0.00094325  0.33364690  0.83113408  1
  Mn  Mn7  1  0.00182270  0.00319086  0.99931963  1
  Mn  Mn8  1  0.00385971  0.00285497  0.50172034  1
  Co  Co9  1  0.00072642  0.65518018  0.67151359  1
  Co  Co10  1  0.00302637  0.33903258  0.33954404  1
  Co  Co11  1  0.98806701  0.64949287  0.16217237  1
  O  O12  1  0.22724657  0.23363399  0.49369569  1
  O  O13  1  0.24005118  0.58028574  0.33281539  1
  O  O14  1  0.21682877  0.91903630  0.17661208  1
  O  O15  1  0.22216360  0.23594502  0.01436186  1
  O  O16  1  0.23803628  0.59869867  0.83164006  1
  O  O17  1  0.22490108  0.92875549  0.67671119  1
  O  O18  1  0.77938955  0.07146358  0.82262868  1
  O  O19  1  0.76051918  0.41923318  0.64937055  1
  O  O20  1  0.78675869  0.76212754  0.50141096  1
  O  O21  1  0.77830992  0.07425737  0.32364139  1
  O  O22  1  0.76127660  0.42898535  0.17345124  1
  O  O23  1  0.77516934  0.76442216  0.99794072  1
