# generated using pymatgen
data_Li9Mn2Co5O16
_symmetry_space_group_name_H-M   'P 1'
_cell_length_a   5.78553530
_cell_length_b   6.59419292
_cell_length_c   7.70826324
_cell_angle_alpha   89.72499488
_cell_angle_beta   100.62818293
_cell_angle_gamma   102.70215095
_symmetry_Int_Tables_number   1
_chemical_formula_structural   Li9Mn2Co5O16
_chemical_formula_sum   'Li9 Mn2 Co5 O16'
_cell_volume   281.76266927
_cell_formula_units_Z   1
loop_
 _symmetry_equiv_pos_site_id
 _symmetry_equiv_pos_as_xyz
  1  'x, y, z'
loop_
 _atom_site_type_symbol
 _atom_site_label
 _atom_site_symmetry_multiplicity
 _atom_site_fract_x
 _atom_site_fract_y
 _atom_site_fract_z
 _atom_site_occupancy
  Li  Li0  1  0.38159492  0.37615879  0.12276394  1
  Li  Li1  1  0.62664025  0.12168982  0.37006862  1
  Li  Li2  1  0.61762356  0.62962822  0.87337703  1
  Li  Li3  1  0.86459034  0.36632048  0.12412610  1
  Li  Li4  1  0.87750566  0.87636952  0.62795410  1
  Li  Li5  1  0.13426392  0.63441466  0.87023226  1
  Li  Li6  1  0.12087407  0.11848703  0.37586979  1
  Li  Li7  1  0.37759562  0.87903624  0.63680523  1
  Li  Li8  1  0.50045711  0.99519947  0.99971387  1
  Mn  Mn9  1  0.99651930  0.99712315  0.00137859  1
  Mn  Mn10  1  0.25559568  0.75563309  0.24672938  1
  Co  Co11  1  0.50117988  0.49807680  0.50108450  1
  Co  Co12  1  0.74309932  0.23994867  0.75476119  1
  Co  Co13  1  0.74918917  0.75337843  0.24745799  1
  Co  Co14  1  -0.00053926  0.50437557  0.50261427  1
  Co  Co15  1  0.25442471  0.24060556  0.75547284  1
  O  O16  1  0.29237387  0.03876634  0.18115738  1
  O  O17  1  0.55530012  0.80751360  0.41534790  1
  O  O18  1  0.55916304  0.31402448  0.91904093  1
  O  O19  1  0.81795635  0.04023969  0.17998345  1
  O  O20  1  0.80866107  0.55388952  0.67443440  1
  O  O21  1  0.05595237  0.28411096  0.94357813  1
  O  O22  1  0.05552703  0.80340826  0.41788056  1
  O  O23  1  0.30921295  0.55628622  0.67690623  1
  O  O24  1  0.44023947  0.69012540  0.08439557  1
  O  O25  1  0.69428256  0.46355082  0.31651218  1
  O  O26  1  0.70710272  0.94443783  0.82248173  1
  O  O27  1  0.94806584  0.70763178  0.07547966  1
  O  O28  1  0.94518568  0.20152875  0.57608563  1
  O  O29  1  0.17648904  0.94575952  0.82269768  1
  O  O30  1  0.19321107  0.46513591  0.31882664  1
  O  O31  1  0.44066258  0.19714539  0.56478224  1
