# generated using pymatgen
data_ZnTe(H2N)4
_symmetry_space_group_name_H-M   'P 1'
_cell_length_a   7.25196217
_cell_length_b   8.54167086
_cell_length_c   10.89192394
_cell_angle_alpha   92.27043113
_cell_angle_beta   90.00000000
_cell_angle_gamma   90.00000000
_symmetry_Int_Tables_number   1
_chemical_formula_structural   ZnTe(H2N)4
_chemical_formula_sum   'Zn4 Te4 H32 N16'
_cell_volume   674.15831499
_cell_formula_units_Z   4
loop_
 _symmetry_equiv_pos_site_id
 _symmetry_equiv_pos_as_xyz
  1  'x, y, z'
loop_
 _atom_site_type_symbol
 _atom_site_label
 _atom_site_symmetry_multiplicity
 _atom_site_fract_x
 _atom_site_fract_y
 _atom_site_fract_z
 _atom_site_occupancy
  Zn  Zn0  1  0.56027476  0.44676984  0.23194944  1
  Zn  Zn1  1  0.43972524  0.94676984  0.73194944  1
  Zn  Zn2  1  0.78709972  0.18204897  0.48798943  1
  Zn  Zn3  1  0.21290028  0.68204897  0.98798943  1
  Te  Te4  1  0.44331144  0.12479178  0.54102752  1
  Te  Te5  1  0.55668856  0.62479178  0.04102752  1
  Te  Te6  1  0.88401432  0.36298439  0.30920653  1
  Te  Te7  1  0.11598568  0.86298439  0.80920653  1
  H  H8  1  0.63200139  0.10803401  0.18983144  1
  H  H9  1  0.36799861  0.60803401  0.68983144  1
  H  H10  1  0.40625116  0.74669448  0.29104269  1
  H  H11  1  0.59374884  0.24669448  0.79104269  1
  H  H12  1  0.07796725  0.24804239  0.63329338  1
  H  H13  1  0.92203275  0.74804239  0.13329338  1
  H  H14  1  0.96809313  0.92308305  0.56067013  1
  H  H15  1  0.03190687  0.42308305  0.06067013  1
  H  H16  1  0.31201510  0.26677562  0.12363887  1
  H  H17  1  0.68798490  0.76677562  0.62363887  1
  H  H18  1  0.92718695  0.48031910  0.55855508  1
  H  H19  1  0.07281305  0.98031910  0.05855508  1
  H  H20  1  0.32892672  0.20217924  0.26388780  1
  H  H21  1  0.67107328  0.70217924  0.76388780  1
  H  H22  1  0.70619282  0.86214702  0.41612495  1
  H  H23  1  0.29380718  0.36214702  0.91612495  1
  H  H24  1  0.44301256  0.00510696  0.15302991  1
  H  H25  1  0.55698744  0.50510696  0.65302991  1
  H  H26  1  0.02063629  0.49494994  0.69747840  1
  H  H27  1  0.97936371  0.99494994  0.19747840  1
  H  H28  1  0.88457413  0.73736455  0.41302559  1
  H  H29  1  0.11542587  0.23736455  0.91302559  1
  H  H30  1  0.89207909  0.23479524  0.72156009  1
  H  H31  1  0.10792091  0.73479524  0.22156009  1
  H  H32  1  0.25965883  0.47472304  0.37519505  1
  H  H33  1  0.74034117  0.97472304  0.87519505  1
  H  H34  1  0.43667356  0.53762420  0.45917708  1
  H  H35  1  0.56332644  0.03762420  0.95917708  1
  H  H36  1  0.33992049  0.76552615  0.43575215  1
  H  H37  1  0.66007951  0.26552615  0.93575215  1
  H  H38  1  0.06423676  0.98674829  0.43531475  1
  H  H39  1  0.93576324  0.48674829  0.93531475  1
  N  N40  1  0.94005353  0.27666090  0.63995036  1
  N  N41  1  0.05994647  0.77666090  0.13995036  1
  N  N42  1  0.51248917  0.10759708  0.13914077  1
  N  N43  1  0.48751083  0.60759708  0.63914077  1
  N  N44  1  0.31913162  0.70161602  0.35509900  1
  N  N45  1  0.68086838  0.20161602  0.85509900  1
  N  N46  1  0.93884751  0.96341672  0.47464540  1
  N  N47  1  0.06115249  0.46341672  0.97464540  1
  N  N48  1  0.37777084  0.54109739  0.37253886  1
  N  N49  1  0.62222916  0.04109739  0.87253886  1
  N  N50  1  0.40435285  0.23647747  0.18937940  1
  N  N51  1  0.59564715  0.73647747  0.68937940  1
  N  N52  1  0.91467195  0.44471638  0.64736752  1
  N  N53  1  0.08532805  0.94471638  0.14736752  1
  N  N54  1  0.84378148  0.85010976  0.39707841  1
  N  N55  1  0.15621852  0.35010976  0.89707841  1
