# generated using pymatgen
data_Li9Co7O16
_symmetry_space_group_name_H-M   'P 1'
_cell_length_a   5.80156358
_cell_length_b   5.86243242
_cell_length_c   10.08113842
_cell_angle_alpha   106.68329732
_cell_angle_beta   106.72290857
_cell_angle_gamma   60.34287446
_symmetry_Int_Tables_number   1
_chemical_formula_structural   Li9Co7O16
_chemical_formula_sum   'Li9 Co7 O16'
_cell_volume   281.00908371
_cell_formula_units_Z   1
loop_
 _symmetry_equiv_pos_site_id
 _symmetry_equiv_pos_as_xyz
  1  'x, y, z'
loop_
 _atom_site_type_symbol
 _atom_site_label
 _atom_site_symmetry_multiplicity
 _atom_site_fract_x
 _atom_site_fract_y
 _atom_site_fract_z
 _atom_site_occupancy
  Li  Li0  1  0.50000000  0.50000000  0.00000000  1
  Li  Li1  1  -0.00000000  0.50000000  0.00000000  1
  Li  Li2  1  0.24641541  0.75199420  0.24482502  1
  Li  Li3  1  0.74762817  0.75089078  0.24614712  1
  Li  Li4  1  -0.00000000  0.00000000  0.50000000  1
  Li  Li5  1  0.50000000  0.00000000  0.50000000  1
  Li  Li6  1  0.75358459  0.24800580  0.75517498  1
  Li  Li7  1  0.25237183  0.24910922  0.75385288  1
  Li  Li8  1  0.50000000  0.00000000  0.00000000  1
  Co  Co9  1  -0.00000000  0.00000000  0.00000000  1
  Co  Co10  1  0.74856045  0.75239836  0.75636083  1
  Co  Co11  1  0.74459798  0.24760164  0.24363917  1
  Co  Co12  1  0.25143955  0.24760164  0.24363917  1
  Co  Co13  1  0.50000000  0.50000000  0.50000000  1
  Co  Co14  1  -0.00000000  0.50000000  0.50000000  1
  Co  Co15  1  0.25540202  0.75239836  0.75636083  1
  O  O16  1  0.65754624  0.10387624  0.87918580  1
  O  O17  1  0.11776331  0.10387624  0.87918580  1
  O  O18  1  0.38429445  0.37225642  0.14084531  1
  O  O19  1  0.88483375  0.34799810  0.11766561  1
  O  O20  1  0.12338751  0.60963366  0.38452540  1
  O  O21  1  0.65150423  0.60963366  0.38452540  1
  O  O22  1  0.89505232  0.83610479  0.62620943  1
  O  O23  1  0.38884775  0.84295709  0.62065260  1
  O  O24  1  0.34245376  0.89612376  0.12081420  1
  O  O25  1  0.88223669  0.89612376  0.12081420  1
  O  O26  1  0.10494768  0.16389521  0.37379057  1
  O  O27  1  0.61115225  0.15704291  0.37934740  1
  O  O28  1  0.87661249  0.39036634  0.61547460  1
  O  O29  1  0.34849577  0.39036634  0.61547460  1
  O  O30  1  0.61570555  0.62774358  0.85915469  1
  O  O31  1  0.11516625  0.65200190  0.88233439  1
