# generated using pymatgen
data_Li9Mn2Co5O16
_symmetry_space_group_name_H-M   'P 1'
_cell_length_a   5.88625479
_cell_length_b   9.70088814
_cell_length_c   5.91355471
_cell_angle_alpha   80.33959022
_cell_angle_beta   59.04217216
_cell_angle_gamma   81.18171764
_symmetry_Int_Tables_number   1
_chemical_formula_structural   Li9Mn2Co5O16
_chemical_formula_sum   'Li9 Mn2 Co5 O16'
_cell_volume   284.56845634
_cell_formula_units_Z   1
loop_
 _symmetry_equiv_pos_site_id
 _symmetry_equiv_pos_as_xyz
  1  'x, y, z'
loop_
 _atom_site_type_symbol
 _atom_site_label
 _atom_site_symmetry_multiplicity
 _atom_site_fract_x
 _atom_site_fract_y
 _atom_site_fract_z
 _atom_site_occupancy
  Li  Li0  1  0.12537016  0.24766020  0.12444907  1
  Li  Li1  1  0.75031781  0.50398780  0.24947638  1
  Li  Li2  1  0.37386369  0.75347752  0.37954431  1
  Li  Li3  1  0.99845845  0.99506334  0.50253988  1
  Li  Li4  1  0.62555174  0.24529146  0.61973793  1
  Li  Li5  1  0.24737467  0.50498297  0.75182065  1
  Li  Li6  1  0.87500928  0.75120689  0.87752106  1
  Li  Li7  1  0.50267651  0.99624411  0.99954428  1
  Li  Li8  1  0.49826222  0.00077673  0.50006251  1
  Mn  Mn9  1  0.99867725  0.00171744  0.00421494  1
  Mn  Mn10  1  0.13503118  0.24621558  0.61778965  1
  Co  Co11  1  0.25517531  0.50341390  0.24021427  1
  Co  Co12  1  0.37634450  0.75824082  0.86472341  1
  Co  Co13  1  0.62810816  0.24696897  0.12493250  1
  Co  Co14  1  0.74909050  0.50007710  0.74856673  1
  Co  Co15  1  0.86209194  0.75450925  0.37918979  1
  O  O16  1  0.28536128  0.12643912  0.80987101  1
  O  O17  1  0.93437517  0.36389659  0.91867675  1
  O  O18  1  0.54971311  0.61676961  0.06651644  1
  O  O19  1  0.17186700  0.88487790  0.17781846  1
  O  O20  1  0.81210120  0.12415910  0.28356397  1
  O  O21  1  0.43370664  0.35938028  0.42548511  1
  O  O22  1  0.04481101  0.62358761  0.55518328  1
  O  O23  1  0.67483178  0.86384497  0.69903617  1
  O  O24  1  0.96025415  0.37267531  0.44479767  1
  O  O25  1  0.56419433  0.62554323  0.57103780  1
  O  O26  1  0.17309581  0.88256561  0.71587482  1
  O  O27  1  0.82667510  0.12963371  0.82623773  1
  O  O28  1  0.46148212  0.37240594  0.94450636  1
  O  O29  1  0.07618459  0.62810512  0.06706413  1
  O  O30  1  0.71268396  0.87616417  0.18921896  1
  O  O31  1  0.31725238  0.14011763  0.32078799  1
