# generated using pymatgen
data_Li9Mn2Co5O16
_symmetry_space_group_name_H-M   'P 1'
_cell_length_a   5.86717863
_cell_length_b   10.06985783
_cell_length_c   5.89763949
_cell_angle_alpha   88.82012329
_cell_angle_beta   120.77077174
_cell_angle_gamma   106.92401848
_symmetry_Int_Tables_number   1
_chemical_formula_structural   Li9Mn2Co5O16
_chemical_formula_sum   'Li9 Mn2 Co5 O16'
_cell_volume   282.91045319
_cell_formula_units_Z   1
loop_
 _symmetry_equiv_pos_site_id
 _symmetry_equiv_pos_as_xyz
  1  'x, y, z'
loop_
 _atom_site_type_symbol
 _atom_site_label
 _atom_site_symmetry_multiplicity
 _atom_site_fract_x
 _atom_site_fract_y
 _atom_site_fract_z
 _atom_site_occupancy
  Li  Li0  1  0.99925763  0.00456485  0.50540508  1
  Li  Li1  1  0.99975490  0.25420886  0.25012390  1
  Li  Li2  1  0.00196575  0.49786319  -0.00148992  1
  Li  Li3  1  0.50479281  0.00184254  0.00726313  1
  Li  Li4  1  0.50241291  0.25315440  0.74794744  1
  Li  Li5  1  0.49598132  0.49844018  0.49341983  1
  Li  Li6  1  0.49358938  0.74478970  0.24215170  1
  Li  Li7  1  0.00065205  0.74559623  0.75032104  1
  Li  Li8  1  0.99261203  0.24936642  0.74424304  1
  Mn  Mn9  1  0.00143983  0.00444105  -0.00020095  1
  Mn  Mn10  1  0.50305843  0.24791823  0.25068151  1
  Co  Co11  1  0.99879713  0.49228892  0.50445011  1
  Co  Co12  1  0.00446423  0.74764312  0.25751264  1
  Co  Co13  1  0.50714705  0.00276544  0.50584633  1
  Co  Co14  1  0.48222510  0.49422424  0.99056103  1
  Co  Co15  1  0.50000294  0.74987368  0.75164692  1
  O  O16  1  0.77449927  0.87900016  0.12259869  1
  O  O17  1  0.75205862  0.11039042  0.86468576  1
  O  O18  1  0.72966359  0.36748186  0.59229227  1
  O  O19  1  0.27735236  0.87636013  0.62357938  1
  O  O20  1  0.26090886  0.12072960  0.36034236  1
  O  O21  1  0.27440169  0.37430095  0.12041074  1
  O  O22  1  0.24812528  0.62323576  0.86380444  1
  O  O23  1  0.76652550  0.62394911  0.36767853  1
  O  O24  1  0.24715133  0.12385742  0.90332565  1
  O  O25  1  0.24015445  0.38449096  0.61734300  1
  O  O26  1  0.24955915  0.63173607  0.38232216  1
  O  O27  1  0.72147853  0.12506580  0.37604721  1
  O  O28  1  0.72919913  0.36501281  0.12828964  1
  O  O29  1  0.73493082  0.62821001  0.88204323  1
  O  O30  1  0.75944545  0.89122242  0.64760961  1
  O  O31  1  0.24639249  0.88597551  0.14774450  1
