# generated using pymatgen
data_Li9Mn2Co5O16
_symmetry_space_group_name_H-M   'P 1'
_cell_length_a   5.00612582
_cell_length_b   8.82966663
_cell_length_c   6.63210014
_cell_angle_alpha   98.05847988
_cell_angle_beta   97.68256558
_cell_angle_gamma   95.15285580
_symmetry_Int_Tables_number   1
_chemical_formula_structural   Li9Mn2Co5O16
_chemical_formula_sum   'Li9 Mn2 Co5 O16'
_cell_volume   285.88904092
_cell_formula_units_Z   1
loop_
 _symmetry_equiv_pos_site_id
 _symmetry_equiv_pos_as_xyz
  1  'x, y, z'
loop_
 _atom_site_type_symbol
 _atom_site_label
 _atom_site_symmetry_multiplicity
 _atom_site_fract_x
 _atom_site_fract_y
 _atom_site_fract_z
 _atom_site_occupancy
  Li  Li0  1  0.74397554  0.19650498  0.32094438  1
  Li  Li1  1  0.75040530  0.43406101  0.05304207  1
  Li  Li2  1  0.26575269  0.07774692  0.44354332  1
  Li  Li3  1  0.24959470  0.31593899  0.19695793  1
  Li  Li4  1  0.75268987  0.93996171  0.55866229  1
  Li  Li5  1  0.73424731  0.67225308  0.80645668  1
  Li  Li6  1  0.25602446  0.55349502  0.92905562  1
  Li  Li7  1  0.24731013  0.81003829  0.69133771  1
  Li  Li8  1  0.50000000  0.37500000  0.62500000  1
  Mn  Mn9  1  -0.00031511  0.00127191  0.00312889  1
  Mn  Mn10  1  0.00031511  0.74872809  0.24687111  1
  Co  Co11  1  0.98881964  0.25167166  0.74053483  1
  Co  Co12  1  0.01118036  0.49832834  0.50946517  1
  Co  Co13  1  0.50000000  0.87500000  0.12500000  1
  Co  Co14  1  0.49397658  0.13385026  0.87249230  1
  Co  Co15  1  0.50602342  0.61614974  0.37750770  1
  O  O16  1  0.87839471  0.20086061  0.02809557  1
  O  O17  1  0.88705122  0.46395179  0.77351299  1
  O  O18  1  0.36050248  0.07434300  0.14678316  1
  O  O19  1  0.36688209  0.32545209  0.90526256  1
  O  O20  1  0.86650001  0.95439474  0.25938422  1
  O  O21  1  0.87753000  0.72350108  0.50563541  1
  O  O22  1  0.36004953  0.59717836  0.64166801  1
  O  O23  1  0.36428006  0.83290674  0.37678379  1
  O  O24  1  0.63995047  0.15282164  0.60833199  1
  O  O25  1  0.63311791  0.42454691  0.34473844  1
  O  O26  1  0.12247000  0.02649792  0.74436359  1
  O  O27  1  0.11294878  0.28604821  0.47648801  1
  O  O28  1  0.63571994  0.91709226  0.87321621  1
  O  O29  1  0.63949752  0.67565800  0.10321784  1
  O  O30  1  0.12160529  0.54914039  0.22190543  1
  O  O31  1  0.13349999  0.79560626  0.99061678  1
