# generated using pymatgen
data_Li9Mn2Co5O16
_symmetry_space_group_name_H-M   'P 1'
_cell_length_a   5.07316336
_cell_length_b   7.71548525
_cell_length_c   7.71548516
_cell_angle_alpha   96.53510684
_cell_angle_beta   76.63228695
_cell_angle_gamma   76.63228961
_symmetry_Int_Tables_number   1
_chemical_formula_structural   Li9Mn2Co5O16
_chemical_formula_sum   'Li9 Mn2 Co5 O16'
_cell_volume   281.35746507
_cell_formula_units_Z   1
loop_
 _symmetry_equiv_pos_site_id
 _symmetry_equiv_pos_as_xyz
  1  'x, y, z'
loop_
 _atom_site_type_symbol
 _atom_site_label
 _atom_site_symmetry_multiplicity
 _atom_site_fract_x
 _atom_site_fract_y
 _atom_site_fract_z
 _atom_site_occupancy
  Li  Li0  1  0.00914804  0.11543731  0.36865094  1
  Li  Li1  1  0.99085196  0.63134906  0.88456269  1
  Li  Li2  1  0.50129970  0.00003045  0.49427799  1
  Li  Li3  1  0.49870030  0.50572201  -0.00003045  1
  Li  Li4  1  0.00142822  0.87862784  0.62625079  1
  Li  Li5  1  0.99857178  0.37374921  0.12137216  1
  Li  Li6  1  0.49617229  0.75371376  0.75899562  1
  Li  Li7  1  0.50382771  0.24100438  0.24628624  1
  Li  Li8  1  0.50000000  0.87503049  0.12496951  1
  Mn  Mn9  1  0.00000000  0.99682286  0.00317714  1
  Mn  Mn10  1  0.50000000  0.63116310  0.36883690  1
  Co  Co11  1  0.00000000  0.49997308  0.50002692  1
  Co  Co12  1  0.50000000  0.37361708  0.62638292  1
  Co  Co13  1  1.00000000  0.75105433  0.24894567  1
  Co  Co14  1  0.00000000  0.24765938  0.75234062  1
  Co  Co15  1  0.50000000  0.12217277  0.87782723  1
  O  O16  1  0.78214331  0.98888608  0.23791097  1
  O  O17  1  0.76056710  0.49626439  0.74226381  1
  O  O18  1  0.24615340  0.85303097  0.36856147  1
  O  O19  1  0.26795558  0.35822785  0.86474380  1
  O  O20  1  0.74554817  0.73932342  0.48225227  1
  O  O21  1  0.77362699  0.23912636  0.99632993  1
  O  O22  1  0.26469638  0.61447234  0.60911442  1
  O  O23  1  0.24989222  0.11614892  0.10143078  1
  O  O24  1  0.23943290  0.25773619  0.50373561  1
  O  O25  1  0.21785669  0.76208903  0.01111392  1
  O  O26  1  0.73204442  0.13525620  0.64177215  1
  O  O27  1  0.75384660  0.63143853  0.14696903  1
  O  O28  1  0.22637301  0.00367007  0.76087364  1
  O  O29  1  0.25445183  0.51774773  0.26067658  1
  O  O30  1  0.75010778  0.89856922  0.88385108  1
  O  O31  1  0.73530362  0.39088558  0.38552766  1
