# generated using pymatgen
data_Li9Mn2Co5O16
_symmetry_space_group_name_H-M   'P 1'
_cell_length_a   5.00443048
_cell_length_b   5.87733016
_cell_length_c   10.24439542
_cell_angle_alpha   106.46107875
_cell_angle_beta   79.69721512
_cell_angle_gamma   90.06174071
_symmetry_Int_Tables_number   1
_chemical_formula_structural   Li9Mn2Co5O16
_chemical_formula_sum   'Li9 Mn2 Co5 O16'
_cell_volume   283.91276081
_cell_formula_units_Z   1
loop_
 _symmetry_equiv_pos_site_id
 _symmetry_equiv_pos_as_xyz
  1  'x, y, z'
loop_
 _atom_site_type_symbol
 _atom_site_label
 _atom_site_symmetry_multiplicity
 _atom_site_fract_x
 _atom_site_fract_y
 _atom_site_fract_z
 _atom_site_occupancy
  Li  Li0  1  0.26177365  0.12114144  0.24734780  1
  Li  Li1  1  0.26034449  0.62764336  0.75408766  1
  Li  Li2  1  0.74137877  0.37173845  0.24722493  1
  Li  Li3  1  0.73802060  0.87477308  0.75378861  1
  Li  Li4  1  0.26197940  0.62522692  0.24621139  1
  Li  Li5  1  0.25862123  0.12826155  0.75277507  1
  Li  Li6  1  0.73965551  0.87235664  0.24591234  1
  Li  Li7  1  0.73822635  0.37885856  0.75265220  1
  Li  Li8  1  0.50000000  0.75000000  0.00000000  1
  Mn  Mn9  1  0.00026464  0.99566612  0.00005492  1
  Mn  Mn10  1  0.99973536  0.50433388  0.99994508  1
  Co  Co11  1  0.99978642  0.50012643  0.50024646  1
  Co  Co12  1  0.50000000  0.25000000  0.00000000  1
  Co  Co13  1  0.50000000  0.75000000  0.50000000  1
  Co  Co14  1  0.00021358  0.99987357  0.49975354  1
  Co  Co15  1  0.50000000  0.25000000  0.50000000  1
  O  O16  1  0.10055919  0.80475927  0.11161717  1
  O  O17  1  0.13554907  0.31021570  0.61544606  1
  O  O18  1  0.64028984  0.06969294  0.11012616  1
  O  O19  1  0.63427729  0.56043316  0.61839053  1
  O  O20  1  0.13109160  0.30295743  0.10735533  1
  O  O21  1  0.13707266  0.81138506  0.61519845  1
  O  O22  1  0.63998703  0.53887313  0.10989498  1
  O  O23  1  0.63556796  0.06001534  0.61630712  1
  O  O24  1  0.36443204  0.43998466  0.38369288  1
  O  O25  1  0.36001297  0.96112687  0.89010502  1
  O  O26  1  0.86292734  0.68861494  0.38480155  1
  O  O27  1  0.86890840  0.19704257  0.89264467  1
  O  O28  1  0.36572271  0.93956684  0.38160947  1
  O  O29  1  0.35971016  0.43030706  0.88987384  1
  O  O30  1  0.86445093  0.18978430  0.38455394  1
  O  O31  1  0.89944081  0.69524073  0.88838283  1
