# generated using pymatgen
data_Li9Mn2Co5O16
_symmetry_space_group_name_H-M   'P 1'
_cell_length_a   5.00642655
_cell_length_b   11.28450071
_cell_length_c   5.17726857
_cell_angle_alpha   97.81802944
_cell_angle_beta   79.19133434
_cell_angle_gamma   93.44791077
_symmetry_Int_Tables_number   1
_chemical_formula_structural   Li9Mn2Co5O16
_chemical_formula_sum   'Li9 Mn2 Co5 O16'
_cell_volume   284.45008013
_cell_formula_units_Z   1
loop_
 _symmetry_equiv_pos_site_id
 _symmetry_equiv_pos_as_xyz
  1  'x, y, z'
loop_
 _atom_site_type_symbol
 _atom_site_label
 _atom_site_symmetry_multiplicity
 _atom_site_fract_x
 _atom_site_fract_y
 _atom_site_fract_z
 _atom_site_occupancy
  Li  Li0  1  0.26391014  0.93850461  0.44346415  1
  Li  Li1  1  0.73551664  0.05892571  0.56481991  1
  Li  Li2  1  0.25447459  0.18759674  0.68781385  1
  Li  Li3  1  0.26448336  0.69107429  0.18518009  1
  Li  Li4  1  0.73608986  0.81149539  0.30653585  1
  Li  Li5  1  0.24732860  0.43801941  0.93681061  1
  Li  Li6  1  0.74552541  0.56240326  0.06218615  1
  Li  Li7  1  0.75267140  0.31198059  0.81318939  1
  Li  Li8  1  0.50000000  0.87500000  0.87500000  1
  Mn  Mn9  1  0.00241952  0.99721008  0.99185025  1
  Mn  Mn10  1  0.99758048  0.75278992  0.75814975  1
  Co  Co11  1  0.49894111  0.11897106  0.11263337  1
  Co  Co12  1  0.99462392  0.24901286  0.25309201  1
  Co  Co13  1  0.50000000  0.37500000  0.37500000  1
  Co  Co14  1  0.00537608  0.50098714  0.49690799  1
  Co  Co15  1  0.50105889  0.63102894  0.63736663  1
  O  O16  1  0.10631745  0.84586029  0.06719605  1
  O  O17  1  0.63763086  0.98091302  0.20679031  1
  O  O18  1  0.13250802  0.08730246  0.30129871  1
  O  O19  1  0.13533824  0.60276096  0.82795829  1
  O  O20  1  0.64760244  0.71856101  0.95858105  1
  O  O21  1  0.12805802  0.34324120  0.57954714  1
  O  O22  1  0.63244108  0.47785486  0.69539638  1
  O  O23  1  0.63724344  0.22663721  0.46040668  1
  O  O24  1  0.35239756  0.03143999  0.79141895  1
  O  O25  1  0.86466176  0.14724004  0.92204171  1
  O  O26  1  0.36755892  0.27214614  0.05460362  1
  O  O27  1  0.36236914  0.76908698  0.54320969  1
  O  O28  1  0.89368255  0.90413871  0.68280395  1
  O  O29  1  0.36275656  0.52336179  0.28959332  1
  O  O30  1  0.86749198  0.66269654  0.44870129  1
  O  O31  1  0.87194198  0.40675780  0.17045286  1
