# generated using pymatgen
data_Li9Mn2Co5O16
_symmetry_space_group_name_H-M   'P 1'
_cell_length_a   5.79797649
_cell_length_b   8.31640052
_cell_length_c   6.52909027
_cell_angle_alpha   90.85453514
_cell_angle_beta   116.06301659
_cell_angle_gamma   89.91216237
_symmetry_Int_Tables_number   1
_chemical_formula_structural   Li9Mn2Co5O16
_chemical_formula_sum   'Li9 Mn2 Co5 O16'
_cell_volume   282.77195019
_cell_formula_units_Z   1
loop_
 _symmetry_equiv_pos_site_id
 _symmetry_equiv_pos_as_xyz
  1  'x, y, z'
loop_
 _atom_site_type_symbol
 _atom_site_label
 _atom_site_symmetry_multiplicity
 _atom_site_fract_x
 _atom_site_fract_y
 _atom_site_fract_z
 _atom_site_occupancy
  Li  Li0  1  0.62004372  0.24382626  0.74901644  1
  Li  Li1  1  0.38335355  0.75750613  0.24558815  1
  Li  Li2  1  0.12838609  0.24159404  0.74883065  1
  Li  Li3  1  0.50109939  0.50225430  0.00144763  1
  Li  Li4  1  0.24702565  0.00061937  0.50303128  1
  Li  Li5  1  0.00213486  0.49820075  0.00218586  1
  Li  Li6  1  0.86779713  0.75700367  0.25453609  1
  Li  Li7  1  0.75200893  -0.00082676  0.49570675  1
  Li  Li8  1  0.49828625  -0.00265912  0.00012221  1
  Mn  Mn9  1  0.00165848  -0.00123116  -0.00182282  1
  Mn  Mn10  1  0.62176194  0.75434518  0.75379822  1
  Co  Co11  1  0.75169820  0.49970024  0.49909050  1
  Co  Co12  1  0.24842265  0.49971446  0.49747641  1
  Co  Co13  1  0.37946025  0.24124083  0.24620884  1
  Co  Co14  1  0.12691166  0.75263698  0.75156165  1
  Co  Co15  1  0.86619784  0.24281268  0.24442716  1
  O  O16  1  0.64505193  0.98496289  0.76459968  1
  O  O17  1  0.38262128  0.50087755  0.27161648  1
  O  O18  1  0.11978634  0.98322181  0.76553670  1
  O  O19  1  0.50929893  0.25558585  0.02195868  1
  O  O20  1  0.26734342  0.75035169  0.53053325  1
  O  O21  1  0.00046751  0.23078877  -0.00087404  1
  O  O22  1  0.88297548  0.49591860  0.26279791  1
  O  O23  1  0.76126906  0.74775684  0.52536776  1
  O  O24  1  0.62418217  0.51777399  0.74134369  1
  O  O25  1  0.34925382  0.00372692  0.23463542  1
  O  O26  1  0.11697753  0.51608937  0.73204590  1
  O  O27  1  0.48673453  0.74847614  0.97178004  1
  O  O28  1  0.24026470  0.25659524  0.48202071  1
  O  O29  1  0.98797411  0.76043518  0.97806968  1
  O  O30  1  0.88400704  0.00426494  0.23493506  1
  O  O31  1  0.74554554  0.25643637  0.49242804  1
