# generated using pymatgen
data_Li9Co7O16
_symmetry_space_group_name_H-M   'P 1'
_cell_length_a   2.87929767
_cell_length_b   10.02173352
_cell_length_c   10.11429603
_cell_angle_alpha   71.36663636
_cell_angle_beta   90.00000000
_cell_angle_gamma   90.00000000
_symmetry_Int_Tables_number   1
_chemical_formula_structural   Li9Co7O16
_chemical_formula_sum   'Li9 Co7 O16'
_cell_volume   276.55538309
_cell_formula_units_Z   1
loop_
 _symmetry_equiv_pos_site_id
 _symmetry_equiv_pos_as_xyz
  1  'x, y, z'
loop_
 _atom_site_type_symbol
 _atom_site_label
 _atom_site_symmetry_multiplicity
 _atom_site_fract_x
 _atom_site_fract_y
 _atom_site_fract_z
 _atom_site_occupancy
  Li  Li0  1  0.50000000  0.00097646  0.24917373  1
  Li  Li1  1  0.50000000  0.99667318  0.75460871  1
  Li  Li2  1  -0.00000000  0.25007657  0.25107303  1
  Li  Li3  1  0.00000000  0.24992343  0.74892697  1
  Li  Li4  1  0.50000000  0.50332682  0.24539129  1
  Li  Li5  1  0.50000000  0.49902354  0.75082627  1
  Li  Li6  1  0.00000000  0.74824767  0.24448818  1
  Li  Li7  1  0.00000000  0.75175233  0.75551182  1
  Li  Li8  1  0.50000000  0.75000000  0.00000000  1
  Co  Co9  1  0.00000000  0.99533712  -0.00002086  1
  Co  Co10  1  -0.00000000  0.50466288  0.00002086  1
  Co  Co11  1  -0.00000000  0.00117760  0.49890904  1
  Co  Co12  1  0.50000000  0.25000000  0.00000000  1
  Co  Co13  1  0.50000000  0.25000000  0.50000000  1
  Co  Co14  1  0.00000000  0.49882240  0.50109096  1
  Co  Co15  1  0.50000000  0.75000000  0.50000000  1
  O  O16  1  0.50000000  0.89330534  0.10891188  1
  O  O17  1  0.50000000  0.87014169  0.61466932  1
  O  O18  1  0.00000000  0.13231847  0.10359201  1
  O  O19  1  0.00000000  0.12673117  0.62051553  1
  O  O20  1  0.50000000  0.38287292  0.10301417  1
  O  O21  1  0.50000000  0.37737427  0.62216116  1
  O  O22  1  -0.00000000  0.60999616  0.11426941  1
  O  O23  1  0.00000000  0.63218972  0.61572625  1
  O  O24  1  0.50000000  0.12262573  0.37783884  1
  O  O25  1  0.50000000  0.11712708  0.89698583  1
  O  O26  1  -0.00000000  0.37326883  0.37948447  1
  O  O27  1  -0.00000000  0.36768153  0.89640799  1
  O  O28  1  0.50000000  0.62985831  0.38533068  1
  O  O29  1  0.50000000  0.60669466  0.89108812  1
  O  O30  1  -0.00000000  0.86781028  0.38427375  1
  O  O31  1  0.00000000  0.89000384  0.88573059  1
