# generated using pymatgen
data_Li9Mn2Co5O16
_symmetry_space_group_name_H-M   'P 1'
_cell_length_a   5.85196622
_cell_length_b   6.59275742
_cell_length_c   8.71135015
_cell_angle_alpha   80.09472953
_cell_angle_beta   70.29205211
_cell_angle_gamma   63.15925124
_symmetry_Int_Tables_number   1
_chemical_formula_structural   Li9Mn2Co5O16
_chemical_formula_sum   'Li9 Mn2 Co5 O16'
_cell_volume   282.23650715
_cell_formula_units_Z   1
loop_
 _symmetry_equiv_pos_site_id
 _symmetry_equiv_pos_as_xyz
  1  'x, y, z'
loop_
 _atom_site_type_symbol
 _atom_site_label
 _atom_site_symmetry_multiplicity
 _atom_site_fract_x
 _atom_site_fract_y
 _atom_site_fract_z
 _atom_site_occupancy
  Li  Li0  1  0.49446358  0.25376030  0.26189444  1
  Li  Li1  1  0.01442931  0.74381627  0.73944606  1
  Li  Li2  1  0.25117298  -0.00090115  0.49940032  1
  Li  Li3  1  0.75138170  0.50154534  -0.00105595  1
  Li  Li4  1  0.24969699  0.50431131  0.99954129  1
  Li  Li5  1  0.74940084  0.99905388  0.50117791  1
  Li  Li6  1  0.99018978  0.25393404  0.25949769  1
  Li  Li7  1  0.49902085  0.74642932  0.73977406  1
  Li  Li8  1  0.49994214  0.50035291  0.50163620  1
  Mn  Mn9  1  0.00012837  0.99784643  0.99768099  1
  Mn  Mn10  1  0.74736018  0.25654384  0.74489184  1
  Co  Co11  1  0.74502503  0.73860965  0.26139316  1
  Co  Co12  1  0.25366138  0.25778088  0.74424964  1
  Co  Co13  1  0.25196387  0.73888104  0.26216562  1
  Co  Co14  1  0.49762426  -0.00341141  0.00650384  1
  Co  Co15  1  0.99963401  0.49829299  0.50152352  1
  O  O16  1  0.65077825  0.23302188  0.98732715  1
  O  O17  1  0.11767888  0.73662713  0.49128520  1
  O  O18  1  0.38017510  0.99546489  0.23895685  1
  O  O19  1  0.88603241  0.47862675  0.74003095  1
  O  O20  1  0.40034589  0.48354374  0.75429596  1
  O  O21  1  0.88765067  0.98892231  0.23248514  1
  O  O22  1  0.13124272  0.23003808  0.98157125  1
  O  O23  1  0.65153551  0.74114236  0.49045940  1
  O  O24  1  0.34374709  0.26374412  0.52037575  1
  O  O25  1  0.87632664  0.76889101  0.00149825  1
  O  O26  1  0.09773061  0.01094365  0.76215083  1
  O  O27  1  0.62189272  0.51921915  0.23943512  1
  O  O28  1  0.11729486  0.50070510  0.26576522  1
  O  O29  1  0.61441052  0.02881762  0.75700730  1
  O  O30  1  0.87516734  0.26215267  0.51613689  1
  O  O31  1  0.35289552  0.77129388  0.00149812  1
