# generated using pymatgen
data_Na2FeO3
_symmetry_space_group_name_H-M   'P 1'
_cell_length_a   6.25721512
_cell_length_b   6.27426963
_cell_length_c   10.10586338
_cell_angle_alpha   90.00000000
_cell_angle_beta   90.00000000
_cell_angle_gamma   90.00000000
_symmetry_Int_Tables_number   1
_chemical_formula_structural   Na2FeO3
_chemical_formula_sum   'Na8 Fe4 O12'
_cell_volume   396.75068654
_cell_formula_units_Z   4
loop_
 _symmetry_equiv_pos_site_id
 _symmetry_equiv_pos_as_xyz
  1  'x, y, z'
loop_
 _atom_site_type_symbol
 _atom_site_label
 _atom_site_symmetry_multiplicity
 _atom_site_fract_x
 _atom_site_fract_y
 _atom_site_fract_z
 _atom_site_occupancy
  Na  Na0  1  0.01082529  0.50082261  0.75539982  1
  Na  Na1  1  0.01082529  0.99917739  0.75539982  1
  Na  Na2  1  0.48917471  0.49917739  0.25539982  1
  Na  Na3  1  0.48917471  0.00082261  0.25539982  1
  Na  Na4  1  0.51082529  0.50082261  0.74460018  1
  Na  Na5  1  0.51082529  0.99917739  0.74460018  1
  Na  Na6  1  0.98917471  0.00082261  0.24460018  1
  Na  Na7  1  0.98917471  0.49917739  0.24460018  1
  Fe  Fe8  1  0.16091053  0.75000000  0.00147944  1
  Fe  Fe9  1  0.33908947  0.25000000  0.50147944  1
  Fe  Fe10  1  0.66091053  0.75000000  0.49852056  1
  Fe  Fe11  1  0.83908947  0.25000000  0.99852056  1
  O  O12  1  -0.00000000  -0.00000000  -0.00000000  1
  O  O13  1  -0.00000000  0.50000000  0.00000000  1
  O  O14  1  0.22342599  0.25000000  0.34051780  1
  O  O15  1  0.24260702  0.25000000  0.66687594  1
  O  O16  1  0.25739298  0.75000000  0.16687594  1
  O  O17  1  0.27657401  0.75000000  0.84051780  1
  O  O18  1  0.50000000  0.50000000  0.50000000  1
  O  O19  1  0.50000000  0.00000000  0.50000000  1
  O  O20  1  0.72342599  0.25000000  0.15948220  1
  O  O21  1  0.74260702  0.25000000  0.83312406  1
  O  O22  1  0.75739298  0.75000000  0.33312406  1
  O  O23  1  0.77657401  0.75000000  0.65948220  1
