# generated using pymatgen
data_LiVF4
_symmetry_space_group_name_H-M   'P 1'
_cell_length_a   10.95346593
_cell_length_b   7.56004357
_cell_length_c   7.74918059
_cell_angle_alpha   90.00000000
_cell_angle_beta   90.00000000
_cell_angle_gamma   90.00000000
_symmetry_Int_Tables_number   1
_chemical_formula_structural   LiVF4
_chemical_formula_sum   'Li8 V8 F32'
_cell_volume   641.69941321
_cell_formula_units_Z   8
loop_
 _symmetry_equiv_pos_site_id
 _symmetry_equiv_pos_as_xyz
  1  'x, y, z'
loop_
 _atom_site_type_symbol
 _atom_site_label
 _atom_site_symmetry_multiplicity
 _atom_site_fract_x
 _atom_site_fract_y
 _atom_site_fract_z
 _atom_site_occupancy
  Li  Li0  1  0.01796841  0.75000000  0.46092663  1
  Li  Li1  1  0.00854611  0.75000000  0.01001454  1
  Li  Li2  1  0.49145389  0.25000000  0.51001454  1
  Li  Li3  1  0.48203159  0.25000000  0.96092663  1
  Li  Li4  1  0.51796841  0.75000000  0.03907337  1
  Li  Li5  1  0.50854611  0.75000000  0.48998546  1
  Li  Li6  1  0.99145389  0.25000000  0.98998546  1
  Li  Li7  1  0.98203159  0.25000000  0.53907337  1
  V  V8  1  0.25389857  0.99989303  0.11012293  1
  V  V9  1  0.25389857  0.50010697  0.11012293  1
  V  V10  1  0.24610143  0.00010697  0.61012293  1
  V  V11  1  0.24610143  0.49989303  0.61012293  1
  V  V12  1  0.75389857  0.99989303  0.38987707  1
  V  V13  1  0.75389857  0.50010697  0.38987707  1
  V  V14  1  0.74610143  0.49989303  0.88987707  1
  V  V15  1  0.74610143  0.00010697  0.88987707  1
  F  F16  1  0.08844554  0.06909564  0.08579290  1
  F  F17  1  0.08844554  0.43090436  0.08579290  1
  F  F18  1  0.07795742  0.06795829  0.62791826  1
  F  F19  1  0.07795742  0.43204171  0.62791826  1
  F  F20  1  0.32126665  0.25000000  0.05787570  1
  F  F21  1  0.31811760  0.25000000  0.64703464  1
  F  F22  1  0.25479476  0.55576451  0.85887603  1
  F  F23  1  0.25479476  0.94423549  0.85887603  1
  F  F24  1  0.24520524  0.05576451  0.35887603  1
  F  F25  1  0.24520524  0.44423549  0.35887603  1
  F  F26  1  0.18188240  0.75000000  0.14703464  1
  F  F27  1  0.17873335  0.75000000  0.55787570  1
  F  F28  1  0.42204258  0.93204171  0.12791826  1
  F  F29  1  0.42204258  0.56795829  0.12791826  1
  F  F30  1  0.41155446  0.93090436  0.58579290  1
  F  F31  1  0.41155446  0.56909564  0.58579290  1
  F  F32  1  0.58844554  0.06909564  0.41420710  1
  F  F33  1  0.58844554  0.43090436  0.41420710  1
  F  F34  1  0.57795742  0.43204171  0.87208174  1
  F  F35  1  0.57795742  0.06795829  0.87208174  1
  F  F36  1  0.82126665  0.25000000  0.44212430  1
  F  F37  1  0.81811760  0.25000000  0.85296536  1
  F  F38  1  0.75479476  0.55576451  0.64112397  1
  F  F39  1  0.75479476  0.94423549  0.64112397  1
  F  F40  1  0.74520524  0.05576451  0.14112397  1
  F  F41  1  0.74520524  0.44423549  0.14112397  1
  F  F42  1  0.68188240  0.75000000  0.35296536  1
  F  F43  1  0.67873335  0.75000000  0.94212430  1
  F  F44  1  0.92204258  0.93204171  0.37208174  1
  F  F45  1  0.92204258  0.56795829  0.37208174  1
  F  F46  1  0.91155446  0.56909564  0.91420710  1
  F  F47  1  0.91155446  0.93090436  0.91420710  1
