# generated using pymatgen
data_LiFeSnO4
_symmetry_space_group_name_H-M   'P 1'
_cell_length_a   6.13343890
_cell_length_b   6.13343890
_cell_length_c   8.57949468
_cell_angle_alpha   90.00000000
_cell_angle_beta   90.00000000
_cell_angle_gamma   90.00000000
_symmetry_Int_Tables_number   1
_chemical_formula_structural   LiFeSnO4
_chemical_formula_sum   'Li4 Fe4 Sn4 O16'
_cell_volume   322.75263444
_cell_formula_units_Z   4
loop_
 _symmetry_equiv_pos_site_id
 _symmetry_equiv_pos_as_xyz
  1  'x, y, z'
loop_
 _atom_site_type_symbol
 _atom_site_label
 _atom_site_symmetry_multiplicity
 _atom_site_fract_x
 _atom_site_fract_y
 _atom_site_fract_z
 _atom_site_occupancy
  Li  Li0  1  0.00000000  0.22721854  0.00000000  1
  Li  Li1  1  0.00000000  0.77278146  0.50000000  1
  Li  Li2  1  0.22721854  0.00000000  0.25000000  1
  Li  Li3  1  0.77278146  0.00000000  0.75000000  1
  Fe  Fe4  1  0.23484285  0.50000000  0.25000000  1
  Fe  Fe5  1  0.50000000  0.23484285  0.00000000  1
  Fe  Fe6  1  0.50000000  0.76515715  0.50000000  1
  Fe  Fe7  1  0.76515715  0.50000000  0.75000000  1
  Sn  Sn8  1  0.25502824  0.25502824  0.62500000  1
  Sn  Sn9  1  0.25502824  0.74497176  0.87500000  1
  Sn  Sn10  1  0.74497176  0.25502824  0.37500000  1
  Sn  Sn11  1  0.74497176  0.74497176  0.12500000  1
  O  O12  1  0.01671941  0.26112648  0.25222260  1
  O  O13  1  0.01671941  0.73887352  0.24777740  1
  O  O14  1  0.26112648  0.01671941  0.99777740  1
  O  O15  1  0.26112648  0.98328059  0.50222260  1
  O  O16  1  0.26233471  0.48037183  0.01250067  1
  O  O17  1  0.26233471  0.51962817  0.48749933  1
  O  O18  1  0.48037183  0.26233471  0.23749933  1
  O  O19  1  0.48037183  0.73766529  0.26250067  1
  O  O20  1  0.51962817  0.26233471  0.76250067  1
  O  O21  1  0.51962817  0.73766529  0.73749933  1
  O  O22  1  0.73766529  0.51962817  0.51250067  1
  O  O23  1  0.73766529  0.48037183  0.98749933  1
  O  O24  1  0.73887352  0.01671941  0.00222260  1
  O  O25  1  0.73887352  0.98328059  0.49777740  1
  O  O26  1  0.98328059  0.26112648  0.74777740  1
  O  O27  1  0.98328059  0.73887352  0.75222260  1
