# generated using pymatgen
data_Li9Mn2Co5O16
_symmetry_space_group_name_H-M   'P 1'
_cell_length_a   5.02393063
_cell_length_b   5.09388922
_cell_length_c   11.68201496
_cell_angle_alpha   104.93567323
_cell_angle_beta   91.29419261
_cell_angle_gamma   99.46716464
_symmetry_Int_Tables_number   1
_chemical_formula_structural   Li9Mn2Co5O16
_chemical_formula_sum   'Li9 Mn2 Co5 O16'
_cell_volume   284.26117311
_cell_formula_units_Z   1
loop_
 _symmetry_equiv_pos_site_id
 _symmetry_equiv_pos_as_xyz
  1  'x, y, z'
loop_
 _atom_site_type_symbol
 _atom_site_label
 _atom_site_symmetry_multiplicity
 _atom_site_fract_x
 _atom_site_fract_y
 _atom_site_fract_z
 _atom_site_occupancy
  Li  Li0  1  0.75335138  0.49887138  0.06575487  1
  Li  Li1  1  0.74070896  0.51929207  0.32516391  1
  Li  Li2  1  0.25045722  0.50345463  0.19379780  1
  Li  Li3  1  0.24827535  0.49771248  0.43904591  1
  Li  Li4  1  0.75865592  0.49927671  0.55536505  1
  Li  Li5  1  0.74158997  0.49142715  0.80597516  1
  Li  Li6  1  0.25992092  0.50033261  0.93657675  1
  Li  Li7  1  0.24603420  0.49263911  0.67931988  1
  Li  Li8  1  0.99123405  0.00383721  0.50190632  1
  Mn  Mn9  1  0.00442678  0.99281699  0.99863577  1
  Mn  Mn10  1  0.99943063  0.00205457  0.74688947  1
  Co  Co11  1  0.00133689  0.99971944  0.25935999  1
  Co  Co12  1  0.49832267  0.00529330  0.37705394  1
  Co  Co13  1  0.48787801  0.01119765  0.61545501  1
  Co  Co14  1  0.50341439  0.99900736  0.87464512  1
  Co  Co15  1  0.50760067  0.99057732  0.13049572  1
  O  O16  1  0.87108080  0.21452554  0.90253193  1
  O  O17  1  0.88916467  0.21674220  0.14366559  1
  O  O18  1  0.37188832  0.20755972  0.02265992  1
  O  O19  1  0.37733583  0.22696050  0.27868116  1
  O  O20  1  0.85191284  0.23017691  0.39657255  1
  O  O21  1  0.87803630  0.23543153  0.66634236  1
  O  O22  1  0.36106614  0.22317542  0.78536999  1
  O  O23  1  0.38687845  0.25474668  0.53893363  1
  O  O24  1  0.62261300  0.75015875  0.20951340  1
  O  O25  1  0.60411345  0.77334173  0.46657347  1
  O  O26  1  0.13640027  0.77153429  0.33946952  1
  O  O27  1  0.11790099  0.77302306  0.61016606  1
  O  O28  1  0.63396535  0.79198816  0.72931382  1
  O  O29  1  0.64491634  0.77378317  0.96539800  1
  O  O30  1  0.12391031  0.76520728  0.08815664  1
  O  O31  1  0.13617893  0.78413508  0.85121328  1
