# generated using pymatgen
data_Li9Mn2Co5O16
_symmetry_space_group_name_H-M   'P 1'
_cell_length_a   5.09736320
_cell_length_b   5.04847111
_cell_length_c   11.20098731
_cell_angle_alpha   93.65421409
_cell_angle_beta   81.00880665
_cell_angle_gamma   98.73122812
_symmetry_Int_Tables_number   1
_chemical_formula_structural   Li9Mn2Co5O16
_chemical_formula_sum   'Li9 Mn2 Co5 O16'
_cell_volume   281.16736501
_cell_formula_units_Z   1
loop_
 _symmetry_equiv_pos_site_id
 _symmetry_equiv_pos_as_xyz
  1  'x, y, z'
loop_
 _atom_site_type_symbol
 _atom_site_label
 _atom_site_symmetry_multiplicity
 _atom_site_fract_x
 _atom_site_fract_y
 _atom_site_fract_z
 _atom_site_occupancy
  Li  Li0  1  0.56709320  0.26543690  0.93412075  1
  Li  Li1  1  0.43798568  0.74506681  0.06785875  1
  Li  Li2  1  0.68537464  0.73413250  0.80596932  1
  Li  Li3  1  0.81372066  0.25803991  0.68301293  1
  Li  Li4  1  0.93795799  0.74399209  0.55853863  1
  Li  Li5  1  0.05522197  0.24912053  0.43474266  1
  Li  Li6  1  0.18720031  0.75688136  0.31755381  1
  Li  Li7  1  0.31604442  0.24568920  0.19757218  1
  Li  Li8  1  0.74613134  -0.00081487  0.25435720  1
  Mn  Mn9  1  -0.00013414  0.00165934  -0.00035041  1
  Mn  Mn10  1  0.87436874  0.50012861  0.12804580  1
  Co  Co11  1  0.62552092  0.49574969  0.37588808  1
  Co  Co12  1  0.50233734  0.00026956  0.50003471  1
  Co  Co13  1  0.37569450  0.50404934  0.62118548  1
  Co  Co14  1  0.25023348  -0.00298662  0.74888340  1
  Co  Co15  1  0.12361195  0.50088094  0.87460673  1
  O  O16  1  0.31000194  0.86455837  0.90084470  1
  O  O17  1  0.19215044  0.36005251  0.02564285  1
  O  O18  1  0.43904788  0.38755092  0.78438360  1
  O  O19  1  0.57075877  0.88116868  0.65666600  1
  O  O20  1  0.71153695  0.38085565  0.53283641  1
  O  O21  1  0.80448179  0.86255269  0.41116764  1
  O  O22  1  0.96437414  0.39398023  0.27076946  1
  O  O23  1  0.08145307  0.85605822  0.14146124  1
  O  O24  1  0.80961666  0.64096093  0.97152152  1
  O  O25  1  0.69408043  0.14502845  0.08569039  1
  O  O26  1  0.93540332  0.14073078  0.84883381  1
  O  O27  1  0.04177862  0.61903656  0.72888222  1
  O  O28  1  0.18690774  0.11666676  0.59968410  1
  O  O29  1  0.28387445  0.61166772  0.47446519  1
  O  O30  1  0.41876867  0.13694495  0.35438048  1
  O  O31  1  0.55740214  0.60489127  0.21075038  1
