# generated using pymatgen
data_Li9Mn2Co5O16
_symmetry_space_group_name_H-M   'P 1'
_cell_length_a   5.01851378
_cell_length_b   9.76960735
_cell_length_c   5.85435144
_cell_angle_alpha   90.00000000
_cell_angle_beta   90.00000000
_cell_angle_gamma   99.45412201
_symmetry_Int_Tables_number   1
_chemical_formula_structural   Li9Mn2Co5O16
_chemical_formula_sum   'Li9 Mn2 Co5 O16'
_cell_volume   283.13382990
_cell_formula_units_Z   1
loop_
 _symmetry_equiv_pos_site_id
 _symmetry_equiv_pos_as_xyz
  1  'x, y, z'
loop_
 _atom_site_type_symbol
 _atom_site_label
 _atom_site_symmetry_multiplicity
 _atom_site_fract_x
 _atom_site_fract_y
 _atom_site_fract_z
 _atom_site_occupancy
  Li  Li0  1  0.24934519  0.25005430  0.24990436  1
  Li  Li1  1  0.75065481  0.74994570  0.24990436  1
  Li  Li2  1  0.74899743  0.25338792  0.50440368  1
  Li  Li3  1  0.25100257  0.74661208  0.50440368  1
  Li  Li4  1  0.24738780  0.25210498  0.74931254  1
  Li  Li5  1  0.75261220  0.74789502  0.74931254  1
  Li  Li6  1  0.76164069  0.25816659  0.99618470  1
  Li  Li7  1  0.23835931  0.74183341  0.99618470  1
  Li  Li8  1  0.00000000  0.50000000  0.75033510  1
  Mn  Mn9  1  0.00000000  0.00000000  0.00167928  1
  Mn  Mn10  1  0.50000000  0.50000000  0.50058590  1
  Co  Co11  1  0.50000000  0.50000000  0.98983431  1
  Co  Co12  1  0.50000000  0.00000000  0.25214088  1
  Co  Co13  1  0.00000000  0.50000000  0.25490252  1
  Co  Co14  1  0.00000000  0.00000000  0.50650809  1
  Co  Co15  1  0.50000000  0.00000000  0.74628903  1
  O  O16  1  0.87628387  0.11461820  0.23799822  1
  O  O17  1  0.35639056  0.61096216  0.26044899  1
  O  O18  1  0.36502027  0.11571454  0.49012916  1
  O  O19  1  0.86050413  0.60834191  0.48227109  1
  O  O20  1  0.89090002  0.11928479  0.76229806  1
  O  O21  1  0.39603694  0.61720610  0.73582574  1
  O  O22  1  0.35631935  0.11324735  0.00528470  1
  O  O23  1  0.86338574  0.60615165  0.02480121  1
  O  O24  1  0.64360944  0.38903784  0.26044899  1
  O  O25  1  0.12371613  0.88538180  0.23799822  1
  O  O26  1  0.13949587  0.39165809  0.48227109  1
  O  O27  1  0.63497973  0.88428546  0.49012916  1
  O  O28  1  0.60396306  0.38279390  0.73582574  1
  O  O29  1  0.10909998  0.88071521  0.76229806  1
  O  O30  1  0.13661426  0.39384835  0.02480121  1
  O  O31  1  0.64368065  0.88675265  0.00528470  1
