# generated using pymatgen
data_Li9Mn2Co5O16
_symmetry_space_group_name_H-M   'P 1'
_cell_length_a   5.00653131
_cell_length_b   7.76580213
_cell_length_c   7.72894682
_cell_angle_alpha   82.13177150
_cell_angle_beta   102.64233380
_cell_angle_gamma   78.36720213
_symmetry_Int_Tables_number   1
_chemical_formula_structural   Li9Mn2Co5O16
_chemical_formula_sum   'Li9 Mn2 Co5 O16'
_cell_volume   281.99224116
_cell_formula_units_Z   1
loop_
 _symmetry_equiv_pos_site_id
 _symmetry_equiv_pos_as_xyz
  1  'x, y, z'
loop_
 _atom_site_type_symbol
 _atom_site_label
 _atom_site_symmetry_multiplicity
 _atom_site_fract_x
 _atom_site_fract_y
 _atom_site_fract_z
 _atom_site_occupancy
  Li  Li0  1  0.50106813  0.23977735  0.75158881  1
  Li  Li1  1  0.00446506  0.87664508  0.37428314  1
  Li  Li2  1  0.49899016  0.51183194  0.99953987  1
  Li  Li3  1  0.99873251  0.37644841  0.87754311  1
  Li  Li4  1  0.49952099  0.99739452  0.50772684  1
  Li  Li5  1  0.98212051  0.63240559  0.11722623  1
  Li  Li6  1  0.01672495  0.11509797  0.62992808  1
  Li  Li7  1  0.50197037  0.75172776  0.23988819  1
  Li  Li8  1  0.50449134  0.87242766  0.87455778  1
  Mn  Mn9  1  0.00302943  0.99325216  0.99672777  1
  Mn  Mn10  1  0.49727108  0.63340221  0.63284905  1
  Co  Co11  1  0.99857165  0.24926502  0.24923426  1
  Co  Co12  1  0.99662608  0.49988123  0.49844631  1
  Co  Co13  1  0.50226930  0.11521703  0.11425881  1
  Co  Co14  1  -0.00002874  0.75228903  0.75233052  1
  Co  Co15  1  0.49418714  0.37513990  0.37298081  1
  O  O16  1  0.78515257  0.98683755  0.76223468  1
  O  O17  1  0.25383320  0.61598653  0.39776639  1
  O  O18  1  0.77017802  0.22817354  0.00267479  1
  O  O19  1  0.24891873  0.12196227  0.89096245  1
  O  O20  1  0.74845747  0.74288355  0.52074105  1
  O  O21  1  0.24565624  0.36091771  0.14479072  1
  O  O22  1  0.25279585  0.85430058  0.63144392  1
  O  O23  1  0.74716710  0.49549967  0.25525179  1
  O  O24  1  0.24503753  0.52186652  0.74385279  1
  O  O25  1  0.75364965  0.14267092  0.35714346  1
  O  O26  1  0.22061552  0.76297721  0.98784696  1
  O  O27  1  0.74891803  0.63014678  0.85514885  1
  O  O28  1  0.24131163  0.25835005  0.49629774  1
  O  O29  1  0.76417843  0.88706546  0.12028899  1
  O  O30  1  0.72962836  0.39725197  0.61159299  1
  O  O31  1  0.24449173  0.00090784  0.23284988  1
