# generated using pymatgen
data_Li9Mn2Co5O16
_symmetry_space_group_name_H-M   'P 1'
_cell_length_a   5.90593855
_cell_length_b   5.91649241
_cell_length_c   8.11604875
_cell_angle_alpha   90.80690106
_cell_angle_beta   89.22463724
_cell_angle_gamma   86.38140039
_symmetry_Int_Tables_number   1
_chemical_formula_structural   Li9Mn2Co5O16
_chemical_formula_sum   'Li9 Mn2 Co5 O16'
_cell_volume   282.97152826
_cell_formula_units_Z   1
loop_
 _symmetry_equiv_pos_site_id
 _symmetry_equiv_pos_as_xyz
  1  'x, y, z'
loop_
 _atom_site_type_symbol
 _atom_site_label
 _atom_site_symmetry_multiplicity
 _atom_site_fract_x
 _atom_site_fract_y
 _atom_site_fract_z
 _atom_site_occupancy
  Li  Li0  1  0.49984799  0.99859506  0.99492292  1
  Li  Li1  1  0.24680823  0.25787841  0.24497595  1
  Li  Li2  1  0.75390537  0.25987580  0.75219725  1
  Li  Li3  1  0.49777675  0.50214314  0.99612500  1
  Li  Li4  1  0.00033241  0.49964205  0.50420220  1
  Li  Li5  1  0.75333928  0.73892967  0.75401035  1
  Li  Li6  1  0.24551555  0.74122029  0.24786014  1
  Li  Li7  1  0.00412612  0.99886930  0.50414364  1
  Li  Li8  1  0.99982049  0.49766342  0.99640451  1
  Mn  Mn9  1  0.00230126  0.99845857  0.99888877  1
  Mn  Mn10  1  0.75298884  0.26050572  0.24970171  1
  Co  Co11  1  0.49908150  0.50247958  0.50033010  1
  Co  Co12  1  0.24253357  0.73794611  0.75185645  1
  Co  Co13  1  0.75324864  0.75518581  0.24955428  1
  Co  Co14  1  0.50201076  0.00403960  0.50180485  1
  Co  Co15  1  0.24607687  0.24695638  0.75072555  1
  O  O16  1  0.24267947  0.76053473  0.99135197  1
  O  O17  1  0.99871836  0.02326922  0.23970509  1
  O  O18  1  0.48107152  0.00663520  0.73669885  1
  O  O19  1  0.22747649  0.22336300  0.98572836  1
  O  O20  1  0.73940186  0.26729287  0.48921776  1
  O  O21  1  0.49163685  0.51387887  0.73793567  1
  O  O22  1  0.96386957  0.49494617  0.25169863  1
  O  O23  1  0.73588271  0.76431949  0.48527294  1
  O  O24  1  0.75697198  0.23748087  0.01350015  1
  O  O25  1  0.50432779  0.48843613  0.25794263  1
  O  O26  1  0.02069456  0.48383741  0.74890351  1
  O  O27  1  0.77267061  0.77043687  0.01829060  1
  O  O28  1  0.26357866  0.73709896  0.50819319  1
  O  O29  1  -0.00014729  0.97432083  0.76347588  1
  O  O30  1  0.53491789  0.01574273  0.26248104  1
  O  O31  1  0.26653532  0.23801776  0.51190006  1
