# generated using pymatgen
data_Li4TiFe2Ni3(PO4)6
_symmetry_space_group_name_H-M   'P 1'
_cell_length_a   8.50462813
_cell_length_b   8.60270906
_cell_length_c   8.60286043
_cell_angle_alpha   61.39626421
_cell_angle_beta   61.52794774
_cell_angle_gamma   61.76306020
_symmetry_Int_Tables_number   1
_chemical_formula_structural   Li4TiFe2Ni3(PO4)6
_chemical_formula_sum   'Li4 Ti1 Fe2 Ni3 P6 O24'
_cell_volume   460.65310033
_cell_formula_units_Z   1
loop_
 _symmetry_equiv_pos_site_id
 _symmetry_equiv_pos_as_xyz
  1  'x, y, z'
loop_
 _atom_site_type_symbol
 _atom_site_label
 _atom_site_symmetry_multiplicity
 _atom_site_fract_x
 _atom_site_fract_y
 _atom_site_fract_z
 _atom_site_occupancy
  Li  Li0  1  0.74312389  0.15150295  0.36162920  1
  Li  Li1  1  0.29660683  0.84885939  0.64043822  1
  Li  Li2  1  0.63782500  0.29737182  0.85148559  1
  Li  Li3  1  0.85199386  0.63691708  0.30114705  1
  Ti  Ti4  1  0.85130957  0.84483367  0.85141074  1
  Fe  Fe5  1  0.01191522  0.00014637  0.99887770  1
  Fe  Fe6  1  0.49000820  0.50395004  0.50076250  1
  Ni  Ni7  1  0.14414627  0.14842277  0.14521595  1
  Ni  Ni8  1  0.35873292  0.35465956  0.35241821  1
  Ni  Ni9  1  0.64430098  0.64810379  0.64976384  1
  P  P10  1  0.24354234  0.54765039  0.96093503  1
  P  P11  1  0.55511546  0.96249651  0.24660143  1
  P  P12  1  0.94538866  0.24322004  0.53984802  1
  P  P13  1  0.05180040  0.74303430  0.44799423  1
  P  P14  1  0.44629789  0.04487159  0.75082452  1
  P  P15  1  0.74928016  0.44418624  0.04490248  1
  O  O16  1  0.12217024  0.27730268  0.49814523  1
  O  O17  1  0.29561777  0.52967777  0.11551410  1
  O  O18  1  0.06653617  0.90547828  0.26132024  1
  O  O19  1  0.56194770  0.10915292  0.29426815  1
  O  O20  1  0.99084347  0.81148786  0.61603247  1
  O  O21  1  0.24233537  0.58631537  0.45126356  1
  O  O22  1  0.25368613  0.08032820  0.90184194  1
  O  O23  1  0.47400600  0.22446361  0.58281502  1
  O  O24  1  0.15693113  0.40730078  0.00874038  1
  O  O25  1  0.59911187  0.44065813  0.24081418  1
  O  O26  1  0.10155075  0.75981323  0.90489945  1
  O  O27  1  0.40039449  0.03343136  0.16871342  1
  O  O28  1  0.61350850  0.97542640  0.82585278  1
  O  O29  1  0.90114810  0.24820515  0.07312836  1
  O  O30  1  0.41161775  0.54840872  0.76814916  1
  O  O31  1  0.81957793  0.61003339  0.98370343  1
  O  O32  1  0.54275608  0.77466704  0.41664619  1
  O  O33  1  0.76166120  0.89760819  0.10189871  1
  O  O34  1  0.75826862  0.41898425  0.54938930  1
  O  O35  1  0.95456821  0.17532524  0.40062398  1
  O  O36  1  0.46973936  0.89185022  0.69131961  1
  O  O37  1  0.89918341  0.10097860  0.74997241  1
  O  O38  1  0.68378516  0.47336011  0.89376605  1
  O  O39  1  0.89766694  0.67651599  0.47993017  1
