# generated using pymatgen
data_LiMnP2O7
_symmetry_space_group_name_H-M   'P 1'
_cell_length_a   9.81313725
_cell_length_b   9.73213647
_cell_length_c   11.18753657
_cell_angle_alpha   90.03885449
_cell_angle_beta   101.73750670
_cell_angle_gamma   89.96676165
_symmetry_Int_Tables_number   1
_chemical_formula_structural   LiMnP2O7
_chemical_formula_sum   'Li8 Mn8 P16 O56'
_cell_volume   1046.09936119
_cell_formula_units_Z   8
loop_
 _symmetry_equiv_pos_site_id
 _symmetry_equiv_pos_as_xyz
  1  'x, y, z'
loop_
 _atom_site_type_symbol
 _atom_site_label
 _atom_site_symmetry_multiplicity
 _atom_site_fract_x
 _atom_site_fract_y
 _atom_site_fract_z
 _atom_site_occupancy
  Li  Li0  1  0.14640587  0.38589581  0.04276563  1
  Li  Li1  1  0.41201513  0.59479952  0.97585302  1
  Li  Li2  1  0.33870918  0.91165425  0.46012982  1
  Li  Li3  1  0.39466504  0.21447902  0.54654574  1
  Li  Li4  1  0.64651711  0.11490803  0.04250184  1
  Li  Li5  1  0.91205755  0.90525028  0.97585536  1
  Li  Li6  1  0.83894445  0.58811452  0.46003198  1
  Li  Li7  1  0.89470988  0.28517461  0.54677782  1
  Mn  Mn8  1  0.20591071  0.92898378  0.67849753  1
  Mn  Mn9  1  0.27273237  0.22488704  0.83796471  1
  Mn  Mn10  1  0.21340221  0.72548631  0.16173561  1
  Mn  Mn11  1  0.31136226  0.43112081  0.33548964  1
  Mn  Mn12  1  0.70599424  0.57057268  0.67827565  1
  Mn  Mn13  1  0.77249285  0.27503601  0.83794735  1
  Mn  Mn14  1  0.71298788  0.77455924  0.16143019  1
  Mn  Mn15  1  0.81148528  0.06918535  0.33531834  1
  P  P16  1  0.02314478  0.44991606  0.75578995  1
  P  P17  1  0.11603342  0.71478832  0.88210434  1
  P  P18  1  0.06479949  0.93073561  0.24391250  1
  P  P19  1  0.13563572  0.15471326  0.42353666  1
  P  P20  1  0.38381876  0.64097334  0.57570320  1
  P  P21  1  0.43160984  0.41912614  0.75772620  1
  P  P22  1  0.52291646  0.04970758  0.75568760  1
  P  P23  1  0.37982636  0.21044908  0.11798336  1
  P  P24  1  0.61615887  0.78493496  0.88186346  1
  P  P25  1  0.46464211  0.93818634  0.23899775  1
  P  P26  1  0.56461221  0.56958015  0.24402881  1
  P  P27  1  0.63565658  0.34578486  0.42395736  1
  P  P28  1  0.88387699  0.85896070  0.57540722  1
  P  P29  1  0.93147818  0.08062688  0.75760031  1
  P  P30  1  0.87973770  0.28967592  0.11778654  1
  P  P31  1  0.96452810  0.56208229  0.23873503  1
  O  O32  1  0.02372863  0.41397188  0.62663806  1
  O  O33  1  0.04138487  0.85890397  0.57396233  1
  O  O34  1  0.08224741  0.09159697  0.74056497  1
  O  O35  1  0.10618766  0.35566153  0.85601538  1
  O  O36  1  0.09520211  0.59742014  0.77846724  1
  O  O37  1  0.19416337  0.82734264  0.82725812  1
  O  O38  1  0.21699755  0.64815801  0.99699792  1
  O  O39  1  0.01992363  0.26579935  0.09086692  1
  O  O40  1  0.12617885  0.07653358  0.29411370  1
  O  O41  1  0.06731417  0.91558298  0.11022820  1
  O  O42  1  0.10972435  0.55323382  0.19760581  1
  O  O43  1  0.20729206  0.29076684  0.40831578  1
  O  O44  1  0.16995752  0.82009142  0.30916324  1
  O  O45  1  0.23004158  0.06494675  0.52094211  1
  O  O46  1  0.29866653  0.56269043  0.46650519  1
  O  O47  1  0.33648249  0.30087659  0.69244361  1
  O  O48  1  0.32836324  0.78461477  0.58994122  1
  O  O49  1  0.36885302  0.03827226  0.78344407  1
  O  O50  1  0.36778462  0.56037076  0.69850050  1
  O  O51  1  0.40473704  0.41470903  0.88736775  1
  O  O52  1  0.47915846  0.74929175  0.91019174  1
  O  O53  1  0.26832985  0.17066421  0.00190385  1
  O  O54  1  0.31379640  0.33142949  0.17892108  1
  O  O55  1  0.38762088  0.08599460  0.21294997  1
  O  O56  1  0.41605987  0.57854139  0.27248406  1
  O  O57  1  0.37470223  0.83644956  0.14994452  1
  O  O58  1  0.52344944  0.08550656  0.62655045  1
  O  O59  1  0.48739978  0.33038975  0.44272972  1
  O  O60  1  0.54119355  0.64079036  0.57398465  1
  O  O61  1  0.47672550  0.91421939  0.37173838  1
  O  O62  1  0.60581676  0.14402494  0.85595104  1
  O  O63  1  0.58238909  0.40797130  0.74072911  1
  O  O64  1  0.59502826  0.90215879  0.77825901  1
  O  O65  1  0.69440524  0.67234376  0.82684847  1
  O  O66  1  0.71705273  0.85162660  0.99674759  1
  O  O67  1  0.52023338  0.23442690  0.09168700  1
  O  O68  1  0.56706043  0.58398800  0.11032080  1
  O  O69  1  0.62646925  0.42410254  0.29478422  1
  O  O70  1  0.60979096  0.94697388  0.19779256  1
  O  O71  1  0.70748052  0.20976631  0.40860384  1
  O  O72  1  0.66960613  0.68049902  0.30895655  1
  O  O73  1  0.73015461  0.43545651  0.52161504  1
  O  O74  1  0.79907286  0.93774302  0.46639094  1
  O  O75  1  0.83634439  0.19890418  0.69237323  1
  O  O76  1  0.82821638  0.71549566  0.58931123  1
  O  O77  1  0.86911313  0.46143278  0.78353691  1
  O  O78  1  0.90456355  0.08524964  0.88724071  1
  O  O79  1  0.86771317  0.93937348  0.69838720  1
  O  O80  1  0.97885733  0.75030686  0.91027045  1
  O  O81  1  0.76775189  0.32921133  0.00194426  1
  O  O82  1  0.81405878  0.16871628  0.17880301  1
  O  O83  1  0.88785772  0.41409300  0.21297249  1
  O  O84  1  0.87427092  0.66338979  0.14953385  1
  O  O85  1  0.91622565  0.92174634  0.27224801  1
  O  O86  1  0.98731760  0.17026841  0.44227339  1
  O  O87  1  0.97664806  0.58655715  0.37142600  1
