# generated using pymatgen
data_Li5Mg11(WO4)12
_symmetry_space_group_name_H-M   'P 1'
_cell_length_a   5.24610459
_cell_length_b   10.59218944
_cell_length_c   18.06000359
_cell_angle_alpha   90.00000000
_cell_angle_beta   89.92176715
_cell_angle_gamma   90.00000000
_symmetry_Int_Tables_number   1
_chemical_formula_structural   Li5Mg11(WO4)12
_chemical_formula_sum   'Li5 Mg11 W12 O48'
_cell_volume   1003.55253339
_cell_formula_units_Z   1
loop_
 _symmetry_equiv_pos_site_id
 _symmetry_equiv_pos_as_xyz
  1  'x, y, z'
loop_
 _atom_site_type_symbol
 _atom_site_label
 _atom_site_symmetry_multiplicity
 _atom_site_fract_x
 _atom_site_fract_y
 _atom_site_fract_z
 _atom_site_occupancy
  Li  Li0  1  0.24383577  0.75000000  0.29770772  1
  Li  Li1  1  0.25367475  0.25000000  0.80144406  1
  Li  Li2  1  0.74823445  0.75000000  0.19768503  1
  Li  Li3  1  0.75598960  0.25000000  0.70281512  1
  Li  Li4  1  0.90208866  0.75000000  0.75411235  1
  Mg  Mg5  1  0.09584012  0.25000000  0.24818474  1
  Mg  Mg6  1  0.25989684  0.07537702  0.97209533  1
  Mg  Mg7  1  0.25989684  0.42462298  0.97209533  1
  Mg  Mg8  1  0.24789836  0.57021943  0.47268955  1
  Mg  Mg9  1  0.24789836  0.92978057  0.47268955  1
  Mg  Mg10  1  0.39725250  0.75000000  0.75374802  1
  Mg  Mg11  1  0.59589574  0.25000000  0.24862086  1
  Mg  Mg12  1  0.75355278  0.08206473  0.52781592  1
  Mg  Mg13  1  0.75355278  0.41793527  0.52781592  1
  Mg  Mg14  1  0.73993271  0.57830541  0.02508401  1
  Mg  Mg15  1  0.73993271  0.92169459  0.02508401  1
  W  W16  1  0.20309974  0.75000000  0.94128728  1
  W  W17  1  0.22476576  0.02703144  0.65549699  1
  W  W18  1  0.22476576  0.47296856  0.65549699  1
  W  W19  1  0.27888590  0.52552602  0.15427565  1
  W  W20  1  0.27888590  0.97447398  0.15427565  1
  W  W21  1  0.29139087  0.25000000  0.43984326  1
  W  W22  1  0.71215792  0.75000000  0.55778732  1
  W  W23  1  0.72308103  0.47529534  0.84436449  1
  W  W24  1  0.72308103  0.02470466  0.84436449  1
  W  W25  1  0.78257094  0.52579009  0.34561337  1
  W  W26  1  0.78257094  0.97420991  0.34561337  1
  W  W27  1  0.79389654  0.25000000  0.05923966  1
  O  O28  1  0.06211480  0.61457629  0.37511841  1
  O  O29  1  0.06211480  0.88542371  0.37511841  1
  O  O30  1  0.06269035  0.25000000  0.98902284  1
  O  O31  1  0.08513430  0.62241853  0.21357511  1
  O  O32  1  0.08513430  0.87758147  0.21357511  1
  O  O33  1  0.07744332  0.01073531  0.07415601  1
  O  O34  1  0.07744332  0.48926469  0.07415601  1
  O  O35  1  0.07984567  0.10791465  0.46347483  1
  O  O36  1  0.07984567  0.39208535  0.46347483  1
  O  O37  1  0.15566411  0.61928577  0.70311958  1
  O  O38  1  0.15566411  0.88071423  0.70311958  1
  O  O39  1  0.15979003  0.75000000  0.83975327  1
  O  O40  1  0.34014200  0.25000000  0.33733423  1
  O  O41  1  0.34866296  0.12009805  0.20585582  1
  O  O42  1  0.34866296  0.37990195  0.20585582  1
  O  O43  1  0.41593007  0.89211333  0.96465376  1
  O  O44  1  0.41593007  0.60788667  0.96465376  1
  O  O45  1  0.42286446  0.51065460  0.57262266  1
  O  O46  1  0.42286446  0.98934540  0.57262266  1
  O  O47  1  0.42037903  0.12503853  0.71249046  1
  O  O48  1  0.42037903  0.37496147  0.71249046  1
  O  O49  1  0.43130773  0.75000000  0.49516360  1
  O  O50  1  0.44359182  0.11434879  0.87327001  1
  O  O51  1  0.44359182  0.38565121  0.87327001  1
  O  O52  1  0.55998130  0.61429697  0.12739301  1
  O  O53  1  0.55998130  0.88570303  0.12739301  1
  O  O54  1  0.56000129  0.25000000  0.51024577  1
  O  O55  1  0.58648192  0.62363849  0.28880468  1
  O  O56  1  0.58648192  0.87636151  0.28880468  1
  O  O57  1  0.58087589  0.00958737  0.42705060  1
  O  O58  1  0.58087589  0.49041263  0.42705060  1
  O  O59  1  0.58331568  0.10751759  0.03776515  1
  O  O60  1  0.58331568  0.39248241  0.03776515  1
  O  O61  1  0.64416406  0.61799861  0.79359285  1
  O  O62  1  0.64416406  0.88200139  0.79359285  1
  O  O63  1  0.63458928  0.75000000  0.65445855  1
  O  O64  1  0.84200834  0.25000000  0.16301682  1
  O  O65  1  0.84875491  0.12080071  0.29549066  1
  O  O66  1  0.84875491  0.37919929  0.29549066  1
  O  O67  1  0.91385157  0.61430979  0.53572207  1
  O  O68  1  0.91385157  0.88569021  0.53572207  1
  O  O69  1  0.92305332  0.51188135  0.92596469  1
  O  O70  1  0.92305332  0.98811865  0.92596469  1
  O  O71  1  0.91912452  0.12197784  0.78570954  1
  O  O72  1  0.91912452  0.37802216  0.78570954  1
  O  O73  1  0.93240555  0.75000000  0.01228374  1
  O  O74  1  0.94003782  0.11162216  0.62485867  1
  O  O75  1  0.94003782  0.38837784  0.62485867  1
