# generated using pymatgen
data_LiFe4(BO3)4
_symmetry_space_group_name_H-M   'P 1'
_cell_length_a   5.29790699
_cell_length_b   8.99263846
_cell_length_c   11.34655323
_cell_angle_alpha   113.26723441
_cell_angle_beta   77.12597177
_cell_angle_gamma   90.39862471
_symmetry_Int_Tables_number   1
_chemical_formula_structural   LiFe4(BO3)4
_chemical_formula_sum   'Li2 Fe8 B8 O24'
_cell_volume   482.14011617
_cell_formula_units_Z   2
loop_
 _symmetry_equiv_pos_site_id
 _symmetry_equiv_pos_as_xyz
  1  'x, y, z'
loop_
 _atom_site_type_symbol
 _atom_site_label
 _atom_site_symmetry_multiplicity
 _atom_site_fract_x
 _atom_site_fract_y
 _atom_site_fract_z
 _atom_site_occupancy
  Li  Li0  1  0.60199813  0.05359037  0.09302996  1
  Li  Li1  1  0.68235724  0.66546468  0.34307469  1
  Fe  Fe2  1  0.40104103  0.27073648  0.87022022  1
  Fe  Fe3  1  0.09673226  0.22469250  0.12180330  1
  Fe  Fe4  1  0.85345761  0.14611164  0.62145515  1
  Fe  Fe5  1  0.65101491  0.34565618  0.37359123  1
  Fe  Fe6  1  0.35124948  0.64848971  0.62305943  1
  Fe  Fe7  1  0.15443850  0.85215992  0.37517503  1
  Fe  Fe8  1  0.90468270  0.76874218  0.86828729  1
  Fe  Fe9  1  0.59045285  0.72518060  0.12226041  1
  B  B10  1  0.65464881  0.01450072  0.37016778  1
  B  B11  1  0.89378569  0.10605389  0.87205828  1
  B  B12  1  0.13479202  0.51587769  0.37592048  1
  B  B13  1  0.39421646  0.60546604  0.87161098  1
  B  B14  1  0.85404304  0.48237534  0.62361106  1
  B  B15  1  0.59336736  0.39266181  0.12627963  1
  B  B16  1  0.35609529  0.98411287  0.62483625  1
  B  B17  1  0.11448444  0.88847458  0.11764986  1
  O  O18  1  0.12192843  0.14657424  0.91102862  1
  O  O19  1  0.47226120  0.12948893  0.66858424  1
  O  O20  1  0.23796151  0.01884977  0.11472486  1
  O  O21  1  0.54405542  0.14116919  0.35615769  1
  O  O22  1  0.85980413  0.03033147  0.42902037  1
  O  O23  1  0.77921364  0.20176762  0.82419059  1
  O  O24  1  0.29335792  0.46741024  0.86625595  1
  O  O25  1  0.02577318  0.36788720  0.33654892  1
  O  O26  1  0.69258016  0.28525402  0.17142721  1
  O  O27  1  0.63353561  0.48006983  0.57264620  1
  O  O28  1  0.95282776  0.35104207  0.63071520  1
  O  O29  1  0.39551773  0.34642913  0.06280106  1
  O  O30  1  0.61629656  0.65425939  0.92243474  1
  O  O31  1  0.37436711  0.52501367  0.41695150  1
  O  O32  1  0.28458033  0.70977103  0.82626678  1
  O  O33  1  0.96679258  0.63247970  0.66863118  1
  O  O34  1  0.68852556  0.54146682  0.15128679  1
  O  O35  1  0.21766703  0.77958849  0.15793297  1
  O  O36  1  0.13086296  0.98267287  0.58261717  1
  O  O37  1  0.46625832  0.84248867  0.61853534  1
  O  O38  1  0.01792628  0.64874688  0.37644149  1
  O  O39  1  0.77645959  0.97571107  0.88978520  1
  O  O40  1  0.56032606  0.85994359  0.32054157  1
  O  O41  1  0.87510909  0.85674592  0.07645532  1
