# generated using pymatgen
data_LiFe4(BO3)4
_symmetry_space_group_name_H-M   'P 1'
_cell_length_a   5.23208436
_cell_length_b   9.12214215
_cell_length_c   10.14419276
_cell_angle_alpha   90.20549298
_cell_angle_beta   90.31374716
_cell_angle_gamma   88.99369669
_symmetry_Int_Tables_number   1
_chemical_formula_structural   LiFe4(BO3)4
_chemical_formula_sum   'Li2 Fe8 B8 O24'
_cell_volume   484.07529884
_cell_formula_units_Z   2
loop_
 _symmetry_equiv_pos_site_id
 _symmetry_equiv_pos_as_xyz
  1  'x, y, z'
loop_
 _atom_site_type_symbol
 _atom_site_label
 _atom_site_symmetry_multiplicity
 _atom_site_fract_x
 _atom_site_fract_y
 _atom_site_fract_z
 _atom_site_occupancy
  Li  Li0  1  0.81504366  0.83174051  0.15262989  1
  Li  Li1  1  0.34732364  0.32393172  0.65241809  1
  Fe  Fe2  1  0.85380841  0.14959167  0.62660587  1
  Fe  Fe3  1  0.83023092  0.48637804  0.12846207  1
  Fe  Fe4  1  0.67330171  0.99979862  0.87820061  1
  Fe  Fe5  1  0.66878390  0.33207690  0.37683675  1
  Fe  Fe6  1  0.32992317  0.66963065  0.62875178  1
  Fe  Fe7  1  0.31259490  0.02051406  0.12721057  1
  Fe  Fe8  1  0.17617287  0.84209867  0.37844563  1
  Fe  Fe9  1  0.16384252  0.50866299  0.87952252  1
  B  B10  1  0.82787660  0.49689489  0.62674032  1
  B  B11  1  0.82716147  0.17263585  0.12643730  1
  B  B12  1  0.66500963  0.00363561  0.36990035  1
  B  B13  1  0.67096340  0.33270518  0.87394118  1
  B  B14  1  0.35759425  0.00063803  0.62951669  1
  B  B15  1  0.32937461  0.66822937  0.13034920  1
  B  B16  1  0.16191554  0.50110161  0.38119932  1
  B  B17  1  0.17133665  0.83306541  0.88117720  1
  O  O18  1  0.91565175  0.48878452  0.32561092  1
  O  O19  1  0.91479001  0.84484981  0.89356737  1
  O  O20  1  0.77846602  0.20009777  0.83946822  1
  O  O21  1  0.75665265  0.13331466  0.42111142  1
  O  O22  1  0.82571422  0.88583323  0.34884087  1
  O  O23  1  0.82590178  0.44056329  0.93195276  1
  O  O24  1  0.67906097  0.61902419  0.63519446  1
  O  O25  1  0.69858946  0.04566892  0.08616271  1
  O  O26  1  0.73086836  0.36555313  0.57813255  1
  O  O27  1  0.67620396  0.29685429  0.17212482  1
  O  O28  1  0.59015318  0.65127789  0.13623892  1
  O  O29  1  0.60271585  0.98774254  0.68143128  1
  O  O30  1  0.40854064  0.99514819  0.33662608  1
  O  O31  1  0.42018931  0.36574464  0.84636199  1
  O  O32  1  0.27856227  0.70285953  0.82526031  1
  O  O33  1  0.23287172  0.63685791  0.43414557  1
  O  O34  1  0.32174437  0.38421702  0.38700180  1
  O  O35  1  0.33444184  0.93913806  0.92602043  1
  O  O36  1  0.17627158  0.55855237  0.07327625  1
  O  O37  1  0.22690302  0.12984012  0.62701379  1
  O  O38  1  0.24584097  0.87160804  0.57713565  1
  O  O39  1  0.20095265  0.79180140  0.17848753  1
  O  O40  1  0.08014839  0.18615809  0.12469661  1
  O  O41  1  0.08834017  0.49701261  0.67011536  1
