# generated using pymatgen
data_TmBiTe3
_symmetry_space_group_name_H-M   'P 1'
_cell_length_a   4.38431951
_cell_length_b   4.38431881
_cell_length_c   10.97105264
_cell_angle_alpha   90.00000000
_cell_angle_beta   78.47397392
_cell_angle_gamma   119.99999464
_symmetry_Int_Tables_number   1
_chemical_formula_structural   TmBiTe3
_chemical_formula_sum   'Tm1 Bi1 Te3'
_cell_volume   177.70705981
_cell_formula_units_Z   1
loop_
 _symmetry_equiv_pos_site_id
 _symmetry_equiv_pos_as_xyz
  1  'x, y, z'
loop_
 _atom_site_type_symbol
 _atom_site_label
 _atom_site_symmetry_multiplicity
 _atom_site_fract_x
 _atom_site_fract_y
 _atom_site_fract_z
 _atom_site_occupancy
  Tm  Tm0  1  0.20529059  0.60264529  0.19206412  1
  Bi  Bi1  1  0.79512015  0.39756007  0.80731978  1
  Te  Te2  1  0.99116236  0.99558118  0.01325645  1
  Te  Te3  1  0.56886893  0.78443446  0.64669661  1
  Te  Te4  1  0.43955797  0.21977899  0.34066304  1
