# generated using pymatgen
data_LiFeF4
_symmetry_space_group_name_H-M   'P 1'
_cell_length_a   3.07895175
_cell_length_b   5.59727807
_cell_length_c   9.57724454
_cell_angle_alpha   93.37693111
_cell_angle_beta   80.74996653
_cell_angle_gamma   105.96440877
_symmetry_Int_Tables_number   1
_chemical_formula_structural   LiFeF4
_chemical_formula_sum   'Li2 Fe2 F8'
_cell_volume   156.60394133
_cell_formula_units_Z   2
loop_
 _symmetry_equiv_pos_site_id
 _symmetry_equiv_pos_as_xyz
  1  'x, y, z'
loop_
 _atom_site_type_symbol
 _atom_site_label
 _atom_site_symmetry_multiplicity
 _atom_site_fract_x
 _atom_site_fract_y
 _atom_site_fract_z
 _atom_site_occupancy
  Li  Li0  1  0.25370779  0.75000000  0.25000000  1
  Li  Li1  1  0.74629221  0.25000000  0.75000000  1
  Fe  Fe2  1  0.00000000  -0.00000000  -0.00000000  1
  Fe  Fe3  1  0.50000000  0.50000000  0.50000000  1
  F  F4  1  0.49483242  0.11027264  0.12255012  1
  F  F5  1  0.80120885  0.70852697  0.11162194  1
  F  F6  1  0.00710990  0.38972736  0.37744988  1
  F  F7  1  0.29569518  0.20852697  0.61162194  1
  F  F8  1  0.70430482  0.79147303  0.38837806  1
  F  F9  1  0.99289010  0.61027264  0.62255012  1
  F  F10  1  0.19879115  0.29147303  0.88837806  1
  F  F11  1  0.50516758  0.88972736  0.87744988  1
