# generated using pymatgen
data_Li6Ti3Fe(PO4)6
_symmetry_space_group_name_H-M   'P 1'
_cell_length_a   8.55078563
_cell_length_b   8.61303134
_cell_length_c   8.61186874
_cell_angle_alpha   62.33537931
_cell_angle_beta   62.54885045
_cell_angle_gamma   62.44497873
_symmetry_Int_Tables_number   1
_chemical_formula_structural   Li6Ti3Fe(PO4)6
_chemical_formula_sum   'Li6 Ti3 Fe1 P6 O24'
_cell_volume   472.90608773
_cell_formula_units_Z   1
loop_
 _symmetry_equiv_pos_site_id
 _symmetry_equiv_pos_as_xyz
  1  'x, y, z'
loop_
 _atom_site_type_symbol
 _atom_site_label
 _atom_site_symmetry_multiplicity
 _atom_site_fract_x
 _atom_site_fract_y
 _atom_site_fract_z
 _atom_site_occupancy
  Li  Li0  1  0.01965385  0.99576996  0.98891734  1
  Li  Li1  1  0.75454912  0.14761854  0.34526079  1
  Li  Li2  1  0.47780373  0.50868768  0.49798082  1
  Li  Li3  1  0.22615866  0.83945910  0.65967013  1
  Li  Li4  1  0.66175560  0.22472508  0.83770548  1
  Li  Li5  1  0.83726581  0.66213556  0.22538720  1
  Ti  Ti6  1  0.14573568  0.14483538  0.13585689  1
  Ti  Ti7  1  0.35364490  0.36193568  0.35507304  1
  Ti  Ti8  1  0.64753436  0.64915471  0.64869187  1
  Fe  Fe9  1  0.85109159  0.84929517  0.84935981  1
  P  P10  1  0.05455790  0.75343077  0.44740475  1
  P  P11  1  0.44796335  0.05691053  0.75024057  1
  P  P12  1  0.75083086  0.45188237  0.05387519  1
  P  P13  1  0.25354387  0.54101517  0.95720990  1
  P  P14  1  0.54315235  0.96093584  0.25297942  1
  P  P15  1  0.95548957  0.25260505  0.53773944  1
  O  O16  1  0.12124426  0.31253344  0.48576549  1
  O  O17  1  0.32202241  0.49389722  0.11509030  1
  O  O18  1  0.05009827  0.92069302  0.26557536  1
  O  O19  1  0.51462859  0.11738447  0.31403219  1
  O  O20  1  0.24170090  0.59533974  0.41739228  1
  O  O21  1  0.04024739  0.80522806  0.60280532  1
  O  O22  1  0.25932109  0.07022766  0.90739598  1
  O  O23  1  0.43474910  0.23874078  0.58302904  1
  O  O24  1  0.59593950  0.41966379  0.24491539  1
  O  O25  1  0.19345065  0.38090647  0.99432490  1
  O  O26  1  0.09632421  0.72963481  0.94408643  1
  O  O27  1  0.37392091  0.00375792  0.20178245  1
  O  O28  1  0.60490968  0.03753469  0.80504894  1
  O  O29  1  0.90514423  0.25857590  0.07174760  1
  O  O30  1  0.80729733  0.60441491  0.03689441  1
  O  O31  1  0.41010885  0.56314771  0.76595402  1
  O  O32  1  0.56116436  0.77011690  0.41176140  1
  O  O33  1  0.72883353  0.94177469  0.09397616  1
  O  O34  1  0.97575581  0.20027258  0.37844810  1
  O  O35  1  0.76617946  0.41206924  0.56575174  1
  O  O36  1  0.48952398  0.88975493  0.69530357  1
  O  O37  1  0.94632148  0.09375205  0.72443242  1
  O  O38  1  0.69337854  0.49294881  0.88947325  1
  O  O39  1  0.88700226  0.69623460  0.49266160  1
