# generated using pymatgen
data_LiFeF3
_symmetry_space_group_name_H-M   'P 1'
_cell_length_a   6.91196390
_cell_length_b   7.97358607
_cell_length_c   21.26715097
_cell_angle_alpha   96.98952077
_cell_angle_beta   82.88734726
_cell_angle_gamma   90.93551768
_symmetry_Int_Tables_number   1
_chemical_formula_structural   LiFeF3
_chemical_formula_sum   'Li18 Fe18 F54'
_cell_volume   1154.43523767
_cell_formula_units_Z   18
loop_
 _symmetry_equiv_pos_site_id
 _symmetry_equiv_pos_as_xyz
  1  'x, y, z'
loop_
 _atom_site_type_symbol
 _atom_site_label
 _atom_site_symmetry_multiplicity
 _atom_site_fract_x
 _atom_site_fract_y
 _atom_site_fract_z
 _atom_site_occupancy
  Li  Li0  1  0.25366220  0.70196483  0.13580138  1
  Li  Li1  1  0.10889693  0.29568668  0.70435153  1
  Li  Li2  1  0.33816945  0.39847688  0.34827255  1
  Li  Li3  1  0.25697363  0.31439189  0.55571168  1
  Li  Li4  1  0.17507348  0.99689070  0.91089073  1
  Li  Li5  1  0.46513028  0.43108607  0.20379041  1
  Li  Li6  1  0.61942243  0.28167147  0.01584161  1
  Li  Li7  1  0.30533797  0.02541078  0.76803337  1
  Li  Li8  1  0.48636190  0.86794184  0.57897866  1
  Li  Li9  1  0.51363810  0.13205816  0.42102134  1
  Li  Li10  1  0.69466203  0.97458922  0.23196663  1
  Li  Li11  1  0.38057757  0.71832853  0.98415839  1
  Li  Li12  1  0.53486972  0.56891393  0.79620959  1
  Li  Li13  1  0.82492652  0.00310930  0.08910927  1
  Li  Li14  1  0.74302637  0.68560811  0.44428832  1
  Li  Li15  1  0.66183055  0.60152312  0.65172745  1
  Li  Li16  1  0.89110307  0.70431332  0.29564847  1
  Li  Li17  1  0.74633780  0.29803517  0.86419862  1
  Fe  Fe18  1  0.10413538  0.35177079  0.03361200  1
  Fe  Fe19  1  0.05719659  0.01029691  0.41802699  1
  Fe  Fe20  1  0.19125054  0.04916389  0.26177179  1
  Fe  Fe21  1  0.00770178  0.67289636  0.81123325  1
  Fe  Fe22  1  0.23212395  0.69518901  0.49314242  1
  Fe  Fe23  1  0.39350907  0.04409632  0.10039304  1
  Fe  Fe24  1  0.15063739  0.68217916  0.65368107  1
  Fe  Fe25  1  0.41515112  0.76246064  0.33657251  1
  Fe  Fe26  1  0.23474970  0.36738702  0.86731420  1
  Fe  Fe27  1  0.76525030  0.63261298  0.13268580  1
  Fe  Fe28  1  0.58484888  0.23753936  0.66342749  1
  Fe  Fe29  1  0.84936261  0.31782084  0.34631893  1
  Fe  Fe30  1  0.60649093  0.95590368  0.89960696  1
  Fe  Fe31  1  0.76787605  0.30481099  0.50685758  1
  Fe  Fe32  1  0.99229822  0.32710364  0.18876675  1
  Fe  Fe33  1  0.80874946  0.95083611  0.73822821  1
  Fe  Fe34  1  0.94280341  0.98970309  0.58197301  1
  Fe  Fe35  1  0.89586462  0.64822921  0.96638800  1
  F  F36  1  0.02692850  0.16685352  0.09979154  1
  F  F37  1  0.05845623  0.52556464  0.12656471  1
  F  F38  1  0.09633332  0.86335677  0.32718766  1
  F  F39  1  0.19914113  0.92832321  0.17700106  1
  F  F40  1  0.03953875  0.17046773  0.51597560  1
  F  F41  1  0.13850943  0.21413339  0.35162870  1
  F  F42  1  0.35132366  0.80189853  0.06694245  1
  F  F43  1  0.03203703  0.52546692  0.71548840  1
  F  F44  1  0.26468574  0.25937281  0.20576501  1
  F  F45  1  0.14852570  0.53892259  0.56123372  1
  F  F46  1  0.10571322  0.85778875  0.74036697  1
  F  F47  1  0.36258525  0.29688937  0.06012539  1
  F  F48  1  0.26545496  0.60111888  0.40318515  1
  F  F49  1  0.20272169  0.88095520  0.57779963  1
  F  F50  1  0.33364709  0.94963349  0.42209202  1
  F  F51  1  0.47845320  0.61213198  0.15637065  1
  F  F52  1  0.45777098  0.97191970  0.29018059  1
  F  F53  1  0.42626741  0.53742013  0.28654381  1
  F  F54  1  0.11954241  0.22766453  0.93873293  1
  F  F55  1  0.18752395  0.23790622  0.77859756  1
  F  F56  1  0.30803492  0.25351113  0.63457872  1
  F  F57  1  0.17623005  0.55451767  0.97161567  1
  F  F58  1  0.27301418  0.61196387  0.82394553  1
  F  F59  1  0.61455256  0.98905211  0.15556705  1
  F  F60  1  0.47845103  0.27591202  0.49783633  1
  F  F61  1  0.35465814  0.92232088  0.95645816  1
  F  F62  1  0.56299651  0.29304156  0.36282554  1
  F  F63  1  0.43700349  0.70695844  0.63717446  1
  F  F64  1  0.64534186  0.07767912  0.04354184  1
  F  F65  1  0.52154897  0.72408798  0.50216367  1
  F  F66  1  0.38544744  0.01094789  0.84443295  1
  F  F67  1  0.72698582  0.38803613  0.17605447  1
  F  F68  1  0.82376995  0.44548233  0.02838433  1
  F  F69  1  0.69196508  0.74648887  0.36542128  1
  F  F70  1  0.81247605  0.76209378  0.22140244  1
  F  F71  1  0.88045759  0.77233547  0.06126707  1
  F  F72  1  0.57373259  0.46257987  0.71345619  1
  F  F73  1  0.54222902  0.02808030  0.70981941  1
  F  F74  1  0.52154680  0.38786802  0.84362935  1
  F  F75  1  0.66635291  0.05036651  0.57790798  1
  F  F76  1  0.79727831  0.11904480  0.42220037  1
  F  F77  1  0.73454504  0.39888112  0.59681485  1
  F  F78  1  0.63741475  0.70311063  0.93987461  1
  F  F79  1  0.89428678  0.14221125  0.25963303  1
  F  F80  1  0.85147430  0.46107741  0.43876628  1
  F  F81  1  0.73531426  0.74062719  0.79423499  1
  F  F82  1  0.96796297  0.47453308  0.28451160  1
  F  F83  1  0.64867634  0.19810147  0.93305755  1
  F  F84  1  0.86149057  0.78586661  0.64837130  1
  F  F85  1  0.96046125  0.82953227  0.48402440  1
  F  F86  1  0.80085887  0.07167679  0.82299894  1
  F  F87  1  0.90366668  0.13664323  0.67281234  1
  F  F88  1  0.94154377  0.47443536  0.87343529  1
  F  F89  1  0.97307150  0.83314648  0.90020846  1
