# generated using pymatgen
data_Li4Ti2Mn3V3O16
_symmetry_space_group_name_H-M   'P 1'
_cell_length_a   6.01855418
_cell_length_b   5.87484311
_cell_length_c   9.62517793
_cell_angle_alpha   89.72464835
_cell_angle_beta   92.78919422
_cell_angle_gamma   119.09952280
_symmetry_Int_Tables_number   1
_chemical_formula_structural   Li4Ti2Mn3V3O16
_chemical_formula_sum   'Li4 Ti2 Mn3 V3 O16'
_cell_volume   296.94856852
_cell_formula_units_Z   1
loop_
 _symmetry_equiv_pos_site_id
 _symmetry_equiv_pos_as_xyz
  1  'x, y, z'
loop_
 _atom_site_type_symbol
 _atom_site_label
 _atom_site_symmetry_multiplicity
 _atom_site_fract_x
 _atom_site_fract_y
 _atom_site_fract_z
 _atom_site_occupancy
  Li  Li0  1  0.31033604  0.65154637  0.89855393  1
  Li  Li1  1  0.00557383  0.00474440  0.99158978  1
  Li  Li2  1  0.00572297  0.00210260  0.49220284  1
  Li  Li3  1  0.67201724  0.33646239  0.40034834  1
  Ti  Ti4  1  0.32028066  0.65883606  0.49809687  1
  Ti  Ti5  1  0.67334765  0.34347378  0.99733010  1
  Mn  Mn6  1  0.66868462  0.83586847  0.20642880  1
  Mn  Mn7  1  0.81800870  0.65588852  0.71179805  1
  Mn  Mn8  1  0.82338701  0.16486110  0.70983668  1
  V  V9  1  0.19416759  0.84402753  0.22014732  1
  V  V10  1  0.19176883  0.35052156  0.21920856  1
  V  V11  1  0.34306445  0.16377617  0.72656195  1
  O  O12  1  0.18810182  0.84218195  0.59344157  1
  O  O13  1  0.04594003  0.52383380  0.34014015  1
  O  O14  1  0.29979597  0.65179111  0.10266550  1
  O  O15  1  0.02447495  0.01260087  0.30488021  1
  O  O16  1  -0.00040334  -0.00031884  0.80188210  1
  O  O17  1  0.18985264  0.34337940  0.59403888  1
  O  O18  1  0.46606132  0.96427278  0.34422816  1
  O  O19  1  0.46546517  0.50249176  0.34356948  1
  O  O20  1  0.34086294  0.17078914  0.10331461  1
  O  O21  1  0.67364868  0.83726348  0.58986990  1
  O  O22  1  0.49541566  0.46336568  0.84965978  1
  O  O23  1  0.48812845  0.02701057  0.84712079  1
  O  O24  1  0.65091666  0.32567085  0.60889974  1
  O  O25  1  0.85119506  0.66592778  0.08787526  1
  O  O26  1  0.94218919  0.46965408  0.83655862  1
  O  O27  1  0.85199521  0.18827963  0.08758902  1
