# generated using pymatgen
data_Li4Mn9O18
_symmetry_space_group_name_H-M   'P 1'
_cell_length_a   9.03723634
_cell_length_b   24.97171161
_cell_length_c   2.91447796
_cell_angle_alpha   90.00000000
_cell_angle_beta   90.00000000
_cell_angle_gamma   90.00000000
_symmetry_Int_Tables_number   1
_chemical_formula_structural   Li4Mn9O18
_chemical_formula_sum   'Li8 Mn18 O36'
_cell_volume   657.72557032
_cell_formula_units_Z   2
loop_
 _symmetry_equiv_pos_site_id
 _symmetry_equiv_pos_as_xyz
  1  'x, y, z'
loop_
 _atom_site_type_symbol
 _atom_site_label
 _atom_site_symmetry_multiplicity
 _atom_site_fract_x
 _atom_site_fract_y
 _atom_site_fract_z
 _atom_site_occupancy
  Li  Li0  1  0.16250155  0.00092901  -0.00000000  1
  Li  Li1  1  0.20400405  0.20516623  0.00000000  1
  Li  Li2  1  0.29599595  0.70516623  -0.00000000  1
  Li  Li3  1  0.33749845  0.50092901  -0.00000000  1
  Li  Li4  1  0.66250155  0.49907099  -0.00000000  1
  Li  Li5  1  0.70400405  0.29483377  -0.00000000  1
  Li  Li6  1  0.79599595  0.79483377  0.00000000  1
  Li  Li7  1  0.83749845  0.99907099  -0.00000000  1
  Mn  Mn8  1  0.00000000  0.50000000  -0.00000000  1
  Mn  Mn9  1  0.00796056  0.10541112  0.00000000  1
  Mn  Mn10  1  0.03192979  0.30987335  -0.00000000  1
  Mn  Mn11  1  0.13608318  0.58752714  0.50000000  1
  Mn  Mn12  1  0.14703340  0.80653139  0.50000000  1
  Mn  Mn13  1  0.35296660  0.30653139  0.50000000  1
  Mn  Mn14  1  0.36391682  0.08752714  0.50000000  1
  Mn  Mn15  1  0.46807021  0.80987335  -0.00000000  1
  Mn  Mn16  1  0.49203944  0.60541112  0.00000000  1
  Mn  Mn17  1  0.50000000  -0.00000000  -0.00000000  1
  Mn  Mn18  1  0.50796056  0.39458888  -0.00000000  1
  Mn  Mn19  1  0.53192979  0.19012665  0.00000000  1
  Mn  Mn20  1  0.63608318  0.91247286  0.50000000  1
  Mn  Mn21  1  0.64703340  0.69346861  0.50000000  1
  Mn  Mn22  1  0.85296660  0.19346861  0.50000000  1
  Mn  Mn23  1  0.86391682  0.41247286  0.50000000  1
  Mn  Mn24  1  0.96807021  0.69012665  0.00000000  1
  Mn  Mn25  1  0.99203944  0.89458888  0.00000000  1
  O  O26  1  0.00572606  0.42277558  0.00000000  1
  O  O27  1  0.99427394  0.57722442  -0.00000000  1
  O  O28  1  0.02751107  0.94396348  0.50000000  1
  O  O29  1  0.04722737  0.16003961  0.50000000  1
  O  O30  1  0.09444792  0.66373453  0.50000000  1
  O  O31  1  0.10304167  0.75859244  -0.00000000  1
  O  O32  1  0.15368843  0.50970213  0.50000000  1
  O  O33  1  0.15122310  0.27942807  0.50000000  1
  O  O34  1  0.19516727  0.85447837  0.00000000  1
  O  O35  1  0.22520419  0.09052517  -0.00000000  1
  O  O36  1  0.27479581  0.59052517  -0.00000000  1
  O  O37  1  0.30483273  0.35447837  -0.00000000  1
  O  O38  1  0.34877690  0.77942807  0.50000000  1
  O  O39  1  0.34631157  0.00970213  0.50000000  1
  O  O40  1  0.39695833  0.25859244  -0.00000000  1
  O  O41  1  0.40555208  0.16373453  0.50000000  1
  O  O42  1  0.45277263  0.66003961  0.50000000  1
  O  O43  1  0.47248893  0.44396348  0.50000000  1
  O  O44  1  0.50572606  0.07722442  -0.00000000  1
  O  O45  1  0.49427394  0.92277558  -0.00000000  1
  O  O46  1  0.52751107  0.55603652  0.50000000  1
  O  O47  1  0.54722737  0.33996039  0.50000000  1
  O  O48  1  0.59444792  0.83626547  0.50000000  1
  O  O49  1  0.60304167  0.74140756  -0.00000000  1
  O  O50  1  0.65368843  0.99029787  0.50000000  1
  O  O51  1  0.65122310  0.22057193  0.50000000  1
  O  O52  1  0.69516727  0.64552163  0.00000000  1
  O  O53  1  0.72520419  0.40947483  -0.00000000  1
  O  O54  1  0.77479581  0.90947483  -0.00000000  1
  O  O55  1  0.80483273  0.14552163  -0.00000000  1
  O  O56  1  0.84877690  0.72057193  0.50000000  1
  O  O57  1  0.84631157  0.49029787  0.50000000  1
  O  O58  1  0.89695833  0.24140756  -0.00000000  1
  O  O59  1  0.90555208  0.33626547  0.50000000  1
  O  O60  1  0.95277263  0.83996039  0.50000000  1
  O  O61  1  0.97248893  0.05603652  0.50000000  1
