# generated using pymatgen
data_Li3CrPCO7
_symmetry_space_group_name_H-M   'P 1'
_cell_length_a   8.66316511
_cell_length_b   4.97818472
_cell_length_c   12.94479073
_cell_angle_alpha   89.80087646
_cell_angle_beta   90.16657495
_cell_angle_gamma   85.34266896
_symmetry_Int_Tables_number   1
_chemical_formula_structural   Li3CrPCO7
_chemical_formula_sum   'Li12 Cr4 P4 C4 O28'
_cell_volume   556.41833302
_cell_formula_units_Z   4
loop_
 _symmetry_equiv_pos_site_id
 _symmetry_equiv_pos_as_xyz
  1  'x, y, z'
loop_
 _atom_site_type_symbol
 _atom_site_label
 _atom_site_symmetry_multiplicity
 _atom_site_fract_x
 _atom_site_fract_y
 _atom_site_fract_z
 _atom_site_occupancy
  Li  Li0  1  0.11114544  0.76777299  0.12730368  1
  Li  Li1  1  0.11172076  0.77206275  0.63101682  1
  Li  Li2  1  0.27458957  0.25622830  0.51756887  1
  Li  Li3  1  0.27698704  0.26374379  0.24243470  1
  Li  Li4  1  0.28085901  0.23885847  0.73396186  1
  Li  Li5  1  0.35540829  0.77210103  0.86840175  1
  Li  Li6  1  0.71836175  0.75152667  0.98093505  1
  Li  Li7  1  0.72493182  0.74543990  0.26720288  1
  Li  Li8  1  0.72854163  0.73816163  0.49030703  1
  Li  Li9  1  0.72179536  0.74250167  0.76222846  1
  Li  Li10  1  0.89223202  0.22976635  0.37915218  1
  Li  Li11  1  0.89081880  0.22940275  0.86815454  1
  Cr  Cr12  1  0.25036142  0.24155002  0.98713173  1
  Cr  Cr13  1  0.33324814  0.79620264  0.37583157  1
  Cr  Cr14  1  0.66490943  0.20822228  0.12629704  1
  Cr  Cr15  1  0.66487270  0.20345998  0.62517595  1
  P  P16  1  0.41233035  0.73096846  0.12641232  1
  P  P17  1  0.40927230  0.72356180  0.62706164  1
  P  P18  1  0.58903879  0.27759068  0.37563686  1
  P  P19  1  0.58459716  0.28262106  0.87496347  1
  C  C20  1  0.03150466  0.70409636  0.37306650  1
  C  C21  1  0.03676789  0.70938488  0.88134958  1
  C  C22  1  0.96726281  0.29487750  0.62572999  1
  C  C23  1  0.96650330  0.29049681  0.12133619  1
  O  O24  1  0.05951077  0.96123400  0.88198642  1
  O  O25  1  0.05444974  0.95601858  0.37305455  1
  O  O26  1  0.10743385  0.37311388  0.11313796  1
  O  O27  1  0.10554086  0.37856720  0.62632904  1
  O  O28  1  0.15195584  0.52596570  0.37026878  1
  O  O29  1  0.15589061  0.52971007  0.88385036  1
  O  O30  1  0.31235767  0.83808039  0.53177245  1
  O  O31  1  0.31699412  0.84152909  0.03107443  1
  O  O32  1  0.31190777  0.84629820  0.21894266  1
  O  O33  1  0.31190640  0.83292497  0.71947424  1
  O  O34  1  0.42243543  0.18743986  0.37555556  1
  O  O35  1  0.41947012  0.18277286  0.87219343  1
  O  O36  1  0.41911529  0.41012683  0.62457090  1
  O  O37  1  0.41909669  0.41876254  0.12922789  1
  O  O38  1  0.58113251  0.58956973  0.37554908  1
  O  O39  1  0.57466811  0.59344426  0.87441899  1
  O  O40  1  0.57974721  0.81808279  0.12741789  1
  O  O41  1  0.57706476  0.81328738  0.62625491  1
  O  O42  1  0.68825432  0.16123058  0.46869862  1
  O  O43  1  0.68782953  0.16307921  0.28267844  1
  O  O44  1  0.68505194  0.16721916  0.78276606  1
  O  O45  1  0.68286500  0.16842581  0.96895661  1
  O  O46  1  0.84966162  0.46924211  0.12818841  1
  O  O47  1  0.84550270  0.47068146  0.62417151  1
  O  O48  1  0.89265195  0.62290046  0.37575310  1
  O  O49  1  0.89692048  0.62894101  0.87587839  1
  O  O50  1  0.94671573  0.03858398  0.12212986  1
  O  O51  1  0.94580649  0.04217110  0.62703680  1
