# generated using pymatgen
data_Li3MnV(PO4)3
_symmetry_space_group_name_H-M   'P 1'
_cell_length_a   9.83912526
_cell_length_b   9.86624960
_cell_length_c   9.83148074
_cell_angle_alpha   87.54652983
_cell_angle_beta   87.71975037
_cell_angle_gamma   85.67110146
_symmetry_Int_Tables_number   1
_chemical_formula_structural   Li3MnV(PO4)3
_chemical_formula_sum   'Li12 Mn4 V4 P12 O48'
_cell_volume   950.15818896
_cell_formula_units_Z   4
loop_
 _symmetry_equiv_pos_site_id
 _symmetry_equiv_pos_as_xyz
  1  'x, y, z'
loop_
 _atom_site_type_symbol
 _atom_site_label
 _atom_site_symmetry_multiplicity
 _atom_site_fract_x
 _atom_site_fract_y
 _atom_site_fract_z
 _atom_site_occupancy
  Li  Li0  1  0.00199029  0.04854093  0.98116252  1
  Li  Li1  1  0.05272046  0.73933594  0.14014968  1
  Li  Li2  1  0.13281012  0.06944926  0.72936093  1
  Li  Li3  1  0.23069798  0.55061934  0.64516600  1
  Li  Li4  1  0.27671380  0.85127064  0.95083252  1
  Li  Li5  1  0.36638492  0.76712114  0.43312393  1
  Li  Li6  1  0.44562482  0.35628803  0.76586066  1
  Li  Li7  1  0.50012898  0.51501745  0.45290069  1
  Li  Li8  1  0.64510830  0.23524648  0.54480811  1
  Li  Li9  1  0.76480692  0.47326067  0.34191968  1
  Li  Li10  1  0.72457080  0.16330026  0.03016703  1
  Li  Li11  1  0.85373162  0.95129696  0.26837442  1
  Mn  Mn12  1  0.25369440  0.47135500  0.02922290  1
  Mn  Mn13  1  0.73889293  0.52717781  0.97355443  1
  Mn  Mn14  1  0.75911109  0.74204909  0.75328086  1
  Mn  Mn15  1  0.97266737  0.76093976  0.53050006  1
  V  V16  1  0.02884652  0.25912558  0.47467859  1
  V  V17  1  0.24531280  0.25158405  0.24929150  1
  V  V18  1  0.46552564  0.02395778  0.24352081  1
  V  V19  1  0.53674049  0.96142588  0.74847361  1
  P  P20  1  0.05602272  0.67432623  0.85407085  1
  P  P21  1  0.14771803  0.95461108  0.33232915  1
  P  P22  1  0.17258320  0.55242765  0.35830433  1
  P  P23  1  0.32540371  0.14272463  0.94827233  1
  P  P24  1  0.35470584  0.16764558  0.54674546  1
  P  P25  1  0.44795819  0.64561956  0.83475861  1
  P  P26  1  0.54565707  0.33956856  0.17508279  1
  P  P27  1  0.64838983  0.81740973  0.45227064  1
  P  P28  1  0.67863502  0.84772478  0.04880265  1
  P  P29  1  0.82449815  0.45057196  0.65459830  1
  P  P30  1  0.85210708  0.05046792  0.67166285  1
  P  P31  1  0.94824006  0.32576131  0.15098150  1
  O  O32  1  0.03308173  0.61867496  0.41176275  1
  O  O33  1  0.05645296  0.90885735  0.22335740  1
  O  O34  1  0.10741748  0.33303618  0.11904716  1
  O  O35  1  0.11999632  0.11534358  0.33481677  1
  O  O36  1  0.09437132  0.69351568  0.70085967  1
  O  O37  1  0.11383779  0.89172511  0.47501681  1
  O  O38  1  0.09992770  0.78357127  0.94585631  1
  O  O39  1  0.12264153  0.53062677  0.89835087  1
  O  O40  1  0.16897857  0.39220921  0.38218754  1
  O  O41  1  0.18363985  0.59056743  0.20522600  1
  O  O42  1  0.19893644  0.19337964  0.58239677  1
  O  O43  1  0.21061136  0.05774034  0.90479180  1
  O  O44  1  0.32460119  0.12022541  0.10958706  1
  O  O45  1  0.28993391  0.59171946  0.44449375  1
  O  O46  1  0.30333756  0.91456065  0.30508316  1
  O  O47  1  0.31140996  0.29582130  0.90811425  1
  O  O48  1  0.37713802  0.16464073  0.38530545  1
  O  O49  1  0.38348926  0.37682046  0.16633075  1
  O  O50  1  0.39919028  0.02689615  0.60997576  1
  O  O51  1  0.37614515  0.61499889  0.97538952  1
  O  O52  1  0.40458355  0.55380796  0.72536333  1
  O  O53  1  0.44156706  0.27948638  0.59144771  1
  O  O54  1  0.41523204  0.80092624  0.80378188  1
  O  O55  1  0.46632961  0.08604276  0.89050640  1
  O  O56  1  0.53406001  0.89726631  0.10461213  1
  O  O57  1  0.57863007  0.18182278  0.19037623  1
  O  O58  1  0.59057202  0.41154559  0.29743823  1
  O  O59  1  0.56426167  0.70090122  0.41686804  1
  O  O60  1  0.61225674  0.37778022  0.03595755  1
  O  O61  1  0.59554315  0.95615873  0.38957742  1
  O  O62  1  0.60700884  0.61681026  0.84727376  1
  O  O63  1  0.63129681  0.82636121  0.61559242  1
  O  O64  1  0.69372151  0.08289797  0.68949690  1
  O  O65  1  0.70734576  0.69536420  0.08632925  1
  O  O66  1  0.71631365  0.40975876  0.55874257  1
  O  O67  1  0.67527288  0.87007128  0.88537056  1
  O  O68  1  0.78603706  0.94012958  0.09183835  1
  O  O69  1  0.79731696  0.41569164  0.80662220  1
  O  O70  1  0.80295072  0.80141284  0.41015025  1
  O  O71  1  0.83099666  0.61193552  0.62760756  1
  O  O72  1  0.87443560  0.46320312  0.10225623  1
  O  O73  1  0.90345318  0.20045385  0.08566967  1
  O  O74  1  0.89323989  0.12403398  0.53566076  1
  O  O75  1  0.91969724  0.32427617  0.30890667  1
  O  O76  1  0.88340726  0.89076037  0.65569444  1
  O  O77  1  0.93467626  0.08585814  0.79103399  1
  O  O78  1  0.89727971  0.66908855  0.87706121  1
  O  O79  1  0.96937654  0.39074376  0.60985037  1
