# generated using pymatgen
data_Li4Mn2Ni3Sn(PO4)6
_symmetry_space_group_name_H-M   'P 1'
_cell_length_a   8.60616632
_cell_length_b   8.69604046
_cell_length_c   8.68957782
_cell_angle_alpha   61.23830592
_cell_angle_beta   61.54740384
_cell_angle_gamma   61.63894841
_symmetry_Int_Tables_number   1
_chemical_formula_structural   Li4Mn2Ni3Sn(PO4)6
_chemical_formula_sum   'Li4 Mn2 Ni3 Sn1 P6 O24'
_cell_volume   475.06359407
_cell_formula_units_Z   1
loop_
 _symmetry_equiv_pos_site_id
 _symmetry_equiv_pos_as_xyz
  1  'x, y, z'
loop_
 _atom_site_type_symbol
 _atom_site_label
 _atom_site_symmetry_multiplicity
 _atom_site_fract_x
 _atom_site_fract_y
 _atom_site_fract_z
 _atom_site_occupancy
  Li  Li0  1  0.74302013  0.14770128  0.35730195  1
  Li  Li1  1  0.30774731  0.84354863  0.64102105  1
  Li  Li2  1  0.63861332  0.31049946  0.84504545  1
  Li  Li3  1  0.84385176  0.63618693  0.31619372  1
  Mn  Mn4  1  0.01819207  0.00173560  0.00045381  1
  Mn  Mn5  1  0.48496128  0.50153941  0.49871950  1
  Ni  Ni6  1  0.13948491  0.14978506  0.14690551  1
  Ni  Ni7  1  0.35855628  0.35174615  0.34909945  1
  Ni  Ni8  1  0.64410343  0.65017610  0.65322488  1
  Sn  Sn9  1  0.85509381  0.84749754  0.85199030  1
  P  P10  1  0.24841967  0.54103713  0.95606072  1
  P  P11  1  0.55126824  0.95944333  0.25046196  1
  P  P12  1  0.94489693  0.24611928  0.53654897  1
  P  P13  1  0.05241813  0.74327103  0.44616742  1
  P  P14  1  0.44537815  0.04900779  0.74998187  1
  P  P15  1  0.74685784  0.44467722  0.04926317  1
  O  O16  1  0.12123563  0.27926033  0.49000630  1
  O  O17  1  0.29940943  0.51925441  0.11061689  1
  O  O18  1  0.05900886  0.90942243  0.26233178  1
  O  O19  1  0.55786722  0.10602709  0.29504067  1
  O  O20  1  0.01772001  0.80509032  0.60557855  1
  O  O21  1  0.24062140  0.58677173  0.43436819  1
  O  O22  1  0.25570645  0.07859549  0.90305215  1
  O  O23  1  0.45805525  0.22900021  0.58063642  1
  O  O24  1  0.16403459  0.40421388  0.99570192  1
  O  O25  1  0.59505563  0.43110594  0.24309750  1
  O  O26  1  0.10941886  0.75534830  0.90078895  1
  O  O27  1  0.39597562  0.02318689  0.17819958  1
  O  O28  1  0.60467443  0.00381444  0.81907346  1
  O  O29  1  0.89966040  0.25130289  0.07488023  1
  O  O30  1  0.41644458  0.54633077  0.76595811  1
  O  O31  1  0.81106862  0.60297404  0.00969368  1
  O  O32  1  0.54554848  0.77206121  0.41979826  1
  O  O33  1  0.75960504  0.89569752  0.10743206  1
  O  O34  1  0.76190277  0.41989754  0.55038089  1
  O  O35  1  0.94897762  0.17570353  0.40388933  1
  O  O36  1  0.47440853  0.89138200  0.69523891  1
  O  O37  1  0.90235842  0.10498156  0.74937301  1
  O  O38  1  0.68633208  0.47789671  0.89410881  1
  O  O39  1  0.89204982  0.68370683  0.48531459  1
