# generated using pymatgen
data_Li3Ni2(PO4)3
_symmetry_space_group_name_H-M   'P 1'
_cell_length_a   8.76587133
_cell_length_b   12.29774455
_cell_length_c   8.80684588
_cell_angle_alpha   90.00000000
_cell_angle_beta   90.00000000
_cell_angle_gamma   90.58859239
_symmetry_Int_Tables_number   1
_chemical_formula_structural   Li3Ni2(PO4)3
_chemical_formula_sum   'Li12 Ni8 P12 O48'
_cell_volume   949.33182267
_cell_formula_units_Z   4
loop_
 _symmetry_equiv_pos_site_id
 _symmetry_equiv_pos_as_xyz
  1  'x, y, z'
loop_
 _atom_site_type_symbol
 _atom_site_label
 _atom_site_symmetry_multiplicity
 _atom_site_fract_x
 _atom_site_fract_y
 _atom_site_fract_z
 _atom_site_occupancy
  Li  Li0  1  0.05975574  0.70965900  0.06539670  1
  Li  Li1  1  0.21095540  0.18105731  0.77623078  1
  Li  Li2  1  0.20291612  0.81558355  0.73096576  1
  Li  Li3  1  0.29708388  0.68441645  0.23096576  1
  Li  Li4  1  0.28904460  0.31894269  0.27623078  1
  Li  Li5  1  0.44024426  0.79034100  0.56539670  1
  Li  Li6  1  0.55975574  0.20965900  0.43460330  1
  Li  Li7  1  0.71095540  0.68105731  0.72376922  1
  Li  Li8  1  0.70291612  0.31558355  0.76903424  1
  Li  Li9  1  0.79708388  0.18441645  0.26903424  1
  Li  Li10  1  0.78904460  0.81894269  0.22376922  1
  Li  Li11  1  0.94024426  0.29034100  0.93460330  1
  Ni  Ni12  1  0.24346610  0.61164877  0.54302711  1
  Ni  Ni13  1  0.25653390  0.88835123  0.04302711  1
  Ni  Ni14  1  0.23825217  0.11358442  0.45798915  1
  Ni  Ni15  1  0.26174783  0.38641558  0.95798915  1
  Ni  Ni16  1  0.73825217  0.61358442  0.04201085  1
  Ni  Ni17  1  0.76174783  0.88641558  0.54201085  1
  Ni  Ni18  1  0.74346610  0.11164877  0.95697289  1
  Ni  Ni19  1  0.75653390  0.38835123  0.45697289  1
  P  P20  1  0.04023873  0.50126637  0.24442904  1
  P  P21  1  0.10624740  0.85028038  0.38970420  1
  P  P22  1  0.10939050  0.14748702  0.10348736  1
  P  P23  1  0.39060950  0.35251298  0.60348736  1
  P  P24  1  0.39375260  0.64971962  0.88970420  1
  P  P25  1  0.45976127  0.99873363  0.74442904  1
  P  P26  1  0.54023873  0.00126637  0.25557096  1
  P  P27  1  0.60624740  0.35028038  0.11029580  1
  P  P28  1  0.60939050  0.64748702  0.39651264  1
  P  P29  1  0.89060950  0.85251298  0.89651264  1
  P  P30  1  0.89375260  0.14971962  0.61029580  1
  P  P31  1  0.95976127  0.49873363  0.75557096  1
  O  O32  1  0.04530311  0.42800870  0.87023664  1
  O  O33  1  0.05721733  0.57737520  0.66435975  1
  O  O34  1  0.06833896  0.85585086  0.89179390  1
  O  O35  1  0.06775847  0.16736245  0.59436268  1
  O  O36  1  0.13942464  0.58173602  0.34095428  1
  O  O37  1  0.13886461  0.97197069  0.41174457  1
  O  O38  1  0.15236985  0.81113707  0.22786988  1
  O  O39  1  0.14874090  0.23465416  0.98038856  1
  O  O40  1  0.16791582  0.43175044  0.16861720  1
  O  O41  1  0.17036584  0.18388720  0.25939055  1
  O  O42  1  0.17485182  0.03901403  0.05336593  1
  O  O43  1  0.19947152  0.78580025  0.51017106  1
  O  O44  1  0.30052848  0.71419975  0.01017106  1
  O  O45  1  0.32514818  0.46098597  0.55336593  1
  O  O46  1  0.32963416  0.31611280  0.75939055  1
  O  O47  1  0.33208418  0.06824956  0.66861720  1
  O  O48  1  0.35125910  0.26534584  0.48038856  1
  O  O49  1  0.34763015  0.68886293  0.72786988  1
  O  O50  1  0.36113539  0.52802931  0.91174457  1
  O  O51  1  0.36057536  0.91826398  0.84095428  1
  O  O52  1  0.43166104  0.64414914  0.39179390  1
  O  O53  1  0.43224153  0.33263755  0.09436268  1
  O  O54  1  0.44278267  0.92262480  0.16435975  1
  O  O55  1  0.45469689  0.07199130  0.37023664  1
  O  O56  1  0.54530311  0.92800870  0.62976336  1
  O  O57  1  0.55721733  0.07737520  0.83564025  1
  O  O58  1  0.56775847  0.66736245  0.90563732  1
  O  O59  1  0.56833896  0.35585086  0.60820610  1
  O  O60  1  0.63942464  0.08173602  0.15904572  1
  O  O61  1  0.63886461  0.47197069  0.08825543  1
  O  O62  1  0.65236985  0.31113707  0.27213012  1
  O  O63  1  0.64874090  0.73465416  0.51961144  1
  O  O64  1  0.66791582  0.93175044  0.33138280  1
  O  O65  1  0.67036584  0.68388720  0.24060945  1
  O  O66  1  0.67485182  0.53901403  0.44663407  1
  O  O67  1  0.69947152  0.28580025  0.98982894  1
  O  O68  1  0.80052848  0.21419975  0.48982894  1
  O  O69  1  0.82514818  0.96098597  0.94663407  1
  O  O70  1  0.82963416  0.81611280  0.74060945  1
  O  O71  1  0.83208418  0.56824956  0.83138280  1
  O  O72  1  0.85125910  0.76534584  0.01961144  1
  O  O73  1  0.84763015  0.18886293  0.77213012  1
  O  O74  1  0.86113539  0.02802931  0.58825543  1
  O  O75  1  0.86057536  0.41826398  0.65904572  1
  O  O76  1  0.93224153  0.83263755  0.40563732  1
  O  O77  1  0.93166104  0.14414914  0.10820610  1
  O  O78  1  0.94278267  0.42262480  0.33564025  1
  O  O79  1  0.95469689  0.57199130  0.12976336  1
