# generated using pymatgen
data_Li4Mn3Ni2Sb3O16
_symmetry_space_group_name_H-M   'P 1'
_cell_length_a   6.15576943
_cell_length_b   6.06771719
_cell_length_c   9.74752164
_cell_angle_alpha   90.00412365
_cell_angle_beta   90.95504317
_cell_angle_gamma   119.53387200
_symmetry_Int_Tables_number   1
_chemical_formula_structural   Li4Mn3Ni2Sb3O16
_chemical_formula_sum   'Li4 Mn3 Ni2 Sb3 O16'
_cell_volume   316.71836879
_cell_formula_units_Z   1
loop_
 _symmetry_equiv_pos_site_id
 _symmetry_equiv_pos_as_xyz
  1  'x, y, z'
loop_
 _atom_site_type_symbol
 _atom_site_label
 _atom_site_symmetry_multiplicity
 _atom_site_fract_x
 _atom_site_fract_y
 _atom_site_fract_z
 _atom_site_occupancy
  Li  Li0  1  0.32645155  0.66326010  0.87593195  1
  Li  Li1  1  0.97814905  0.98906888  0.99290503  1
  Li  Li2  1  0.98868945  0.99436379  0.50595377  1
  Li  Li3  1  0.65415240  0.32711794  0.39589291  1
  Mn  Mn4  1  0.66390758  0.83196198  0.21672549  1
  Mn  Mn5  1  0.83101212  0.66225337  0.71468925  1
  Mn  Mn6  1  0.83104354  0.16871818  0.71467807  1
  Ni  Ni7  1  0.34524981  0.67260008  0.50203846  1
  Ni  Ni8  1  0.68608666  0.34309807  0.97935423  1
  Sb  Sb9  1  0.17007705  0.83114211  0.21580567  1
  Sb  Sb10  1  0.17006518  0.33897098  0.21580420  1
  Sb  Sb11  1  0.34180438  0.17090510  0.71480636  1
  O  O12  1  0.16815221  0.84708204  0.60190972  1
  O  O13  1  0.03015719  0.51509988  0.33517285  1
  O  O14  1  0.30970059  0.65487088  0.09748928  1
  O  O15  1  0.02246438  0.01125894  0.32211296  1
  O  O16  1  0.01694245  0.00826167  0.81383331  1
  O  O17  1  0.16809081  0.32104292  0.60197522  1
  O  O18  1  0.47308506  0.96315921  0.33445336  1
  O  O19  1  0.47304471  0.50994438  0.33446062  1
  O  O20  1  0.31248489  0.15625654  0.10269859  1
  O  O21  1  0.69034821  0.84516611  0.61042378  1
  O  O22  1  0.51571777  0.48012965  0.83820997  1
  O  O23  1  0.51578693  0.03565771  0.83817277  1
  O  O24  1  0.65224316  0.32630144  0.60053369  1
  O  O25  1  0.85440710  0.68638402  0.10384162  1
  O  O26  1  0.95626750  0.47817830  0.82414306  1
  O  O27  1  0.85441926  0.16804871  0.10382283  1
