# generated using pymatgen
data_Li3La5Ti8O24
_symmetry_space_group_name_H-M   'P 1'
_cell_length_a   7.82397633
_cell_length_b   8.74527337
_cell_length_c   8.76594651
_cell_angle_alpha   113.51143465
_cell_angle_beta   90.00136597
_cell_angle_gamma   63.42918598
_symmetry_Int_Tables_number   1
_chemical_formula_structural   Li3La5Ti8O24
_chemical_formula_sum   'Li3 La5 Ti8 O24'
_cell_volume   480.12533804
_cell_formula_units_Z   1
loop_
 _symmetry_equiv_pos_site_id
 _symmetry_equiv_pos_as_xyz
  1  'x, y, z'
loop_
 _atom_site_type_symbol
 _atom_site_label
 _atom_site_symmetry_multiplicity
 _atom_site_fract_x
 _atom_site_fract_y
 _atom_site_fract_z
 _atom_site_occupancy
  Li  Li0  1  0.75000000  0.50000000  -0.00000000  1
  Li  Li1  1  0.50000615  -0.00001257  0.99984702  1
  Li  Li2  1  -0.00000615  0.00001257  0.00015298  1
  La  La3  1  0.87529795  0.24939233  0.50030078  1
  La  La4  1  0.62470205  0.75060767  0.49969922  1
  La  La5  1  0.12489004  0.75021968  0.50202435  1
  La  La6  1  0.25000000  0.50000000  -0.00000000  1
  La  La7  1  0.37510996  0.24978032  0.49797565  1
  Ti  Ti8  1  0.93215602  0.63043581  0.75621992  1
  Ti  Ti9  1  0.81033996  0.87430688  0.24385413  1
  Ti  Ti10  1  0.31536702  0.87430422  0.24385736  1
  Ti  Ti11  1  0.68966004  0.12569312  0.75614587  1
  Ti  Ti12  1  0.56784398  0.36956419  0.24378008  1
  Ti  Ti13  1  0.43739834  0.63044402  0.75622244  1
  Ti  Ti14  1  0.06260166  0.36955598  0.24377756  1
  Ti  Ti15  1  0.18463298  0.12569578  0.75614264  1
  O  O16  1  0.81558615  0.86762602  0.73530405  1
  O  O17  1  0.88514860  0.74314287  0.99998003  1
  O  O18  1  0.94077695  0.62989008  0.25974680  1
  O  O19  1  0.94085607  0.11827440  0.73477567  1
  O  O20  1  0.69215508  0.61566574  0.73378809  1
  O  O21  1  0.55914393  0.88172560  0.26522433  1
  O  O22  1  0.80784492  0.38433426  0.26621191  1
  O  O23  1  0.55922305  0.37010992  0.74025320  1
  O  O24  1  0.31678603  0.86762442  0.73530190  1
  O  O25  1  0.68441385  0.13237398  0.26469595  1
  O  O26  1  0.61485140  0.25685713  0.00001997  1
  O  O27  1  0.42932325  0.62988501  0.25974098  1
  O  O28  1  0.37170645  0.74313915  0.99996924  1
  O  O29  1  0.49872618  0.50000298  0.50000352  1
  O  O30  1  0.75000000  0.00000000  0.50000000  1
  O  O31  1  0.43716211  0.12568573  0.73968357  1
  O  O32  1  0.30731161  0.38538628  0.25947817  1
  O  O33  1  0.06283789  0.87431427  0.26031643  1
  O  O34  1  0.19268839  0.61461372  0.74052183  1
  O  O35  1  0.25000000  0.00000000  0.50000000  1
  O  O36  1  0.07067675  0.37011499  0.74025902  1
  O  O37  1  0.00127382  0.49999702  0.49999648  1
  O  O38  1  0.12829355  0.25686085  0.00003076  1
  O  O39  1  0.18321397  0.13237558  0.26469810  1
