# generated using pymatgen
data_Li3MnV(PO4)3
_symmetry_space_group_name_H-M   'P 1'
_cell_length_a   9.85937552
_cell_length_b   9.86788625
_cell_length_c   9.83647875
_cell_angle_alpha   87.28021935
_cell_angle_beta   87.77032752
_cell_angle_gamma   86.16425138
_symmetry_Int_Tables_number   1
_chemical_formula_structural   Li3MnV(PO4)3
_chemical_formula_sum   'Li12 Mn4 V4 P12 O48'
_cell_volume   953.17026272
_cell_formula_units_Z   4
loop_
 _symmetry_equiv_pos_site_id
 _symmetry_equiv_pos_as_xyz
  1  'x, y, z'
loop_
 _atom_site_type_symbol
 _atom_site_label
 _atom_site_symmetry_multiplicity
 _atom_site_fract_x
 _atom_site_fract_y
 _atom_site_fract_z
 _atom_site_occupancy
  Li  Li0  1  0.00187383  0.04774501  0.98045524  1
  Li  Li1  1  0.05446140  0.73925844  0.13946218  1
  Li  Li2  1  0.13066082  0.07205674  0.72946174  1
  Li  Li3  1  0.23061409  0.55568955  0.64418264  1
  Li  Li4  1  0.27425338  0.85625834  0.94583812  1
  Li  Li5  1  0.36684307  0.76980945  0.43199739  1
  Li  Li6  1  0.44314862  0.35710601  0.76569177  1
  Li  Li7  1  0.49808577  0.51496493  0.45349193  1
  Li  Li8  1  0.64455164  0.23694907  0.54593201  1
  Li  Li9  1  0.76508916  0.46801358  0.34951240  1
  Li  Li10  1  0.72549461  0.15568722  0.03807085  1
  Li  Li11  1  0.85353945  0.94783317  0.26698114  1
  Mn  Mn12  1  0.24799143  0.24524554  0.25545030  1
  Mn  Mn13  1  0.74029782  0.52642393  0.97374424  1
  Mn  Mn14  1  0.75884295  0.74223569  0.75248768  1
  Mn  Mn15  1  0.97308959  0.76214437  0.52961966  1
  V  V16  1  0.02914811  0.26247356  0.47587652  1
  V  V17  1  0.24873011  0.46586610  0.03626507  1
  V  V18  1  0.46874926  0.01951603  0.24164251  1
  V  V19  1  0.53694110  0.96064989  0.74752328  1
  P  P20  1  0.05420184  0.67441853  0.85413694  1
  P  P21  1  0.14634633  0.95568289  0.33019801  1
  P  P22  1  0.17186035  0.55463866  0.35719476  1
  P  P23  1  0.32817350  0.14377803  0.94708303  1
  P  P24  1  0.35440382  0.16763309  0.54718510  1
  P  P25  1  0.44848441  0.64300994  0.83574651  1
  P  P26  1  0.54515604  0.33810655  0.18005310  1
  P  P27  1  0.64802818  0.81605631  0.45240153  1
  P  P28  1  0.67828489  0.84633058  0.04758622  1
  P  P29  1  0.82597742  0.45176731  0.65460112  1
  P  P30  1  0.85218353  0.05034319  0.67039853  1
  P  P31  1  0.95009876  0.32424736  0.15232642  1
  O  O32  1  0.03353627  0.62755914  0.40356743  1
  O  O33  1  0.05343673  0.91135567  0.22272159  1
  O  O34  1  0.11129637  0.33042718  0.12562784  1
  O  O35  1  0.12135925  0.11775282  0.33364639  1
  O  O36  1  0.09360572  0.69509549  0.70097035  1
  O  O37  1  0.11219481  0.89545207  0.47377697  1
  O  O38  1  0.09853611  0.78480723  0.94484465  1
  O  O39  1  0.11803521  0.53257909  0.90092181  1
  O  O40  1  0.16396237  0.39813557  0.38646553  1
  O  O41  1  0.18662005  0.58934777  0.20174166  1
  O  O42  1  0.19939148  0.19418693  0.58197758  1
  O  O43  1  0.21207400  0.06100919  0.90142880  1
  O  O44  1  0.33307165  0.11496606  0.10508044  1
  O  O45  1  0.28847050  0.59726904  0.44219535  1
  O  O46  1  0.30021525  0.91661603  0.30065208  1
  O  O47  1  0.31168054  0.29949511  0.91184613  1
  O  O48  1  0.37607001  0.16192280  0.38506531  1
  O  O49  1  0.38246019  0.36985331  0.17565653  1
  O  O50  1  0.39863931  0.02663734  0.60900799  1
  O  O51  1  0.37563257  0.60570131  0.97344622  1
  O  O52  1  0.40600277  0.55494444  0.72251006  1
  O  O53  1  0.44193810  0.27951858  0.59010230  1
  O  O54  1  0.41629372  0.79901362  0.80679942  1
  O  O55  1  0.46684715  0.09226005  0.88189432  1
  O  O56  1  0.53310978  0.88984836  0.10384067  1
  O  O57  1  0.57803556  0.18071678  0.19031471  1
  O  O58  1  0.59138442  0.40803933  0.30281176  1
  O  O59  1  0.56324981  0.70017059  0.41699342  1
  O  O60  1  0.60865350  0.38274476  0.04174697  1
  O  O61  1  0.59337383  0.95424500  0.38798547  1
  O  O62  1  0.60735931  0.61586742  0.84858072  1
  O  O63  1  0.63061560  0.82593072  0.61501600  1
  O  O64  1  0.69434568  0.08173370  0.68645390  1
  O  O65  1  0.71194325  0.69514742  0.08602303  1
  O  O66  1  0.72008126  0.40976490  0.55695899  1
  O  O67  1  0.67528045  0.86958890  0.88449451  1
  O  O68  1  0.78186429  0.94309673  0.09163301  1
  O  O69  1  0.79599629  0.41631133  0.80575901  1
  O  O70  1  0.80129703  0.80262697  0.40982182  1
  O  O71  1  0.83248660  0.61297508  0.62687087  1
  O  O72  1  0.88021999  0.46106322  0.09871150  1
  O  O73  1  0.90609859  0.19928531  0.08727377  1
  O  O74  1  0.89528728  0.12515100  0.53534097  1
  O  O75  1  0.91952565  0.32391221  0.30964234  1
  O  O76  1  0.88311618  0.89132047  0.65441132  1
  O  O77  1  0.93386561  0.08615862  0.79059162  1
  O  O78  1  0.89504041  0.67060437  0.87582167  1
  O  O79  1  0.97079820  0.39258987  0.61161427  1
