# generated using pymatgen
data_Li4Mn2Ni3Sn3O16
_symmetry_space_group_name_H-M   'P 1'
_cell_length_a   6.03545223
_cell_length_b   6.08092815
_cell_length_c   9.53803034
_cell_angle_alpha   89.99705449
_cell_angle_beta   89.87557327
_cell_angle_gamma   120.24968555
_symmetry_Int_Tables_number   1
_chemical_formula_structural   Li4Mn2Ni3Sn3O16
_chemical_formula_sum   'Li4 Mn2 Ni3 Sn3 O16'
_cell_volume   302.39139090
_cell_formula_units_Z   1
loop_
 _symmetry_equiv_pos_site_id
 _symmetry_equiv_pos_as_xyz
  1  'x, y, z'
loop_
 _atom_site_type_symbol
 _atom_site_label
 _atom_site_symmetry_multiplicity
 _atom_site_fract_x
 _atom_site_fract_y
 _atom_site_fract_z
 _atom_site_occupancy
  Li  Li0  1  0.34291852  0.67152258  0.89075489  1
  Li  Li1  1  0.96420026  0.98209346  0.98841572  1
  Li  Li2  1  0.97481309  0.98744102  0.49991478  1
  Li  Li3  1  0.66953968  0.33479247  0.39964288  1
  Mn  Mn4  1  0.34212090  0.67101818  0.48879052  1
  Mn  Mn5  1  0.68510273  0.34254836  0.98057429  1
  Ni  Ni6  1  0.66083322  0.83043175  0.21351783  1
  Ni  Ni7  1  0.83246271  0.65908230  0.71227327  1
  Ni  Ni8  1  0.83242464  0.17335217  0.71227890  1
  Sn  Sn9  1  0.17192251  0.83108703  0.21182625  1
  Sn  Sn10  1  0.17191951  0.34088994  0.21182572  1
  Sn  Sn11  1  0.34121052  0.17059028  0.71201521  1
  O  O12  1  0.16698576  0.83074446  0.59495883  1
  O  O13  1  0.03921627  0.51961646  0.35114287  1
  O  O14  1  0.34037414  0.67021209  0.09695522  1
  O  O15  1  0.99449705  0.99727154  0.31210533  1
  O  O16  1  0.98131094  0.99058034  0.80041954  1
  O  O17  1  0.16710070  0.33635818  0.59496506  1
  O  O18  1  0.47991143  0.95844519  0.35342429  1
  O  O19  1  0.47991269  0.52145048  0.35342120  1
  O  O20  1  0.33585833  0.16795806  0.09121781  1
  O  O21  1  0.65145413  0.82572753  0.59927878  1
  O  O22  1  0.53014121  0.48251494  0.84976880  1
  O  O23  1  0.53002326  0.04760287  0.84978104  1
  O  O24  1  0.68485122  0.34248455  0.60669728  1
  O  O25  1  0.83361873  0.66011980  0.09289865  1
  O  O26  1  0.96165896  0.48081747  0.84611415  1
  O  O27  1  0.83361887  0.17354749  0.09286292  1
