# generated using pymatgen
data_Li2VNiO4
_symmetry_space_group_name_H-M   'P 1'
_cell_length_a   5.13631725
_cell_length_b   5.87719156
_cell_length_c   7.80923409
_cell_angle_alpha   79.40550288
_cell_angle_beta   70.53844109
_cell_angle_gamma   90.16132671
_symmetry_Int_Tables_number   1
_chemical_formula_structural   Li2VNiO4
_chemical_formula_sum   'Li6 V3 Ni3 O12'
_cell_volume   217.95768635
_cell_formula_units_Z   3
loop_
 _symmetry_equiv_pos_site_id
 _symmetry_equiv_pos_as_xyz
  1  'x, y, z'
loop_
 _atom_site_type_symbol
 _atom_site_label
 _atom_site_symmetry_multiplicity
 _atom_site_fract_x
 _atom_site_fract_y
 _atom_site_fract_z
 _atom_site_occupancy
  Li  Li0  1  0.99920244  0.50683100  0.99800018  1
  Li  Li1  1  0.00522720  0.34288147  0.66338256  1
  Li  Li2  1  0.00173539  0.99800468  0.99964888  1
  Li  Li3  1  0.00055258  0.66064152  0.33620540  1
  Li  Li4  1  0.99731309  0.16852689  0.33381951  1
  Li  Li5  1  0.99626794  0.82410268  0.66899408  1
  V  V6  1  0.49888490  0.25982992  0.00165899  1
  V  V7  1  0.50064111  0.90737420  0.33084613  1
  V  V8  1  0.50095624  0.08264858  0.66628122  1
  Ni  Ni9  1  0.50087500  0.75049405  0.99922308  1
  Ni  Ni10  1  0.49909989  0.41604438  0.33451124  1
  Ni  Ni11  1  0.49932761  0.58331636  0.66707308  1
  O  O12  1  0.27111455  0.96866561  0.16850327  1
  O  O13  1  0.26535156  0.44439576  0.15469651  1
  O  O14  1  0.27731247  0.10933309  0.49458005  1
  O  O15  1  0.26401004  0.63566181  0.49177513  1
  O  O16  1  0.27122769  0.28271754  0.83399546  1
  O  O17  1  0.27171911  0.81574459  0.82125006  1
  O  O18  1  0.73387481  0.72223292  0.17942508  1
  O  O19  1  0.72686012  0.19944843  0.16507991  1
  O  O20  1  0.72787911  0.35063123  0.51294771  1
  O  O21  1  0.72942406  0.88340611  0.49898812  1
  O  O22  1  0.73689805  0.53004589  0.84157841  1
  O  O23  1  0.72424402  0.05701829  0.83753292  1
