# generated using pymatgen
data_Hf2N2O
_symmetry_space_group_name_H-M   'P 1'
_cell_length_a   5.44143326
_cell_length_b   5.81015651
_cell_length_c   5.52614267
_cell_angle_alpha   118.39573673
_cell_angle_beta   59.48368852
_cell_angle_gamma   117.33287869
_symmetry_Int_Tables_number   1
_chemical_formula_structural   Hf2N2O
_chemical_formula_sum   'Hf4 N4 O2'
_cell_volume   126.82334278
_cell_formula_units_Z   2
loop_
 _symmetry_equiv_pos_site_id
 _symmetry_equiv_pos_as_xyz
  1  'x, y, z'
loop_
 _atom_site_type_symbol
 _atom_site_label
 _atom_site_symmetry_multiplicity
 _atom_site_fract_x
 _atom_site_fract_y
 _atom_site_fract_z
 _atom_site_occupancy
  Hf  Hf0  1  0.12263530  0.42866071  0.13441218  1
  Hf  Hf1  1  0.34936865  0.06975716  0.37146839  1
  Hf  Hf2  1  0.62263530  0.92866071  0.67161323  1
  Hf  Hf3  1  0.84936865  0.56975716  0.84892012  1
  N  N4  1  0.24595785  0.73525040  0.94794073  1
  N  N5  1  0.74595785  0.23525040  0.04135182  1
  N  N6  1  0.46191478  0.25320936  0.74534658  1
  N  N7  1  0.96191478  0.75320936  0.54594800  1
  O  O8  1  0.07012442  0.26312237  0.44175090  1
  O  O9  1  0.57012442  0.76312237  0.25124705  1
