# generated using pymatgen
data_FeOF
_symmetry_space_group_name_H-M   'P 1'
_cell_length_a   14.22676703
_cell_length_b   14.22825824
_cell_length_c   3.09544240
_cell_angle_alpha   90.00000000
_cell_angle_beta   90.00000000
_cell_angle_gamma   89.91465302
_symmetry_Int_Tables_number   1
_chemical_formula_structural   FeOF
_chemical_formula_sum   'Fe18 O18 F18'
_cell_volume   626.58530313
_cell_formula_units_Z   18
loop_
 _symmetry_equiv_pos_site_id
 _symmetry_equiv_pos_as_xyz
  1  'x, y, z'
loop_
 _atom_site_type_symbol
 _atom_site_label
 _atom_site_symmetry_multiplicity
 _atom_site_fract_x
 _atom_site_fract_y
 _atom_site_fract_z
 _atom_site_occupancy
  Fe  Fe0  1  0.99443940  0.01509575  -0.00000000  1
  Fe  Fe1  1  0.01264547  0.33175267  0.00000000  1
  Fe  Fe2  1  0.01305745  0.65619969  0.00000000  1
  Fe  Fe3  1  0.15379864  0.16293105  0.50000000  1
  Fe  Fe4  1  0.16248916  0.48799744  0.50000000  1
  Fe  Fe5  1  0.17538173  0.84966587  0.50000000  1
  Fe  Fe6  1  0.34484215  0.99651081  -0.00000000  1
  Fe  Fe7  1  0.33650942  0.34267833  0.00000000  1
  Fe  Fe8  1  0.33961601  0.66990974  -0.00000000  1
  Fe  Fe9  1  0.50085297  0.48457468  0.50000000  1
  Fe  Fe10  1  0.48065384  0.16889506  0.50000000  1
  Fe  Fe11  1  0.48756449  0.83080520  0.50000000  1
  Fe  Fe12  1  0.67804063  0.99927865  0.00000000  1
  Fe  Fe13  1  0.66482968  0.34253664  -0.00000000  1
  Fe  Fe14  1  0.67950157  0.66399290  0.00000000  1
  Fe  Fe15  1  0.82845926  0.15592007  0.50000000  1
  Fe  Fe16  1  0.81908321  0.49476472  0.50000000  1
  Fe  Fe17  1  0.82032378  0.83113646  0.50000000  1
  O  O18  1  0.06213371  0.26622713  0.50000000  1
  O  O19  1  0.07306074  0.60477271  0.50000000  1
  O  O20  1  0.10373548  0.09474070  0.00000000  1
  O  O21  1  0.09709050  0.43839664  0.00000000  1
  O  O22  1  0.23208761  0.90261187  0.00000000  1
  O  O23  1  0.26748557  0.40035918  0.50000000  1
  O  O24  1  0.39710066  0.27494396  0.50000000  1
  O  O25  1  0.39979657  0.93329973  0.50000000  1
  O  O26  1  0.43374895  0.10245032  0.00000000  1
  O  O27  1  0.43496502  0.44255208  0.00000000  1
  O  O28  1  0.43512658  0.76406142  0.00000000  1
  O  O29  1  0.60468321  0.39702964  0.50000000  1
  O  O30  1  0.73071084  0.59982497  0.50000000  1
  O  O31  1  0.73217889  0.93529275  0.50000000  1
  O  O32  1  0.76370502  0.10626113  0.00000000  1
  O  O33  1  0.77108595  0.43078846  0.00000000  1
  O  O34  1  0.77032953  0.76670930  -0.00000000  1
  O  O35  1  0.93196588  0.06564487  0.50000000  1
  F  F36  1  0.05870376  0.93023197  0.50000000  1
  F  F37  1  0.10383785  0.77365031  0.00000000  1
  F  F38  1  0.22911884  0.22695107  -0.00000000  1
  F  F39  1  0.23801258  0.57134781  -0.00000000  1
  F  F40  1  0.26925803  0.06659650  0.50000000  1
  F  F41  1  0.26420105  0.73181949  0.50000000  1
  F  F42  1  0.40041794  0.60230185  0.50000000  1
  F  F43  1  0.56946451  0.22883455  -0.00000000  1
  F  F44  1  0.56352038  0.57103014  -0.00000000  1
  F  F45  1  0.56585961  0.89533000  0.00000000  1
  F  F46  1  0.59988328  0.06184511  0.50000000  1
  F  F47  1  0.60127221  0.73395579  0.50000000  1
  F  F48  1  0.73313153  0.26791737  0.50000000  1
  F  F49  1  0.89392277  0.23638253  0.00000000  1
  F  F50  1  0.89995716  0.56609579  -0.00000000  1
  F  F51  1  0.90224596  0.89472285  0.00000000  1
  F  F52  1  0.93348656  0.39995600  0.50000000  1
  F  F53  1  0.94062443  0.73041931  0.50000000  1
