# generated using pymatgen
data_FeOF
_symmetry_space_group_name_H-M   'P 1'
_cell_length_a   14.19043063
_cell_length_b   14.22654295
_cell_length_c   3.09240714
_cell_angle_alpha   90.00000000
_cell_angle_beta   90.00000000
_cell_angle_gamma   89.90616297
_symmetry_Int_Tables_number   1
_chemical_formula_structural   FeOF
_chemical_formula_sum   'Fe18 O18 F18'
_cell_volume   624.29670024
_cell_formula_units_Z   18
loop_
 _symmetry_equiv_pos_site_id
 _symmetry_equiv_pos_as_xyz
  1  'x, y, z'
loop_
 _atom_site_type_symbol
 _atom_site_label
 _atom_site_symmetry_multiplicity
 _atom_site_fract_x
 _atom_site_fract_y
 _atom_site_fract_z
 _atom_site_occupancy
  Fe  Fe0  1  0.99587766  0.01552625  0.00000000  1
  Fe  Fe1  1  0.01171526  0.33214861  -0.00000000  1
  Fe  Fe2  1  0.00942707  0.65341339  0.00000000  1
  Fe  Fe3  1  0.15259629  0.16505801  0.50000000  1
  Fe  Fe4  1  0.16044422  0.49022583  0.50000000  1
  Fe  Fe5  1  0.15089404  0.82403714  0.50000000  1
  Fe  Fe6  1  0.34141650  0.99354544  -0.00000000  1
  Fe  Fe7  1  0.33493596  0.34128638  -0.00000000  1
  Fe  Fe8  1  0.33975569  0.66923971  0.00000000  1
  Fe  Fe9  1  0.50079285  0.48481355  0.50000000  1
  Fe  Fe10  1  0.50000179  0.18676139  0.50000000  1
  Fe  Fe11  1  0.48945131  0.83010317  0.50000000  1
  Fe  Fe12  1  0.67872798  0.99953423  -0.00000000  1
  Fe  Fe13  1  0.65768129  0.33636090  -0.00000000  1
  Fe  Fe14  1  0.68001434  0.66285395  -0.00000000  1
  Fe  Fe15  1  0.82899384  0.15636593  0.50000000  1
  Fe  Fe16  1  0.83772824  0.51380992  0.50000000  1
  Fe  Fe17  1  0.82196490  0.82993512  0.50000000  1
  O  O18  1  0.06235441  0.26665856  0.50000000  1
  O  O19  1  0.07351428  0.60171731  0.50000000  1
  O  O20  1  0.10590697  0.09561681  -0.00000000  1
  O  O21  1  0.09898701  0.43525337  0.00000000  1
  O  O22  1  0.09839131  0.76883121  -0.00000000  1
  O  O23  1  0.26744544  0.39861675  0.50000000  1
  O  O24  1  0.39422870  0.27063957  0.50000000  1
  O  O25  1  0.39838230  0.93543843  0.50000000  1
  O  O26  1  0.43664079  0.43840200  0.00000000  1
  O  O27  1  0.43404761  0.76703358  -0.00000000  1
  O  O28  1  0.56925968  0.23067917  0.00000000  1
  O  O29  1  0.60784414  0.40083171  0.50000000  1
  O  O30  1  0.72732590  0.59677300  0.50000000  1
  O  O31  1  0.73269032  0.93633217  0.50000000  1
  O  O32  1  0.76352091  0.10695379  -0.00000000  1
  O  O33  1  0.76814365  0.76767087  -0.00000000  1
  O  O34  1  0.89978459  0.56623626  -0.00000000  1
  O  O35  1  0.93363281  0.06718266  0.50000000  1
  F  F36  1  0.06436436  0.93551173  0.50000000  1
  F  F37  1  0.23006077  0.22598338  0.00000000  1
  F  F38  1  0.23944305  0.57051253  -0.00000000  1
  F  F39  1  0.22888616  0.89933942  -0.00000000  1
  F  F40  1  0.27218540  0.06385437  0.50000000  1
  F  F41  1  0.26765465  0.73535090  0.50000000  1
  F  F42  1  0.40153721  0.60114295  0.50000000  1
  F  F43  1  0.43344157  0.10236770  -0.00000000  1
  F  F44  1  0.56162997  0.57174237  -0.00000000  1
  F  F45  1  0.56398880  0.89776739  -0.00000000  1
  F  F46  1  0.59543780  0.06094817  0.50000000  1
  F  F47  1  0.60073957  0.73413171  0.50000000  1
  F  F48  1  0.73711566  0.27218182  0.50000000  1
  F  F49  1  0.77311675  0.43127722  -0.00000000  1
  F  F50  1  0.89545636  0.23476516  -0.00000000  1
  F  F51  1  0.90313946  0.89727954  -0.00000000  1
  F  F52  1  0.93100030  0.39553296  0.50000000  1
  F  F53  1  0.93627809  0.73442254  0.50000000  1
