# generated using pymatgen
data_Li2Mn3(BO3)3
_symmetry_space_group_name_H-M   'P 1'
_cell_length_a   8.19356398
_cell_length_b   8.83170381
_cell_length_c   6.33822035
_cell_angle_alpha   69.46259579
_cell_angle_beta   90.82468446
_cell_angle_gamma   62.85788009
_symmetry_Int_Tables_number   1
_chemical_formula_structural   Li2Mn3(BO3)3
_chemical_formula_sum   'Li4 Mn6 B6 O18'
_cell_volume   373.73765529
_cell_formula_units_Z   2
loop_
 _symmetry_equiv_pos_site_id
 _symmetry_equiv_pos_as_xyz
  1  'x, y, z'
loop_
 _atom_site_type_symbol
 _atom_site_label
 _atom_site_symmetry_multiplicity
 _atom_site_fract_x
 _atom_site_fract_y
 _atom_site_fract_z
 _atom_site_occupancy
  Li  Li0  1  0.98143874  0.71804244  0.40580691  1
  Li  Li1  1  0.72262873  0.29631629  0.59708426  1
  Li  Li2  1  0.30012481  0.98364448  0.25927614  1
  Li  Li3  1  0.29875079  0.98298577  0.74943871  1
  Mn  Mn4  1  0.37452856  0.60523778  0.69535535  1
  Mn  Mn5  1  0.33490830  0.63980169  0.17016439  1
  Mn  Mn6  1  0.63023507  0.01455330  0.49312001  1
  Mn  Mn7  1  0.65391994  0.00685943  0.99991369  1
  Mn  Mn8  1  0.99917644  0.36926349  0.31317176  1
  Mn  Mn9  1  0.99965606  0.36348295  0.82528145  1
  B  B10  1  0.65517722  0.67841697  0.90211712  1
  B  B11  1  0.66040544  0.66979049  0.42111288  1
  B  B12  1  0.33413980  0.33283740  0.59034789  1
  B  B13  1  0.33972040  0.32234649  0.08257489  1
  B  B14  1  0.00656029  0.99425029  0.50295653  1
  B  B15  1  0.00957891  0.99910055  0.00175268  1
  O  O16  1  0.93948747  0.87930269  0.08575417  1
  O  O17  1  0.90923890  0.89786833  0.54175676  1
  O  O18  1  0.85345537  0.55976161  0.47457781  1
  O  O19  1  0.84059422  0.54919869  0.97816657  1
  O  O20  1  0.58977082  0.86837785  0.80824085  1
  O  O21  1  0.57796934  0.85997556  0.31816090  1
  O  O22  1  0.89334338  0.18766759  0.88784593  1
  O  O23  1  0.90903703  0.18442033  0.43120838  1
  O  O24  1  0.54941377  0.58328052  0.47065557  1
  O  O25  1  0.51908874  0.62252411  0.92305833  1
  O  O26  1  0.20433379  0.92517384  0.03352706  1
  O  O27  1  0.20251355  0.89884329  0.53878746  1
  O  O28  1  0.52682161  0.22465046  0.64316595  1
  O  O29  1  0.53051355  0.20713687  0.15504938  1
  O  O30  1  0.26804780  0.51423478  0.96013041  1
  O  O31  1  0.25495131  0.52950285  0.50230042  1
  O  O32  1  0.21611933  0.25917529  0.61800953  1
  O  O33  1  0.21436053  0.25564655  0.12829287  1
