# generated using pymatgen
data_FeOF
_symmetry_space_group_name_H-M   'P 1'
_cell_length_a   14.13452962
_cell_length_b   14.13535244
_cell_length_c   3.09227718
_cell_angle_alpha   90.00000000
_cell_angle_beta   90.00000000
_cell_angle_gamma   89.98062017
_symmetry_Int_Tables_number   1
_chemical_formula_structural   FeOF
_chemical_formula_sum   'Fe18 O18 F18'
_cell_volume   617.82630103
_cell_formula_units_Z   18
loop_
 _symmetry_equiv_pos_site_id
 _symmetry_equiv_pos_as_xyz
  1  'x, y, z'
loop_
 _atom_site_type_symbol
 _atom_site_label
 _atom_site_symmetry_multiplicity
 _atom_site_fract_x
 _atom_site_fract_y
 _atom_site_fract_z
 _atom_site_occupancy
  Fe  Fe0  1  0.99380751  0.01584134  -0.00000000  1
  Fe  Fe1  1  0.00680148  0.32538204  0.00000000  1
  Fe  Fe2  1  0.01485472  0.65787010  -0.00000000  1
  Fe  Fe3  1  0.15612154  0.16255483  0.50000000  1
  Fe  Fe4  1  0.17822653  0.50366838  0.50000000  1
  Fe  Fe5  1  0.15578048  0.82913035  0.50000000  1
  Fe  Fe6  1  0.35049099  0.99952154  0.00000000  1
  Fe  Fe7  1  0.33628947  0.34274972  -0.00000000  1
  Fe  Fe8  1  0.33142114  0.66050020  -0.00000000  1
  Fe  Fe9  1  0.50135406  0.48312515  0.50000000  1
  Fe  Fe10  1  0.48309619  0.17122066  0.50000000  1
  Fe  Fe11  1  0.50703979  0.85096710  0.50000000  1
  Fe  Fe12  1  0.67021094  0.99590057  -0.00000000  1
  Fe  Fe13  1  0.66723673  0.34438221  0.00000000  1
  Fe  Fe14  1  0.67893591  0.66500650  -0.00000000  1
  Fe  Fe15  1  0.82128907  0.14872681  0.50000000  1
  Fe  Fe16  1  0.81891496  0.49764651  0.50000000  1
  Fe  Fe17  1  0.81784821  0.83496703  0.50000000  1
  O  O18  1  0.06421481  0.26852823  0.50000000  1
  O  O19  1  0.06936397  0.59572935  0.50000000  1
  O  O20  1  0.10374474  0.09711930  0.00000000  1
  O  O21  1  0.10350952  0.76837416  0.00000000  1
  O  O22  1  0.23748852  0.57186495  -0.00000000  1
  O  O23  1  0.26174911  0.39956389  0.50000000  1
  O  O24  1  0.39831916  0.27301106  0.50000000  1
  O  O25  1  0.39311672  0.92782884  0.50000000  1
  O  O26  1  0.43515925  0.10195410  -0.00000000  1
  O  O27  1  0.43259507  0.44330573  0.00000000  1
  O  O28  1  0.56997838  0.90169888  0.00000000  1
  O  O29  1  0.60448542  0.39821518  0.50000000  1
  O  O30  1  0.73068594  0.59926543  0.50000000  1
  O  O31  1  0.73269390  0.93930816  0.50000000  1
  O  O32  1  0.75916697  0.09932648  0.00000000  1
  O  O33  1  0.77289339  0.42937185  -0.00000000  1
  O  O34  1  0.76854794  0.76787980  -0.00000000  1
  O  O35  1  0.93244182  0.06784598  0.50000000  1
  F  F36  1  0.06348037  0.93565502  0.50000000  1
  F  F37  1  0.09653068  0.43647551  0.00000000  1
  F  F38  1  0.23065367  0.22729401  -0.00000000  1
  F  F39  1  0.22674771  0.89956810  0.00000000  1
  F  F40  1  0.26781490  0.06383194  0.50000000  1
  F  F41  1  0.27395058  0.73802935  0.50000000  1
  F  F42  1  0.40480685  0.60822690  0.50000000  1
  F  F43  1  0.43431401  0.76354356  -0.00000000  1
  F  F44  1  0.57120957  0.23122871  0.00000000  1
  F  F45  1  0.56427737  0.57050765  0.00000000  1
  F  F46  1  0.60267479  0.06406358  0.50000000  1
  F  F47  1  0.59631103  0.72966050  0.50000000  1
  F  F48  1  0.73424189  0.26692573  0.50000000  1
  F  F49  1  0.89314646  0.23499865  -0.00000000  1
  F  F50  1  0.89929010  0.56511966  -0.00000000  1
  F  F51  1  0.90565349  0.89566524  -0.00000000  1
  F  F52  1  0.93708879  0.40030440  0.50000000  1
  F  F53  1  0.93793340  0.72954607  0.50000000  1
