# generated using pymatgen
data_FeOF
_symmetry_space_group_name_H-M   'P 1'
_cell_length_a   14.20217674
_cell_length_b   14.21651490
_cell_length_c   3.09956904
_cell_angle_alpha   90.00000000
_cell_angle_beta   90.00000000
_cell_angle_gamma   90.00726277
_symmetry_Int_Tables_number   1
_chemical_formula_structural   FeOF
_chemical_formula_sum   'Fe18 O18 F18'
_cell_volume   625.81989910
_cell_formula_units_Z   18
loop_
 _symmetry_equiv_pos_site_id
 _symmetry_equiv_pos_as_xyz
  1  'x, y, z'
loop_
 _atom_site_type_symbol
 _atom_site_label
 _atom_site_symmetry_multiplicity
 _atom_site_fract_x
 _atom_site_fract_y
 _atom_site_fract_z
 _atom_site_occupancy
  Fe  Fe0  1  0.99327203  0.01630394  -0.00000000  1
  Fe  Fe1  1  0.00883628  0.32804892  0.00000000  1
  Fe  Fe2  1  0.01578733  0.65840062  0.00000000  1
  Fe  Fe3  1  0.15248527  0.16357518  0.50000000  1
  Fe  Fe4  1  0.15857507  0.48642058  0.50000000  1
  Fe  Fe5  1  0.15456217  0.82858507  0.50000000  1
  Fe  Fe6  1  0.34803606  0.99973908  0.00000000  1
  Fe  Fe7  1  0.33378238  0.34207015  -0.00000000  1
  Fe  Fe8  1  0.33891303  0.66791537  -0.00000000  1
  Fe  Fe9  1  0.49965581  0.48417765  0.50000000  1
  Fe  Fe10  1  0.48150096  0.17232241  0.50000000  1
  Fe  Fe11  1  0.48626620  0.82927620  0.50000000  1
  Fe  Fe12  1  0.67682948  0.99536202  -0.00000000  1
  Fe  Fe13  1  0.66630219  0.34471305  0.00000000  1
  Fe  Fe14  1  0.68003218  0.66358012  -0.00000000  1
  Fe  Fe15  1  0.84926530  0.17650037  0.50000000  1
  Fe  Fe16  1  0.82185139  0.49617616  0.50000000  1
  Fe  Fe17  1  0.82308967  0.82943233  0.50000000  1
  O  O18  1  0.06506891  0.26678113  0.50000000  1
  O  O19  1  0.07065813  0.60064494  0.50000000  1
  O  O20  1  0.10255673  0.09577562  0.00000000  1
  O  O21  1  0.09898661  0.43380910  0.00000000  1
  O  O22  1  0.10017463  0.77131875  0.00000000  1
  O  O23  1  0.26616053  0.39783303  0.50000000  1
  O  O24  1  0.39490433  0.27424976  0.50000000  1
  O  O25  1  0.39802669  0.93351067  0.50000000  1
  O  O26  1  0.43525970  0.10380032  -0.00000000  1
  O  O27  1  0.43468637  0.43994335  0.00000000  1
  O  O28  1  0.43583973  0.76492236  -0.00000000  1
  O  O29  1  0.60450447  0.39733868  0.50000000  1
  O  O30  1  0.73180749  0.60100168  0.50000000  1
  O  O31  1  0.73525640  0.93857961  0.50000000  1
  O  O32  1  0.77259100  0.43109384  0.00000000  1
  O  O33  1  0.76814777  0.76976979  0.00000000  1
  O  O34  1  0.89710276  0.23961758  0.00000000  1
  O  O35  1  0.92784746  0.06322984  0.50000000  1
  F  F36  1  0.06204059  0.93510801  0.50000000  1
  F  F37  1  0.23173164  0.22369819  0.00000000  1
  F  F38  1  0.23773609  0.56977561  -0.00000000  1
  F  F39  1  0.22770842  0.89978843  0.00000000  1
  F  F40  1  0.26854815  0.06190626  0.50000000  1
  F  F41  1  0.26698825  0.73568374  0.50000000  1
  F  F42  1  0.40263006  0.60044038  0.50000000  1
  F  F43  1  0.56744313  0.22992660  0.00000000  1
  F  F44  1  0.56462693  0.57055553  0.00000000  1
  F  F45  1  0.56630213  0.89921171  0.00000000  1
  F  F46  1  0.60473193  0.06432286  0.50000000  1
  F  F47  1  0.60237324  0.73564083  0.50000000  1
  F  F48  1  0.72827849  0.26290606  0.50000000  1
  F  F49  1  0.76540047  0.10723770  0.00000000  1
  F  F50  1  0.89882162  0.56761385  0.00000000  1
  F  F51  1  0.90355436  0.89429284  -0.00000000  1
  F  F52  1  0.93662220  0.40544174  0.50000000  1
  F  F53  1  0.93584177  0.73063141  0.50000000  1
