# generated using pymatgen
data_La8Cu3O16
_symmetry_space_group_name_H-M   'P 1'
_cell_length_a   11.61591297
_cell_length_b   7.53639661
_cell_length_c   8.85995890
_cell_angle_alpha   102.40535660
_cell_angle_beta   86.33704597
_cell_angle_gamma   80.83353638
_symmetry_Int_Tables_number   1
_chemical_formula_structural   La8Cu3O16
_chemical_formula_sum   'La16 Cu6 O32'
_cell_volume   743.95536087
_cell_formula_units_Z   2
loop_
 _symmetry_equiv_pos_site_id
 _symmetry_equiv_pos_as_xyz
  1  'x, y, z'
loop_
 _atom_site_type_symbol
 _atom_site_label
 _atom_site_symmetry_multiplicity
 _atom_site_fract_x
 _atom_site_fract_y
 _atom_site_fract_z
 _atom_site_occupancy
  La  La0  1  0.97505781  0.18699019  0.70261330  1
  La  La1  1  0.52655288  0.32508766  0.80159022  1
  La  La2  1  0.97344712  0.67491234  0.69840978  1
  La  La3  1  0.23186524  0.17540169  0.95338998  1
  La  La4  1  0.73132602  0.19054607  0.45354398  1
  La  La5  1  0.47568051  0.17121145  0.20063204  1
  La  La6  1  0.23332763  0.68658688  0.95558023  1
  La  La7  1  0.73414817  0.67000917  0.45641601  1
  La  La8  1  0.52494219  0.81300981  0.79738670  1
  La  La9  1  0.76585183  0.32999083  0.04358399  1
  La  La10  1  0.26667237  0.31341312  0.54441977  1
  La  La11  1  0.02763741  0.30777588  0.29942176  1
  La  La12  1  0.76867398  0.80945393  0.04645602  1
  La  La13  1  0.26813476  0.82459831  0.54661002  1
  La  La14  1  0.47236259  0.69222412  0.20057824  1
  La  La15  1  0.02431949  0.82878855  0.29936796  1
  Cu  Cu16  1  0.75000000  -0.00000000  0.75000000  1
  Cu  Cu17  1  0.50000641  0.00022877  0.50063103  1
  Cu  Cu18  1  0.49961667  0.50005168  0.50008735  1
  Cu  Cu19  1  -0.00000641  0.99977123  0.99936897  1
  Cu  Cu20  1  0.25000000  0.50000000  0.25000000  1
  Cu  Cu21  1  0.00038333  0.49994832  -0.00008735  1
  O  O22  1  0.87205337  0.00138233  0.87975539  1
  O  O23  1  0.60743944  0.10072795  0.97504568  1
  O  O24  1  0.87945929  0.49926113  0.87498825  1
  O  O25  1  0.75164720  0.24119590  0.74701999  1
  O  O26  1  0.61419006  0.58502978  0.98735964  1
  O  O27  1  0.36698021  0.08170672  0.73203369  1
  O  O28  1  0.86902330  0.08244506  0.23398774  1
  O  O29  1  0.88580994  0.41497022  0.51264036  1
  O  O30  1  0.37530733  0.00202534  0.38209912  1
  O  O31  1  0.62054071  0.50073887  0.62501175  1
  O  O32  1  0.74835280  0.75880410  0.75298001  1
  O  O33  1  0.49754340  0.25162953  0.50412844  1
  O  O34  1  0.99783175  0.25141233  0.00357187  1
  O  O35  1  0.89256056  0.89927205  0.52495432  1
  O  O36  1  0.14047359  0.39891190  0.77553479  1
  O  O37  1  0.64229612  0.40013795  0.27728860  1
  O  O38  1  0.10566269  0.10224011  0.47891950  1
  O  O39  1  0.85770388  0.59986205  0.22271140  1
  O  O40  1  0.35952641  0.60108810  0.72446521  1
  O  O41  1  0.37704677  0.49804370  0.37147467  1
  O  O42  1  0.50216825  0.74858767  0.49642813  1
  O  O43  1  0.25242150  0.25603815  0.24606596  1
  O  O44  1  0.00245660  0.74837047  0.99587156  1
  O  O45  1  0.62794663  0.99861767  0.62024461  1
  O  O46  1  0.11644288  0.58219032  0.48419065  1
  O  O47  1  0.13301979  0.91829328  0.76796631  1
  O  O48  1  0.63097670  0.91755494  0.26601226  1
  O  O49  1  0.38355712  0.41780968  0.01580935  1
  O  O50  1  0.24757850  0.74396185  0.25393404  1
  O  O51  1  0.12295323  0.50195630  0.12852533  1
  O  O52  1  0.39433731  0.89775989  0.02108050  1
  O  O53  1  0.12469267  0.99797466  0.11790088  1
