# generated using pymatgen
data_La2EuO4
_symmetry_space_group_name_H-M   'P 1'
_cell_length_a   7.24328433
_cell_length_b   7.24328433
_cell_length_c   7.31048020
_cell_angle_alpha   60.30359232
_cell_angle_beta   60.30359232
_cell_angle_gamma   90.00000000
_symmetry_Int_Tables_number   1
_chemical_formula_structural   La2EuO4
_chemical_formula_sum   'La4 Eu2 O8'
_cell_volume   273.67779810
_cell_formula_units_Z   2
loop_
 _symmetry_equiv_pos_site_id
 _symmetry_equiv_pos_as_xyz
  1  'x, y, z'
loop_
 _atom_site_type_symbol
 _atom_site_label
 _atom_site_symmetry_multiplicity
 _atom_site_fract_x
 _atom_site_fract_y
 _atom_site_fract_z
 _atom_site_occupancy
  La  La0  1  0.37500000  0.12500000  0.25000000  1
  La  La1  1  0.37500000  0.62500000  0.25000000  1
  La  La2  1  0.37500000  0.62500000  0.75000000  1
  La  La3  1  0.87500000  0.62500000  0.75000000  1
  Eu  Eu4  1  0.00000000  0.00000000  -0.00000000  1
  Eu  Eu5  1  0.75000000  0.25000000  0.50000000  1
  O  O6  1  0.16342713  0.39135756  0.21728488  1
  O  O7  1  0.61928799  0.39135756  0.21728488  1
  O  O8  1  0.14135756  0.41342713  0.71728488  1
  O  O9  1  0.60864244  0.38071201  0.78271512  1
  O  O10  1  0.58657287  0.85864244  0.28271512  1
  O  O11  1  0.13071201  0.85864244  0.28271512  1
  O  O12  1  0.60864244  0.83657287  0.78271512  1
  O  O13  1  0.14135756  0.86928799  0.71728488  1
