# generated using pymatgen
data_Co2OF3
_symmetry_space_group_name_H-M   'P 1'
_cell_length_a   4.71616566
_cell_length_b   13.31287939
_cell_length_c   5.66701768
_cell_angle_alpha   101.53040826
_cell_angle_beta   90.30771010
_cell_angle_gamma   89.92192535
_symmetry_Int_Tables_number   1
_chemical_formula_structural   Co2OF3
_chemical_formula_sum   'Co10 O5 F15'
_cell_volume   348.62223549
_cell_formula_units_Z   5
loop_
 _symmetry_equiv_pos_site_id
 _symmetry_equiv_pos_as_xyz
  1  'x, y, z'
loop_
 _atom_site_type_symbol
 _atom_site_label
 _atom_site_symmetry_multiplicity
 _atom_site_fract_x
 _atom_site_fract_y
 _atom_site_fract_z
 _atom_site_occupancy
  Co  Co0  1  0.51650177  0.00192938  0.48821020  1
  Co  Co1  1  0.49512920  0.40174355  0.30692987  1
  Co  Co2  1  0.54878162  0.59604887  0.72461550  1
  Co  Co3  1  0.45929334  0.21563602  0.90469303  1
  Co  Co4  1  0.51103596  0.79242704  0.09237477  1
  Co  Co5  1  0.98664826  0.40202847  0.79041158  1
  Co  Co6  1  0.03847695  0.81583144  0.60182461  1
  Co  Co7  1  0.97041609  0.19084679  0.40126431  1
  Co  Co8  1  0.99818524  0.60189291  0.20287952  1
  Co  Co9  1  0.98978835  0.99923519  0.99903463  1
  O  O10  1  0.78815229  0.05401944  0.32000199  1
  O  O11  1  0.69683088  0.65464928  0.00550206  1
  O  O12  1  0.71183721  0.45798104  0.62557683  1
  O  O13  1  0.29150123  0.33806927  0.97246926  1
  O  O14  1  0.20459572  0.93839345  0.66871364  1
  F  F15  1  0.79461832  0.25900980  0.72270893  1
  F  F16  1  0.80436177  0.85699381  0.90613583  1
  F  F17  1  0.81010421  0.45839361  0.12276035  1
  F  F18  1  0.81259000  0.66974824  0.52463379  1
  F  F19  1  0.67886989  0.06934466  0.82466883  1
  F  F20  1  0.70012704  0.85816622  0.41886934  1
  F  F21  1  0.68932958  0.25900890  0.21143598  1
  F  F22  1  0.29926668  0.73329696  0.77219172  1
  F  F23  1  0.30583238  0.93456343  0.17496430  1
  F  F24  1  0.29843267  0.14165189  0.58535467  1
  F  F25  1  0.31497248  0.54641973  0.40087094  1
  F  F26  1  0.19133487  0.13927323  0.08293578  1
  F  F27  1  0.20634091  0.53559024  0.88152196  1
  F  F28  1  0.19723239  0.74338684  0.28653127  1
  F  F29  1  0.18941276  0.33441927  0.47991352  1
