# generated using pymatgen
data_Ba8In6O17
_symmetry_space_group_name_H-M   'P 1'
_cell_length_a   6.24687636
_cell_length_b   15.18509547
_cell_length_c   6.20231597
_cell_angle_alpha   89.97192632
_cell_angle_beta   90.13649164
_cell_angle_gamma   101.86995667
_symmetry_Int_Tables_number   1
_chemical_formula_structural   Ba8In6O17
_chemical_formula_sum   'Ba8 In6 O17'
_cell_volume   575.76576282
_cell_formula_units_Z   1
loop_
 _symmetry_equiv_pos_site_id
 _symmetry_equiv_pos_as_xyz
  1  'x, y, z'
loop_
 _atom_site_type_symbol
 _atom_site_label
 _atom_site_symmetry_multiplicity
 _atom_site_fract_x
 _atom_site_fract_y
 _atom_site_fract_z
 _atom_site_occupancy
  Ba  Ba0  1  0.57663597  0.13690615  0.99251075  1
  Ba  Ba1  1  0.69904504  0.41121573  0.01674352  1
  Ba  Ba2  1  0.80095496  0.58878427  0.48325648  1
  Ba  Ba3  1  0.92336403  0.86309385  0.50748925  1
  Ba  Ba4  1  0.28782831  0.58878427  0.01674352  1
  Ba  Ba5  1  0.43973082  0.86309385  0.99251075  1
  Ba  Ba6  1  0.06026918  0.13690615  0.50748925  1
  Ba  Ba7  1  0.21217169  0.41121573  0.48325648  1
  In  In8  1  0.83789019  0.71811144  0.97407203  1
  In  In9  1  0.01387655  0.00000000  0.01480784  1
  In  In10  1  0.48612345  1.00000000  0.48519216  1
  In  In11  1  0.66210981  0.28188856  0.52592797  1
  In  In12  1  0.11977876  0.28188856  0.97407203  1
  In  In13  1  0.38022124  0.71811144  0.52592797  1
  O  O14  1  0.75000000  -0.00000000  0.25000000  1
  O  O15  1  0.86327986  0.58452473  0.05205420  1
  O  O16  1  0.88959606  0.27919311  0.25000000  1
  O  O17  1  0.86726116  0.86326822  0.94646330  1
  O  O18  1  0.63273884  0.13673178  0.55353670  1
  O  O19  1  0.90978227  0.31956455  0.75000000  1
  O  O20  1  0.63672014  0.41547527  0.44794580  1
  O  O21  1  0.00399294  0.13673178  0.94646330  1
  O  O22  1  0.61040394  0.72080689  0.25000000  1
  O  O23  1  0.25000000  -0.00000000  0.25000000  1
  O  O24  1  0.27875512  0.41547527  0.05205420  1
  O  O25  1  0.38242319  0.26484639  0.75000000  1
  O  O26  1  0.25000000  -0.00000000  0.75000000  1
  O  O27  1  0.59021773  0.68043545  0.75000000  1
  O  O28  1  0.22124488  0.58452473  0.44794580  1
  O  O29  1  0.49600706  0.86326822  0.55353670  1
  O  O30  1  0.11757681  0.73515361  0.75000000  1
