# generated using pymatgen
data_V3CdO7
_symmetry_space_group_name_H-M   'P 1'
_cell_length_a   5.38524373
_cell_length_b   11.36430659
_cell_length_c   10.52900433
_cell_angle_alpha   90.00000000
_cell_angle_beta   90.00000000
_cell_angle_gamma   90.00000000
_symmetry_Int_Tables_number   1
_chemical_formula_structural   V3CdO7
_chemical_formula_sum   'V12 Cd4 O28'
_cell_volume   644.37044076
_cell_formula_units_Z   4
loop_
 _symmetry_equiv_pos_site_id
 _symmetry_equiv_pos_as_xyz
  1  'x, y, z'
loop_
 _atom_site_type_symbol
 _atom_site_label
 _atom_site_symmetry_multiplicity
 _atom_site_fract_x
 _atom_site_fract_y
 _atom_site_fract_z
 _atom_site_occupancy
  V  V0  1  0.26954532  0.32201747  0.75000000  1
  V  V1  1  0.76954532  0.17798253  0.25000000  1
  V  V2  1  0.23045468  0.82201747  0.75000000  1
  V  V3  1  0.73045468  0.67798253  0.25000000  1
  V  V4  1  0.22529535  0.80629100  0.46927646  1
  V  V5  1  0.72529535  0.69370900  0.53072354  1
  V  V6  1  0.27470465  0.30629100  0.03072354  1
  V  V7  1  0.77470465  0.19370900  0.96927646  1
  V  V8  1  0.77470465  0.19370900  0.53072354  1
  V  V9  1  0.27470465  0.30629100  0.46927646  1
  V  V10  1  0.72529535  0.69370900  0.96927646  1
  V  V11  1  0.22529535  0.80629100  0.03072354  1
  Cd  Cd12  1  0.77230028  0.43691327  0.75000000  1
  Cd  Cd13  1  0.27230028  0.06308673  0.25000000  1
  Cd  Cd14  1  0.72769972  0.93691327  0.75000000  1
  Cd  Cd15  1  0.22769972  0.56308673  0.25000000  1
  O  O16  1  0.27099188  0.96761665  0.75000000  1
  O  O17  1  0.77099188  0.53238335  0.25000000  1
  O  O18  1  0.22900812  0.46761665  0.75000000  1
  O  O19  1  0.72900812  0.03238335  0.25000000  1
  O  O20  1  0.25061872  0.94366998  0.41339594  1
  O  O21  1  0.75061872  0.55633002  0.58660406  1
  O  O22  1  0.24938128  0.44366998  0.08660406  1
  O  O23  1  0.74938128  0.05633002  0.91339594  1
  O  O24  1  0.74938128  0.05633002  0.58660406  1
  O  O25  1  0.24938128  0.44366998  0.41339594  1
  O  O26  1  0.75061872  0.55633002  0.91339594  1
  O  O27  1  0.25061872  0.94366998  0.08660406  1
  O  O28  1  0.95601029  0.72163482  0.38867193  1
  O  O29  1  0.45601029  0.77836518  0.61132807  1
  O  O30  1  0.54398971  0.22163482  0.11132807  1
  O  O31  1  0.04398971  0.27836518  0.88867193  1
  O  O32  1  0.47842847  0.70391003  0.11423049  1
  O  O33  1  0.97842847  0.79608997  0.88576951  1
  O  O34  1  0.02157153  0.20391003  0.38576951  1
  O  O35  1  0.52157153  0.29608997  0.61423049  1
  O  O36  1  0.52157153  0.29608997  0.88576951  1
  O  O37  1  0.02157153  0.20391003  0.11423049  1
  O  O38  1  0.97842847  0.79608997  0.61423049  1
  O  O39  1  0.47842847  0.70391003  0.38576951  1
  O  O40  1  0.95601029  0.72163482  0.11132807  1
  O  O41  1  0.45601029  0.77836518  0.88867193  1
  O  O42  1  0.54398971  0.22163482  0.38867193  1
  O  O43  1  0.04398971  0.27836518  0.61132807  1
