# generated using pymatgen
data_Ta5Al3
_symmetry_space_group_name_H-M   'P 1'
_cell_length_a   7.81896617
_cell_length_b   7.81896622
_cell_length_c   5.23404735
_cell_angle_alpha   90.00000000
_cell_angle_beta   90.00000000
_cell_angle_gamma   119.95375294
_symmetry_Int_Tables_number   1
_chemical_formula_structural   Ta5Al3
_chemical_formula_sum   'Ta10 Al6'
_cell_volume   277.24846419
_cell_formula_units_Z   2
loop_
 _symmetry_equiv_pos_site_id
 _symmetry_equiv_pos_as_xyz
  1  'x, y, z'
loop_
 _atom_site_type_symbol
 _atom_site_label
 _atom_site_symmetry_multiplicity
 _atom_site_fract_x
 _atom_site_fract_y
 _atom_site_fract_z
 _atom_site_occupancy
  Ta  Ta0  1  0.66660517  0.33339850  0.50000014  1
  Ta  Ta1  1  0.33339850  0.66660517  0.50000014  1
  Ta  Ta2  1  0.33339483  0.66660150  0.00000014  1
  Ta  Ta3  1  0.66660150  0.33339483  0.00000014  1
  Ta  Ta4  1  0.77004699  0.77004699  0.25001395  1
  Ta  Ta5  1  0.22924803  0.00015125  0.24999243  1
  Ta  Ta6  1  0.00015125  0.22924803  0.24999243  1
  Ta  Ta7  1  0.22995301  0.22995301  0.75001395  1
  Ta  Ta8  1  0.77075197  0.99984875  0.74999243  1
  Ta  Ta9  1  0.99984875  0.77075197  0.74999243  1
  Al  Al10  1  0.40458802  0.40458802  0.25000933  1
  Al  Al11  1  0.59544741  0.00003584  0.24999579  1
  Al  Al12  1  0.00003584  0.59544741  0.24999579  1
  Al  Al13  1  0.59541198  0.59541198  0.75000933  1
  Al  Al14  1  0.40455259  0.99996416  0.74999579  1
  Al  Al15  1  0.99996416  0.40455259  0.74999579  1
