# generated using pymatgen
data_Fe10O11F9
_symmetry_space_group_name_H-M   'P 1'
_cell_length_a   4.73437342
_cell_length_b   4.73651581
_cell_length_c   15.34888013
_cell_angle_alpha   90.10523408
_cell_angle_beta   90.15838466
_cell_angle_gamma   91.29713820
_symmetry_Int_Tables_number   1
_chemical_formula_structural   Fe10O11F9
_chemical_formula_sum   'Fe10 O11 F9'
_cell_volume   344.09982037
_cell_formula_units_Z   1
loop_
 _symmetry_equiv_pos_site_id
 _symmetry_equiv_pos_as_xyz
  1  'x, y, z'
loop_
 _atom_site_type_symbol
 _atom_site_label
 _atom_site_symmetry_multiplicity
 _atom_site_fract_x
 _atom_site_fract_y
 _atom_site_fract_z
 _atom_site_occupancy
  Fe  Fe0  1  0.96578475  0.96779255  0.00090796  1
  Fe  Fe1  1  0.03028432  0.02989515  0.20038682  1
  Fe  Fe2  1  0.01045725  0.96850555  0.39871598  1
  Fe  Fe3  1  0.04012300  0.99788274  0.59871662  1
  Fe  Fe4  1  0.04753887  0.00266681  0.80076422  1
  Fe  Fe5  1  0.53871803  0.46524736  0.10197332  1
  Fe  Fe6  1  0.47201407  0.50056143  0.49370131  1
  Fe  Fe7  1  0.46495164  0.51467522  0.30477862  1
  Fe  Fe8  1  0.46142253  0.49810394  0.69845351  1
  Fe  Fe9  1  0.47067996  0.52773323  0.90103604  1
  O  O10  1  0.18897097  0.81250187  0.29665349  1
  O  O11  1  0.19006551  0.80163529  0.49872907  1
  O  O12  1  0.20045528  0.81401302  0.70004230  1
  O  O13  1  0.18395215  0.81374257  0.90360526  1
  O  O14  1  0.32232521  0.32038912  0.20075588  1
  O  O15  1  0.29014180  0.29387513  0.39819714  1
  O  O16  1  0.30900531  0.31238920  0.59699749  1
  O  O17  1  0.30991711  0.31978215  0.80224637  1
  O  O18  1  0.68060646  0.67407820  0.00094059  1
  O  O19  1  0.69047828  0.69062891  0.39832130  1
  O  O20  1  0.82006785  0.17823457  0.10086525  1
  F  F21  1  0.20398201  0.79635356  0.10054677  1
  F  F22  1  0.29531454  0.29054713  0.00192977  1
  F  F23  1  0.70922619  0.70253075  0.20003125  1
  F  F24  1  0.69915263  0.70306878  0.60063923  1
  F  F25  1  0.69867252  0.71096926  0.80021092  1
  F  F26  1  0.80094128  0.19228594  0.50028444  1
  F  F27  1  0.80183311  0.19920818  0.29876515  1
  F  F28  1  0.79428487  0.19533821  0.90045089  1
  F  F29  1  0.80863150  0.20536519  0.70035206  1
