# generated using pymatgen
data_Bi6O5F8
_symmetry_space_group_name_H-M   'P 1'
_cell_length_a   5.83756207
_cell_length_b   4.12601588
_cell_length_c   12.46637424
_cell_angle_alpha   92.31144104
_cell_angle_beta   92.08822740
_cell_angle_gamma   87.74904771
_symmetry_Int_Tables_number   1
_chemical_formula_structural   Bi6O5F8
_chemical_formula_sum   'Bi6 O5 F8'
_cell_volume   299.60498232
_cell_formula_units_Z   1
loop_
 _symmetry_equiv_pos_site_id
 _symmetry_equiv_pos_as_xyz
  1  'x, y, z'
loop_
 _atom_site_type_symbol
 _atom_site_label
 _atom_site_symmetry_multiplicity
 _atom_site_fract_x
 _atom_site_fract_y
 _atom_site_fract_z
 _atom_site_occupancy
  Bi  Bi0  1  0.19888148  0.73986226  0.08180373  1
  Bi  Bi1  1  0.21978377  0.70654533  0.75723326  1
  Bi  Bi2  1  0.23112615  0.77102838  0.40485398  1
  Bi  Bi3  1  0.81441027  0.27043352  0.55721745  1
  Bi  Bi4  1  0.76645665  0.25462152  0.92829274  1
  Bi  Bi5  1  0.78426936  0.26343809  0.24313652  1
  O  O6  1  0.01584471  0.28370128  0.40241369  1
  O  O7  1  0.00388654  0.24970910  0.08064221  1
  O  O8  1  0.96843175  0.72589996  0.92839031  1
  O  O9  1  0.98940743  0.76572580  0.23814442  1
  O  O10  1  0.05704980  0.80521383  0.57295818  1
  F  F11  1  0.93638091  0.21772584  0.74921976  1
  F  F12  1  0.55244484  0.60401390  0.68428772  1
  F  F13  1  0.51999311  0.34504232  0.39289629  1
  F  F14  1  0.37434569  0.18060486  0.79540586  1
  F  F15  1  0.52224545  0.25256937  0.07408080  1
  F  F16  1  0.47060115  0.70122336  0.91659348  1
  F  F17  1  0.58361848  0.86756452  0.50704931  1
  F  F18  1  0.49082246  0.82442476  0.24226229  1
