# generated using pymatgen
data_NaHF2
_symmetry_space_group_name_H-M   'P 1'
_cell_length_a   7.57070545
_cell_length_b   3.24421988
_cell_length_c   4.76312190
_cell_angle_alpha   126.73184524
_cell_angle_beta   143.07424905
_cell_angle_gamma   41.36914330
_symmetry_Int_Tables_number   1
_chemical_formula_structural   NaHF2
_chemical_formula_sum   'Na1 H1 F2'
_cell_volume   46.45041265
_cell_formula_units_Z   1
loop_
 _symmetry_equiv_pos_site_id
 _symmetry_equiv_pos_as_xyz
  1  'x, y, z'
loop_
 _atom_site_type_symbol
 _atom_site_label
 _atom_site_symmetry_multiplicity
 _atom_site_fract_x
 _atom_site_fract_y
 _atom_site_fract_z
 _atom_site_occupancy
  Na  Na0  1  0.74070755  0.99410008  0.47795595  1
  H  H1  1  0.10210834  0.49657840  0.20009333  1
  F  F2  1  0.88031828  0.01009504  0.16379235  1
  F  F3  1  0.28759883  0.97994248  0.16113836  1
