# generated using pymatgen
data_Sr2CaWO6
_symmetry_space_group_name_H-M   'P 1'
_cell_length_a   5.90842866
_cell_length_b   5.96567901
_cell_length_c   8.37512462
_cell_angle_alpha   90.00000000
_cell_angle_beta   90.00000000
_cell_angle_gamma   90.00000000
_symmetry_Int_Tables_number   1
_chemical_formula_structural   Sr2CaWO6
_chemical_formula_sum   'Sr4 Ca2 W2 O12'
_cell_volume   295.20462411
_cell_formula_units_Z   2
loop_
 _symmetry_equiv_pos_site_id
 _symmetry_equiv_pos_as_xyz
  1  'x, y, z'
loop_
 _atom_site_type_symbol
 _atom_site_label
 _atom_site_symmetry_multiplicity
 _atom_site_fract_x
 _atom_site_fract_y
 _atom_site_fract_z
 _atom_site_occupancy
  Sr  Sr0  1  0.00000000  0.51629107  0.25457614  1
  Sr  Sr1  1  0.50000000  0.99069494  0.24823009  1
  Sr  Sr2  1  0.00000000  0.51629107  0.74542386  1
  Sr  Sr3  1  0.50000000  0.99069494  0.75176991  1
  Ca  Ca4  1  0.50000000  0.47275791  0.00000000  1
  Ca  Ca5  1  0.00000000  0.99689873  0.50000000  1
  W  W6  1  0.00000000  0.96812755  0.00000000  1
  W  W7  1  0.50000000  0.49144721  0.50000000  1
  O  O8  1  0.26917569  0.72585707  0.50000000  1
  O  O9  1  0.26435244  0.26361024  0.50000000  1
  O  O10  1  0.00000000  0.95841296  0.23266096  1
  O  O11  1  0.00000000  0.95841296  0.76733904  1
  O  O12  1  0.50000000  0.48423813  0.73218780  1
  O  O13  1  0.22276992  0.72357859  0.00000000  1
  O  O14  1  0.73082431  0.72585707  0.50000000  1
  O  O15  1  0.77723008  0.72357859  0.00000000  1
  O  O16  1  0.75514194  0.18270128  0.00000000  1
  O  O17  1  0.73564756  0.26361024  0.50000000  1
  O  O18  1  0.50000000  0.48423813  0.26781220  1
  O  O19  1  0.24485806  0.18270128  0.00000000  1
