# generated using pymatgen
data_Ac3Ho
_symmetry_space_group_name_H-M   'P 1'
_cell_length_a   7.82719940
_cell_length_b   7.82681771
_cell_length_c   6.33781725
_cell_angle_alpha   90.00000000
_cell_angle_beta   90.00000000
_cell_angle_gamma   119.97871512
_symmetry_Int_Tables_number   1
_chemical_formula_structural   Ac3Ho
_chemical_formula_sum   'Ac6 Ho2'
_cell_volume   336.32183846
_cell_formula_units_Z   2
loop_
 _symmetry_equiv_pos_site_id
 _symmetry_equiv_pos_as_xyz
  1  'x, y, z'
loop_
 _atom_site_type_symbol
 _atom_site_label
 _atom_site_symmetry_multiplicity
 _atom_site_fract_x
 _atom_site_fract_y
 _atom_site_fract_z
 _atom_site_occupancy
  Ac  Ac0  1  0.16971529  0.33944011  0.25000000  1
  Ac  Ac1  1  0.66059341  0.83028155  0.25000000  1
  Ac  Ac2  1  0.16965613  0.83029752  0.25000000  1
  Ac  Ac3  1  0.83043338  0.66084067  0.75000000  1
  Ac  Ac4  1  0.33910957  0.16955724  0.75000000  1
  Ac  Ac5  1  0.83049430  0.16956066  0.75000000  1
  Ho  Ho6  1  0.33335434  0.66667538  0.75000000  1
  Ho  Ho7  1  0.66664459  0.33334487  0.25000000  1
