# generated using pymatgen
data_NaSeO3
_symmetry_space_group_name_H-M   'P 1'
_cell_length_a   15.94170795
_cell_length_b   11.80637849
_cell_length_c   15.94170795
_cell_angle_alpha   51.73285827
_cell_angle_beta   156.52816721
_cell_angle_gamma   136.97491040
_symmetry_Int_Tables_number   1
_chemical_formula_structural   NaSeO3
_chemical_formula_sum   'Na8 Se8 O24'
_cell_volume   800.79865795
_cell_formula_units_Z   8
loop_
 _symmetry_equiv_pos_site_id
 _symmetry_equiv_pos_as_xyz
  1  'x, y, z'
loop_
 _atom_site_type_symbol
 _atom_site_label
 _atom_site_symmetry_multiplicity
 _atom_site_fract_x
 _atom_site_fract_y
 _atom_site_fract_z
 _atom_site_occupancy
  Na  Na0  1  0.91533321  0.69840471  0.26767961  1
  Na  Na1  1  0.56927390  0.80159529  0.71692750  1
  Na  Na2  1  0.08466679  0.30159529  0.73232039  1
  Na  Na3  1  0.43072610  0.19840471  0.28307250  1
  Na  Na4  1  0.46363625  0.10489130  0.59255007  1
  Na  Na5  1  0.48765777  0.39510870  0.85874395  1
  Na  Na6  1  0.53636375  0.89510870  0.40744993  1
  Na  Na7  1  0.51234223  0.60489130  0.14125605  1
  Se  Se8  1  0.35024800  0.74193535  0.76768145  1
  Se  Se9  1  0.02574610  0.75806465  0.10831265  1
  Se  Se10  1  0.64975200  0.25806465  0.23231855  1
  Se  Se11  1  0.97425390  0.24193535  0.89168735  1
  Se  Se12  1  0.14638407  0.98529454  0.53563273  1
  Se  Se13  1  0.55033818  0.51470546  0.66108953  1
  Se  Se14  1  0.85361593  0.01470546  0.46436727  1
  Se  Se15  1  0.44966182  0.48529454  0.33891047  1
  O  O16  1  0.07346558  0.58116813  0.61248522  1
  O  O17  1  0.03131609  0.91883187  0.99229645  1
  O  O18  1  0.92653442  0.41883187  0.38751478  1
  O  O19  1  0.96868391  0.08116813  0.00770355  1
  O  O20  1  0.55931584  0.68981566  0.00319497  1
  O  O21  1  0.31338031  0.81018434  0.36950119  1
  O  O22  1  0.44068416  0.31018434  0.99680503  1
  O  O23  1  0.68661969  0.18981566  0.63049881  1
  O  O24  1  0.36523761  0.80723541  0.65218458  1
  O  O25  1  0.84495017  0.69276459  0.05800220  1
  O  O26  1  0.63476239  0.19276459  0.34781542  1
  O  O27  1  0.15504983  0.30723541  0.94199780  1
  O  O28  1  0.89262756  0.83445369  0.41804034  1
  O  O29  1  0.58358665  0.66554631  0.55817387  1
  O  O30  1  0.10737244  0.16554631  0.58195966  1
  O  O31  1  0.41641335  0.33445369  0.44182613  1
  O  O32  1  0.09791744  0.97068277  0.39477172  1
  O  O33  1  0.42408995  0.52931723  0.62723568  1
  O  O34  1  0.90208256  0.02931723  0.60522828  1
  O  O35  1  0.57591005  0.47068277  0.37276432  1
  O  O36  1  0.41413193  0.91235078  0.81236185  1
  O  O37  1  0.90001107  0.58764922  0.00178115  1
  O  O38  1  0.58586807  0.08764922  0.18763815  1
  O  O39  1  0.09998893  0.41235078  0.99821885  1
