# generated using pymatgen
data_Ac3Dy
_symmetry_space_group_name_H-M   'P 1'
_cell_length_a   7.79861640
_cell_length_b   7.79861635
_cell_length_c   6.34972801
_cell_angle_alpha   90.00000000
_cell_angle_beta   90.00000000
_cell_angle_gamma   120.00000446
_symmetry_Int_Tables_number   1
_chemical_formula_structural   Ac3Dy
_chemical_formula_sum   'Ac6 Dy2'
_cell_volume   334.44202897
_cell_formula_units_Z   2
loop_
 _symmetry_equiv_pos_site_id
 _symmetry_equiv_pos_as_xyz
  1  'x, y, z'
loop_
 _atom_site_type_symbol
 _atom_site_label
 _atom_site_symmetry_multiplicity
 _atom_site_fract_x
 _atom_site_fract_y
 _atom_site_fract_z
 _atom_site_occupancy
  Ac  Ac0  1  0.16947853  0.33895806  0.24999900  1
  Ac  Ac1  1  0.66104194  0.83052047  0.24999900  1
  Ac  Ac2  1  0.16947953  0.83052047  0.24999900  1
  Ac  Ac3  1  0.83052247  0.66104294  0.75000100  1
  Ac  Ac4  1  0.33895706  0.16947853  0.75000100  1
  Ac  Ac5  1  0.83052047  0.16947853  0.75000100  1
  Dy  Dy6  1  0.33333300  0.66666600  0.75000100  1
  Dy  Dy7  1  0.66666700  0.33333200  0.24999900  1
