# generated using pymatgen
data_Ge7H18O23
_symmetry_space_group_name_H-M   'P 1'
_cell_length_a   7.95422733
_cell_length_b   7.76643711
_cell_length_c   7.71626809
_cell_angle_alpha   90.56514068
_cell_angle_beta   89.58332448
_cell_angle_gamma   91.93972954
_symmetry_Int_Tables_number   1
_chemical_formula_structural   Ge7H18O23
_chemical_formula_sum   'Ge7 H18 O23'
_cell_volume   476.37242537
_cell_formula_units_Z   1
loop_
 _symmetry_equiv_pos_site_id
 _symmetry_equiv_pos_as_xyz
  1  'x, y, z'
loop_
 _atom_site_type_symbol
 _atom_site_label
 _atom_site_symmetry_multiplicity
 _atom_site_fract_x
 _atom_site_fract_y
 _atom_site_fract_z
 _atom_site_occupancy
  Ge  Ge0  1  0.86905578  0.85743091  0.15378224  1
  Ge  Ge1  1  0.86043099  0.12145589  0.89180584  1
  Ge  Ge2  1  0.12682675  0.85348872  0.87317974  1
  Ge  Ge3  1  0.14164379  0.13531917  0.14868656  1
  Ge  Ge4  1  0.00535291  0.98532386  0.50288807  1
  Ge  Ge5  1  0.99496859  0.48475433  0.01068289  1
  Ge  Ge6  1  0.48243653  0.99483893  0.00187589  1
  H  H7  1  0.54124502  0.08063098  0.43316823  1
  H  H8  1  0.57503835  0.05630795  0.64157615  1
  H  H9  1  0.92970503  0.26208218  0.60634658  1
  H  H10  1  0.04878480  0.44060385  0.43621863  1
  H  H11  1  0.04676321  0.52211645  0.62729225  1
  H  H12  1  0.36831025  0.52750635  0.98411024  1
  H  H13  1  0.55358059  0.57185857  0.93282266  1
  H  H14  1  0.32051112  0.74268357  0.45579622  1
  H  H15  1  0.28261181  0.63185231  0.29134353  1
  H  H16  1  0.53806810  0.79351798  0.23086012  1
  H  H17  1  0.70305101  0.66747133  0.56665513  1
  H  H18  1  0.72953431  0.49981364  0.66679413  1
  H  H19  1  0.55742848  0.41679741  0.17364825  1
  H  H20  1  0.75099619  0.51764718  0.21561305  1
  H  H21  1  0.59930954  0.46892102  0.37767429  1
  H  H22  1  0.40009457  0.43301914  0.59486964  1
  H  H23  1  0.42438944  0.35437327  0.77748977  1
  H  H24  1  0.42342992  0.19775504  0.59393905  1
  O  O25  1  0.10810956  0.87053654  0.13309616  1
  O  O26  1  0.87720905  0.86997940  0.89701293  1
  O  O27  1  0.87291465  0.10292002  0.13708145  1
  O  O28  1  0.11056039  0.11088549  0.90175319  1
  O  O29  1  0.84920244  0.85963799  0.39267521  1
  O  O30  1  0.85633602  0.61225291  0.14499014  1
  O  O31  1  0.60899008  0.85594827  0.14268534  1
  O  O32  1  0.88552771  0.13789656  0.63578464  1
  O  O33  1  0.85167272  0.35763056  0.88897383  1
  O  O34  1  0.62802140  0.09398732  0.85836841  1
  O  O35  1  0.12494295  0.85493556  0.63245500  1
  O  O36  1  0.11660888  0.61282814  0.86927201  1
  O  O37  1  0.35853522  0.85154014  0.88014288  1
  O  O38  1  0.13402478  0.12823314  0.38451586  1
  O  O39  1  0.12876151  0.37720814  0.15190083  1
  O  O40  1  0.37620022  0.13263893  0.14220396  1
  O  O41  1  0.48883342  0.06843374  0.54787375  1
  O  O42  1  0.98368274  0.44857999  0.54407657  1
  O  O43  1  0.47953522  0.47720700  0.97479138  1
  O  O44  1  0.37394208  0.66815435  0.36891940  1
  O  O45  1  0.64223726  0.56438059  0.60953553  1
  O  O46  1  0.64349348  0.41831910  0.26865201  1
  O  O47  1  0.36996512  0.32999711  0.66313437  1
