# generated using pymatgen
data_BaO6
_symmetry_space_group_name_H-M   'P 1'
_cell_length_a   6.31749897
_cell_length_b   6.31749897
_cell_length_c   6.52719387
_cell_angle_alpha   88.90049077
_cell_angle_beta   91.09950923
_cell_angle_gamma   75.22012331
_symmetry_Int_Tables_number   1
_chemical_formula_structural   BaO6
_chemical_formula_sum   'Ba2 O12'
_cell_volume   251.76161004
_cell_formula_units_Z   2
loop_
 _symmetry_equiv_pos_site_id
 _symmetry_equiv_pos_as_xyz
  1  'x, y, z'
loop_
 _atom_site_type_symbol
 _atom_site_label
 _atom_site_symmetry_multiplicity
 _atom_site_fract_x
 _atom_site_fract_y
 _atom_site_fract_z
 _atom_site_occupancy
  Ba  Ba0  1  0.81755473  0.81755473  0.75000000  1
  Ba  Ba1  1  0.18244527  0.18244527  0.25000000  1
  O  O2  1  0.07315264  0.77012470  0.13364360  1
  O  O3  1  0.77012470  0.07315264  0.36635640  1
  O  O4  1  0.92684736  0.22987530  0.86635640  1
  O  O5  1  0.22987530  0.92684736  0.63364360  1
  O  O6  1  0.21313714  0.59826242  0.07039699  1
  O  O7  1  0.59826242  0.21313714  0.42960301  1
  O  O8  1  0.78686286  0.40173758  0.92960301  1
  O  O9  1  0.40173758  0.78686286  0.57039699  1
  O  O10  1  0.09485976  0.47541841  0.55497753  1
  O  O11  1  0.47541841  0.09485976  0.94502247  1
  O  O12  1  0.90514024  0.52458159  0.44502247  1
  O  O13  1  0.52458159  0.90514024  0.05497753  1
