# generated using pymatgen
data_BaReH9
_symmetry_space_group_name_H-M   'P 1'
_cell_length_a   7.17002623
_cell_length_b   7.16983932
_cell_length_c   7.48315710
_cell_angle_alpha   90.00070722
_cell_angle_beta   89.99781679
_cell_angle_gamma   119.99779899
_symmetry_Int_Tables_number   1
_chemical_formula_structural   BaReH9
_chemical_formula_sum   'Ba3 Re3 H27'
_cell_volume   333.16187208
_cell_formula_units_Z   3
loop_
 _symmetry_equiv_pos_site_id
 _symmetry_equiv_pos_as_xyz
  1  'x, y, z'
loop_
 _atom_site_type_symbol
 _atom_site_label
 _atom_site_symmetry_multiplicity
 _atom_site_fract_x
 _atom_site_fract_y
 _atom_site_fract_z
 _atom_site_occupancy
  Ba  Ba0  1  0.99997413  0.99998488  0.50737498  1
  Ba  Ba1  1  0.66656959  0.33337591  0.17939253  1
  Ba  Ba2  1  0.33333872  0.66681718  0.80753779  1
  Re  Re3  1  0.00001975  -0.00027971  0.01624816  1
  Re  Re4  1  0.66700807  0.33322859  0.68769403  1
  Re  Re5  1  0.33339176  0.66669396  0.29308371  1
  H  H6  1  0.76996758  0.76340893  0.01169327  1
  H  H7  1  0.99328350  0.22984905  0.01171725  1
  H  H8  1  0.23651824  0.00665443  0.01172230  1
  H  H9  1  0.97495847  0.81971956  0.17970388  1
  H  H10  1  0.84470632  0.02496298  0.17963221  1
  H  H11  1  0.18013058  0.15525514  0.17963948  1
  H  H12  1  0.02434934  0.84177389  0.85533478  1
  H  H13  1  0.81736715  0.97563605  0.85540403  1
  H  H14  1  0.15810107  0.18259429  0.85541142  1
  H  H15  1  0.41707274  0.11531529  0.68919868  1
  H  H16  1  0.69861039  0.58310016  0.68916797  1
  H  H17  1  0.88443722  0.30172762  0.68917989  1
  H  H18  1  0.57576230  0.68452523  0.29185029  1
  H  H19  1  0.10867359  0.42418928  0.29186174  1
  H  H20  1  0.31535902  0.89133666  0.29185840  1
  H  H21  1  0.63445434  0.14922867  0.84865284  1
  H  H22  1  0.51497334  0.36594655  0.84880136  1
  H  H23  1  0.85097128  0.48509728  0.84860886  1
  H  H24  1  0.36449552  0.51564911  0.13061639  1
  H  H25  1  0.15100984  0.63544303  0.13061929  1
  H  H26  1  0.48432879  0.84897482  0.13059417  1
  H  H27  1  0.65263479  0.15633754  0.52751602  1
  H  H28  1  0.50387415  0.34765346  0.52733334  1
  H  H29  1  0.84386375  0.49608542  0.52754404  1
  H  H30  1  0.33260689  0.49379725  0.45266040  1
  H  H31  1  0.16101587  0.66727880  0.45265908  1
  H  H32  1  0.50617190  0.83893869  0.45268743  1
