# generated using pymatgen
data_Mg16Al12Ge
_symmetry_space_group_name_H-M   'P 1'
_cell_length_a   9.10016939
_cell_length_b   9.10016969
_cell_length_c   9.10016939
_cell_angle_alpha   109.47121604
_cell_angle_beta   109.47123308
_cell_angle_gamma   109.47121604
_symmetry_Int_Tables_number   1
_chemical_formula_structural   Mg16Al12Ge
_chemical_formula_sum   'Mg16 Al12 Ge1'
_cell_volume   580.13161675
_cell_formula_units_Z   1
loop_
 _symmetry_equiv_pos_site_id
 _symmetry_equiv_pos_as_xyz
  1  'x, y, z'
loop_
 _atom_site_type_symbol
 _atom_site_label
 _atom_site_symmetry_multiplicity
 _atom_site_fract_x
 _atom_site_fract_y
 _atom_site_fract_z
 _atom_site_occupancy
  Mg  Mg0  1  0.59831113  0.31349225  0.99999900  1
  Mg  Mg1  1  0.31349125  0.59831213  1.00000000  1
  Mg  Mg2  1  0.33384845  0.00000100  1.00000000  1
  Mg  Mg3  1  0.00000000  0.33384845  0.00000000  1
  Mg  Mg4  1  0.68650775  0.68650875  0.28481989  1
  Mg  Mg5  1  1.00000000  0.59831213  0.31349125  1
  Mg  Mg6  1  0.59831213  0.99999900  0.31349225  1
  Mg  Mg7  1  1.00000000  0.00000100  0.33384845  1
  Mg  Mg8  1  0.40168787  0.71518111  0.40168787  1
  Mg  Mg9  1  0.71518111  0.40168787  0.40168787  1
  Mg  Mg10  1  0.99999900  0.31349225  0.59831113  1
  Mg  Mg11  1  0.31349225  0.99999900  0.59831213  1
  Mg  Mg12  1  0.66614955  0.66614955  0.66614955  1
  Mg  Mg13  1  0.68650775  0.28482089  0.68650775  1
  Mg  Mg14  1  0.28481989  0.68650875  0.68650775  1
  Mg  Mg15  1  0.40168787  0.40168787  0.71518111  1
  Al  Al16  1  0.81327051  0.63003775  0.00000000  1
  Al  Al17  1  0.63003675  0.81327051  0.00000000  1
  Al  Al18  1  0.36996325  0.36996225  0.18323276  1
  Al  Al19  1  0.81676524  0.18672949  0.18672849  1
  Al  Al20  1  0.18672849  0.81676524  0.18672849  1
  Al  Al21  1  0.36996225  0.18323276  0.36996225  1
  Al  Al22  1  0.18323276  0.36996225  0.36996325  1
  Al  Al23  1  0.00000000  0.81327051  0.63003675  1
  Al  Al24  1  0.81327051  0.00000000  0.63003775  1
  Al  Al25  1  0.00000000  0.63003775  0.81327051  1
  Al  Al26  1  0.63003775  0.00000000  0.81327051  1
  Al  Al27  1  0.18672849  0.18672949  0.81676524  1
  Ge  Ge28  1  0.00000000  0.00000000  0.00000000  1
