# generated using pymatgen
data_InGa3
_symmetry_space_group_name_H-M   'P 1'
_cell_length_a   6.17402988
_cell_length_b   6.17403132
_cell_length_c   5.20594078
_cell_angle_alpha   90.00000000
_cell_angle_beta   90.00000000
_cell_angle_gamma   120.00000616
_symmetry_Int_Tables_number   1
_chemical_formula_structural   InGa3
_chemical_formula_sum   'In2 Ga6'
_cell_volume   171.85706219
_cell_formula_units_Z   2
loop_
 _symmetry_equiv_pos_site_id
 _symmetry_equiv_pos_as_xyz
  1  'x, y, z'
loop_
 _atom_site_type_symbol
 _atom_site_label
 _atom_site_symmetry_multiplicity
 _atom_site_fract_x
 _atom_site_fract_y
 _atom_site_fract_z
 _atom_site_occupancy
  In  In0  1  0.33333300  0.66666700  0.75000000  1
  In  In1  1  0.66666600  0.33333200  0.25000000  1
  Ga  Ga2  1  0.16008186  0.32016372  0.25000000  1
  Ga  Ga3  1  0.67983728  0.83991814  0.25000000  1
  Ga  Ga4  1  0.16008086  0.83991814  0.25000000  1
  Ga  Ga5  1  0.83991914  0.67983728  0.75000000  1
  Ga  Ga6  1  0.32016272  0.16008086  0.75000000  1
  Ga  Ga7  1  0.83991914  0.16008086  0.75000000  1
