# generated using pymatgen
data_Mg16MnAl12
_symmetry_space_group_name_H-M   'P 1'
_cell_length_a   9.31877369
_cell_length_b   8.99083882
_cell_length_c   8.99083836
_cell_angle_alpha   108.72059553
_cell_angle_beta   110.21179999
_cell_angle_gamma   110.21179243
_symmetry_Int_Tables_number   1
_chemical_formula_structural   Mg16MnAl12
_chemical_formula_sum   'Mg16 Mn1 Al12'
_cell_volume   574.49480044
_cell_formula_units_Z   1
loop_
 _symmetry_equiv_pos_site_id
 _symmetry_equiv_pos_as_xyz
  1  'x, y, z'
loop_
 _atom_site_type_symbol
 _atom_site_label
 _atom_site_symmetry_multiplicity
 _atom_site_fract_x
 _atom_site_fract_y
 _atom_site_fract_z
 _atom_site_occupancy
  Mg  Mg0  1  0.99408821  0.00000000  0.99999900  1
  Mg  Mg1  1  0.00405772  0.35097799  0.00000000  1
  Mg  Mg2  1  0.31862250  0.60109439  0.00000000  1
  Mg  Mg3  1  0.58806307  0.29277991  1.00000000  1
  Mg  Mg4  1  0.68338113  0.68102349  0.28059683  1
  Mg  Mg5  1  0.58806207  1.00000000  0.29277991  1
  Mg  Mg6  1  0.00235764  0.59957434  0.31897651  1
  Mg  Mg7  1  0.00405772  0.00000000  0.35097799  1
  Mg  Mg8  1  0.40278429  0.71940317  0.40042666  1
  Mg  Mg9  1  0.71752911  0.39890661  0.39890661  1
  Mg  Mg10  1  0.31862250  0.99999900  0.60109439  1
  Mg  Mg11  1  0.00235764  0.31897651  0.59957434  1
  Mg  Mg12  1  0.65307873  0.64902201  0.64902201  1
  Mg  Mg13  1  0.68338113  0.28059683  0.68102349  1
  Mg  Mg14  1  0.29528216  0.70722009  0.70722009  1
  Mg  Mg15  1  0.40278429  0.40042666  0.71940317  1
  Mn  Mn16  1  0.29398637  0.99999900  0.99999900  1
  Al  Al17  1  0.64151488  0.81047517  1.00000000  1
  Al  Al18  1  0.81480186  0.62524959  -0.00000000  1
  Al  Al19  1  0.36713250  0.36285408  0.18140278  1
  Al  Al20  1  0.18572972  0.81859622  0.18145030  1
  Al  Al21  1  0.83103870  0.18952483  0.18952483  1
  Al  Al22  1  0.36713250  0.18140378  0.36285408  1
  Al  Al23  1  0.18955128  0.37475141  0.37475141  1
  Al  Al24  1  0.81480086  1.00000000  0.62525059  1
  Al  Al25  1  0.00427942  0.81855070  0.63714592  1
  Al  Al26  1  0.64151588  -0.00000000  0.81047517  1
  Al  Al27  1  0.00427842  0.63714692  0.81854970  1
  Al  Al28  1  0.18572972  0.18145030  0.81859622  1
