# generated using pymatgen
data_Tb3Ce
_symmetry_space_group_name_H-M   'P 1'
_cell_length_a   7.15793106
_cell_length_b   7.15793202
_cell_length_c   5.74122487
_cell_angle_alpha   90.00000000
_cell_angle_beta   90.00000000
_cell_angle_gamma   120.00000088
_symmetry_Int_Tables_number   1
_chemical_formula_structural   Tb3Ce
_chemical_formula_sum   'Tb6 Ce2'
_cell_volume   254.74769683
_cell_formula_units_Z   2
loop_
 _symmetry_equiv_pos_site_id
 _symmetry_equiv_pos_as_xyz
  1  'x, y, z'
loop_
 _atom_site_type_symbol
 _atom_site_label
 _atom_site_symmetry_multiplicity
 _atom_site_fract_x
 _atom_site_fract_y
 _atom_site_fract_z
 _atom_site_occupancy
  Tb  Tb0  1  0.16721803  0.33443606  0.25000000  1
  Tb  Tb1  1  0.66556494  0.83278097  0.25000000  1
  Tb  Tb2  1  0.16721603  0.83278097  0.25000000  1
  Tb  Tb3  1  0.83278197  0.66556594  0.75000100  1
  Tb  Tb4  1  0.33443406  0.16721703  0.75000100  1
  Tb  Tb5  1  0.83278297  0.16721703  0.75000100  1
  Ce  Ce6  1  0.33333400  0.66666800  0.75000100  1
  Ce  Ce7  1  0.66666700  0.33333200  0.25000000  1
