# generated using pymatgen
data_Ti4Cr
_symmetry_space_group_name_H-M   'P 1'
_cell_length_a   2.80395624
_cell_length_b   2.80395624
_cell_length_c   11.20923291
_cell_angle_alpha   85.70976886
_cell_angle_beta   85.70976886
_cell_angle_gamma   113.69589000
_symmetry_Int_Tables_number   1
_chemical_formula_structural   Ti4Cr
_chemical_formula_sum   'Ti4 Cr1'
_cell_volume   79.94024701
_cell_formula_units_Z   1
loop_
 _symmetry_equiv_pos_site_id
 _symmetry_equiv_pos_as_xyz
  1  'x, y, z'
loop_
 _atom_site_type_symbol
 _atom_site_label
 _atom_site_symmetry_multiplicity
 _atom_site_fract_x
 _atom_site_fract_y
 _atom_site_fract_z
 _atom_site_occupancy
  Ti  Ti0  1  0.41382671  0.41382671  0.17234658  1
  Ti  Ti1  1  0.80341170  0.80341170  0.39317660  1
  Ti  Ti2  1  0.19658830  0.19658830  0.60682340  1
  Ti  Ti3  1  0.58617329  0.58617329  0.82765342  1
  Cr  Cr4  1  0.00000000  0.00000000  0.00000000  1
