# generated using pymatgen
data_VAu3
_symmetry_space_group_name_H-M   'P 1'
_cell_length_a   5.85359940
_cell_length_b   5.85360002
_cell_length_c   4.69982327
_cell_angle_alpha   90.00000000
_cell_angle_beta   90.00000000
_cell_angle_gamma   120.00000302
_symmetry_Int_Tables_number   1
_chemical_formula_structural   VAu3
_chemical_formula_sum   'V2 Au6'
_cell_volume   139.46273779
_cell_formula_units_Z   2
loop_
 _symmetry_equiv_pos_site_id
 _symmetry_equiv_pos_as_xyz
  1  'x, y, z'
loop_
 _atom_site_type_symbol
 _atom_site_label
 _atom_site_symmetry_multiplicity
 _atom_site_fract_x
 _atom_site_fract_y
 _atom_site_fract_z
 _atom_site_occupancy
  V  V0  1  0.33333400  0.66666700  0.75000200  1
  V  V1  1  0.66666700  0.33333300  0.25000000  1
  Au  Au2  1  0.16936297  0.33872594  0.25000000  1
  Au  Au3  1  0.66127406  0.83063703  0.25000000  1
  Au  Au4  1  0.16936297  0.83063703  0.25000000  1
  Au  Au5  1  0.83063503  0.66127206  0.75000200  1
  Au  Au6  1  0.33872794  0.16936497  0.75000200  1
  Au  Au7  1  0.83063603  0.16936297  0.75000200  1
