# generated using pymatgen
data_Mg16TiAl12
_symmetry_space_group_name_H-M   'P 1'
_cell_length_a   8.82236403
_cell_length_b   9.12587462
_cell_length_c   9.12587554
_cell_angle_alpha   110.13510814
_cell_angle_beta   108.79888333
_cell_angle_gamma   108.79887861
_symmetry_Int_Tables_number   1
_chemical_formula_structural   Mg16TiAl12
_chemical_formula_sum   'Mg16 Ti1 Al12'
_cell_volume   570.22812440
_cell_formula_units_Z   1
loop_
 _symmetry_equiv_pos_site_id
 _symmetry_equiv_pos_as_xyz
  1  'x, y, z'
loop_
 _atom_site_type_symbol
 _atom_site_label
 _atom_site_symmetry_multiplicity
 _atom_site_fract_x
 _atom_site_fract_y
 _atom_site_fract_z
 _atom_site_occupancy
  Mg  Mg0  1  0.99602884  0.33969215  0.00000000  1
  Mg  Mg1  1  0.59940065  0.31916631  0.00000000  1
  Mg  Mg2  1  0.31555647  0.59475961  1.00000000  1
  Mg  Mg3  1  0.00534950  0.99999900  1.00000000  1
  Mg  Mg4  1  0.68770571  0.68661145  0.29186846  1
  Mg  Mg5  1  0.00109526  0.60525702  0.31338855  1
  Mg  Mg6  1  0.59940165  0.00000000  0.31916531  1
  Mg  Mg7  1  0.99602884  0.00000000  0.33969115  1
  Mg  Mg8  1  0.39583924  0.70813254  0.39474398  1
  Mg  Mg9  1  0.72079786  0.40524239  0.40524239  1
  Mg  Mg10  1  0.31555547  1.00000000  0.59475861  1
  Mg  Mg11  1  0.00109526  0.31338855  0.60525702  1
  Mg  Mg12  1  0.65633568  0.66030785  0.66030785  1
  Mg  Mg13  1  0.28023534  0.68083369  0.68083369  1
  Mg  Mg14  1  0.68770571  0.29186846  0.68661045  1
  Mg  Mg15  1  0.39583924  0.39474398  0.70813254  1
  Ti  Ti16  1  0.36136467  0.00000100  0.00000000  1
  Al  Al17  1  0.80965112  0.63226800  1.00000000  1
  Al  Al18  1  0.62569105  0.81796307  0.00000000  1
  Al  Al19  1  0.36654240  0.35784277  0.17734735  1
  Al  Al20  1  0.18919405  0.82265165  0.18049442  1
  Al  Al21  1  0.80772798  0.18203793  0.18203793  1
  Al  Al22  1  0.36654240  0.17734735  0.35784277  1
  Al  Al23  1  0.17738412  0.36773200  0.36773200  1
  Al  Al24  1  0.80965212  1.00000000  0.63226800  1
  Al  Al25  1  0.00869963  0.81950558  0.64215723  1
  Al  Al26  1  0.62569105  0.00000100  0.81796207  1
  Al  Al27  1  0.00869963  0.64215823  0.81950558  1
  Al  Al28  1  0.18919505  0.18049442  0.82265165  1
