# generated using pymatgen
data_Bi2O3
_symmetry_space_group_name_H-M   'P 1'
_cell_length_a   8.13244285
_cell_length_b   8.13244285
_cell_length_c   8.13244285
_cell_angle_alpha   60.00000000
_cell_angle_beta   60.00000000
_cell_angle_gamma   60.00000000
_symmetry_Int_Tables_number   1
_chemical_formula_structural   Bi2O3
_chemical_formula_sum   'Bi8 O12'
_cell_volume   380.31903539
_cell_formula_units_Z   4
loop_
 _symmetry_equiv_pos_site_id
 _symmetry_equiv_pos_as_xyz
  1  'x, y, z'
loop_
 _atom_site_type_symbol
 _atom_site_label
 _atom_site_symmetry_multiplicity
 _atom_site_fract_x
 _atom_site_fract_y
 _atom_site_fract_z
 _atom_site_occupancy
  Bi  Bi0  1  0.64209704  0.11930099  0.11930099  1
  Bi  Bi1  1  0.11930099  0.64209704  0.11930099  1
  Bi  Bi2  1  0.11930099  0.11930099  0.64209704  1
  Bi  Bi3  1  0.11930099  0.11930099  0.11930099  1
  Bi  Bi4  1  0.10790296  0.63069901  0.63069901  1
  Bi  Bi5  1  0.63069901  0.10790296  0.63069901  1
  Bi  Bi6  1  0.63069901  0.63069901  0.10790296  1
  Bi  Bi7  1  0.63069901  0.63069901  0.63069901  1
  O  O8  1  0.55090640  0.94909360  0.94909360  1
  O  O9  1  0.55090640  0.94909360  0.55090640  1
  O  O10  1  0.55090640  0.55090640  0.94909360  1
  O  O11  1  0.94909360  0.55090640  0.55090640  1
  O  O12  1  0.94909360  0.55090640  0.94909360  1
  O  O13  1  0.94909360  0.94909360  0.55090640  1
  O  O14  1  0.19909360  0.80090640  0.80090640  1
  O  O15  1  0.19909360  0.80090640  0.19909360  1
  O  O16  1  0.19909360  0.19909360  0.80090640  1
  O  O17  1  0.80090640  0.19909360  0.19909360  1
  O  O18  1  0.80090640  0.19909360  0.80090640  1
  O  O19  1  0.80090640  0.80090640  0.19909360  1
