# generated using pymatgen
data_FeH10S2(NO2)4
_symmetry_space_group_name_H-M   'P 1'
_cell_length_a   5.41458098
_cell_length_b   5.95367000
_cell_length_c   7.56683203
_cell_angle_alpha   91.32667375
_cell_angle_beta   105.15503147
_cell_angle_gamma   99.70424184
_symmetry_Int_Tables_number   1
_chemical_formula_structural   FeH10S2(NO2)4
_chemical_formula_sum   'Fe1 H10 S2 N4 O8'
_cell_volume   231.49680719
_cell_formula_units_Z   1
loop_
 _symmetry_equiv_pos_site_id
 _symmetry_equiv_pos_as_xyz
  1  'x, y, z'
loop_
 _atom_site_type_symbol
 _atom_site_label
 _atom_site_symmetry_multiplicity
 _atom_site_fract_x
 _atom_site_fract_y
 _atom_site_fract_z
 _atom_site_occupancy
  Fe  Fe0  1  0.00000000  0.00000000  -0.00000000  1
  H  H1  1  0.87157539  0.06134721  0.63286852  1
  H  H2  1  0.12842461  0.93865279  0.36713148  1
  H  H3  1  0.10910358  0.27358575  0.73315440  1
  H  H4  1  0.89089642  0.72641425  0.26684560  1
  H  H5  1  0.72861714  0.39729704  0.58185925  1
  H  H6  1  0.27138286  0.60270296  0.41814075  1
  H  H7  1  0.57326276  0.23266675  0.71702957  1
  H  H8  1  0.42673724  0.76733325  0.28297043  1
  H  H9  1  0.80733972  0.46264474  0.81396603  1
  H  H10  1  0.19266028  0.53735526  0.18603397  1
  S  S11  1  0.36814816  0.76151251  0.77902451  1
  S  S12  1  0.63185184  0.23848749  0.22097549  1
  N  N13  1  0.93624829  0.17884161  0.74391443  1
  N  N14  1  0.06375171  0.82115839  0.25608557  1
  N  N15  1  0.74996216  0.33170420  0.71216232  1
  N  N16  1  0.25003784  0.66829580  0.28783768  1
  O  O17  1  0.63913577  0.77316574  0.89974934  1
  O  O18  1  0.36086423  0.22683426  0.10025066  1
  O  O19  1  0.18197857  0.74118693  0.89624675  1
  O  O20  1  0.81802143  0.25881307  0.10375325  1
  O  O21  1  0.35050242  0.96698466  0.67215053  1
  O  O22  1  0.64949758  0.03301534  0.32784947  1
  O  O23  1  0.30135159  0.55215173  0.65110592  1
  O  O24  1  0.69864841  0.44784827  0.34889408  1
