# generated using pymatgen
data_Ti3H2O7
_symmetry_space_group_name_H-M   'P 1'
_cell_length_a   3.77764888
_cell_length_b   8.58046077
_cell_length_c   9.50731793
_cell_angle_alpha   100.02772277
_cell_angle_beta   90.00000000
_cell_angle_gamma   102.71672073
_symmetry_Int_Tables_number   1
_chemical_formula_structural   Ti3H2O7
_chemical_formula_sum   'Ti6 H4 O14'
_cell_volume   295.78258608
_cell_formula_units_Z   2
loop_
 _symmetry_equiv_pos_site_id
 _symmetry_equiv_pos_as_xyz
  1  'x, y, z'
loop_
 _atom_site_type_symbol
 _atom_site_label
 _atom_site_symmetry_multiplicity
 _atom_site_fract_x
 _atom_site_fract_y
 _atom_site_fract_z
 _atom_site_occupancy
  Ti  Ti0  1  0.23108099  0.46216198  0.21128329  1
  Ti  Ti1  1  0.76891901  0.53783802  0.78871671  1
  Ti  Ti2  1  0.17713094  0.35426189  0.50699722  1
  Ti  Ti3  1  0.82286906  0.64573811  0.49300278  1
  Ti  Ti4  1  0.12709143  0.25418286  0.83967423  1
  Ti  Ti5  1  0.87290857  0.74581714  0.16032577  1
  H  H6  1  0.97178376  0.94356752  0.40519205  1
  H  H7  1  0.02821624  0.05643248  0.59480795  1
  H  H8  1  0.03697482  0.07394964  0.19419575  1
  H  H9  1  0.96302518  0.92605036  0.80580425  1
  O  O10  1  0.17461371  0.34922743  0.03684736  1
  O  O11  1  0.82538629  0.65077257  0.96315264  1
  O  O12  1  0.13927961  0.27855922  0.32039772  1
  O  O13  1  0.86072039  0.72144078  0.67960228  1
  O  O14  1  0.08679797  0.17359594  0.60593470  1
  O  O15  1  0.91320203  0.82640406  0.39406530  1
  O  O16  1  0.02165858  0.04331716  0.84476835  1
  O  O17  1  0.97834142  0.95668284  0.15523165  1
  O  O18  1  0.34515423  0.69030847  0.17548400  1
  O  O19  1  0.65484577  0.30969153  0.82451600  1
  O  O20  1  0.29249421  0.58498843  0.46007021  1
  O  O21  1  0.70750579  0.41501157  0.53992979  1
  O  O22  1  0.23861705  0.47723411  0.74763311  1
  O  O23  1  0.76138295  0.52276589  0.25236689  1
