# generated using pymatgen
data_UFe5Co5Si2
_symmetry_space_group_name_H-M   'P 1'
_cell_length_a   4.82405629
_cell_length_b   6.21061654
_cell_length_c   6.20636449
_cell_angle_alpha   98.35077201
_cell_angle_beta   112.86976896
_cell_angle_gamma   67.14677584
_symmetry_Int_Tables_number   1
_chemical_formula_structural   UFe5Co5Si2
_chemical_formula_sum   'U1 Fe5 Co5 Si2'
_cell_volume   157.87558912
_cell_formula_units_Z   1
loop_
 _symmetry_equiv_pos_site_id
 _symmetry_equiv_pos_as_xyz
  1  'x, y, z'
loop_
 _atom_site_type_symbol
 _atom_site_label
 _atom_site_symmetry_multiplicity
 _atom_site_fract_x
 _atom_site_fract_y
 _atom_site_fract_z
 _atom_site_occupancy
  U  U0  1  0.00091974  0.99884399  0.00068348  1
  Fe  Fe1  1  0.49816078  0.00307382  0.49757992  1
  Fe  Fe2  1  -0.00365467  0.00307382  0.49757992  1
  Fe  Fe3  1  0.72192044  0.77684173  0.22068261  1
  Fe  Fe4  1  0.27946516  0.21871136  0.77764168  1
  Fe  Fe5  1  0.50103850  0.77405269  0.77612969  1
  Co  Co6  1  0.65579425  0.34804120  0.65962970  1
  Co  Co7  1  0.34419714  0.65433495  0.34272922  1
  Co  Co8  1  0.99633487  0.34907548  0.34174522  1
  Co  Co9  1  0.00436840  0.64930436  0.65804115  1
  Co  Co10  1  0.49732952  0.22969053  0.22434957  1
  Si  Si11  1  0.50161657  0.49747804  0.00160392  1
  Si  Si12  1  0.00250931  0.49747804  0.00160392  1
