# generated using pymatgen
data_La3InCoS7
_symmetry_space_group_name_H-M   'P 1'
_cell_length_a   6.25802940
_cell_length_b   10.14673044
_cell_length_c   10.14811687
_cell_angle_alpha   120.01115959
_cell_angle_beta   90.00000000
_cell_angle_gamma   90.00000000
_symmetry_Int_Tables_number   1
_chemical_formula_structural   La3InCoS7
_chemical_formula_sum   'La6 In2 Co2 S14'
_cell_volume   557.99584624
_cell_formula_units_Z   2
loop_
 _symmetry_equiv_pos_site_id
 _symmetry_equiv_pos_as_xyz
  1  'x, y, z'
loop_
 _atom_site_type_symbol
 _atom_site_label
 _atom_site_symmetry_multiplicity
 _atom_site_fract_x
 _atom_site_fract_y
 _atom_site_fract_z
 _atom_site_occupancy
  La  La0  1  0.19583092  0.85061313  0.22139708  1
  La  La1  1  0.19591203  0.77870691  0.62944112  1
  La  La2  1  0.19599069  0.37049679  0.14922858  1
  La  La3  1  0.69583092  0.14938687  0.77860292  1
  La  La4  1  0.69591203  0.22129309  0.37055888  1
  La  La5  1  0.69599069  0.62950321  0.85077142  1
  In  In6  1  0.12287556  0.33345016  0.66676623  1
  In  In7  1  0.62287556  0.66654984  0.33323377  1
  Co  Co8  1  0.50508561  0.00006997  0.99997733  1
  Co  Co9  1  0.00508561  0.99993003  0.00002267  1
  S  S10  1  0.26502331  0.12774677  0.21730050  1
  S  S11  1  0.26503052  0.78284163  0.91058264  1
  S  S12  1  0.26514168  0.08970744  0.87195774  1
  S  S13  1  0.76502331  0.87225323  0.78269950  1
  S  S14  1  0.76503052  0.21715837  0.08941736  1
  S  S15  1  0.76514168  0.91029256  0.12804226  1
  S  S16  1  0.45738141  0.56678457  0.07960990  1
  S  S17  1  0.45741504  0.92023034  0.48725963  1
  S  S18  1  0.45737231  0.51267149  0.43299974  1
  S  S19  1  0.95738141  0.43321543  0.92039010  1
  S  S20  1  0.95741504  0.07976966  0.51274037  1
  S  S21  1  0.95737231  0.48732851  0.56700026  1
  S  S22  1  0.50862093  0.33341367  0.66658109  1
  S  S23  1  0.00862093  0.66658633  0.33341891  1
