# generated using pymatgen
data_Zn3CuP2O9
_symmetry_space_group_name_H-M   'P 1'
_cell_length_a   6.40890120
_cell_length_b   6.40890120
_cell_length_c   9.51405776
_cell_angle_alpha   105.88601672
_cell_angle_beta   105.49674981
_cell_angle_gamma   101.36263728
_symmetry_Int_Tables_number   1
_chemical_formula_structural   Zn3CuP2O9
_chemical_formula_sum   'Zn6 Cu2 P4 O18'
_cell_volume   346.46479160
_cell_formula_units_Z   2
loop_
 _symmetry_equiv_pos_site_id
 _symmetry_equiv_pos_as_xyz
  1  'x, y, z'
loop_
 _atom_site_type_symbol
 _atom_site_label
 _atom_site_symmetry_multiplicity
 _atom_site_fract_x
 _atom_site_fract_y
 _atom_site_fract_z
 _atom_site_occupancy
  Zn  Zn0  1  0.29467444  0.48084334  0.16762856  1
  Zn  Zn1  1  0.68678522  0.87295411  0.16762856  1
  Zn  Zn2  1  0.70532556  0.51915666  0.83237144  1
  Zn  Zn3  1  0.31321478  0.12704589  0.83237144  1
  Zn  Zn4  1  0.15578258  0.95653147  0.11231405  1
  Zn  Zn5  1  0.84421742  0.04346853  0.88768595  1
  Cu  Cu6  1  0.19066076  0.69066076  0.50000000  1
  Cu  Cu7  1  0.80933924  0.30933924  0.50000000  1
  P  P8  1  0.70278152  0.79788333  0.50066486  1
  P  P9  1  0.29721848  0.20211667  0.49933514  1
  P  P10  1  0.76117972  0.38171358  0.14289330  1
  P  P11  1  0.23882028  0.61828642  0.85710670  1
  O  O12  1  0.17769799  0.17769799  -0.00000000  1
  O  O13  1  0.82230201  0.82230201  -0.00000000  1
  O  O14  1  0.73696131  0.93096821  0.66792952  1
  O  O15  1  0.26303869  0.06903179  0.33207048  1
  O  O16  1  0.75938261  0.96932246  0.41583015  1
  O  O17  1  0.44650769  0.65644755  0.41583015  1
  O  O18  1  0.24061739  0.03067754  0.58416985  1
  O  O19  1  0.55349231  0.34355245  0.58416985  1
  O  O20  1  0.85665010  0.63448919  0.49113929  1
  O  O21  1  0.14334990  0.36551081  0.50886071  1
  O  O22  1  0.62069163  0.54979190  0.17048354  1
  O  O23  1  0.37930837  0.45020810  0.82951646  1
  O  O24  1  0.01330452  0.51347756  0.21066716  1
  O  O25  1  0.69718960  0.19736264  0.21066716  1
  O  O26  1  0.98669548  0.48652244  0.78933284  1
  O  O27  1  0.30281040  0.80263736  0.78933284  1
  O  O28  1  0.68809172  0.26985672  0.95794843  1
  O  O29  1  0.31190828  0.73014328  0.04205157  1
