# generated using pymatgen
data_BaCr2AsO10
_symmetry_space_group_name_H-M   'P 1'
_cell_length_a   7.61627096
_cell_length_b   8.22793226
_cell_length_c   8.15894590
_cell_angle_alpha   62.13270196
_cell_angle_beta   79.09244089
_cell_angle_gamma   91.02873569
_symmetry_Int_Tables_number   1
_chemical_formula_structural   BaCr2AsO10
_chemical_formula_sum   'Ba2 Cr4 As2 O20'
_cell_volume   440.48416215
_cell_formula_units_Z   2
loop_
 _symmetry_equiv_pos_site_id
 _symmetry_equiv_pos_as_xyz
  1  'x, y, z'
loop_
 _atom_site_type_symbol
 _atom_site_label
 _atom_site_symmetry_multiplicity
 _atom_site_fract_x
 _atom_site_fract_y
 _atom_site_fract_z
 _atom_site_occupancy
  Ba  Ba0  1  0.25187852  0.71835248  0.86063495  1
  Ba  Ba1  1  0.74812148  0.28164752  0.13936505  1
  Cr  Cr2  1  0.40892581  0.80773220  0.28343272  1
  Cr  Cr3  1  0.59107419  0.19226780  0.71656728  1
  Cr  Cr4  1  0.21751656  0.25946246  0.38315517  1
  Cr  Cr5  1  0.78248344  0.74053754  0.61684483  1
  As  As6  1  0.16655080  0.27416918  0.76988194  1
  As  As7  1  0.83344920  0.72583082  0.23011806  1
  O  O8  1  0.07247215  0.39363197  0.87526509  1
  O  O9  1  0.92752785  0.60636803  0.12473491  1
  O  O10  1  0.10649119  0.03742163  0.87785111  1
  O  O11  1  0.89350881  0.96257837  0.12214889  1
  O  O12  1  0.40167027  0.31286114  0.74564078  1
  O  O13  1  0.59832973  0.68713886  0.25435922  1
  O  O14  1  0.14379773  0.36663030  0.53252804  1
  O  O15  1  0.85620227  0.63336970  0.46747196  1
  O  O16  1  0.32467587  0.73430828  0.50952238  1
  O  O17  1  0.67532413  0.26569172  0.49047762  1
  O  O18  1  0.25607265  0.76202245  0.19140318  1
  O  O19  1  0.74392735  0.23797755  0.80859682  1
  O  O20  1  0.47101141  0.03033816  0.17735425  1
  O  O21  1  0.52898859  0.96966184  0.82264575  1
  O  O22  1  0.36063135  0.40698369  0.18616087  1
  O  O23  1  0.63936865  0.59301631  0.81383913  1
  O  O24  1  0.04689064  0.18987723  0.32934495  1
  O  O25  1  0.95310936  0.81012277  0.67065505  1
  O  O26  1  0.31791770  0.08534852  0.50930062  1
  O  O27  1  0.68208230  0.91465148  0.49069938  1
