# generated using pymatgen
data_TbBiTe3
_symmetry_space_group_name_H-M   'P 1'
_cell_length_a   4.41530930
_cell_length_b   4.41530930
_cell_length_c   10.84726019
_cell_angle_alpha   78.25701820
_cell_angle_beta   78.25701820
_cell_angle_gamma   60.00000627
_symmetry_Int_Tables_number   1
_chemical_formula_structural   TbBiTe3
_chemical_formula_sum   'Tb1 Bi1 Te3'
_cell_volume   178.00673980
_cell_formula_units_Z   1
loop_
 _symmetry_equiv_pos_site_id
 _symmetry_equiv_pos_as_xyz
  1  'x, y, z'
loop_
 _atom_site_type_symbol
 _atom_site_label
 _atom_site_symmetry_multiplicity
 _atom_site_fract_x
 _atom_site_fract_y
 _atom_site_fract_z
 _atom_site_occupancy
  Tb  Tb0  1  0.60144051  0.60144051  0.19567847  1
  Bi  Bi1  1  0.39934009  0.39934009  0.80197972  1
  Te  Te2  1  0.99633333  0.99633333  0.01100000  1
  Te  Te3  1  0.78634033  0.78634033  0.64097902  1
  Te  Te4  1  0.21654573  0.21654573  0.35036280  1
