# generated using pymatgen
data_CoH6(CO3)2
_symmetry_space_group_name_H-M   'P 1'
_cell_length_a   5.53328866
_cell_length_b   9.85240525
_cell_length_c   15.32640486
_cell_angle_alpha   105.46095500
_cell_angle_beta   90.00000000
_cell_angle_gamma   90.00000000
_symmetry_Int_Tables_number   1
_chemical_formula_structural   CoH6(CO3)2
_chemical_formula_sum   'Co6 H36 C12 O36'
_cell_volume   805.30124664
_cell_formula_units_Z   6
loop_
 _symmetry_equiv_pos_site_id
 _symmetry_equiv_pos_as_xyz
  1  'x, y, z'
loop_
 _atom_site_type_symbol
 _atom_site_label
 _atom_site_symmetry_multiplicity
 _atom_site_fract_x
 _atom_site_fract_y
 _atom_site_fract_z
 _atom_site_occupancy
  Co  Co0  1  0.62068546  0.04104221  0.17934000  1
  Co  Co1  1  0.12068546  0.95895779  0.32066000  1
  Co  Co2  1  0.37931454  0.95895779  0.82066000  1
  Co  Co3  1  0.87931454  0.04104221  0.67934000  1
  Co  Co4  1  0.50000000  0.50000000  0.50000000  1
  Co  Co5  1  0.00000000  0.50000000  0.00000000  1
  H  H6  1  0.74549297  0.17496592  0.05591333  1
  H  H7  1  0.24549297  0.82503408  0.44408667  1
  H  H8  1  0.25450703  0.82503408  0.94408667  1
  H  H9  1  0.75450703  0.17496592  0.55591333  1
  H  H10  1  0.72921166  0.01397552  0.99740273  1
  H  H11  1  0.22921166  0.98602448  0.50259727  1
  H  H12  1  0.27078834  0.98602448  0.00259727  1
  H  H13  1  0.77078834  0.01397552  0.49740273  1
  H  H14  1  0.14519414  0.05285516  0.15887699  1
  H  H15  1  0.64519414  0.94714484  0.34112301  1
  H  H16  1  0.85480586  0.94714484  0.84112301  1
  H  H17  1  0.35480586  0.05285516  0.65887699  1
  H  H18  1  0.25222292  0.20382140  0.16112047  1
  H  H19  1  0.75222292  0.79617860  0.33887953  1
  H  H20  1  0.74777708  0.79617860  0.83887953  1
  H  H21  1  0.24777708  0.20382140  0.66112047  1
  H  H22  1  0.59861603  0.17864615  0.42268059  1
  H  H23  1  0.09861603  0.82135385  0.07731941  1
  H  H24  1  0.40138397  0.82135385  0.57731941  1
  H  H25  1  0.90138397  0.17864615  0.92268059  1
  H  H26  1  0.06970442  0.62635554  0.47190636  1
  H  H27  1  0.56970442  0.37364446  0.02809364  1
  H  H28  1  0.93029558  0.37364446  0.52809364  1
  H  H29  1  0.43029558  0.62635554  0.97190636  1
  H  H30  1  0.20554656  0.56134839  0.37998407  1
  H  H31  1  0.70554656  0.43865161  0.12001593  1
  H  H32  1  0.79445344  0.43865161  0.62001593  1
  H  H33  1  0.29445344  0.56134839  0.87998407  1
  H  H34  1  0.14192207  0.45693185  0.20296488  1
  H  H35  1  0.64192207  0.54306815  0.29703512  1
  H  H36  1  0.85807793  0.54306815  0.79703512  1
  H  H37  1  0.35807793  0.45693185  0.70296488  1
  H  H38  1  0.98824725  0.35863725  0.24756614  1
  H  H39  1  0.48824725  0.64136275  0.25243386  1
  H  H40  1  0.01175275  0.64136275  0.75243386  1
  H  H41  1  0.51175275  0.35863725  0.74756614  1
  C  C42  1  0.47741574  0.18466999  0.36623424  1
  C  C43  1  0.97741574  0.81533001  0.13376576  1
  C  C44  1  0.52258426  0.81533001  0.63376576  1
  C  C45  1  0.02258426  0.18466999  0.86623424  1
  C  C46  1  0.60649076  0.29230651  0.32517476  1
  C  C47  1  0.10649076  0.70769349  0.17482524  1
  C  C48  1  0.39350924  0.70769349  0.67482524  1
  C  C49  1  0.89350924  0.29230651  0.82517476  1
  C  C50  1  0.23506105  0.23877368  0.41294281  1
  C  C51  1  0.73506105  0.76122632  0.08705719  1
  C  C52  1  0.76493895  0.76122632  0.58705719  1
  C  C53  1  0.26493895  0.23877368  0.91294281  1
  O  O54  1  0.76446157  0.07633077  0.05782179  1
  O  O55  1  0.26446157  0.92366923  0.44217821  1
  O  O56  1  0.23553843  0.92366923  0.94217821  1
  O  O57  1  0.73553843  0.07633077  0.55782179  1
  O  O58  1  0.27812574  0.10203971  0.13360158  1
  O  O59  1  0.77812574  0.89796029  0.36639842  1
  O  O60  1  0.72187426  0.89796029  0.86639842  1
  O  O61  1  0.22187426  0.10203971  0.63360158  1
  O  O62  1  0.45487372  0.05164648  0.30377808  1
  O  O63  1  0.95487372  0.94835352  0.19622192  1
  O  O64  1  0.54512628  0.94835352  0.69622192  1
  O  O65  1  0.04512628  0.05164648  0.80377808  1
  O  O66  1  0.70063221  0.24814130  0.24742893  1
  O  O67  1  0.20063221  0.75185870  0.25257107  1
  O  O68  1  0.29936779  0.75185870  0.75257107  1
  O  O69  1  0.79936779  0.24814130  0.74742893  1
  O  O70  1  0.62596855  0.42032274  0.37144476  1
  O  O71  1  0.12596855  0.57967726  0.12855524  1
  O  O72  1  0.37403145  0.57967726  0.62855524  1
  O  O73  1  0.87403145  0.42032274  0.87144476  1
  O  O74  1  0.04982815  0.16292498  0.39117132  1
  O  O75  1  0.54982815  0.83707502  0.10882868  1
  O  O76  1  0.95017185  0.83707502  0.60882868  1
  O  O77  1  0.45017185  0.16292498  0.89117132  1
  O  O78  1  0.22839243  0.35503211  0.47542695  1
  O  O79  1  0.72839243  0.64496789  0.02457305  1
  O  O80  1  0.77160757  0.64496789  0.52457305  1
  O  O81  1  0.27160757  0.35503211  0.97542695  1
  O  O82  1  0.22841907  0.62580514  0.44068025  1
  O  O83  1  0.72841907  0.37419486  0.05931975  1
  O  O84  1  0.77158093  0.37419486  0.55931975  1
  O  O85  1  0.27158093  0.62580514  0.94068025  1
  O  O86  1  0.15422444  0.39222554  0.24224770  1
  O  O87  1  0.65422444  0.60777446  0.25775230  1
  O  O88  1  0.84577556  0.60777446  0.75775230  1
  O  O89  1  0.34577556  0.39222554  0.74224770  1
