# generated using pymatgen
data_Ta(PO4)2
_symmetry_space_group_name_H-M   'P 1'
_cell_length_a   5.29691882
_cell_length_b   8.04644944
_cell_length_c   15.95807276
_cell_angle_alpha   90.00000000
_cell_angle_beta   90.00000000
_cell_angle_gamma   90.00000000
_symmetry_Int_Tables_number   1
_chemical_formula_structural   Ta(PO4)2
_chemical_formula_sum   'Ta4 P8 O32'
_cell_volume   680.15523434
_cell_formula_units_Z   4
loop_
 _symmetry_equiv_pos_site_id
 _symmetry_equiv_pos_as_xyz
  1  'x, y, z'
loop_
 _atom_site_type_symbol
 _atom_site_label
 _atom_site_symmetry_multiplicity
 _atom_site_fract_x
 _atom_site_fract_y
 _atom_site_fract_z
 _atom_site_occupancy
  Ta  Ta0  1  0.25000000  0.47412471  0.64215188  1
  Ta  Ta1  1  0.25000000  0.02587529  0.14215188  1
  Ta  Ta2  1  0.75000000  0.52587529  0.35784812  1
  Ta  Ta3  1  0.75000000  0.97412471  0.85784812  1
  P  P4  1  0.75000000  0.28412104  0.54267446  1
  P  P5  1  0.75000000  0.21587896  0.04267446  1
  P  P6  1  0.25000000  0.71587896  0.45732554  1
  P  P7  1  0.25000000  0.78412104  0.95732554  1
  P  P8  1  0.25000000  0.24333597  0.82808072  1
  P  P9  1  0.25000000  0.25666403  0.32808072  1
  P  P10  1  0.75000000  0.75666403  0.17191928  1
  P  P11  1  0.75000000  0.74333597  0.67191928  1
  O  O12  1  0.98421604  0.32498217  0.59796424  1
  O  O13  1  0.51578396  0.17501783  0.09796424  1
  O  O14  1  0.48421604  0.67501783  0.40203576  1
  O  O15  1  0.01578396  0.82498217  0.90203576  1
  O  O16  1  0.01578396  0.67501783  0.40203576  1
  O  O17  1  0.48421604  0.82498217  0.90203576  1
  O  O18  1  0.51578396  0.32498217  0.59796424  1
  O  O19  1  0.98421604  0.17501783  0.09796424  1
  O  O20  1  0.25000000  0.59289163  0.53247651  1
  O  O21  1  0.25000000  0.90710837  0.03247651  1
  O  O22  1  0.75000000  0.40710837  0.46752349  1
  O  O23  1  0.75000000  0.09289163  0.96752349  1
  O  O24  1  0.75000000  0.10693659  0.50980063  1
  O  O25  1  0.75000000  0.39306341  0.00980063  1
  O  O26  1  0.25000000  0.89306341  0.49019937  1
  O  O27  1  0.25000000  0.60693659  0.99019937  1
  O  O28  1  0.25000000  0.35817265  0.74938807  1
  O  O29  1  0.25000000  0.14182735  0.24938807  1
  O  O30  1  0.75000000  0.64182735  0.25061193  1
  O  O31  1  0.75000000  0.85817265  0.75061193  1
  O  O32  1  0.98604293  0.62839888  0.68205305  1
  O  O33  1  0.51395707  0.87160112  0.18205305  1
  O  O34  1  0.48604293  0.37160112  0.31794695  1
  O  O35  1  0.01395707  0.12839888  0.81794695  1
  O  O36  1  0.01395707  0.37160112  0.31794695  1
  O  O37  1  0.48604293  0.12839888  0.81794695  1
  O  O38  1  0.51395707  0.62839888  0.68205305  1
  O  O39  1  0.98604293  0.87160112  0.18205305  1
  O  O40  1  0.25000000  0.33324824  0.91044064  1
  O  O41  1  0.25000000  0.16675176  0.41044064  1
  O  O42  1  0.75000000  0.66675176  0.08955936  1
  O  O43  1  0.75000000  0.83324824  0.58955936  1
