# generated using pymatgen
data_Fe25Mo4
_symmetry_space_group_name_H-M   'P 1'
_cell_length_a   7.66143627
_cell_length_b   7.66143627
_cell_length_c   7.66143627
_cell_angle_alpha   109.47122063
_cell_angle_beta   109.47122063
_cell_angle_gamma   109.47122063
_symmetry_Int_Tables_number   1
_chemical_formula_structural   Fe25Mo4
_chemical_formula_sum   'Fe25 Mo4'
_cell_volume   346.18535252
_cell_formula_units_Z   1
loop_
 _symmetry_equiv_pos_site_id
 _symmetry_equiv_pos_as_xyz
  1  'x, y, z'
loop_
 _atom_site_type_symbol
 _atom_site_label
 _atom_site_symmetry_multiplicity
 _atom_site_fract_x
 _atom_site_fract_y
 _atom_site_fract_z
 _atom_site_occupancy
  Fe  Fe0  1  0.00000000  -0.00000000  -0.00000000  1
  Fe  Fe1  1  0.40457461  0.67895123  0.00000000  1
  Fe  Fe2  1  0.72562338  0.32104877  0.32104877  1
  Fe  Fe3  1  0.40457461  0.00000000  0.67895123  1
  Fe  Fe4  1  0.67895123  0.40457461  -0.00000000  1
  Fe  Fe5  1  -0.00000000  0.40457461  0.67895123  1
  Fe  Fe6  1  0.32104877  0.72562338  0.32104877  1
  Fe  Fe7  1  0.32104877  0.32104877  0.72562338  1
  Fe  Fe8  1  -0.00000000  0.67895123  0.40457461  1
  Fe  Fe9  1  0.67895123  0.00000000  0.40457461  1
  Fe  Fe10  1  0.59542539  0.59542539  0.27437662  1
  Fe  Fe11  1  0.27437662  0.59542539  0.59542539  1
  Fe  Fe12  1  0.59542539  0.27437662  0.59542539  1
  Fe  Fe13  1  0.37556411  0.18905018  0.00000000  1
  Fe  Fe14  1  0.18651394  0.81094982  0.81094982  1
  Fe  Fe15  1  0.37556411  -0.00000000  0.18905018  1
  Fe  Fe16  1  0.18905018  0.37556411  -0.00000000  1
  Fe  Fe17  1  -0.00000000  0.37556411  0.18905018  1
  Fe  Fe18  1  0.81094982  0.18651394  0.81094982  1
  Fe  Fe19  1  0.81094982  0.81094982  0.18651394  1
  Fe  Fe20  1  -0.00000000  0.18905018  0.37556411  1
  Fe  Fe21  1  0.18905018  -0.00000000  0.37556411  1
  Fe  Fe22  1  0.62443589  0.62443589  0.81348606  1
  Fe  Fe23  1  0.81348606  0.62443589  0.62443589  1
  Fe  Fe24  1  0.62443589  0.81348606  0.62443589  1
  Mo  Mo25  1  0.63376741  0.00000000  0.00000000  1
  Mo  Mo26  1  -0.00000000  0.63376741  -0.00000000  1
  Mo  Mo27  1  -0.00000000  -0.00000000  0.63376741  1
  Mo  Mo28  1  0.36623259  0.36623259  0.36623259  1
