# generated using pymatgen
data_YB3H18C2S
_symmetry_space_group_name_H-M   'P 1'
_cell_length_a   5.52763363
_cell_length_b   8.27757529
_cell_length_c   22.54731587
_cell_angle_alpha   90.00000000
_cell_angle_beta   90.00000000
_cell_angle_gamma   100.71659934
_symmetry_Int_Tables_number   1
_chemical_formula_structural   YB3H18C2S
_chemical_formula_sum   'Y4 B12 H72 C8 S4'
_cell_volume   1013.66829143
_cell_formula_units_Z   4
loop_
 _symmetry_equiv_pos_site_id
 _symmetry_equiv_pos_as_xyz
  1  'x, y, z'
loop_
 _atom_site_type_symbol
 _atom_site_label
 _atom_site_symmetry_multiplicity
 _atom_site_fract_x
 _atom_site_fract_y
 _atom_site_fract_z
 _atom_site_occupancy
  Y  Y0  1  0.32354984  0.38189147  0.83370196  1
  Y  Y1  1  0.67645016  0.11810853  0.33370196  1
  Y  Y2  1  0.67645016  0.61810853  0.16629804  1
  Y  Y3  1  0.32354984  0.88189147  0.66629804  1
  B  B4  1  0.83664345  0.93185349  0.66693108  1
  B  B5  1  0.16335655  0.56814651  0.16693108  1
  B  B6  1  0.16335655  0.06814651  0.33306892  1
  B  B7  1  0.83664345  0.43185349  0.83306892  1
  B  B8  1  0.19566808  0.69378582  0.58162360  1
  B  B9  1  0.80433192  0.80621418  0.08162360  1
  B  B10  1  0.80433192  0.30621418  0.41837640  1
  B  B11  1  0.19566808  0.19378582  0.91837640  1
  B  B12  1  0.67977662  0.37722630  0.25504642  1
  B  B13  1  0.32022338  0.12277370  0.75504642  1
  B  B14  1  0.32022338  0.62277370  0.74495358  1
  B  B15  1  0.67977662  0.87722630  0.24495358  1
  H  H16  1  0.72721197  0.02209921  0.69590589  1
  H  H17  1  0.27278803  0.47790079  0.19590589  1
  H  H18  1  0.27278803  0.97790079  0.30409411  1
  H  H19  1  0.72721197  0.52209921  0.80409411  1
  H  H20  1  0.70245175  0.84085619  0.63251679  1
  H  H21  1  0.29754825  0.65914381  0.13251679  1
  H  H22  1  0.29754825  0.15914381  0.36748321  1
  H  H23  1  0.70245175  0.34085619  0.86748321  1
  H  H24  1  0.92291190  0.84568987  0.70265084  1
  H  H25  1  0.07708810  0.65431013  0.20265084  1
  H  H26  1  0.07708810  0.15431013  0.29734916  1
  H  H27  1  0.92291190  0.34568987  0.79734916  1
  H  H28  1  -0.00293073  0.01880676  0.63697958  1
  H  H29  1  0.00293073  0.48119324  0.13697958  1
  H  H30  1  0.00293073  0.98119324  0.36302042  1
  H  H31  1  -0.00293073  0.51880676  0.86302042  1
  H  H32  1  0.11039322  0.61928558  0.53828973  1
  H  H33  1  0.88960678  0.88071442  0.03828973  1
  H  H34  1  0.88960678  0.38071442  0.46171027  1
  H  H35  1  0.11039322  0.11928558  0.96171027  1
  H  H36  1  0.03683330  0.69425109  0.62041125  1
  H  H37  1  0.96316670  0.80574891  0.12041125  1
  H  H38  1  0.96316670  0.30574891  0.37958875  1
  H  H39  1  0.03683330  0.19425109  0.87958875  1
  H  H40  1  0.27580965  0.84043702  0.56878774  1
  H  H41  1  0.72419035  0.65956298  0.06878774  1
  H  H42  1  0.72419035  0.15956298  0.43121226  1
  H  H43  1  0.27580965  0.34043702  0.93121226  1
  H  H44  1  0.36821420  0.64198177  0.60500901  1
  H  H45  1  0.63178580  0.85801823  0.10500901  1
  H  H46  1  0.63178580  0.35801823  0.39499099  1
  H  H47  1  0.36821420  0.14198177  0.89499099  1
  H  H48  1  0.86422669  0.31966962  0.26634616  1
  H  H49  1  0.13577331  0.18033038  0.76634616  1
  H  H50  1  0.13577331  0.68033038  0.73365384  1
  H  H51  1  0.86422669  0.81966962  0.23365384  1
  H  H52  1  0.63030936  0.34909402  0.20245758  1
  H  H53  1  0.36969064  0.15090598  0.70245758  1
  H  H54  1  0.36969064  0.65090598  0.79754242  1
  H  H55  1  0.63030936  0.84909402  0.29754242  1
  H  H56  1  0.72606567  0.52481368  0.26670170  1
  H  H57  1  0.27393433  0.97518632  0.76670170  1
  H  H58  1  0.27393433  0.47518632  0.73329830  1
  H  H59  1  0.72606567  0.02481368  0.23329830  1
  H  H60  1  0.49809691  0.31468233  0.28422377  1
  H  H61  1  0.50190309  0.18531767  0.78422377  1
  H  H62  1  0.50190309  0.68531767  0.71577623  1
  H  H63  1  0.49809691  0.81468233  0.21577623  1
  H  H64  1  0.17779025  0.08077802  0.51372341  1
  H  H65  1  0.82220975  0.41922198  0.01372341  1
  H  H66  1  0.82220975  0.91922198  0.48627659  1
  H  H67  1  0.17779025  0.58077802  0.98627659  1
  H  H68  1  0.13568005  0.24330065  0.56307516  1
  H  H69  1  0.86431995  0.25669935  0.06307516  1
  H  H70  1  0.86431995  0.75669935  0.43692484  1
  H  H71  1  0.13568005  0.74330065  0.93692484  1
  H  H72  1  0.34646709  0.28389394  0.50168272  1
  H  H73  1  0.65353291  0.21610606  0.00168272  1
  H  H74  1  0.65353291  0.71610606  0.49831728  1
  H  H75  1  0.34646709  0.78389394  0.99831728  1
  H  H76  1  0.78287552  0.31869413  0.64361894  1
  H  H77  1  0.21712448  0.18130587  0.14361894  1
  H  H78  1  0.21712448  0.68130587  0.35638106  1
  H  H79  1  0.78287552  0.81869413  0.85638106  1
  H  H80  1  0.71442513  0.42473066  0.57829275  1
  H  H81  1  0.28557487  0.07526934  0.07829275  1
  H  H82  1  0.28557487  0.57526934  0.42170725  1
  H  H83  1  0.71442513  0.92473066  0.92170725  1
  H  H84  1  0.49302700  0.38476333  0.63768166  1
  H  H85  1  0.50697300  0.11523667  0.13768166  1
  H  H86  1  0.50697300  0.61523667  0.36231834  1
  H  H87  1  0.49302700  0.88476333  0.86231834  1
  C  C88  1  0.26860173  0.19406123  0.53555367  1
  C  C89  1  0.73139827  0.30593877  0.03555367  1
  C  C90  1  0.73139827  0.80593877  0.46444633  1
  C  C91  1  0.26860173  0.69406123  0.96444633  1
  C  C92  1  0.63651731  0.33766771  0.61306653  1
  C  C93  1  0.36348269  0.16233229  0.11306653  1
  C  C94  1  0.36348269  0.66233229  0.38693347  1
  C  C95  1  0.63651731  0.83766771  0.88693347  1
  S  S96  1  0.51523497  0.14123475  0.57958891  1
  S  S97  1  0.48476503  0.35876525  0.07958891  1
  S  S98  1  0.48476503  0.85876525  0.42041109  1
  S  S99  1  0.51523497  0.64123475  0.92041109  1
