# generated using pymatgen
data_Mn5P4(H3O10)2
_symmetry_space_group_name_H-M   'P 1'
_cell_length_a   9.18627170
_cell_length_b   9.32478238
_cell_length_c   9.93852076
_cell_angle_alpha   98.46039642
_cell_angle_beta   117.52624842
_cell_angle_gamma   89.99999988
_symmetry_Int_Tables_number   1
_chemical_formula_structural   Mn5P4(H3O10)2
_chemical_formula_sum   'Mn10 P8 H12 O40'
_cell_volume   744.49925048
_cell_formula_units_Z   2
loop_
 _symmetry_equiv_pos_site_id
 _symmetry_equiv_pos_as_xyz
  1  'x, y, z'
loop_
 _atom_site_type_symbol
 _atom_site_label
 _atom_site_symmetry_multiplicity
 _atom_site_fract_x
 _atom_site_fract_y
 _atom_site_fract_z
 _atom_site_occupancy
  Mn  Mn0  1  0.15485024  0.88374259  0.35919839  1
  Mn  Mn1  1  0.79565184  0.61625741  0.64080161  1
  Mn  Mn2  1  0.84514976  0.11625741  0.64080161  1
  Mn  Mn3  1  0.20434816  0.38374259  0.35919839  1
  Mn  Mn4  1  0.77204647  0.82389393  0.38714108  1
  Mn  Mn5  1  0.38490540  0.67610607  0.61285892  1
  Mn  Mn6  1  0.22795353  0.17610607  0.61285892  1
  Mn  Mn7  1  0.61509460  0.32389393  0.38714108  1
  Mn  Mn8  1  0.10007166  0.75000000  0.00000000  1
  Mn  Mn9  1  0.89992834  0.25000000  1.00000000  1
  P  P10  1  0.90177328  0.13794904  0.32134450  1
  P  P11  1  0.58042878  0.36205096  0.67865550  1
  P  P12  1  0.09822672  0.86205096  0.67865550  1
  P  P13  1  0.41957122  0.63794904  0.32134450  1
  P  P14  1  0.89987508  0.60590989  0.17533911  1
  P  P15  1  0.72453597  0.89409011  0.82466089  1
  P  P16  1  0.10012492  0.39409011  0.82466089  1
  P  P17  1  0.27546403  0.10590989  0.17533911  1
  H  H18  1  0.70237596  0.48872066  0.95457688  1
  H  H19  1  0.74779908  0.01127934  0.04542312  1
  H  H20  1  0.29762404  0.51127934  0.04542312  1
  H  H21  1  0.25220092  0.98872066  0.95457688  1
  H  H22  1  0.48664433  0.77851095  0.14150330  1
  H  H23  1  0.34514103  0.72148905  0.85849670  1
  H  H24  1  0.51335567  0.22148905  0.85849670  1
  H  H25  1  0.65485897  0.27851095  0.14150330  1
  H  H26  1  0.60629479  0.85215503  0.08399729  1
  H  H27  1  0.52229750  0.64784497  0.91600271  1
  H  H28  1  0.39370521  0.14784497  0.91600271  1
  H  H29  1  0.47770250  0.35215503  0.08399729  1
  O  O30  1  0.93747086  0.97351586  0.33108093  1
  O  O31  1  0.60638993  0.52648414  0.66891907  1
  O  O32  1  0.06252914  0.02648414  0.66891907  1
  O  O33  1  0.39361007  0.47351586  0.33108093  1
  O  O34  1  0.80879709  0.16110061  0.14979478  1
  O  O35  1  0.65900231  0.33889939  0.85020522  1
  O  O36  1  0.19120291  0.83889939  0.85020522  1
  O  O37  1  0.34099769  0.66110061  0.14979478  1
  O  O38  1  0.80201345  0.18141472  0.40561696  1
  O  O39  1  0.39639649  0.31858528  0.59438304  1
  O  O40  1  0.19798655  0.81858528  0.59438304  1
  O  O41  1  0.60360351  0.68141472  0.40561696  1
  O  O42  1  0.07099761  0.22919830  0.40359120  1
  O  O43  1  0.66740641  0.27080170  0.59640880  1
  O  O44  1  0.92900239  0.77080170  0.59640880  1
  O  O45  1  0.33259359  0.72919830  0.40359120  1
  O  O46  1  0.01726411  0.72305542  0.16804542  1
  O  O47  1  0.84921868  0.77694458  0.83195458  1
  O  O48  1  0.98273589  0.27694458  0.83195458  1
  O  O49  1  0.15078132  0.22305542  0.16804542  1
  O  O50  1  0.86652528  0.66201545  0.30851533  1
  O  O51  1  0.55800995  0.83798455  0.69148467  1
  O  O52  1  0.13347472  0.33798455  0.69148467  1
  O  O53  1  0.44199005  0.16201545  0.30851533  1
  O  O54  1  0.72912236  0.58926908  0.02097569  1
  O  O55  1  0.70814667  0.91073092  0.97902431  1
  O  O56  1  0.27087764  0.41073092  0.97902431  1
  O  O57  1  0.29185333  0.08926908  0.02097569  1
  O  O58  1  0.97180339  0.45514005  0.17751246  1
  O  O59  1  0.79429093  0.04485995  0.82248754  1
  O  O60  1  0.02819661  0.54485995  0.82248754  1
  O  O61  1  0.20570907  0.95514005  0.17751246  1
  O  O62  1  0.29161268  0.03451988  0.50385817  1
  O  O63  1  0.78775451  0.46548012  0.49614183  1
  O  O64  1  0.70838732  0.96548012  0.49614183  1
  O  O65  1  0.21224549  0.53451988  0.50385817  1
  O  O66  1  0.58109961  0.84988212  0.17018190  1
  O  O67  1  0.41091771  0.65011788  0.82981810  1
  O  O68  1  0.41890039  0.15011788  0.82981810  1
  O  O69  1  0.58908229  0.34988212  0.17018190  1
