# generated using pymatgen
data_TbFe10Mo2N
_symmetry_space_group_name_H-M   'P 1'
_cell_length_a   4.77082742
_cell_length_b   6.56227865
_cell_length_c   6.56227865
_cell_angle_alpha   97.88096738
_cell_angle_beta   111.31553751
_cell_angle_gamma   68.68446249
_symmetry_Int_Tables_number   1
_chemical_formula_structural   TbFe10Mo2N
_chemical_formula_sum   'Tb1 Fe10 Mo2 N1'
_cell_volume   178.29864025
_cell_formula_units_Z   1
loop_
 _symmetry_equiv_pos_site_id
 _symmetry_equiv_pos_as_xyz
  1  'x, y, z'
loop_
 _atom_site_type_symbol
 _atom_site_label
 _atom_site_symmetry_multiplicity
 _atom_site_fract_x
 _atom_site_fract_y
 _atom_site_fract_z
 _atom_site_occupancy
  Tb  Tb0  1  -0.00000000  0.00000000  -0.00000000  1
  Fe  Fe1  1  0.71985023  0.78014977  0.21985023  1
  Fe  Fe2  1  0.28014977  0.21985023  0.78014977  1
  Fe  Fe3  1  0.50000000  0.77932855  0.77932855  1
  Fe  Fe4  1  0.50000000  0.22067145  0.22067145  1
  Fe  Fe5  1  0.50000000  0.00000000  0.50000000  1
  Fe  Fe6  1  -0.00000000  0.00000000  0.50000000  1
  Fe  Fe7  1  0.50000000  0.50000000  -0.00000000  1
  Fe  Fe8  1  -0.00000000  0.50000000  -0.00000000  1
  Fe  Fe9  1  0.64036697  0.35963303  0.64036697  1
  Fe  Fe10  1  0.35963303  0.64036697  0.35963303  1
  Mo  Mo11  1  -0.00000000  0.35858999  0.35858999  1
  Mo  Mo12  1  -0.00000000  0.64141001  0.64141001  1
  N  N13  1  0.50000000  0.00000000  -0.00000000  1
