# generated using pymatgen
data_U2H12C2S3(NO8)2
_symmetry_space_group_name_H-M   'P 1'
_cell_length_a   8.76347115
_cell_length_b   9.95996361
_cell_length_c   9.98595530
_cell_angle_alpha   90.19703099
_cell_angle_beta   95.90850529
_cell_angle_gamma   89.84012235
_symmetry_Int_Tables_number   1
_chemical_formula_structural   U2H12C2S3(NO8)2
_chemical_formula_sum   'U4 H24 C4 S6 N4 O32'
_cell_volume   866.97453351
_cell_formula_units_Z   2
loop_
 _symmetry_equiv_pos_site_id
 _symmetry_equiv_pos_as_xyz
  1  'x, y, z'
loop_
 _atom_site_type_symbol
 _atom_site_label
 _atom_site_symmetry_multiplicity
 _atom_site_fract_x
 _atom_site_fract_y
 _atom_site_fract_z
 _atom_site_occupancy
  U  U0  1  0.50303301  0.13443179  0.47465462  1
  U  U1  1  0.26264972  0.63231192  0.34088834  1
  U  U2  1  0.50592941  0.74145255  0.85941925  1
  U  U3  1  0.26363667  0.25053746  0.94789374  1
  H  H4  1  0.89126740  0.62112537  0.55670206  1
  H  H5  1  0.05895425  0.54791297  0.61454159  1
  H  H6  1  0.94971698  0.61691384  0.72316879  1
  H  H7  1  0.78477360  0.50007327  0.01105225  1
  H  H8  1  0.74431420  0.33628727  0.02683474  1
  H  H9  1  0.91966061  0.39157274  0.07798668  1
  H  H10  1  0.96804604  0.85513004  0.01693827  1
  H  H11  1  0.04298201  0.99443354  0.08845496  1
  H  H12  1  0.87124160  0.00125611  0.99931099  1
  H  H13  1  0.03467132  0.09681343  0.51324013  1
  H  H14  1  0.99669342  0.13332173  0.67103850  1
  H  H15  1  0.86006017  0.06867925  0.55942612  1
  H  H16  1  0.74470835  0.45304253  0.66109446  1
  H  H17  1  0.92038584  0.37444092  0.72734170  1
  H  H18  1  0.86557697  0.37761408  0.54864137  1
  H  H19  1  0.80951468  0.54389671  0.24380603  1
  H  H20  1  0.79517031  0.36745910  0.27816551  1
  H  H21  1  0.63264337  0.45764025  0.20168381  1
  H  H22  1  0.75130808  0.86970172  0.15918456  1
  H  H23  1  0.84761090  0.01024262  0.24167926  1
  H  H24  1  0.93356256  0.84638952  0.25522819  1
  H  H25  1  0.00893970  0.85798838  0.55863282  1
  H  H26  1  0.94556099  0.90017522  0.71934606  1
  H  H27  1  0.13972330  0.93085099  0.68727801  1
  C  C28  1  0.86366496  0.43263035  0.64360180  1
  C  C29  1  0.75740656  0.44862287  0.20898296  1
  C  C30  1  0.86295186  0.91501260  0.18964059  1
  C  C31  1  0.02054420  0.92869566  0.64308587  1
  S  S32  1  0.61609585  0.78151518  0.51887548  1
  S  S33  1  0.61395567  0.09546240  0.83684318  1
  S  S34  1  0.15993639  0.28021502  0.29188164  1
  S  S35  1  0.37893829  0.43885571  0.65749787  1
  S  S36  1  0.15055589  0.60247244  0.98049689  1
  S  S37  1  0.38009264  0.94037217  0.15589692  1
  N  N38  1  0.94602389  0.56280792  0.63382122  1
  N  N39  1  0.80470017  0.41687602  0.07245913  1
  N  N40  1  0.94115721  0.94287012  0.06592985  1
  N  N41  1  0.97523261  0.06545343  0.59275646  1
  O  O42  1  0.27674061  0.53161267  0.57168759  1
  O  O43  1  0.11986355  0.60938976  0.12513609  1
  O  O44  1  0.13185392  0.42029172  0.33796710  1
  O  O45  1  0.45222605  0.75654162  0.46625984  1
  O  O46  1  0.27917623  0.84165593  0.21497496  1
  O  O47  1  0.09652981  0.70866679  0.40359082  1
  O  O48  1  0.42065688  0.54878631  0.27539640  1
  O  O49  1  0.12450691  0.27712596  0.14069828  1
  O  O50  1  0.12169276  0.46114632  0.93157584  1
  O  O51  1  0.27972084  0.34804957  0.72937287  1
  O  O52  1  0.32678873  0.24835118  0.32345704  1
  O  O53  1  0.06038153  0.18591878  0.35222629  1
  O  O54  1  0.48036155  0.51779547  0.75691645  1
  O  O55  1  0.47430306  0.35833647  0.57259411  1
  O  O56  1  0.33730794  0.06497436  0.54063661  1
  O  O57  1  0.48102046  0.00836248  0.26339156  1
  O  O58  1  0.67721439  0.20112065  0.41811571  1
  O  O59  1  0.64200198  0.93028688  0.51334346  1
  O  O60  1  0.64071581  0.14029622  0.69851918  1
  O  O61  1  0.71975226  0.16399686  0.93785931  1
  O  O62  1  0.64322497  0.94741718  0.84778411  1
  O  O63  1  0.44871810  0.12079713  0.85561349  1
  O  O64  1  0.31543508  0.63459551  0.97119854  1
  O  O65  1  0.04557302  0.69413589  0.90108274  1
  O  O66  1  0.42597746  0.33649465  0.03272924  1
  O  O67  1  0.09539139  0.17019945  0.86054682  1
  O  O68  1  0.67321132  0.66659191  0.95398020  1
  O  O69  1  0.34636212  0.81585716  0.75951601  1
  O  O70  1  0.63789035  0.73845547  0.66355414  1
  O  O71  1  0.47794668  0.87263910  0.06316862  1
  O  O72  1  0.27715327  0.04042239  0.07952857  1
  O  O73  1  0.72563933  0.71015096  0.44418535  1
