# generated using pymatgen
data_Na5Cu2H14S4O19
_symmetry_space_group_name_H-M   'P 1'
_cell_length_a   9.63291167
_cell_length_b   13.92353070
_cell_length_c   15.53571962
_cell_angle_alpha   106.89342828
_cell_angle_beta   90.00000000
_cell_angle_gamma   90.00000000
_symmetry_Int_Tables_number   1
_chemical_formula_structural   Na5Cu2H14S4O19
_chemical_formula_sum   'Na20 Cu8 H56 S16 O76'
_cell_volume   1993.79633359
_cell_formula_units_Z   4
loop_
 _symmetry_equiv_pos_site_id
 _symmetry_equiv_pos_as_xyz
  1  'x, y, z'
loop_
 _atom_site_type_symbol
 _atom_site_label
 _atom_site_symmetry_multiplicity
 _atom_site_fract_x
 _atom_site_fract_y
 _atom_site_fract_z
 _atom_site_occupancy
  Na  Na0  1  0.72203669  0.74456960  0.48037173  1
  Na  Na1  1  0.22203669  0.75543040  0.51962827  1
  Na  Na2  1  0.27796331  0.25543040  0.51962827  1
  Na  Na3  1  0.77796331  0.24456960  0.48037173  1
  Na  Na4  1  0.95855093  0.82531676  0.34295045  1
  Na  Na5  1  0.45855093  0.67468324  0.65704955  1
  Na  Na6  1  0.04144907  0.17468324  0.65704955  1
  Na  Na7  1  0.54144907  0.32531676  0.34295045  1
  Na  Na8  1  0.24586123  0.91662336  0.24568753  1
  Na  Na9  1  0.74586123  0.58337664  0.75431247  1
  Na  Na10  1  0.75413877  0.08337664  0.75431247  1
  Na  Na11  1  0.25413877  0.41662336  0.24568753  1
  Na  Na12  1  0.96168954  0.57133942  0.34726468  1
  Na  Na13  1  0.46168954  0.92866058  0.65273532  1
  Na  Na14  1  0.03831046  0.42866058  0.65273532  1
  Na  Na15  1  0.53831046  0.07133942  0.34726468  1
  Na  Na16  1  0.45784610  0.88288400  0.00680501  1
  Na  Na17  1  0.95784610  0.61711600  0.99319499  1
  Na  Na18  1  0.54215390  0.11711600  0.99319499  1
  Na  Na19  1  0.04215390  0.38288400  0.00680501  1
  Cu  Cu20  1  0.44075379  0.69331588  0.33023171  1
  Cu  Cu21  1  0.94075379  0.80668412  0.66976829  1
  Cu  Cu22  1  0.55924621  0.30668412  0.66976829  1
  Cu  Cu23  1  0.05924621  0.19331588  0.33023171  1
  Cu  Cu24  1  0.74930608  0.99077296  0.46868786  1
  Cu  Cu25  1  0.24930608  0.50922704  0.53131214  1
  Cu  Cu26  1  0.25069392  0.00922704  0.53131214  1
  Cu  Cu27  1  0.75069392  0.49077296  0.46868786  1
  H  H28  1  0.77840859  0.97991826  0.25554304  1
  H  H29  1  0.27840859  0.52008174  0.74445696  1
  H  H30  1  0.22159141  0.02008174  0.74445696  1
  H  H31  1  0.72159141  0.47991826  0.25554304  1
  H  H32  1  0.70002350  0.88047747  0.26109865  1
  H  H33  1  0.20002350  0.61952253  0.73890135  1
  H  H34  1  0.29997650  0.11952253  0.73890135  1
  H  H35  1  0.79997650  0.38047747  0.26109865  1
  H  H36  1  0.47303190  0.05319776  0.15953005  1
  H  H37  1  0.97303190  0.44680224  0.84046995  1
  H  H38  1  0.52696810  0.94680224  0.84046995  1
  H  H39  1  0.02696810  0.55319776  0.15953005  1
  H  H40  1  0.63546812  0.04513247  0.14087797  1
  H  H41  1  0.13546812  0.45486753  0.85912203  1
  H  H42  1  0.36453188  0.95486753  0.85912203  1
  H  H43  1  0.86453188  0.54513247  0.14087797  1
  H  H44  1  0.29684930  0.70318660  0.96630043  1
  H  H45  1  0.79684930  0.79681340  0.03369957  1
  H  H46  1  0.70315070  0.29681340  0.03369957  1
  H  H47  1  0.20315070  0.20318660  0.96630043  1
  H  H48  1  0.28973883  0.73658893  0.87747664  1
  H  H49  1  0.78973883  0.76341107  0.12252336  1
  H  H50  1  0.71026117  0.26341107  0.12252336  1
  H  H51  1  0.21026117  0.23658893  0.87747664  1
  H  H52  1  0.50049535  0.79694312  0.16112826  1
  H  H53  1  0.00049535  0.70305688  0.83887174  1
  H  H54  1  0.49950465  0.20305688  0.83887174  1
  H  H55  1  -0.00049535  0.29694312  0.16112826  1
  H  H56  1  0.36121620  0.75945044  0.11095420  1
  H  H57  1  0.86121620  0.74054956  0.88904580  1
  H  H58  1  0.63878380  0.24054956  0.88904580  1
  H  H59  1  0.13878380  0.25945044  0.11095420  1
  H  H60  1  0.15357729  0.94507859  0.05302418  1
  H  H61  1  0.65357729  0.55492141  0.94697582  1
  H  H62  1  0.84642271  0.05492141  0.94697582  1
  H  H63  1  0.34642271  0.44507859  0.05302418  1
  H  H64  1  0.18190759  0.94032291  0.94998267  1
  H  H65  1  0.68190759  0.55967709  0.05001733  1
  H  H66  1  0.81809241  0.05967709  0.05001733  1
  H  H67  1  0.31809241  0.44032291  0.94998267  1
  H  H68  1  0.73456007  0.91128716  0.95963165  1
  H  H69  1  0.23456007  0.58871284  0.04036835  1
  H  H70  1  0.26543993  0.08871284  0.04036835  1
  H  H71  1  0.76543993  0.41128716  0.95963165  1
  H  H72  1  0.68147945  0.81264650  0.88474080  1
  H  H73  1  0.18147945  0.68735350  0.11525920  1
  H  H74  1  0.31852055  0.18735350  0.11525920  1
  H  H75  1  0.81852055  0.31264650  0.88474080  1
  H  H76  1  0.99107445  0.98281545  0.15940017  1
  H  H77  1  0.49107445  0.51718455  0.84059983  1
  H  H78  1  0.00892555  0.01718455  0.84059983  1
  H  H79  1  0.50892555  0.48281545  0.15940017  1
  H  H80  1  0.98841854  0.86679551  0.11689932  1
  H  H81  1  0.48841854  0.63320449  0.88310068  1
  H  H82  1  0.01158146  0.13320449  0.88310068  1
  H  H83  1  0.51158146  0.36679551  0.11689932  1
  S  S84  1  0.46102937  0.58205169  0.41417657  1
  S  S85  1  0.96102937  0.91794831  0.58582343  1
  S  S86  1  0.53897063  0.41794831  0.58582343  1
  S  S87  1  0.03897063  0.08205169  0.41417657  1
  S  S88  1  0.45920990  0.86039438  0.41356412  1
  S  S89  1  0.95920990  0.63960562  0.58643588  1
  S  S90  1  0.54079010  0.13960562  0.58643588  1
  S  S91  1  0.04079010  0.36039438  0.41356412  1
  S  S92  1  0.65171718  0.67572815  0.25294418  1
  S  S93  1  0.15171718  0.82427185  0.74705582  1
  S  S94  1  0.34828282  0.32427185  0.74705582  1
  S  S95  1  0.84828282  0.17572815  0.25294418  1
  S  S96  1  0.21026447  0.67889903  0.28742084  1
  S  S97  1  0.71026447  0.82110097  0.71257916  1
  S  S98  1  0.78973553  0.32110097  0.71257916  1
  S  S99  1  0.28973553  0.17889903  0.28742084  1
  O  O100  1  0.42419354  0.47688155  0.36259052  1
  O  O101  1  0.92419354  0.02311845  0.63740948  1
  O  O102  1  0.57580646  0.52311845  0.63740948  1
  O  O103  1  0.07580646  0.97688155  0.36259052  1
  O  O104  1  0.61087974  0.58689593  0.44648499  1
  O  O105  1  0.11087974  0.91310407  0.55351501  1
  O  O106  1  0.38912026  0.41310407  0.55351501  1
  O  O107  1  0.88912026  0.08689593  0.44648499  1
  O  O108  1  0.37045243  0.61236424  0.50059309  1
  O  O109  1  0.87045243  0.88763576  0.49940691  1
  O  O110  1  0.62954757  0.38763576  0.49940691  1
  O  O111  1  0.12954757  0.11236424  0.50059309  1
  O  O112  1  0.37234507  0.88546916  0.50143361  1
  O  O113  1  0.87234507  0.61453084  0.49856639  1
  O  O114  1  0.62765493  0.11453084  0.49856639  1
  O  O115  1  0.12765493  0.38546916  0.50143361  1
  O  O116  1  0.61025026  0.87909703  0.44338093  1
  O  O117  1  0.11025026  0.62090297  0.55661907  1
  O  O118  1  0.38974974  0.12090297  0.55661907  1
  O  O119  1  0.88974974  0.37909703  0.44338093  1
  O  O120  1  0.41587950  0.93122355  0.36262304  1
  O  O121  1  0.91587950  0.56877645  0.63737696  1
  O  O122  1  0.58412050  0.06877645  0.63737696  1
  O  O123  1  0.08412050  0.43122355  0.36262304  1
  O  O124  1  0.65880938  0.75277887  0.19934129  1
  O  O125  1  0.15880938  0.74722113  0.80065871  1
  O  O126  1  0.34119062  0.24722113  0.80065871  1
  O  O127  1  0.84119062  0.25277887  0.19934129  1
  O  O128  1  0.66754347  0.57116410  0.18473834  1
  O  O129  1  0.16754347  0.92883590  0.81526166  1
  O  O130  1  0.33245653  0.42883590  0.81526166  1
  O  O131  1  0.83245653  0.07116410  0.18473834  1
  O  O132  1  0.77842660  0.69278325  0.31362613  1
  O  O133  1  0.27842660  0.80721675  0.68637387  1
  O  O134  1  0.22157340  0.30721675  0.68637387  1
  O  O135  1  0.72157340  0.19278325  0.31362613  1
  O  O136  1  0.16528667  0.74682817  0.23103789  1
  O  O137  1  0.66528667  0.75317183  0.76896211  1
  O  O138  1  0.83471333  0.25317183  0.76896211  1
  O  O139  1  0.33471333  0.24682817  0.23103789  1
  O  O140  1  0.16359734  0.57273432  0.23755410  1
  O  O141  1  0.66359734  0.92726568  0.76244590  1
  O  O142  1  0.83640266  0.42726568  0.76244590  1
  O  O143  1  0.33640266  0.07273432  0.23755410  1
  O  O144  1  0.12436648  0.71121208  0.37339122  1
  O  O145  1  0.62436648  0.78878792  0.62660878  1
  O  O146  1  0.87563352  0.28878792  0.62660878  1
  O  O147  1  0.37563352  0.21121208  0.37339122  1
  O  O148  1  0.73055791  0.94855981  0.29648936  1
  O  O149  1  0.23055791  0.55144019  0.70351064  1
  O  O150  1  0.26944209  0.05144019  0.70351064  1
  O  O151  1  0.76944209  0.44855981  0.29648936  1
  O  O152  1  0.54426422  0.03406809  0.11114299  1
  O  O153  1  0.04426422  0.46593191  0.88885701  1
  O  O154  1  0.45573578  0.96593191  0.88885701  1
  O  O155  1  0.95573578  0.53406809  0.11114299  1
  O  O156  1  0.35563257  0.72382454  0.92223319  1
  O  O157  1  0.85563257  0.77617546  0.07776681  1
  O  O158  1  0.64436743  0.27617546  0.07776681  1
  O  O159  1  0.14436743  0.22382454  0.92223319  1
  O  O160  1  0.41780369  0.81990242  0.13426565  1
  O  O161  1  0.91780369  0.68009758  0.86573435  1
  O  O162  1  0.58219631  0.18009758  0.86573435  1
  O  O163  1  0.08219631  0.31990242  0.13426565  1
  O  O164  1  0.22209598  0.96129101  0.01077270  1
  O  O165  1  0.72209598  0.53870899  0.98922730  1
  O  O166  1  0.77790402  0.03870899  0.98922730  1
  O  O167  1  0.27790402  0.46129101  0.01077270  1
  O  O168  1  0.70447848  0.84003650  0.95005180  1
  O  O169  1  0.20447848  0.65996350  0.04994820  1
  O  O170  1  0.29552152  0.15996350  0.04994820  1
  O  O171  1  0.79552152  0.34003650  0.95005180  1
  O  O172  1  0.05378540  0.92460148  0.13770289  1
  O  O173  1  0.55378540  0.57539852  0.86229711  1
  O  O174  1  0.94621460  0.07539852  0.86229711  1
  O  O175  1  0.44621460  0.42460148  0.13770289  1
