# generated using pymatgen
data_USi8H56(C4N)4
_symmetry_space_group_name_H-M   'P 1'
_cell_length_a   10.89134691
_cell_length_b   10.89134691
_cell_length_c   19.12379735
_cell_angle_alpha   78.10237346
_cell_angle_beta   78.10237346
_cell_angle_gamma   68.54766626
_symmetry_Int_Tables_number   1
_chemical_formula_structural   USi8H56(C4N)4
_chemical_formula_sum   'U2 Si16 H112 C32 N8'
_cell_volume   2044.57257300
_cell_formula_units_Z   2
loop_
 _symmetry_equiv_pos_site_id
 _symmetry_equiv_pos_as_xyz
  1  'x, y, z'
loop_
 _atom_site_type_symbol
 _atom_site_label
 _atom_site_symmetry_multiplicity
 _atom_site_fract_x
 _atom_site_fract_y
 _atom_site_fract_z
 _atom_site_occupancy
  U  U0  1  0.66505529  0.33494471  0.75000000  1
  U  U1  1  0.33494471  0.66505529  0.25000000  1
  Si  Si2  1  0.79946789  0.07645596  0.85991553  1
  Si  Si3  1  0.92354404  0.20053211  0.64008447  1
  Si  Si4  1  0.20053211  0.92354404  0.14008447  1
  Si  Si5  1  0.07645596  0.79946789  0.35991553  1
  Si  Si6  1  0.75523079  0.32646356  0.92516311  1
  Si  Si7  1  0.67353644  0.24476921  0.57483689  1
  Si  Si8  1  0.24476921  0.67353644  0.07483689  1
  Si  Si9  1  0.32646356  0.75523079  0.42516311  1
  Si  Si10  1  0.81473923  0.58705078  0.74037322  1
  Si  Si11  1  0.41294922  0.18526077  0.75962678  1
  Si  Si12  1  0.18526077  0.41294922  0.25962678  1
  Si  Si13  1  0.58705078  0.81473923  0.24037322  1
  Si  Si14  1  0.57580571  0.63265013  0.66382967  1
  Si  Si15  1  0.36734987  0.42419429  0.83617033  1
  Si  Si16  1  0.42419429  0.36734987  0.33617033  1
  Si  Si17  1  0.63265013  0.57580571  0.16382967  1
  H  H18  1  0.60160799  0.03953994  0.94273959  1
  H  H19  1  0.96046006  0.39839201  0.55726041  1
  H  H20  1  0.39839201  0.96046006  0.05726041  1
  H  H21  1  0.03953994  0.60160799  0.44273959  1
  H  H22  1  0.72629551  0.88678037  0.92156242  1
  H  H23  1  0.11321963  0.27370449  0.57843758  1
  H  H24  1  0.27370449  0.11321963  0.07843758  1
  H  H25  1  0.88678037  0.72629551  0.42156242  1
  H  H26  1  0.74659951  0.97149893  0.98604414  1
  H  H27  1  0.02850107  0.25340049  0.51395586  1
  H  H28  1  0.25340049  0.02850107  0.01395586  1
  H  H29  1  0.97149893  0.74659951  0.48604414  1
  H  H30  1  0.01636753  0.97705982  0.90915301  1
  H  H31  1  0.02294018  0.98363247  0.59084699  1
  H  H32  1  0.98363247  0.02294018  0.09084699  1
  H  H33  1  0.97705982  0.01636753  0.40915301  1
  H  H34  1  0.00479737  0.88089470  0.84792024  1
  H  H35  1  0.11910530  0.99520263  0.65207976  1
  H  H36  1  0.99520263  0.11910530  0.15207976  1
  H  H37  1  0.88089470  0.00479737  0.34792024  1
  H  H38  1  0.04355888  0.02989259  0.81467941  1
  H  H39  1  0.97010741  0.95644112  0.68532059  1
  H  H40  1  0.95644112  0.97010741  0.18532059  1
  H  H41  1  0.02989259  0.04355888  0.31467941  1
  H  H42  1  0.70737678  0.17255022  0.03751099  1
  H  H43  1  0.82744978  0.29262322  0.46248901  1
  H  H44  1  0.29262322  0.82744978  0.96248901  1
  H  H45  1  0.17255022  0.70737678  0.53751099  1
  H  H46  1  0.67615848  0.33616136  0.05417539  1
  H  H47  1  0.66383864  0.32384152  0.44582461  1
  H  H48  1  0.32384152  0.66383864  0.94582461  1
  H  H49  1  0.33616136  0.67615848  0.55417539  1
  H  H50  1  0.55838113  0.30282490  0.01595363  1
  H  H51  1  0.69717510  0.44161887  0.48404637  1
  H  H52  1  0.44161887  0.69717510  0.98404637  1
  H  H53  1  0.30282490  0.55838113  0.51595363  1
  H  H54  1  0.98887821  0.33026177  0.88973301  1
  H  H55  1  0.66973823  0.01112179  0.61026699  1
  H  H56  1  0.01112179  0.66973823  0.11026699  1
  H  H57  1  0.33026177  0.98887821  0.38973301  1
  H  H58  1  0.92496393  0.35876805  0.98078041  1
  H  H59  1  0.64123195  0.07503607  0.51921959  1
  H  H60  1  0.07503607  0.64123195  0.01921959  1
  H  H61  1  0.35876805  0.92496393  0.48078041  1
  H  H62  1  0.98281289  0.19417652  0.95891501  1
  H  H63  1  0.80582348  0.01718711  0.54108499  1
  H  H64  1  0.01718711  0.80582348  0.04108499  1
  H  H65  1  0.19417652  0.98281289  0.45891501  1
  H  H66  1  0.87100518  0.73332122  0.62745903  1
  H  H67  1  0.26667878  0.12899482  0.87254097  1
  H  H68  1  0.12899482  0.26667878  0.37254097  1
  H  H69  1  0.73332122  0.87100518  0.12745903  1
  H  H70  1  0.00317794  0.65921876  0.67999760  1
  H  H71  1  0.34078124  0.99682206  0.82000240  1
  H  H72  1  0.99682206  0.34078124  0.32000240  1
  H  H73  1  0.65921876  0.00317794  0.17999760  1
  H  H74  1  0.97449061  0.56408165  0.62385182  1
  H  H75  1  0.43591835  0.02550939  0.87614818  1
  H  H76  1  0.02550939  0.43591835  0.37614818  1
  H  H77  1  0.56408165  0.97449061  0.12385182  1
  H  H78  1  0.67562182  0.70899483  0.84355126  1
  H  H79  1  0.29100517  0.32437818  0.65644874  1
  H  H80  1  0.32437818  0.29100517  0.15644874  1
  H  H81  1  0.70899483  0.67562182  0.34355126  1
  H  H82  1  0.83340308  0.73176141  0.81762445  1
  H  H83  1  0.26823859  0.16659692  0.68237555  1
  H  H84  1  0.16659692  0.26823859  0.18237555  1
  H  H85  1  0.73176141  0.83340308  0.31762445  1
  H  H86  1  0.70265953  0.82302193  0.76553090  1
  H  H87  1  0.17697807  0.29734047  0.73446910  1
  H  H88  1  0.29734047  0.17697807  0.23446910  1
  H  H89  1  0.82302193  0.70265953  0.26553090  1
  H  H90  1  0.73004098  0.60375543  0.54680419  1
  H  H91  1  0.39624457  0.26995902  0.95319581  1
  H  H92  1  0.26995902  0.39624457  0.45319581  1
  H  H93  1  0.60375543  0.73004098  0.04680419  1
  H  H94  1  0.56474017  0.70741506  0.53323413  1
  H  H95  1  0.29258494  0.43525983  0.96676587  1
  H  H96  1  0.43525983  0.29258494  0.46676587  1
  H  H97  1  0.70741506  0.56474017  0.03323413  1
  H  H98  1  0.66973569  0.77265147  0.56277649  1
  H  H99  1  0.22734853  0.33026431  0.93722351  1
  H  H100  1  0.33026431  0.22734853  0.43722351  1
  H  H101  1  0.77265147  0.66973569  0.06277649  1
  H  H102  1  0.48953378  0.85916896  0.70072775  1
  H  H103  1  0.14083104  0.51046622  0.79927225  1
  H  H104  1  0.51046622  0.14083104  0.29927225  1
  H  H105  1  0.85916896  0.48953378  0.20072775  1
  H  H106  1  0.37123359  0.83063230  0.66016412  1
  H  H107  1  0.16936770  0.62876641  0.83983588  1
  H  H108  1  0.62876641  0.16936770  0.33983588  1
  H  H109  1  0.83063230  0.37123359  0.16016412  1
  H  H110  1  0.39278938  0.76139007  0.75184375  1
  H  H111  1  0.23860993  0.60721062  0.74815625  1
  H  H112  1  0.60721062  0.23860993  0.24815625  1
  H  H113  1  0.76139007  0.39278938  0.25184375  1
  H  H114  1  0.76151244  0.06900259  0.78865165  1
  H  H115  1  0.93099741  0.23848756  0.71134835  1
  H  H116  1  0.23848756  0.93099741  0.21134835  1
  H  H117  1  0.06900259  0.76151244  0.28865165  1
  H  H118  1  0.68815837  0.47308693  0.90435487  1
  H  H119  1  0.52691307  0.31184163  0.59564513  1
  H  H120  1  0.31184163  0.52691307  0.09564513  1
  H  H121  1  0.47308693  0.68815837  0.40435487  1
  H  H122  1  0.90363481  0.46708577  0.78220310  1
  H  H123  1  0.53291423  0.09636519  0.71779690  1
  H  H124  1  0.09636519  0.53291423  0.21779690  1
  H  H125  1  0.46708577  0.90363481  0.28220310  1
  H  H126  1  0.50721562  0.53255876  0.66360856  1
  H  H127  1  0.46744124  0.49278438  0.83639144  1
  H  H128  1  0.49278438  0.46744124  0.33639144  1
  H  H129  1  0.53255876  0.50721562  0.16360856  1
  C  C130  1  0.70950006  0.98594990  0.93464425  1
  C  C131  1  0.01405010  0.29049994  0.56535575  1
  C  C132  1  0.29049994  0.01405010  0.06535575  1
  C  C133  1  0.98594990  0.70950006  0.43464425  1
  C  C134  1  0.98332044  0.98362492  0.85758364  1
  C  C135  1  0.01637508  0.01667956  0.64241636  1
  C  C136  1  0.01667956  0.01637508  0.14241636  1
  C  C137  1  0.98362492  0.98332044  0.35758364  1
  C  C138  1  0.66544161  0.27863405  0.01611084  1
  C  C139  1  0.72136595  0.33455839  0.48388916  1
  C  C140  1  0.33455839  0.72136595  0.98388916  1
  C  C141  1  0.27863405  0.66544161  0.51611084  1
  C  C142  1  0.92988994  0.29933708  0.93952763  1
  C  C143  1  0.70066292  0.07011006  0.56047237  1
  C  C144  1  0.07011006  0.70066292  0.06047237  1
  C  C145  1  0.29933708  0.92988994  0.43952763  1
  C  C146  1  0.92506499  0.64039528  0.65965697  1
  C  C147  1  0.35960472  0.07493501  0.84034303  1
  C  C148  1  0.07493501  0.35960472  0.34034303  1
  C  C149  1  0.64039528  0.92506499  0.15965697  1
  C  C150  1  0.74878956  0.72572713  0.79706764  1
  C  C151  1  0.27427287  0.25121044  0.70293236  1
  C  C152  1  0.25121044  0.27427287  0.20293236  1
  C  C153  1  0.72572713  0.74878956  0.29706764  1
  C  C154  1  0.64220010  0.68325240  0.56775112  1
  C  C155  1  0.31674760  0.35779990  0.93224888  1
  C  C156  1  0.35779990  0.31674760  0.43224888  1
  C  C157  1  0.68325240  0.64220010  0.06775112  1
  C  C158  1  0.44508540  0.78472714  0.69794048  1
  C  C159  1  0.21527286  0.55491460  0.80205952  1
  C  C160  1  0.55491460  0.21527286  0.30205952  1
  C  C161  1  0.78472714  0.44508540  0.19794048  1
  N  N162  1  0.74876513  0.24697266  0.85688715  1
  N  N163  1  0.75302734  0.25123487  0.64311285  1
  N  N164  1  0.25123487  0.75302734  0.14311285  1
  N  N165  1  0.24697266  0.74876513  0.35688715  1
  N  N166  1  0.69317202  0.53865127  0.71957740  1
  N  N167  1  0.46134873  0.30682798  0.78042260  1
  N  N168  1  0.30682798  0.46134873  0.28042260  1
  N  N169  1  0.53865127  0.69317202  0.21957740  1
