# generated using pymatgen
data_NaCaAlOF6
_symmetry_space_group_name_H-M   'P 1'
_cell_length_a   5.72049659
_cell_length_b   5.61421534
_cell_length_c   16.41172601
_cell_angle_alpha   91.45548687
_cell_angle_beta   90.00000000
_cell_angle_gamma   90.00000000
_symmetry_Int_Tables_number   1
_chemical_formula_structural   NaCaAlOF6
_chemical_formula_sum   'Na4 Ca4 Al4 O4 F24'
_cell_volume   526.91057205
_cell_formula_units_Z   4
loop_
 _symmetry_equiv_pos_site_id
 _symmetry_equiv_pos_as_xyz
  1  'x, y, z'
loop_
 _atom_site_type_symbol
 _atom_site_label
 _atom_site_symmetry_multiplicity
 _atom_site_fract_x
 _atom_site_fract_y
 _atom_site_fract_z
 _atom_site_occupancy
  Na  Na0  1  0.66216412  0.75085424  0.24873620  1
  Na  Na1  1  0.16216412  0.24914576  0.25126380  1
  Na  Na2  1  0.33783588  0.24914576  0.75126380  1
  Na  Na3  1  0.83783588  0.75085424  0.74873620  1
  Ca  Ca4  1  0.21752321  0.75283014  0.38904542  1
  Ca  Ca5  1  0.71752321  0.24716986  0.11095458  1
  Ca  Ca6  1  0.78247679  0.24716986  0.61095458  1
  Ca  Ca7  1  0.28247679  0.75283014  0.88904542  1
  Al  Al8  1  0.69845337  0.26388774  0.36430053  1
  Al  Al9  1  0.19845337  0.73611226  0.13569947  1
  Al  Al10  1  0.30154663  0.73611226  0.63569947  1
  Al  Al11  1  0.80154663  0.26388774  0.86430053  1
  O  O12  1  0.06695367  0.08508723  0.49514209  1
  O  O13  1  0.56695367  0.91491277  0.00485791  1
  O  O14  1  0.93304633  0.91491277  0.50485791  1
  O  O15  1  0.43304633  0.08508723  0.99514209  1
  F  F16  1  0.97549544  0.43290849  0.37425635  1
  F  F17  1  0.47549544  0.56709151  0.12574365  1
  F  F18  1  0.02450456  0.56709151  0.62574365  1
  F  F19  1  0.52450456  0.43290849  0.87425635  1
  F  F20  1  0.87738950  0.99140772  0.34678298  1
  F  F21  1  0.37738950  0.00859228  0.15321702  1
  F  F22  1  0.12261050  0.00859228  0.65321702  1
  F  F23  1  0.62261050  0.99140772  0.84678298  1
  F  F24  1  0.53469918  0.54174164  0.36495502  1
  F  F25  1  0.03469918  0.45825836  0.13504498  1
  F  F26  1  0.46530082  0.45825836  0.63504498  1
  F  F27  1  0.96530082  0.54174164  0.86495502  1
  F  F28  1  0.43192836  0.08209003  0.34589737  1
  F  F29  1  0.93192836  0.91790997  0.15410263  1
  F  F30  1  0.56807164  0.91790997  0.65410263  1
  F  F31  1  0.06807164  0.08209003  0.84589737  1
  F  F32  1  0.21981625  0.69421602  0.24816071  1
  F  F33  1  0.71981625  0.30578398  0.25183929  1
  F  F34  1  0.78018375  0.30578398  0.75183929  1
  F  F35  1  0.28018375  0.69421602  0.74816071  1
  F  F36  1  0.66190009  0.24972871  0.47308767  1
  F  F37  1  0.16190009  0.75027129  0.02691233  1
  F  F38  1  0.33809991  0.75027129  0.52691233  1
  F  F39  1  0.83809991  0.24972871  0.97308767  1
