# generated using pymatgen
data_FeSe3O8
_symmetry_space_group_name_H-M   'P 1'
_cell_length_a   7.51542298
_cell_length_b   7.78842064
_cell_length_c   13.40208722
_cell_angle_alpha   90.00000000
_cell_angle_beta   90.00000000
_cell_angle_gamma   92.67951745
_symmetry_Int_Tables_number   1
_chemical_formula_structural   FeSe3O8
_chemical_formula_sum   'Fe4 Se12 O32'
_cell_volume   783.61036574
_cell_formula_units_Z   4
loop_
 _symmetry_equiv_pos_site_id
 _symmetry_equiv_pos_as_xyz
  1  'x, y, z'
loop_
 _atom_site_type_symbol
 _atom_site_label
 _atom_site_symmetry_multiplicity
 _atom_site_fract_x
 _atom_site_fract_y
 _atom_site_fract_z
 _atom_site_occupancy
  Fe  Fe0  1  0.18998015  0.06036057  0.81941486  1
  Fe  Fe1  1  0.31001985  0.43963943  0.31941486  1
  Fe  Fe2  1  0.81001985  0.93963943  0.18058514  1
  Fe  Fe3  1  0.68998015  0.56036057  0.68058514  1
  Se  Se4  1  0.92498215  0.93169747  0.63577500  1
  Se  Se5  1  0.57501785  0.56830253  0.13577500  1
  Se  Se6  1  0.07501785  0.06830253  0.36422500  1
  Se  Se7  1  0.42498215  0.43169747  0.86422500  1
  Se  Se8  1  0.61144209  0.94559348  0.79942006  1
  Se  Se9  1  0.88855791  0.55440652  0.29942006  1
  Se  Se10  1  0.38855791  0.05440652  0.20057994  1
  Se  Se11  1  0.11144209  0.44559348  0.70057994  1
  Se  Se12  1  0.09276092  0.76145712  0.00071402  1
  Se  Se13  1  0.40723908  0.73854288  0.50071402  1
  Se  Se14  1  0.90723908  0.23854288  -0.00071402  1
  Se  Se15  1  0.59276092  0.26145712  0.49928598  1
  O  O16  1  0.83776689  0.73524129  0.59959691  1
  O  O17  1  0.66223311  0.76475871  0.09959691  1
  O  O18  1  0.16223311  0.26475871  0.40040309  1
  O  O19  1  0.33776689  0.23524129  0.90040309  1
  O  O20  1  0.03713237  0.88449613  0.74275991  1
  O  O21  1  0.46286763  0.61550387  0.24275991  1
  O  O22  1  0.96286763  0.11550387  0.25724009  1
  O  O23  1  0.53713237  0.38449613  0.75724009  1
  O  O24  1  0.72715445  0.02989646  0.68655659  1
  O  O25  1  0.77284555  0.47010354  0.18655659  1
  O  O26  1  0.27284555  0.97010354  0.31344341  1
  O  O27  1  0.22715445  0.52989646  0.81344341  1
  O  O28  1  0.64088973  0.73000300  0.79071317  1
  O  O29  1  0.85911027  0.76999700  0.29071317  1
  O  O30  1  0.35911027  0.26999700  0.20928683  1
  O  O31  1  0.14088973  0.23000300  0.70928683  1
  O  O32  1  0.40607651  0.97317283  0.75237540  1
  O  O33  1  0.09392349  0.52682717  0.25237540  1
  O  O34  1  0.59392349  0.02682717  0.24762460  1
  O  O35  1  0.90607651  0.47317283  0.74762460  1
  O  O36  1  0.04173033  0.88647580  0.10166815  1
  O  O37  1  0.45826967  0.61352420  0.60166815  1
  O  O38  1  0.95826967  0.11352420  0.89833185  1
  O  O39  1  0.54173033  0.38647580  0.39833185  1
  O  O40  1  0.24021385  0.88591824  0.93169775  1
  O  O41  1  0.25978615  0.61408176  0.43169775  1
  O  O42  1  0.75978615  0.11408176  0.06830225  1
  O  O43  1  0.74021385  0.38591824  0.56830225  1
  O  O44  1  0.19942270  0.59090603  0.03782330  1
  O  O45  1  0.30057730  0.90909397  0.53782330  1
  O  O46  1  0.80057730  0.40909397  0.96217670  1
  O  O47  1  0.69942270  0.09090603  0.46217670  1
