# generated using pymatgen
data_Sn2Mo15Se19
_symmetry_space_group_name_H-M   'P 1'
_cell_length_a   9.83194427
_cell_length_b   9.83194427
_cell_length_c   19.99848933
_cell_angle_alpha   75.76987049
_cell_angle_beta   75.76987049
_cell_angle_gamma   60.00000165
_symmetry_Int_Tables_number   1
_chemical_formula_structural   Sn2Mo15Se19
_chemical_formula_sum   'Sn4 Mo30 Se38'
_cell_volume   1605.33780069
_cell_formula_units_Z   2
loop_
 _symmetry_equiv_pos_site_id
 _symmetry_equiv_pos_as_xyz
  1  'x, y, z'
loop_
 _atom_site_type_symbol
 _atom_site_label
 _atom_site_symmetry_multiplicity
 _atom_site_fract_x
 _atom_site_fract_y
 _atom_site_fract_z
 _atom_site_occupancy
  Sn  Sn0  1  0.61629131  0.61629131  0.15112606  1
  Sn  Sn1  1  0.11629131  0.11629131  0.65112606  1
  Sn  Sn2  1  0.38370869  0.38370869  0.84887394  1
  Sn  Sn3  1  0.88370869  0.88370869  0.34887394  1
  Mo  Mo4  1  0.50014486  0.68675192  0.44026435  1
  Mo  Mo5  1  0.68675192  0.37283887  0.44026435  1
  Mo  Mo6  1  0.37283887  0.50014486  0.44026435  1
  Mo  Mo7  1  0.00014486  0.87283887  0.94026435  1
  Mo  Mo8  1  0.87283887  0.18675192  0.94026435  1
  Mo  Mo9  1  0.18675192  0.00014486  0.94026435  1
  Mo  Mo10  1  0.49985514  0.31324808  0.55973565  1
  Mo  Mo11  1  0.31324808  0.62716113  0.55973565  1
  Mo  Mo12  1  0.62716113  0.49985514  0.55973565  1
  Mo  Mo13  1  -0.00014486  0.12716113  0.05973565  1
  Mo  Mo14  1  0.12716113  0.81324808  0.05973565  1
  Mo  Mo15  1  0.81324808  -0.00014486  0.05973565  1
  Mo  Mo16  1  0.72252583  0.85967130  0.86825161  1
  Mo  Mo17  1  0.85967130  0.54955126  0.86825161  1
  Mo  Mo18  1  0.54955126  0.72252583  0.86825161  1
  Mo  Mo19  1  0.22252583  0.04955126  0.36825161  1
  Mo  Mo20  1  0.04955126  0.35967130  0.36825161  1
  Mo  Mo21  1  0.35967130  0.22252583  0.36825161  1
  Mo  Mo22  1  0.27747417  0.14032870  0.13174839  1
  Mo  Mo23  1  0.14032870  0.45044874  0.13174839  1
  Mo  Mo24  1  0.45044874  0.27747417  0.13174839  1
  Mo  Mo25  1  0.77747417  0.95044874  0.63174839  1
  Mo  Mo26  1  0.95044874  0.64032870  0.63174839  1
  Mo  Mo27  1  0.64032870  0.77747417  0.63174839  1
  Mo  Mo28  1  0.59056134  0.90943866  0.75000000  1
  Mo  Mo29  1  0.90943866  0.75000000  0.75000000  1
  Mo  Mo30  1  0.75000000  0.59056134  0.75000000  1
  Mo  Mo31  1  0.09056134  0.25000000  0.25000000  1
  Mo  Mo32  1  0.25000000  0.40943866  0.25000000  1
  Mo  Mo33  1  0.40943866  0.09056134  0.25000000  1
  Se  Se34  1  0.80069363  0.55769634  0.44837318  1
  Se  Se35  1  0.55769634  0.19323685  0.44837318  1
  Se  Se36  1  0.19323685  0.80069363  0.44837318  1
  Se  Se37  1  0.30069363  0.69323685  0.94837318  1
  Se  Se38  1  0.69323685  0.05769634  0.94837318  1
  Se  Se39  1  0.05769634  0.30069363  0.94837318  1
  Se  Se40  1  0.19930637  0.44230366  0.55162682  1
  Se  Se41  1  0.44230366  0.80676315  0.55162682  1
  Se  Se42  1  0.80676315  0.19930637  0.55162682  1
  Se  Se43  1  0.69930637  0.30676315  0.05162682  1
  Se  Se44  1  0.30676315  0.94230366  0.05162682  1
  Se  Se45  1  0.94230366  0.69930637  0.05162682  1
  Se  Se46  1  0.42208339  0.04660335  0.85791943  1
  Se  Se47  1  0.04660335  0.67339383  0.85791943  1
  Se  Se48  1  0.67339383  0.42208339  0.85791943  1
  Se  Se49  1  0.92208339  0.17339383  0.35791943  1
  Se  Se50  1  0.17339383  0.54660335  0.35791943  1
  Se  Se51  1  0.54660335  0.92208339  0.35791943  1
  Se  Se52  1  0.57791661  0.95339665  0.14208057  1
  Se  Se53  1  0.95339665  0.32660617  0.14208057  1
  Se  Se54  1  0.32660617  0.57791661  0.14208057  1
  Se  Se55  1  0.07791661  0.82660617  0.64208057  1
  Se  Se56  1  0.82660617  0.45339665  0.64208057  1
  Se  Se57  1  0.45339665  0.07791661  0.64208057  1
  Se  Se58  1  0.05703812  0.44296188  0.75000000  1
  Se  Se59  1  0.44296188  0.75000000  0.75000000  1
  Se  Se60  1  0.75000000  0.05703812  0.75000000  1
  Se  Se61  1  0.55703812  0.25000000  0.25000000  1
  Se  Se62  1  0.25000000  0.94296188  0.25000000  1
  Se  Se63  1  0.94296188  0.55703812  0.25000000  1
  Se  Se64  1  0.55569776  0.55569776  0.33290673  1
  Se  Se65  1  0.05569776  0.05569776  0.83290673  1
  Se  Se66  1  0.44430224  0.44430224  0.66709327  1
  Se  Se67  1  0.94430224  0.94430224  0.16709327  1
  Se  Se68  1  0.67478557  0.67478557  0.97564329  1
  Se  Se69  1  0.17478557  0.17478557  0.47564329  1
  Se  Se70  1  0.32521443  0.32521443  0.02435671  1
  Se  Se71  1  0.82521443  0.82521443  0.52435671  1
