# generated using pymatgen
data_NaEuP2H4CO7
_symmetry_space_group_name_H-M   'P 1'
_cell_length_a   6.84638006
_cell_length_b   6.87802174
_cell_length_c   15.44919923
_cell_angle_alpha   90.00000000
_cell_angle_beta   90.00000000
_cell_angle_gamma   91.27512851
_symmetry_Int_Tables_number   1
_chemical_formula_structural   NaEuP2H4CO7
_chemical_formula_sum   'Na4 Eu4 P8 H16 C4 O28'
_cell_volume   727.31569899
_cell_formula_units_Z   4
loop_
 _symmetry_equiv_pos_site_id
 _symmetry_equiv_pos_as_xyz
  1  'x, y, z'
loop_
 _atom_site_type_symbol
 _atom_site_label
 _atom_site_symmetry_multiplicity
 _atom_site_fract_x
 _atom_site_fract_y
 _atom_site_fract_z
 _atom_site_occupancy
  Na  Na0  1  0.86459622  0.30531674  0.97327904  1
  Na  Na1  1  0.63540378  0.69468326  0.47327904  1
  Na  Na2  1  0.13540378  0.69468326  0.02672096  1
  Na  Na3  1  0.36459622  0.30531674  0.52672096  1
  Eu  Eu4  1  0.60077253  0.82726241  0.90015642  1
  Eu  Eu5  1  0.89922747  0.17273759  0.40015642  1
  Eu  Eu6  1  0.39922747  0.17273759  0.09984358  1
  Eu  Eu7  1  0.10077253  0.82726241  0.59984358  1
  P  P8  1  0.63345059  0.67943378  0.09568570  1
  P  P9  1  0.86654941  0.32056622  0.59568570  1
  P  P10  1  0.36654941  0.32056622  0.90431430  1
  P  P11  1  0.13345059  0.67943378  0.40431430  1
  P  P12  1  0.10659801  0.97209270  0.83973994  1
  P  P13  1  0.39340199  0.02790730  0.33973994  1
  P  P14  1  0.89340199  0.02790730  0.16026006  1
  P  P15  1  0.60659801  0.97209270  0.66026006  1
  H  H16  1  0.74376603  0.49302268  0.81608331  1
  H  H17  1  0.75623397  0.50697732  0.31608331  1
  H  H18  1  0.25623397  0.50697732  0.18391669  1
  H  H19  1  0.24376603  0.49302268  0.68391669  1
  H  H20  1  0.92498140  0.62735939  0.78931110  1
  H  H21  1  0.57501860  0.37264061  0.28931110  1
  H  H22  1  0.07501860  0.37264061  0.21068890  1
  H  H23  1  0.42498140  0.62735939  0.71068890  1
  H  H24  1  0.67897294  0.81371709  0.23837979  1
  H  H25  1  0.82102706  0.18628291  0.73837979  1
  H  H26  1  0.32102706  0.18628291  0.76162021  1
  H  H27  1  0.17897294  0.81371709  0.26162021  1
  H  H28  1  0.88826934  0.68927054  0.20156959  1
  H  H29  1  0.61173066  0.31072946  0.70156959  1
  H  H30  1  0.11173066  0.31072946  0.79843041  1
  H  H31  1  0.38826934  0.68927054  0.29843041  1
  C  C32  1  0.77541576  0.79253874  0.18249169  1
  C  C33  1  0.72458424  0.20746126  0.68249169  1
  C  C34  1  0.22458424  0.20746126  0.81750831  1
  C  C35  1  0.27541576  0.79253874  0.31750831  1
  O  O36  1  0.24426338  0.85596602  0.89773716  1
  O  O37  1  0.25573662  0.14403398  0.39773716  1
  O  O38  1  0.75573662  0.14403398  0.10226284  1
  O  O39  1  0.74426338  0.85596602  0.60226284  1
  O  O40  1  0.77265398  0.63780766  0.01932522  1
  O  O41  1  0.72734602  0.36219234  0.51932522  1
  O  O42  1  0.22734602  0.36219234  0.98067478  1
  O  O43  1  0.27265398  0.63780766  0.48067478  1
  O  O44  1  0.47890736  0.82485862  0.06141617  1
  O  O45  1  0.02109264  0.17514138  0.56141617  1
  O  O46  1  0.52109264  0.17514138  0.93858383  1
  O  O47  1  0.97890736  0.82485862  0.43858383  1
  O  O48  1  0.91052185  0.00952413  0.88595162  1
  O  O49  1  0.58947815  0.99047587  0.38595162  1
  O  O50  1  0.08947815  0.99047587  0.11404838  1
  O  O51  1  0.41052185  0.00952413  0.61404838  1
  O  O52  1  0.53198709  0.49816201  0.13435161  1
  O  O53  1  0.96801291  0.50183799  0.63435161  1
  O  O54  1  0.46801291  0.50183799  0.86564839  1
  O  O55  1  0.03198709  0.49816201  0.36564839  1
  O  O56  1  0.07105458  0.87291405  0.75098538  1
  O  O57  1  0.42894542  0.12708595  0.25098538  1
  O  O58  1  0.92894542  0.12708595  0.24901462  1
  O  O59  1  0.57105458  0.87291405  0.74901462  1
  O  O60  1  0.85504302  0.56887438  0.83902335  1
  O  O61  1  0.64495698  0.43112562  0.33902335  1
  O  O62  1  0.14495698  0.43112562  0.16097665  1
  O  O63  1  0.35504302  0.56887438  0.66097665  1
