# generated using pymatgen
data_FeBO3
_symmetry_space_group_name_H-M   'P 1'
_cell_length_a   3.14936605
_cell_length_b   10.36410672
_cell_length_c   12.42698331
_cell_angle_alpha   90.00000000
_cell_angle_beta   97.54344767
_cell_angle_gamma   90.00000000
_symmetry_Int_Tables_number   1
_chemical_formula_structural   FeBO3
_chemical_formula_sum   'Fe8 B8 O24'
_cell_volume   402.11087180
_cell_formula_units_Z   8
loop_
 _symmetry_equiv_pos_site_id
 _symmetry_equiv_pos_as_xyz
  1  'x, y, z'
loop_
 _atom_site_type_symbol
 _atom_site_label
 _atom_site_symmetry_multiplicity
 _atom_site_fract_x
 _atom_site_fract_y
 _atom_site_fract_z
 _atom_site_occupancy
  Fe  Fe0  1  0.75227894  0.64312440  0.99717214  1
  Fe  Fe1  1  0.24772106  0.14312440  0.50282786  1
  Fe  Fe2  1  0.24772106  0.35687560  0.00282786  1
  Fe  Fe3  1  0.75227894  0.85687560  0.49717214  1
  Fe  Fe4  1  0.28989025  0.90839947  0.09730546  1
  Fe  Fe5  1  0.71010975  0.40839947  0.40269454  1
  Fe  Fe6  1  0.71010975  0.09160053  0.90269454  1
  Fe  Fe7  1  0.28989025  0.59160053  0.59730546  1
  B  B8  1  0.22012240  0.66736059  0.36226208  1
  B  B9  1  0.77987760  0.16736059  0.13773792  1
  B  B10  1  0.77987760  0.33263941  0.63773792  1
  B  B11  1  0.22012240  0.83263941  0.86226208  1
  B  B12  1  0.37942223  0.54664985  0.20125039  1
  B  B13  1  0.62057777  0.04664985  0.29874961  1
  B  B14  1  0.62057777  0.45335015  0.79874961  1
  B  B15  1  0.37942223  0.95335015  0.70125039  1
  O  O16  1  0.21348975  0.55760551  0.42634317  1
  O  O17  1  0.78651025  0.05760551  0.07365683  1
  O  O18  1  0.78651025  0.44239449  0.57365683  1
  O  O19  1  0.21348975  0.94239449  0.92634317  1
  O  O20  1  0.19947782  0.78896194  0.40968791  1
  O  O21  1  0.80052218  0.28896194  0.09031209  1
  O  O22  1  0.80052218  0.21103806  0.59031209  1
  O  O23  1  0.19947782  0.71103806  0.90968791  1
  O  O24  1  0.25954516  0.65799151  0.25355805  1
  O  O25  1  0.74045484  0.15799151  0.24644195  1
  O  O26  1  0.74045484  0.34200849  0.74644195  1
  O  O27  1  0.25954516  0.84200849  0.75355805  1
  O  O28  1  0.39875365  0.95100156  0.24729986  1
  O  O29  1  0.60124635  0.45100156  0.25270014  1
  O  O30  1  0.60124635  0.04899844  0.75270014  1
  O  O31  1  0.39875365  0.54899844  0.74729986  1
  O  O32  1  0.28732303  0.54557766  0.08462679  1
  O  O33  1  0.71267697  0.04557766  0.41537321  1
  O  O34  1  0.71267697  0.45442234  0.91537321  1
  O  O35  1  0.28732303  0.95442234  0.58462679  1
  O  O36  1  0.78184615  0.79577103  0.08276501  1
  O  O37  1  0.21815385  0.29577103  0.41723499  1
  O  O38  1  0.21815385  0.20422897  0.91723499  1
  O  O39  1  0.78184615  0.70422897  0.58276501  1
