# generated using pymatgen
data_CoH4S(NO2)2
_symmetry_space_group_name_H-M   'P 1'
_cell_length_a   6.57037073
_cell_length_b   7.71393651
_cell_length_c   8.96912420
_cell_angle_alpha   90.00000000
_cell_angle_beta   90.00000000
_cell_angle_gamma   90.00000000
_symmetry_Int_Tables_number   1
_chemical_formula_structural   CoH4S(NO2)2
_chemical_formula_sum   'Co4 H16 S4 N8 O16'
_cell_volume   454.58591270
_cell_formula_units_Z   4
loop_
 _symmetry_equiv_pos_site_id
 _symmetry_equiv_pos_as_xyz
  1  'x, y, z'
loop_
 _atom_site_type_symbol
 _atom_site_label
 _atom_site_symmetry_multiplicity
 _atom_site_fract_x
 _atom_site_fract_y
 _atom_site_fract_z
 _atom_site_occupancy
  Co  Co0  1  0.00000000  0.50000000  0.50000000  1
  Co  Co1  1  0.50000000  -0.00000000  0.50000000  1
  Co  Co2  1  0.50000000  0.50000000  -0.00000000  1
  Co  Co3  1  -0.00000000  -0.00000000  -0.00000000  1
  H  H4  1  0.30325317  0.38065503  0.67395418  1
  H  H5  1  0.19674683  0.11934497  0.67395418  1
  H  H6  1  0.80325317  0.61934497  0.82604582  1
  H  H7  1  0.69674683  0.88065503  0.82604582  1
  H  H8  1  0.69674683  0.61934497  0.32604582  1
  H  H9  1  0.80325317  0.88065503  0.32604582  1
  H  H10  1  0.19674683  0.38065503  0.17395418  1
  H  H11  1  0.30325317  0.11934497  0.17395418  1
  H  H12  1  0.37294306  0.37448709  0.49788829  1
  H  H13  1  0.12705694  0.12551291  0.49788829  1
  H  H14  1  0.87294306  0.62551291  0.00211171  1
  H  H15  1  0.62705694  0.87448709  0.00211171  1
  H  H16  1  0.62705694  0.62551291  0.50211171  1
  H  H17  1  0.87294306  0.87448709  0.50211171  1
  H  H18  1  0.12705694  0.37448709  0.99788829  1
  H  H19  1  0.37294306  0.12551291  0.99788829  1
  S  S20  1  0.75000000  0.25000000  0.75768004  1
  S  S21  1  0.25000000  0.75000000  0.74231996  1
  S  S22  1  0.25000000  0.75000000  0.24231996  1
  S  S23  1  0.75000000  0.25000000  0.25768004  1
  N  N24  1  0.25585994  0.34458714  0.56933812  1
  N  N25  1  0.24414006  0.15541286  0.56933812  1
  N  N26  1  0.75585994  0.65541286  0.93066188  1
  N  N27  1  0.74414006  0.84458714  0.93066188  1
  N  N28  1  0.74414006  0.65541286  0.43066188  1
  N  N29  1  0.75585994  0.84458714  0.43066188  1
  N  N30  1  0.24414006  0.34458714  0.06933812  1
  N  N31  1  0.25585994  0.15541286  0.06933812  1
  O  O32  1  0.93085662  0.20835106  0.85242400  1
  O  O33  1  0.56914338  0.29164894  0.85242400  1
  O  O34  1  0.43085662  0.79164894  0.64757600  1
  O  O35  1  0.06914338  0.70835106  0.64757600  1
  O  O36  1  0.06914338  0.79164894  0.14757600  1
  O  O37  1  0.43085662  0.70835106  0.14757600  1
  O  O38  1  0.56914338  0.20835106  0.35242400  1
  O  O39  1  0.93085662  0.29164894  0.35242400  1
  O  O40  1  0.79743099  0.40425207  0.66430024  1
  O  O41  1  0.70256901  0.09574793  0.66430024  1
  O  O42  1  0.29743099  0.59574793  0.83569976  1
  O  O43  1  0.20256901  0.90425207  0.83569976  1
  O  O44  1  0.20256901  0.59574793  0.33569976  1
  O  O45  1  0.29743099  0.90425207  0.33569976  1
  O  O46  1  0.70256901  0.40425207  0.16430024  1
  O  O47  1  0.79743099  0.09574793  0.16430024  1
