# generated using pymatgen
data_LiFe2(P2O7)2
_symmetry_space_group_name_H-M   'P 1'
_cell_length_a   8.24973929
_cell_length_b   9.15696640
_cell_length_c   13.39874986
_cell_angle_alpha   90.00000000
_cell_angle_beta   90.00000000
_cell_angle_gamma   90.00000000
_symmetry_Int_Tables_number   1
_chemical_formula_structural   LiFe2(P2O7)2
_chemical_formula_sum   'Li4 Fe8 P16 O56'
_cell_volume   1012.17620672
_cell_formula_units_Z   4
loop_
 _symmetry_equiv_pos_site_id
 _symmetry_equiv_pos_as_xyz
  1  'x, y, z'
loop_
 _atom_site_type_symbol
 _atom_site_label
 _atom_site_symmetry_multiplicity
 _atom_site_fract_x
 _atom_site_fract_y
 _atom_site_fract_z
 _atom_site_occupancy
  Li  Li0  1  0.50000000  0.50000000  -0.00000000  1
  Li  Li1  1  0.00000000  0.50000000  0.50000000  1
  Li  Li2  1  0.50000000  0.00000000  0.50000000  1
  Li  Li3  1  0.00000000  0.00000000  -0.00000000  1
  Fe  Fe4  1  0.35377907  0.01703232  0.09645543  1
  Fe  Fe5  1  0.14622093  0.01703232  0.40354457  1
  Fe  Fe6  1  0.64622093  0.48296768  0.59645543  1
  Fe  Fe7  1  0.85377907  0.48296768  0.90354457  1
  Fe  Fe8  1  0.64622093  0.98296768  0.90354457  1
  Fe  Fe9  1  0.85377907  0.98296768  0.59645543  1
  Fe  Fe10  1  0.35377907  0.51703232  0.40354457  1
  Fe  Fe11  1  0.14622093  0.51703232  0.09645543  1
  P  P12  1  0.05073669  0.82341467  0.20087871  1
  P  P13  1  0.44926331  0.82341467  0.29912129  1
  P  P14  1  0.94926331  0.67658533  0.70087871  1
  P  P15  1  0.55073669  0.67658533  0.79912129  1
  P  P16  1  0.94926331  0.17658533  0.79912129  1
  P  P17  1  0.55073669  0.17658533  0.70087871  1
  P  P18  1  0.05073669  0.32341467  0.29912129  1
  P  P19  1  0.44926331  0.32341467  0.20087871  1
  P  P20  1  0.70811290  0.23036071  0.06680168  1
  P  P21  1  0.79188710  0.23036071  0.43319832  1
  P  P22  1  0.29188710  0.26963929  0.56680168  1
  P  P23  1  0.20811290  0.26963929  0.93319832  1
  P  P24  1  0.29188710  0.76963929  0.93319832  1
  P  P25  1  0.20811290  0.76963929  0.56680168  1
  P  P26  1  0.70811290  0.73036071  0.43319832  1
  P  P27  1  0.79188710  0.73036071  0.06680168  1
  O  O28  1  0.12916896  0.93199765  0.12742924  1
  O  O29  1  0.37083104  0.93199765  0.37257076  1
  O  O30  1  0.87083104  0.56800235  0.62742924  1
  O  O31  1  0.62916896  0.56800235  0.87257076  1
  O  O32  1  0.87083104  0.06800235  0.87257076  1
  O  O33  1  0.62916896  0.06800235  0.62742924  1
  O  O34  1  0.12916896  0.43199765  0.37257076  1
  O  O35  1  0.37083104  0.43199765  0.12742924  1
  O  O36  1  0.86425323  0.80034051  0.16806498  1
  O  O37  1  0.63574677  0.80034051  0.33193502  1
  O  O38  1  0.13574677  0.69965949  0.66806498  1
  O  O39  1  0.36425323  0.69965949  0.83193502  1
  O  O40  1  0.13574677  0.19965949  0.83193502  1
  O  O41  1  0.36425323  0.19965949  0.66806498  1
  O  O42  1  0.86425323  0.30034051  0.33193502  1
  O  O43  1  0.63574677  0.30034051  0.16806498  1
  O  O44  1  0.04447657  0.87989785  0.30768947  1
  O  O45  1  0.45552343  0.87989785  0.19231053  1
  O  O46  1  0.95552343  0.62010215  0.80768947  1
  O  O47  1  0.54447657  0.62010215  0.69231053  1
  O  O48  1  0.95552343  0.12010215  0.69231053  1
  O  O49  1  0.54447657  0.12010215  0.80768947  1
  O  O50  1  0.04447657  0.37989785  0.19231053  1
  O  O51  1  0.45552343  0.37989785  0.30768947  1
  O  O52  1  0.12613928  0.67226990  0.19102379  1
  O  O53  1  0.37386072  0.67226990  0.30897621  1
  O  O54  1  0.87386072  0.82773010  0.69102379  1
  O  O55  1  0.62613928  0.82773010  0.80897621  1
  O  O56  1  0.87386072  0.32773010  0.80897621  1
  O  O57  1  0.62613928  0.32773010  0.69102379  1
  O  O58  1  0.12613928  0.17226990  0.30897621  1
  O  O59  1  0.37386072  0.17226990  0.19102379  1
  O  O60  1  0.86748883  0.15682137  0.08761698  1
  O  O61  1  0.63251117  0.15682137  0.41238302  1
  O  O62  1  0.13251117  0.34317863  0.58761698  1
  O  O63  1  0.36748883  0.34317863  0.91238302  1
  O  O64  1  0.13251117  0.84317863  0.91238302  1
  O  O65  1  0.36748883  0.84317863  0.58761698  1
  O  O66  1  0.86748883  0.65682137  0.41238302  1
  O  O67  1  0.63251117  0.65682137  0.08761698  1
  O  O68  1  0.58300425  0.11327219  0.02828567  1
  O  O69  1  0.91699575  0.11327219  0.47171433  1
  O  O70  1  0.41699575  0.38672781  0.52828567  1
  O  O71  1  0.08300425  0.38672781  0.97171433  1
  O  O72  1  0.41699575  0.88672781  0.97171433  1
  O  O73  1  0.08300425  0.88672781  0.52828567  1
  O  O74  1  0.58300425  0.61327219  0.47171433  1
  O  O75  1  0.91699575  0.61327219  0.02828567  1
  O  O76  1  0.71523968  0.36158464  0.99602033  1
  O  O77  1  0.78476032  0.36158464  0.50397967  1
  O  O78  1  0.28476032  0.13841536  0.49602033  1
  O  O79  1  0.21523968  0.13841536  0.00397967  1
  O  O80  1  0.28476032  0.63841536  0.00397967  1
  O  O81  1  0.21523968  0.63841536  0.49602033  1
  O  O82  1  0.71523968  0.86158464  0.50397967  1
  O  O83  1  0.78476032  0.86158464  0.99602033  1
