# generated using pymatgen
data_Mn5(PO6)2
_symmetry_space_group_name_H-M   'P 1'
_cell_length_a   5.54065514
_cell_length_b   9.18508325
_cell_length_c   17.29266350
_cell_angle_alpha   90.00000000
_cell_angle_beta   90.00000000
_cell_angle_gamma   90.00000000
_symmetry_Int_Tables_number   1
_chemical_formula_structural   Mn5(PO6)2
_chemical_formula_sum   'Mn20 P8 O48'
_cell_volume   880.04748726
_cell_formula_units_Z   4
loop_
 _symmetry_equiv_pos_site_id
 _symmetry_equiv_pos_as_xyz
  1  'x, y, z'
loop_
 _atom_site_type_symbol
 _atom_site_label
 _atom_site_symmetry_multiplicity
 _atom_site_fract_x
 _atom_site_fract_y
 _atom_site_fract_z
 _atom_site_occupancy
  Mn  Mn0  1  0.05039763  0.63868350  0.62520737  1
  Mn  Mn1  1  0.55039763  0.86131650  0.37479263  1
  Mn  Mn2  1  0.94960237  0.13868350  0.87479263  1
  Mn  Mn3  1  0.44960237  0.36131650  0.12520737  1
  Mn  Mn4  1  0.54827385  0.63227200  0.52908753  1
  Mn  Mn5  1  0.04827385  0.86772800  0.47091247  1
  Mn  Mn6  1  0.45172615  0.13227200  0.97091247  1
  Mn  Mn7  1  0.95172615  0.36772800  0.02908753  1
  Mn  Mn8  1  0.55843946  0.65876385  0.72025249  1
  Mn  Mn9  1  0.05843946  0.84123615  0.27974751  1
  Mn  Mn10  1  0.44156054  0.15876385  0.77974751  1
  Mn  Mn11  1  0.94156054  0.34123615  0.22025249  1
  Mn  Mn12  1  0.72255882  0.19838741  0.43490844  1
  Mn  Mn13  1  0.22255882  0.30161259  0.56509156  1
  Mn  Mn14  1  0.27744118  0.69838741  0.06509156  1
  Mn  Mn15  1  0.77744118  0.80161259  0.93490844  1
  Mn  Mn16  1  0.40320461  0.51489170  0.31184278  1
  Mn  Mn17  1  0.90320461  0.98510830  0.68815722  1
  Mn  Mn18  1  0.59679539  0.01489170  0.18815722  1
  Mn  Mn19  1  0.09679539  0.48510830  0.81184278  1
  P  P20  1  0.68841587  0.33041019  0.62058479  1
  P  P21  1  0.18841587  0.16958981  0.37941521  1
  P  P22  1  0.31158413  0.83041019  0.87941521  1
  P  P23  1  0.81158413  0.66958981  0.12058479  1
  P  P24  1  0.87299025  0.55469838  0.36602324  1
  P  P25  1  0.37299025  0.94530162  0.63397676  1
  P  P26  1  0.12700975  0.05469838  0.13397676  1
  P  P27  1  0.62700975  0.44530162  0.86602324  1
  O  O28  1  0.43671613  0.23612558  0.36295107  1
  O  O29  1  0.93671613  0.26387442  0.63704893  1
  O  O30  1  0.56328387  0.73612558  0.13704893  1
  O  O31  1  0.06328387  0.76387442  0.86295107  1
  O  O32  1  0.71535036  0.50339206  0.61698597  1
  O  O33  1  0.21535036  0.99660794  0.38301403  1
  O  O34  1  0.28464964  0.00339206  0.88301403  1
  O  O35  1  0.78464964  0.49660794  0.11698597  1
  O  O36  1  0.49008688  0.28740398  0.67798096  1
  O  O37  1  0.99008688  0.21259602  0.32201904  1
  O  O38  1  0.50991312  0.78740398  0.82201904  1
  O  O39  1  0.00991312  0.71259602  0.17798096  1
  O  O40  1  0.59031399  0.28320046  0.53906920  1
  O  O41  1  0.09031399  0.21679954  0.46093080  1
  O  O42  1  0.40968601  0.78320046  0.96093080  1
  O  O43  1  0.90968601  0.71679954  0.03906920  1
  O  O44  1  0.88644941  0.72553783  0.36484666  1
  O  O45  1  0.38644941  0.77446217  0.63515334  1
  O  O46  1  0.11355059  0.22553783  0.13515334  1
  O  O47  1  0.61355059  0.27446217  0.86484666  1
  O  O48  1  0.67356259  0.50798857  0.42282121  1
  O  O49  1  0.17356259  0.99201143  0.57717879  1
  O  O50  1  0.32643741  0.00798857  0.07717879  1
  O  O51  1  0.82643741  0.49201143  0.92282121  1
  O  O52  1  0.12275870  0.49188805  0.38004919  1
  O  O53  1  0.62275870  0.00811195  0.61995081  1
  O  O54  1  0.87724130  0.99188805  0.11995081  1
  O  O55  1  0.37724130  0.50811195  0.88004919  1
  O  O56  1  0.76872620  0.50295000  0.28503837  1
  O  O57  1  0.26872620  0.99705000  0.71496163  1
  O  O58  1  0.23127380  0.00295000  0.21496163  1
  O  O59  1  0.73127380  0.49705000  0.78503837  1
  O  O60  1  0.24104129  0.56310124  0.72009835  1
  O  O61  1  0.74104129  0.93689876  0.27990165  1
  O  O62  1  0.75895871  0.06310124  0.77990165  1
  O  O63  1  0.25895871  0.43689876  0.22009835  1
  O  O64  1  0.35417524  0.74241822  0.30587457  1
  O  O65  1  0.85417524  0.75758178  0.69412543  1
  O  O66  1  0.64582476  0.24241822  0.19412543  1
  O  O67  1  0.14582476  0.25758178  0.80587457  1
  O  O68  1  0.87844540  0.72537171  0.53351268  1
  O  O69  1  0.37844540  0.77462829  0.46648732  1
  O  O70  1  0.12155460  0.22537171  0.96648732  1
  O  O71  1  0.62155460  0.27462829  0.03351268  1
  O  O72  1  0.25482213  0.52456448  0.55828516  1
  O  O73  1  0.75482213  0.97543552  0.44171484  1
  O  O74  1  0.74517787  0.02456448  0.94171484  1
  O  O75  1  0.24517787  0.47543552  0.05828516  1
