# generated using pymatgen
data_H5BrNO
_symmetry_space_group_name_H-M   'P 1'
_cell_length_a   6.77042985
_cell_length_b   7.06819212
_cell_length_c   8.33622445
_cell_angle_alpha   90.00000000
_cell_angle_beta   117.48068752
_cell_angle_gamma   90.00000000
_symmetry_Int_Tables_number   1
_chemical_formula_structural   H5BrNO
_chemical_formula_sum   'H20 Br4 N4 O4'
_cell_volume   353.91509314
_cell_formula_units_Z   4
loop_
 _symmetry_equiv_pos_site_id
 _symmetry_equiv_pos_as_xyz
  1  'x, y, z'
loop_
 _atom_site_type_symbol
 _atom_site_label
 _atom_site_symmetry_multiplicity
 _atom_site_fract_x
 _atom_site_fract_y
 _atom_site_fract_z
 _atom_site_occupancy
  H  H0  1  0.20962364  0.10790160  0.57593142  1
  H  H1  1  0.70962364  0.39209840  0.07593142  1
  H  H2  1  0.79037636  0.89209840  0.42406858  1
  H  H3  1  0.29037636  0.60790160  0.92406858  1
  H  H4  1  0.16716158  0.87592997  0.49261021  1
  H  H5  1  0.66716158  0.62407003  0.99261021  1
  H  H6  1  0.83283842  0.12407003  0.50738979  1
  H  H7  1  0.33283842  0.37592997  0.00738979  1
  H  H8  1  0.13929358  0.92852023  0.68540213  1
  H  H9  1  0.63929358  0.57147977  0.18540213  1
  H  H10  1  0.86070642  0.07147977  0.31459787  1
  H  H11  1  0.36070642  0.42852023  0.81459787  1
  H  H12  1  0.22014511  0.92660339  0.96943724  1
  H  H13  1  0.72014511  0.57339661  0.46943724  1
  H  H14  1  0.77985489  0.07339661  0.03056276  1
  H  H15  1  0.27985489  0.42660339  0.53056276  1
  H  H16  1  0.98908519  0.82676539  0.85373783  1
  H  H17  1  0.48908519  0.67323461  0.35373783  1
  H  H18  1  0.01091481  0.17323461  0.14626217  1
  H  H19  1  0.51091481  0.32676539  0.64626217  1
  Br  Br20  1  0.13621151  0.63997234  0.31286281  1
  Br  Br21  1  0.63621151  0.86002766  0.81286281  1
  Br  Br22  1  0.86378849  0.36002766  0.68713719  1
  Br  Br23  1  0.36378849  0.13997234  0.18713719  1
  N  N24  1  0.38261777  0.48169375  0.94270674  1
  N  N25  1  0.88261777  0.01830625  0.44270674  1
  N  N26  1  0.61738223  0.51830625  0.05729326  1
  N  N27  1  0.11738223  0.98169375  0.55729326  1
  O  O28  1  0.14387248  0.83344685  0.86885390  1
  O  O29  1  0.64387248  0.66655315  0.36885390  1
  O  O30  1  0.85612752  0.16655315  0.13114610  1
  O  O31  1  0.35612752  0.33344685  0.63114610  1
