# generated using pymatgen
data_ZnAs3OF18
_symmetry_space_group_name_H-M   'P 1'
_cell_length_a   9.68448640
_cell_length_b   10.55431538
_cell_length_c   14.24900222
_cell_angle_alpha   90.00000000
_cell_angle_beta   90.00000000
_cell_angle_gamma   90.00000000
_symmetry_Int_Tables_number   1
_chemical_formula_structural   ZnAs3OF18
_chemical_formula_sum   'Zn4 As12 O4 F72'
_cell_volume   1456.43502735
_cell_formula_units_Z   4
loop_
 _symmetry_equiv_pos_site_id
 _symmetry_equiv_pos_as_xyz
  1  'x, y, z'
loop_
 _atom_site_type_symbol
 _atom_site_label
 _atom_site_symmetry_multiplicity
 _atom_site_fract_x
 _atom_site_fract_y
 _atom_site_fract_z
 _atom_site_occupancy
  Zn  Zn0  1  0.00000000  0.00000000  0.50000000  1
  Zn  Zn1  1  0.50000000  0.50000000  -0.00000000  1
  Zn  Zn2  1  0.00000000  0.00000000  -0.00000000  1
  Zn  Zn3  1  0.50000000  0.50000000  0.50000000  1
  As  As4  1  0.19599420  0.70385601  0.44842867  1
  As  As5  1  0.30400580  0.20385601  0.05157133  1
  As  As6  1  0.80400580  0.29614399  0.94842867  1
  As  As7  1  0.69599420  0.79614399  0.55157133  1
  As  As8  1  0.80400580  0.29614399  0.55157133  1
  As  As9  1  0.69599420  0.79614399  0.94842867  1
  As  As10  1  0.19599420  0.70385601  0.05157133  1
  As  As11  1  0.30400580  0.20385601  0.44842867  1
  As  As12  1  0.10796467  0.97696453  0.75000000  1
  As  As13  1  0.39203533  0.47696453  0.75000000  1
  As  As14  1  0.89203533  0.02303547  0.25000000  1
  As  As15  1  0.60796467  0.52303547  0.25000000  1
  O  O16  1  0.51938138  0.06810763  0.75000000  1
  O  O17  1  0.98061862  0.56810763  0.75000000  1
  O  O18  1  0.48061862  0.93189237  0.25000000  1
  O  O19  1  0.01938138  0.43189237  0.25000000  1
  F  F20  1  0.28119277  0.78368981  0.35744854  1
  F  F21  1  0.21880723  0.28368981  0.14255146  1
  F  F22  1  0.71880723  0.21631019  0.85744854  1
  F  F23  1  0.78119277  0.71631019  0.64255146  1
  F  F24  1  0.71880723  0.21631019  0.64255146  1
  F  F25  1  0.78119277  0.71631019  0.85744854  1
  F  F26  1  0.28119277  0.78368981  0.14255146  1
  F  F27  1  0.21880723  0.28368981  0.35744854  1
  F  F28  1  0.09812077  0.62161336  0.36415759  1
  F  F29  1  0.40187923  0.12161336  0.13584241  1
  F  F30  1  0.90187923  0.37838664  0.86415759  1
  F  F31  1  0.59812077  0.87838664  0.63584241  1
  F  F32  1  0.90187923  0.37838664  0.63584241  1
  F  F33  1  0.59812077  0.87838664  0.86415759  1
  F  F34  1  0.09812077  0.62161336  0.13584241  1
  F  F35  1  0.40187923  0.12161336  0.36415759  1
  F  F36  1  0.10950182  0.62312861  0.53789473  1
  F  F37  1  0.39049818  0.12312861  0.96210527  1
  F  F38  1  0.89049818  0.37687139  0.03789473  1
  F  F39  1  0.60950182  0.87687139  0.46210527  1
  F  F40  1  0.89049818  0.37687139  0.46210527  1
  F  F41  1  0.60950182  0.87687139  0.03789473  1
  F  F42  1  0.10950182  0.62312861  0.96210527  1
  F  F43  1  0.39049818  0.12312861  0.53789473  1
  F  F44  1  0.29374752  0.78554747  0.53171102  1
  F  F45  1  0.20625248  0.28554747  0.96828898  1
  F  F46  1  0.70625248  0.21445253  0.03171102  1
  F  F47  1  0.79374752  0.71445253  0.46828898  1
  F  F48  1  0.70625248  0.21445253  0.46828898  1
  F  F49  1  0.79374752  0.71445253  0.03171102  1
  F  F50  1  0.29374752  0.78554747  0.96828898  1
  F  F51  1  0.20625248  0.28554747  0.53171102  1
  F  F52  1  0.06464902  0.82781900  0.45072815  1
  F  F53  1  0.43535098  0.32781900  0.04927185  1
  F  F54  1  0.93535098  0.17218100  0.95072815  1
  F  F55  1  0.56464902  0.67218100  0.54927185  1
  F  F56  1  0.93535098  0.17218100  0.54927185  1
  F  F57  1  0.56464902  0.67218100  0.95072815  1
  F  F58  1  0.06464902  0.82781900  0.04927185  1
  F  F59  1  0.43535098  0.32781900  0.45072815  1
  F  F60  1  0.05766639  0.81665959  0.75000000  1
  F  F61  1  0.44233361  0.31665959  0.75000000  1
  F  F62  1  0.94233361  0.18334041  0.25000000  1
  F  F63  1  0.55766639  0.68334041  0.25000000  1
  F  F64  1  0.28157041  0.92543350  0.75000000  1
  F  F65  1  0.21842959  0.42543350  0.75000000  1
  F  F66  1  0.71842959  0.07456650  0.25000000  1
  F  F67  1  0.78157041  0.57456650  0.25000000  1
  F  F68  1  0.32631252  0.57869772  0.44281293  1
  F  F69  1  0.17368748  0.07869772  0.05718707  1
  F  F70  1  0.67368748  0.42130228  0.94281293  1
  F  F71  1  0.82631252  0.92130228  0.55718707  1
  F  F72  1  0.67368748  0.42130228  0.55718707  1
  F  F73  1  0.82631252  0.92130228  0.94281293  1
  F  F74  1  0.32631252  0.57869772  0.05718707  1
  F  F75  1  0.17368748  0.07869772  0.44281293  1
  F  F76  1  0.16498268  0.13288520  0.75000000  1
  F  F77  1  0.33501732  0.63288520  0.75000000  1
  F  F78  1  0.83501732  0.86711480  0.25000000  1
  F  F79  1  0.66498268  0.36711480  0.25000000  1
  F  F80  1  0.10941686  0.97453383  0.62211227  1
  F  F81  1  0.39058314  0.47453383  0.87788773  1
  F  F82  1  0.89058314  0.02546617  0.12211227  1
  F  F83  1  0.60941686  0.52546617  0.37788773  1
  F  F84  1  0.89058314  0.02546617  0.37788773  1
  F  F85  1  0.60941686  0.52546617  0.12211227  1
  F  F86  1  0.10941686  0.97453383  0.87788773  1
  F  F87  1  0.39058314  0.47453383  0.62211227  1
  F  F88  1  0.93518979  0.02408455  0.75000000  1
  F  F89  1  0.56481021  0.52408455  0.75000000  1
  F  F90  1  0.06481021  0.97591545  0.25000000  1
  F  F91  1  0.43518979  0.47591545  0.25000000  1
