# generated using pymatgen
data_AgH12C4Se5N
_symmetry_space_group_name_H-M   'P 1'
_cell_length_a   7.87865313
_cell_length_b   9.93934908
_cell_length_c   11.49703279
_cell_angle_alpha   113.09748490
_cell_angle_beta   106.99129163
_cell_angle_gamma   96.69739189
_symmetry_Int_Tables_number   1
_chemical_formula_structural   AgH12C4Se5N
_chemical_formula_sum   'Ag2 H24 C8 Se10 N2'
_cell_volume   764.13874320
_cell_formula_units_Z   2
loop_
 _symmetry_equiv_pos_site_id
 _symmetry_equiv_pos_as_xyz
  1  'x, y, z'
loop_
 _atom_site_type_symbol
 _atom_site_label
 _atom_site_symmetry_multiplicity
 _atom_site_fract_x
 _atom_site_fract_y
 _atom_site_fract_z
 _atom_site_occupancy
  Ag  Ag0  1  0.97470579  0.66345705  0.03871702  1
  Ag  Ag1  1  0.43598877  0.62474004  0.96128298  1
  H  H2  1  0.79711470  0.96952682  0.28035369  1
  H  H3  1  0.01676101  0.68917313  0.71964631  1
  H  H4  1  0.99546201  0.08336009  0.43329542  1
  H  H5  1  0.06216658  0.65006467  0.56670458  1
  H  H6  1  0.02415545  0.97962621  0.27468076  1
  H  H7  1  0.24947469  0.70494545  0.72531924  1
  H  H8  1  0.21010179  0.20961952  0.31113164  1
  H  H9  1  0.39897015  0.89848787  0.68886836  1
  H  H10  1  0.17583046  0.31565144  0.46617547  1
  H  H11  1  0.20965499  0.84947597  0.53382453  1
  H  H12  1  0.12094331  0.37307228  0.33155819  1
  H  H13  1  0.28938512  0.04151409  0.66844181  1
  H  H14  1  0.86771501  0.30070470  0.46717660  1
  H  H15  1  0.90053842  0.83352810  0.53282340  1
  H  H16  1  0.67318726  0.18581554  0.31163122  1
  H  H17  1  0.86155604  0.87418432  0.68836878  1
  H  H18  1  0.80848049  0.35927202  0.33311273  1
  H  H19  1  0.97536776  0.02615930  0.66688727  1
  H  H20  1  0.85774579  0.22842829  0.12845461  1
  H  H21  1  0.22929118  0.09997368  0.87154539  1
  H  H22  1  0.71537337  0.05581687  0.10425898  1
  H  H23  1  0.11111439  0.95155790  0.89574102  1
  H  H24  1  0.94173663  0.06074360  0.09958999  1
  H  H25  1  0.34214664  0.96115360  0.90041001  1
  C  C26  1  0.93749068  0.04176391  0.32278249  1
  C  C27  1  0.11470819  0.71898142  0.67721751  1
  C  C28  1  0.12462349  0.27692490  0.35571908  1
  C  C29  1  0.26890441  0.92120582  0.64428092  1
  C  C30  1  0.81166014  0.26293937  0.35727556  1
  C  C31  1  0.95438458  0.90566381  0.64272444  1
  C  C32  1  0.85610386  0.12672096  0.14499068  1
  C  C33  1  0.21111318  0.98173028  0.85500932  1
  Se  Se34  1  0.68841588  0.71205851  0.88075151  1
  Se  Se35  1  0.30766437  0.83130700  0.11924849  1
  Se  Se36  1  0.63368596  0.51157647  0.66366380  1
  Se  Se37  1  0.47002216  0.84791267  0.33633620  1
  Se  Se38  1  0.66576711  0.29552055  0.70122798  1
  Se  Se39  1  0.46453913  0.59429257  0.29877202  1
  Se  Se40  1  0.96698740  0.36962940  0.86807473  1
  Se  Se41  1  0.59891267  0.50155467  0.13192527  1
  Se  Se42  1  0.92276123  0.59836657  0.23162518  1
  Se  Se43  1  0.19113605  0.36674139  0.76837482  1
  N  N44  1  0.93250291  0.17705564  0.29525411  1
  N  N45  1  0.13724880  0.88180152  0.70474589  1
