# generated using pymatgen
data_Nd11Hg45
_symmetry_space_group_name_H-M   'P 1'
_cell_length_a   15.83356365
_cell_length_b   15.83356365
_cell_length_c   15.83356365
_cell_angle_alpha   60.00000000
_cell_angle_beta   60.00000000
_cell_angle_gamma   60.00000000
_symmetry_Int_Tables_number   1
_chemical_formula_structural   Nd11Hg45
_chemical_formula_sum   'Nd22 Hg90'
_cell_volume   2806.86173013
_cell_formula_units_Z   2
loop_
 _symmetry_equiv_pos_site_id
 _symmetry_equiv_pos_as_xyz
  1  'x, y, z'
loop_
 _atom_site_type_symbol
 _atom_site_label
 _atom_site_symmetry_multiplicity
 _atom_site_fract_x
 _atom_site_fract_y
 _atom_site_fract_z
 _atom_site_occupancy
  Nd  Nd0  1  -0.00000000  -0.00000000  -0.00000000  1
  Nd  Nd1  1  0.36123432  0.67023851  0.98426359  1
  Nd  Nd2  1  0.36123432  0.98426359  0.98426359  1
  Nd  Nd3  1  0.36123432  0.98426359  0.67023851  1
  Nd  Nd4  1  0.67023851  0.36123432  0.98426359  1
  Nd  Nd5  1  0.98426359  0.36123432  0.67023851  1
  Nd  Nd6  1  0.98426359  0.36123432  0.98426359  1
  Nd  Nd7  1  0.98426359  0.98426359  0.36123432  1
  Nd  Nd8  1  0.98426359  0.67023851  0.36123432  1
  Nd  Nd9  1  0.67023851  0.98426359  0.36123432  1
  Nd  Nd10  1  0.98426359  0.98426359  0.67023851  1
  Nd  Nd11  1  0.67023851  0.98426359  0.98426359  1
  Nd  Nd12  1  0.98426359  0.67023851  0.98426359  1
  Nd  Nd13  1  0.75000000  0.75000000  0.75000000  1
  Nd  Nd14  1  0.21744131  0.59418623  0.59418623  1
  Nd  Nd15  1  0.59418623  0.21744131  0.59418623  1
  Nd  Nd16  1  0.59418623  0.59418623  0.21744131  1
  Nd  Nd17  1  0.59418623  0.59418623  0.59418623  1
  Nd  Nd18  1  0.98542764  0.33819079  0.33819079  1
  Nd  Nd19  1  0.33819079  0.98542764  0.33819079  1
  Nd  Nd20  1  0.33819079  0.33819079  0.98542764  1
  Nd  Nd21  1  0.33819079  0.33819079  0.33819079  1
  Hg  Hg22  1  0.24884860  0.91705047  0.91705047  1
  Hg  Hg23  1  0.91705047  0.24884860  0.91705047  1
  Hg  Hg24  1  0.91705047  0.91705047  0.24884860  1
  Hg  Hg25  1  0.91705047  0.91705047  0.91705047  1
  Hg  Hg26  1  0.74373753  0.08542082  0.08542082  1
  Hg  Hg27  1  0.08542082  0.74373753  0.08542082  1
  Hg  Hg28  1  0.08542082  0.08542082  0.74373753  1
  Hg  Hg29  1  0.08542082  0.08542082  0.08542082  1
  Hg  Hg30  1  0.15350844  0.84649156  0.84649156  1
  Hg  Hg31  1  0.15350844  0.84649156  0.15350844  1
  Hg  Hg32  1  0.15350844  0.15350844  0.84649156  1
  Hg  Hg33  1  0.84649156  0.15350844  0.15350844  1
  Hg  Hg34  1  0.84649156  0.15350844  0.84649156  1
  Hg  Hg35  1  0.84649156  0.84649156  0.15350844  1
  Hg  Hg36  1  0.98339220  0.80034505  0.60813138  1
  Hg  Hg37  1  0.98339220  0.60813138  0.60813138  1
  Hg  Hg38  1  0.98339220  0.60813138  0.80034505  1
  Hg  Hg39  1  0.80034505  0.98339220  0.60813138  1
  Hg  Hg40  1  0.60813138  0.98339220  0.80034505  1
  Hg  Hg41  1  0.60813138  0.98339220  0.60813138  1
  Hg  Hg42  1  0.60813138  0.60813138  0.98339220  1
  Hg  Hg43  1  0.60813138  0.80034505  0.98339220  1
  Hg  Hg44  1  0.80034505  0.60813138  0.98339220  1
  Hg  Hg45  1  0.60813138  0.60813138  0.80034505  1
  Hg  Hg46  1  0.80034505  0.60813138  0.60813138  1
  Hg  Hg47  1  0.60813138  0.80034505  0.60813138  1
  Hg  Hg48  1  0.48665016  0.83778328  0.83778328  1
  Hg  Hg49  1  0.83778328  0.48665016  0.83778328  1
  Hg  Hg50  1  0.83778328  0.83778328  0.48665016  1
  Hg  Hg51  1  0.83778328  0.83778328  0.83778328  1
  Hg  Hg52  1  0.13134076  0.38573379  0.74146272  1
  Hg  Hg53  1  0.13134076  0.74146272  0.74146272  1
  Hg  Hg54  1  0.13134076  0.74146272  0.38573379  1
  Hg  Hg55  1  0.38573379  0.13134076  0.74146272  1
  Hg  Hg56  1  0.74146272  0.13134076  0.38573379  1
  Hg  Hg57  1  0.74146272  0.13134076  0.74146272  1
  Hg  Hg58  1  0.74146272  0.74146272  0.13134076  1
  Hg  Hg59  1  0.74146272  0.38573379  0.13134076  1
  Hg  Hg60  1  0.38573379  0.74146272  0.13134076  1
  Hg  Hg61  1  0.74146272  0.74146272  0.38573379  1
  Hg  Hg62  1  0.38573379  0.74146272  0.74146272  1
  Hg  Hg63  1  0.74146272  0.38573379  0.74146272  1
  Hg  Hg64  1  0.50000000  0.50000000  0.50000000  1
  Hg  Hg65  1  0.73372026  0.55047798  0.35790088  1
  Hg  Hg66  1  0.73372026  0.35790088  0.35790088  1
  Hg  Hg67  1  0.73372026  0.35790088  0.55047798  1
  Hg  Hg68  1  0.55047798  0.73372026  0.35790088  1
  Hg  Hg69  1  0.35790088  0.73372026  0.55047798  1
  Hg  Hg70  1  0.35790088  0.73372026  0.35790088  1
  Hg  Hg71  1  0.35790088  0.35790088  0.73372026  1
  Hg  Hg72  1  0.35790088  0.55047798  0.73372026  1
  Hg  Hg73  1  0.55047798  0.35790088  0.73372026  1
  Hg  Hg74  1  0.35790088  0.35790088  0.55047798  1
  Hg  Hg75  1  0.55047798  0.35790088  0.35790088  1
  Hg  Hg76  1  0.35790088  0.55047798  0.35790088  1
  Hg  Hg77  1  0.86087214  0.16279216  0.48816785  1
  Hg  Hg78  1  0.86087214  0.48816785  0.48816785  1
  Hg  Hg79  1  0.86087214  0.48816785  0.16279216  1
  Hg  Hg80  1  0.16279216  0.86087214  0.48816785  1
  Hg  Hg81  1  0.48816785  0.86087214  0.16279216  1
  Hg  Hg82  1  0.48816785  0.86087214  0.48816785  1
  Hg  Hg83  1  0.48816785  0.48816785  0.86087214  1
  Hg  Hg84  1  0.48816785  0.16279216  0.86087214  1
  Hg  Hg85  1  0.16279216  0.48816785  0.86087214  1
  Hg  Hg86  1  0.48816785  0.48816785  0.16279216  1
  Hg  Hg87  1  0.16279216  0.48816785  0.48816785  1
  Hg  Hg88  1  0.48816785  0.16279216  0.48816785  1
  Hg  Hg89  1  0.25000000  0.25000000  0.25000000  1
  Hg  Hg90  1  0.48368255  0.17210582  0.17210582  1
  Hg  Hg91  1  0.17210582  0.48368255  0.17210582  1
  Hg  Hg92  1  0.17210582  0.17210582  0.48368255  1
  Hg  Hg93  1  0.17210582  0.17210582  0.17210582  1
  Hg  Hg94  1  0.41141170  0.08858830  0.08858830  1
  Hg  Hg95  1  0.41141170  0.08858830  0.41141170  1
  Hg  Hg96  1  0.41141170  0.41141170  0.08858830  1
  Hg  Hg97  1  0.08858830  0.41141170  0.41141170  1
  Hg  Hg98  1  0.08858830  0.41141170  0.08858830  1
  Hg  Hg99  1  0.08858830  0.08858830  0.41141170  1
  Hg  Hg100  1  0.59554292  0.93415557  0.23515075  1
  Hg  Hg101  1  0.59554292  0.23515075  0.23515075  1
  Hg  Hg102  1  0.59554292  0.23515075  0.93415557  1
  Hg  Hg103  1  0.93415557  0.59554292  0.23515075  1
  Hg  Hg104  1  0.23515075  0.59554292  0.93415557  1
  Hg  Hg105  1  0.23515075  0.59554292  0.23515075  1
  Hg  Hg106  1  0.23515075  0.23515075  0.59554292  1
  Hg  Hg107  1  0.23515075  0.93415557  0.59554292  1
  Hg  Hg108  1  0.93415557  0.23515075  0.59554292  1
  Hg  Hg109  1  0.23515075  0.23515075  0.93415557  1
  Hg  Hg110  1  0.93415557  0.23515075  0.23515075  1
  Hg  Hg111  1  0.23515075  0.93415557  0.23515075  1
