# generated using pymatgen
data_MoP3H27C9I2O
_symmetry_space_group_name_H-M   'P 1'
_cell_length_a   10.55054001
_cell_length_b   11.26587615
_cell_length_c   20.05151030
_cell_angle_alpha   90.00000000
_cell_angle_beta   90.00000000
_cell_angle_gamma   90.00000000
_symmetry_Int_Tables_number   1
_chemical_formula_structural   MoP3H27C9I2O
_chemical_formula_sum   'Mo4 P12 H108 C36 I8 O4'
_cell_volume   2383.34411110
_cell_formula_units_Z   4
loop_
 _symmetry_equiv_pos_site_id
 _symmetry_equiv_pos_as_xyz
  1  'x, y, z'
loop_
 _atom_site_type_symbol
 _atom_site_label
 _atom_site_symmetry_multiplicity
 _atom_site_fract_x
 _atom_site_fract_y
 _atom_site_fract_z
 _atom_site_occupancy
  Mo  Mo0  1  0.75570629  0.43488982  0.38685188  1
  Mo  Mo1  1  0.74429371  0.56511018  0.88685188  1
  Mo  Mo2  1  0.25570629  0.06511018  0.61314812  1
  Mo  Mo3  1  0.24429371  0.93488982  0.11314812  1
  P  P4  1  0.52396970  0.35445612  0.38804084  1
  P  P5  1  0.97603030  0.64554388  0.88804084  1
  P  P6  1  0.02396970  0.14554388  0.61195916  1
  P  P7  1  0.47603030  0.85445612  0.11195916  1
  P  P8  1  0.69656421  0.64085975  0.44170799  1
  P  P9  1  0.80343579  0.35914025  0.94170799  1
  P  P10  1  0.19656421  0.85914025  0.55829201  1
  P  P11  1  0.30343579  0.14085975  0.05829201  1
  P  P12  1  0.83197634  0.27643304  0.29800866  1
  P  P13  1  0.66802366  0.72356696  0.79800866  1
  P  P14  1  0.33197634  0.22356696  0.70199134  1
  P  P15  1  0.16802366  0.77643304  0.20199134  1
  H  H16  1  0.44759739  0.34485364  0.27421149  1
  H  H17  1  0.05240261  0.65514636  0.77421149  1
  H  H18  1  0.94759739  0.15514636  0.72578851  1
  H  H19  1  0.55240261  0.84485364  0.22578851  1
  H  H20  1  0.41219880  0.48363347  0.31207572  1
  H  H21  1  0.08780120  0.51636653  0.81207572  1
  H  H22  1  0.91219880  0.01636653  0.68792428  1
  H  H23  1  0.58780120  0.98363347  0.18792428  1
  H  H24  1  0.31895662  0.35425013  0.33202393  1
  H  H25  1  0.18104338  0.64574987  0.83202393  1
  H  H26  1  0.81895662  0.14574987  0.66797607  1
  H  H27  1  0.68104338  0.85425013  0.16797607  1
  H  H28  1  0.34284951  0.35184124  0.46148589  1
  H  H29  1  0.15715049  0.64815876  0.96148589  1
  H  H30  1  0.84284951  0.14815876  0.53851411  1
  H  H31  1  0.65715049  0.85184124  0.03851411  1
  H  H32  1  0.41803759  0.49419400  0.46425215  1
  H  H33  1  0.08196241  0.50580600  0.96425215  1
  H  H34  1  0.91803759  0.00580600  0.53574785  1
  H  H35  1  0.58196241  0.99419400  0.03574785  1
  H  H36  1  0.48780129  0.37037569  0.50654347  1
  H  H37  1  0.01219871  0.62962431  0.00654347  1
  H  H38  1  0.98780129  0.12962431  0.49345653  1
  H  H39  1  0.51219871  0.87037569  0.99345653  1
  H  H40  1  0.41577588  0.16860134  0.40762952  1
  H  H41  1  0.08422412  0.83139866  0.90762952  1
  H  H42  1  0.91577588  0.33139866  0.59237048  1
  H  H43  1  0.58422412  0.66860134  0.09237048  1
  H  H44  1  0.57387722  0.16753052  0.44010104  1
  H  H45  1  0.92612278  0.83246948  0.94010104  1
  H  H46  1  0.07387722  0.33246948  0.55989896  1
  H  H47  1  0.42612278  0.66753052  0.05989896  1
  H  H48  1  0.54647051  0.14748389  0.35225095  1
  H  H49  1  0.95352949  0.85251611  0.85225095  1
  H  H50  1  0.04647051  0.35251611  0.64774905  1
  H  H51  1  0.45352949  0.64748389  0.14774905  1
  H  H52  1  0.76855816  0.84225223  0.45533158  1
  H  H53  1  0.73144184  0.15774777  0.95533158  1
  H  H54  1  0.26855816  0.65774777  0.54466842  1
  H  H55  1  0.23144184  0.34225223  0.04466842  1
  H  H56  1  0.79366341  0.78993990  0.37178266  1
  H  H57  1  0.70633659  0.21006010  0.87178266  1
  H  H58  1  0.29366341  0.71006010  0.62821734  1
  H  H59  1  0.20633659  0.28993990  0.12821734  1
  H  H60  1  0.89948968  0.74447966  0.43624645  1
  H  H61  1  0.60051032  0.25552034  0.93624645  1
  H  H62  1  0.39948968  0.75552034  0.56375355  1
  H  H63  1  0.10051032  0.24447966  0.06375355  1
  H  H64  1  0.78600395  0.60969763  0.55167152  1
  H  H65  1  0.71399605  0.39030237  0.05167152  1
  H  H66  1  0.28600395  0.89030237  0.44832848  1
  H  H67  1  0.21399605  0.10969763  0.94832848  1
  H  H68  1  0.62284960  0.57123248  0.54976487  1
  H  H69  1  0.87715040  0.42876752  0.04976487  1
  H  H70  1  0.12284960  0.92876752  0.45023513  1
  H  H71  1  0.37715040  0.07123248  0.95023513  1
  H  H72  1  0.66786713  0.72501799  0.55275785  1
  H  H73  1  0.83213287  0.27498201  0.05275785  1
  H  H74  1  0.16786713  0.77498201  0.44724215  1
  H  H75  1  0.33213287  0.22501799  0.94724215  1
  H  H76  1  0.53102870  0.78867259  0.45100061  1
  H  H77  1  0.96897130  0.21132741  0.95100061  1
  H  H78  1  0.03102870  0.71132741  0.54899939  1
  H  H79  1  0.46897130  0.28867259  0.04899939  1
  H  H80  1  0.46493102  0.64832774  0.42722766  1
  H  H81  1  0.03506898  0.35167226  0.92722766  1
  H  H82  1  0.96493102  0.85167226  0.57277234  1
  H  H83  1  0.53506898  0.14832774  0.07277234  1
  H  H84  1  0.54820247  0.73467227  0.36717581  1
  H  H85  1  0.95179753  0.26532773  0.86717581  1
  H  H86  1  0.04820247  0.76532773  0.63282419  1
  H  H87  1  0.45179753  0.23467227  0.13282419  1
  H  H88  1  0.76361460  0.16437055  0.20177810  1
  H  H89  1  0.73638540  0.83562945  0.70177810  1
  H  H90  1  0.26361460  0.33562945  0.79822190  1
  H  H91  1  0.23638540  0.66437055  0.29822190  1
  H  H92  1  0.68840465  0.30765643  0.20639576  1
  H  H93  1  0.81159535  0.69234357  0.70639576  1
  H  H94  1  0.18840465  0.19234357  0.79360424  1
  H  H95  1  0.31159535  0.80765643  0.29360424  1
  H  H96  1  0.63358545  0.18853873  0.25785386  1
  H  H97  1  0.86641455  0.81146127  0.75785386  1
  H  H98  1  0.13358545  0.31146127  0.74214614  1
  H  H99  1  0.36641455  0.68853873  0.24214614  1
  H  H100  1  0.79991309  0.09274716  0.35869534  1
  H  H101  1  0.70008691  0.90725284  0.85869534  1
  H  H102  1  0.29991309  0.40725284  0.64130466  1
  H  H103  1  0.20008691  0.59274716  0.14130466  1
  H  H104  1  0.95311922  0.15467603  0.37421101  1
  H  H105  1  0.54688078  0.84532397  0.87421101  1
  H  H106  1  0.45311922  0.34532397  0.62578899  1
  H  H107  1  0.04688078  0.65467603  0.12578899  1
  H  H108  1  0.92344201  0.07842624  0.29726934  1
  H  H109  1  0.57655799  0.92157376  0.79726934  1
  H  H110  1  0.42344201  0.42157376  0.70273066  1
  H  H111  1  0.07655799  0.57842624  0.20273066  1
  H  H112  1  0.04984455  0.33451730  0.27602244  1
  H  H113  1  0.45015545  0.66548270  0.77602244  1
  H  H114  1  0.54984455  0.16548270  0.72397756  1
  H  H115  1  0.95015545  0.83451730  0.22397756  1
  H  H116  1  0.94195395  0.39297498  0.21547008  1
  H  H117  1  0.55804605  0.60702502  0.71547008  1
  H  H118  1  0.44195395  0.10702502  0.78452992  1
  H  H119  1  0.05804605  0.89297498  0.28452992  1
  H  H120  1  0.98731430  0.23855743  0.21238654  1
  H  H121  1  0.51268570  0.76144257  0.71238654  1
  H  H122  1  0.48731430  0.26144257  0.78761346  1
  H  H123  1  0.01268570  0.73855743  0.28761346  1
  C  C124  1  0.41424400  0.38735434  0.32015849  1
  C  C125  1  0.08575600  0.61264566  0.82015849  1
  C  C126  1  0.91424400  0.11264566  0.67984151  1
  C  C127  1  0.58575600  0.88735434  0.17984151  1
  C  C128  1  0.43442600  0.39817459  0.46230114  1
  C  C129  1  0.06557400  0.60182541  0.96230114  1
  C  C130  1  0.93442600  0.10182541  0.53769886  1
  C  C131  1  0.56557400  0.89817459  0.03769886  1
  C  C132  1  0.51474455  0.19334176  0.39752860  1
  C  C133  1  0.98525545  0.80665824  0.89752860  1
  C  C134  1  0.01474455  0.30665824  0.60247140  1
  C  C135  1  0.48525545  0.69334176  0.10247140  1
  C  C136  1  0.80087550  0.76695234  0.42475662  1
  C  C137  1  0.69912450  0.23304766  0.92475662  1
  C  C138  1  0.30087550  0.73304766  0.57524338  1
  C  C139  1  0.19912450  0.26695234  0.07524338  1
  C  C140  1  0.69262304  0.63707834  0.53296987  1
  C  C141  1  0.80737696  0.36292166  0.03296987  1
  C  C142  1  0.19262304  0.86292166  0.46703013  1
  C  C143  1  0.30737696  0.13707834  0.96703013  1
  C  C144  1  0.54456358  0.70921414  0.41989401  1
  C  C145  1  0.95543642  0.29078586  0.91989401  1
  C  C146  1  0.04456358  0.79078586  0.58010599  1
  C  C147  1  0.45543642  0.20921414  0.08010599  1
  C  C148  1  0.71739906  0.22919396  0.23493262  1
  C  C149  1  0.78260094  0.77080604  0.73493262  1
  C  C150  1  0.21739906  0.27080604  0.76506738  1
  C  C151  1  0.28260094  0.72919396  0.26506738  1
  C  C152  1  0.88208415  0.13622347  0.33561376  1
  C  C153  1  0.61791585  0.86377653  0.83561376  1
  C  C154  1  0.38208415  0.36377653  0.66438624  1
  C  C155  1  0.11791585  0.63622347  0.16438624  1
  C  C156  1  0.96677197  0.31477941  0.24513843  1
  C  C157  1  0.53322803  0.68522059  0.74513843  1
  C  C158  1  0.46677197  0.18522059  0.75486157  1
  C  C159  1  0.03322803  0.81477941  0.25486157  1
  I  I160  1  0.01611346  0.50373863  0.39670469  1
  I  I161  1  0.48388654  0.49626137  0.89670469  1
  I  I162  1  0.51611346  0.99626137  0.60329531  1
  I  I163  1  0.98388654  0.00373863  0.10329531  1
  I  I164  1  0.71056237  0.57259634  0.26209322  1
  I  I165  1  0.78943763  0.42740366  0.76209322  1
  I  I166  1  0.21056237  0.92740366  0.73790678  1
  I  I167  1  0.28943763  0.07259634  0.23790678  1
  O  O168  1  0.75134281  0.35790463  0.46576502  1
  O  O169  1  0.74865719  0.64209537  0.96576502  1
  O  O170  1  0.25134281  0.14209537  0.53423498  1
  O  O171  1  0.24865719  0.85790463  0.03423498  1
