# generated using pymatgen
data_Cs2InCl5O
_symmetry_space_group_name_H-M   'P 1'
_cell_length_a   7.49773255
_cell_length_b   11.52491233
_cell_length_c   14.65219223
_cell_angle_alpha   90.00000000
_cell_angle_beta   90.00000000
_cell_angle_gamma   90.00000000
_symmetry_Int_Tables_number   1
_chemical_formula_structural   Cs2InCl5O
_chemical_formula_sum   'Cs8 In4 Cl20 O4'
_cell_volume   1266.10633823
_cell_formula_units_Z   4
loop_
 _symmetry_equiv_pos_site_id
 _symmetry_equiv_pos_as_xyz
  1  'x, y, z'
loop_
 _atom_site_type_symbol
 _atom_site_label
 _atom_site_symmetry_multiplicity
 _atom_site_fract_x
 _atom_site_fract_y
 _atom_site_fract_z
 _atom_site_occupancy
  Cs  Cs0  1  0.28810121  0.00940466  0.12936984  1
  Cs  Cs1  1  0.21189879  0.49059534  0.62936984  1
  Cs  Cs2  1  0.71189879  0.50940466  0.87063016  1
  Cs  Cs3  1  0.78810121  0.99059534  0.37063016  1
  Cs  Cs4  1  0.71189879  0.99059534  0.87063016  1
  Cs  Cs5  1  0.78810121  0.50940466  0.37063016  1
  Cs  Cs6  1  0.28810121  0.49059534  0.12936984  1
  Cs  Cs7  1  0.21189879  0.00940466  0.62936984  1
  In  In8  1  0.23720249  0.75000000  0.88381792  1
  In  In9  1  0.26279751  0.75000000  0.38381792  1
  In  In10  1  0.76279751  0.25000000  0.11618208  1
  In  In11  1  0.73720249  0.25000000  0.61618208  1
  Cl  Cl12  1  0.60028364  0.75000000  0.26237947  1
  Cl  Cl13  1  0.89971636  0.75000000  0.76237947  1
  Cl  Cl14  1  0.39971636  0.25000000  0.73762053  1
  Cl  Cl15  1  0.10028364  0.25000000  0.23762053  1
  Cl  Cl16  1  0.10085340  0.75000000  0.23861465  1
  Cl  Cl17  1  0.39914660  0.75000000  0.73861465  1
  Cl  Cl18  1  0.89914660  0.25000000  0.76138535  1
  Cl  Cl19  1  0.60085340  0.25000000  0.26138535  1
  Cl  Cl20  1  0.05263150  0.75000000  0.51294365  1
  Cl  Cl21  1  0.44736850  0.75000000  0.01294365  1
  Cl  Cl22  1  0.94736850  0.25000000  0.48705635  1
  Cl  Cl23  1  0.55263150  0.25000000  0.98705635  1
  Cl  Cl24  1  0.27488649  0.96990935  0.39005412  1
  Cl  Cl25  1  0.22511351  0.53009065  0.89005412  1
  Cl  Cl26  1  0.72511351  0.46990935  0.60994588  1
  Cl  Cl27  1  0.77488649  0.03009065  0.10994588  1
  Cl  Cl28  1  0.72511351  0.03009065  0.60994588  1
  Cl  Cl29  1  0.77488649  0.46990935  0.10994588  1
  Cl  Cl30  1  0.27488649  0.53009065  0.39005412  1
  Cl  Cl31  1  0.22511351  0.96990935  0.89005412  1
  O  O32  1  0.55002985  0.75000000  0.37511790  1
  O  O33  1  0.94997015  0.75000000  0.87511790  1
  O  O34  1  0.44997015  0.25000000  0.62488210  1
  O  O35  1  0.05002985  0.25000000  0.12488210  1
