# generated using pymatgen
data_AgH9C2(NO)2
_symmetry_space_group_name_H-M   'P 1'
_cell_length_a   6.33697667
_cell_length_b   8.18422598
_cell_length_c   12.62995426
_cell_angle_alpha   90.00000000
_cell_angle_beta   90.00000000
_cell_angle_gamma   107.17366775
_symmetry_Int_Tables_number   1
_chemical_formula_structural   AgH9C2(NO)2
_chemical_formula_sum   'Ag4 H36 C8 N8 O8'
_cell_volume   625.82538363
_cell_formula_units_Z   4
loop_
 _symmetry_equiv_pos_site_id
 _symmetry_equiv_pos_as_xyz
  1  'x, y, z'
loop_
 _atom_site_type_symbol
 _atom_site_label
 _atom_site_symmetry_multiplicity
 _atom_site_fract_x
 _atom_site_fract_y
 _atom_site_fract_z
 _atom_site_occupancy
  Ag  Ag0  1  0.27290525  0.12600470  0.27333901  1
  Ag  Ag1  1  0.22709475  0.87399530  0.77333901  1
  Ag  Ag2  1  0.72709475  0.87399530  0.72666099  1
  Ag  Ag3  1  0.77290525  0.12600470  0.22666099  1
  H  H4  1  0.31892054  0.40680582  0.39709538  1
  H  H5  1  0.18107946  0.59319418  0.89709538  1
  H  H6  1  0.68107946  0.59319418  0.60290462  1
  H  H7  1  0.81892054  0.40680582  0.10290462  1
  H  H8  1  0.44975410  0.28325588  0.45564374  1
  H  H9  1  0.05024590  0.71674412  0.95564374  1
  H  H10  1  0.55024590  0.71674412  0.54435626  1
  H  H11  1  0.94975410  0.28325588  0.04435626  1
  H  H12  1  0.17779410  0.23168708  0.46105499  1
  H  H13  1  0.32220590  0.76831292  0.96105499  1
  H  H14  1  0.82220590  0.76831292  0.53894501  1
  H  H15  1  0.67779410  0.23168708  0.03894501  1
  H  H16  1  0.25534554  0.05353931  0.06591414  1
  H  H17  1  0.24465446  0.94646069  0.56591414  1
  H  H18  1  0.74465446  0.94646069  0.93408586  1
  H  H19  1  0.75534554  0.05353931  0.43408586  1
  H  H20  1  0.35031476  0.91375080  0.12711732  1
  H  H21  1  0.14968524  0.08624920  0.62711732  1
  H  H22  1  0.64968524  0.08624920  0.87288268  1
  H  H23  1  0.85031476  0.91375080  0.37288268  1
  H  H24  1  0.07958334  0.88613724  0.12643123  1
  H  H25  1  0.42041666  0.11386276  0.62643123  1
  H  H26  1  0.92041666  0.11386276  0.87356877  1
  H  H27  1  0.57958334  0.88613724  0.37356877  1
  H  H28  1  0.79396362  0.55878386  0.38814038  1
  H  H29  1  0.70603638  0.44121614  0.88814038  1
  H  H30  1  0.20603638  0.44121614  0.61185962  1
  H  H31  1  0.29396362  0.55878386  0.11185962  1
  H  H32  1  0.97577261  0.43815198  0.35196721  1
  H  H33  1  0.52422739  0.56184802  0.85196721  1
  H  H34  1  0.02422739  0.56184802  0.64803279  1
  H  H35  1  0.47577261  0.43815198  0.14803279  1
  H  H36  1  0.94231189  0.60213495  0.26758290  1
  H  H37  1  0.55768811  0.39786505  0.76758290  1
  H  H38  1  0.05768811  0.39786505  0.73241710  1
  H  H39  1  0.44231189  0.60213495  0.23241710  1
  C  C40  1  0.14134886  0.69955977  0.40493536  1
  C  C41  1  0.35865114  0.30044023  0.90493536  1
  C  C42  1  0.85865114  0.30044023  0.59506464  1
  C  C43  1  0.64134886  0.69955977  0.09506464  1
  C  C44  1  0.95262313  0.56569463  0.35091593  1
  C  C45  1  0.54737687  0.43430537  0.85091593  1
  C  C46  1  0.04737687  0.43430537  0.64908407  1
  C  C47  1  0.45262313  0.56569463  0.14908407  1
  N  N48  1  0.31171033  0.28140632  0.41205162  1
  N  N49  1  0.18828967  0.71859368  0.91205162  1
  N  N50  1  0.68828967  0.71859368  0.58794838  1
  N  N51  1  0.81171033  0.28140632  0.08794838  1
  N  N52  1  0.23181588  0.97693363  0.13286131  1
  N  N53  1  0.26818412  0.02306637  0.63286131  1
  N  N54  1  0.76818412  0.02306637  0.86713869  1
  N  N55  1  0.73181588  0.97693363  0.36713869  1
  O  O56  1  0.10000185  0.83408342  0.43914853  1
  O  O57  1  0.39999815  0.16591658  0.93914853  1
  O  O58  1  0.89999815  0.16591658  0.56085147  1
  O  O59  1  0.60000185  0.83408342  0.06085147  1
  O  O60  1  0.32920201  0.67274018  0.41129774  1
  O  O61  1  0.17079799  0.32725982  0.91129774  1
  O  O62  1  0.67079799  0.32725982  0.58870226  1
  O  O63  1  0.82920201  0.67274018  0.08870226  1
