# generated using pymatgen
data_Tb3Mn3Ga2Si
_symmetry_space_group_name_H-M   'P 1'
_cell_length_a   4.18060004
_cell_length_b   7.01000276
_cell_length_c   7.01409621
_cell_angle_alpha   60.00755088
_cell_angle_beta   90.00000000
_cell_angle_gamma   90.00000000
_symmetry_Int_Tables_number   1
_chemical_formula_structural   Tb3Mn3Ga2Si
_chemical_formula_sum   'Tb3 Mn3 Ga2 Si1'
_cell_volume   178.02959308
_cell_formula_units_Z   1
loop_
 _symmetry_equiv_pos_site_id
 _symmetry_equiv_pos_as_xyz
  1  'x, y, z'
loop_
 _atom_site_type_symbol
 _atom_site_label
 _atom_site_symmetry_multiplicity
 _atom_site_fract_x
 _atom_site_fract_y
 _atom_site_fract_z
 _atom_site_occupancy
  Tb  Tb0  1  0.50000000  0.57954680  0.41767771  1
  Tb  Tb1  1  0.50000000  0.41748384  0.00290479  1
  Tb  Tb2  1  0.50000000  0.00313410  0.57953298  1
  Mn  Mn3  1  0.00000000  0.23017340  0.75857431  1
  Mn  Mn4  1  -0.00000000  0.75857792  0.01132043  1
  Mn  Mn5  1  0.00000000  0.01121686  0.23021807  1
  Ga  Ga6  1  0.50000000  0.99966461  0.99980245  1
  Ga  Ga7  1  -0.00000000  0.66666813  0.66666005  1
  Si  Si8  1  -0.00000000  0.33343433  0.33340922  1
