# generated using pymatgen
data_SnH10C3Br3N
_symmetry_space_group_name_H-M   'P 1'
_cell_length_a   6.86099131
_cell_length_b   6.98653950
_cell_length_c   13.61042958
_cell_angle_alpha   90.00000000
_cell_angle_beta   90.00000000
_cell_angle_gamma   95.81208292
_symmetry_Int_Tables_number   1
_chemical_formula_structural   SnH10C3Br3N
_chemical_formula_sum   'Sn2 H20 C6 Br6 N2'
_cell_volume   649.05652185
_cell_formula_units_Z   2
loop_
 _symmetry_equiv_pos_site_id
 _symmetry_equiv_pos_as_xyz
  1  'x, y, z'
loop_
 _atom_site_type_symbol
 _atom_site_label
 _atom_site_symmetry_multiplicity
 _atom_site_fract_x
 _atom_site_fract_y
 _atom_site_fract_z
 _atom_site_occupancy
  Sn  Sn0  1  0.43439289  0.46515947  0.49245253  1
  Sn  Sn1  1  0.56560711  0.53484053  0.99245253  1
  H  H2  1  0.13565031  0.14548838  0.33366291  1
  H  H3  1  0.86434969  0.85451162  0.83366291  1
  H  H4  1  0.08249135  0.81345949  0.36131489  1
  H  H5  1  0.91750865  0.18654051  0.86131489  1
  H  H6  1  0.87302085  0.79990170  0.28124878  1
  H  H7  1  0.12697915  0.20009830  0.78124878  1
  H  H8  1  0.87004759  0.93090920  0.39480135  1
  H  H9  1  0.12995241  0.06909080  0.89480135  1
  H  H10  1  0.29195351  0.95048891  0.22593828  1
  H  H11  1  0.70804649  0.04951109  0.72593828  1
  H  H12  1  0.22548524  0.16235649  0.16421340  1
  H  H13  1  0.77451476  0.83764351  0.66421340  1
  H  H14  1  0.08344176  0.93361914  0.14572281  1
  H  H15  1  0.91655824  0.06638086  0.64572281  1
  H  H16  1  0.04313457  0.68325772  0.71428659  1
  H  H17  1  0.95686543  0.31674228  0.21428659  1
  H  H18  1  0.17941022  0.76139563  0.82250453  1
  H  H19  1  0.82058978  0.23860437  0.32250453  1
  H  H20  1  0.21900142  0.89124673  0.70876308  1
  H  H21  1  0.78099858  0.10875327  0.20876308  1
  C  C22  1  0.96157051  0.88923170  0.33389587  1
  C  C23  1  0.03842949  0.11076830  0.83389587  1
  C  C24  1  0.17047534  0.02515515  0.19801677  1
  C  C25  1  0.82952466  0.97484485  0.69801677  1
  C  C26  1  0.11126328  0.80774166  0.75491023  1
  C  C27  1  0.88873672  0.19225834  0.25491023  1
  Br  Br28  1  0.43922614  0.51083606  0.29618571  1
  Br  Br29  1  0.56077386  0.48916394  0.79618571  1
  Br  Br30  1  0.04046535  0.43937004  0.50613618  1
  Br  Br31  1  0.95953465  0.56062996  0.00613618  1
  Br  Br32  1  0.43571176  0.07902200  0.48395929  1
  Br  Br33  1  0.56428824  0.92097800  0.98395929  1
  N  N34  1  0.04498738  0.06851456  0.28325679  1
  N  N35  1  0.95501262  0.93148544  0.78325679  1
