# generated using pymatgen
data_MnP2(HO4)2
_symmetry_space_group_name_H-M   'P 1'
_cell_length_a   5.15408447
_cell_length_b   7.68736928
_cell_length_c   15.29890316
_cell_angle_alpha   90.00000000
_cell_angle_beta   90.00000000
_cell_angle_gamma   98.64134961
_symmetry_Int_Tables_number   1
_chemical_formula_structural   MnP2(HO4)2
_chemical_formula_sum   'Mn4 P8 H8 O32'
_cell_volume   599.28216590
_cell_formula_units_Z   4
loop_
 _symmetry_equiv_pos_site_id
 _symmetry_equiv_pos_as_xyz
  1  'x, y, z'
loop_
 _atom_site_type_symbol
 _atom_site_label
 _atom_site_symmetry_multiplicity
 _atom_site_fract_x
 _atom_site_fract_y
 _atom_site_fract_z
 _atom_site_occupancy
  Mn  Mn0  1  0.67758335  0.20660377  0.99856374  1
  Mn  Mn1  1  0.82241665  0.79339623  0.49856374  1
  Mn  Mn2  1  0.32241665  0.79339623  0.00143626  1
  Mn  Mn3  1  0.17758335  0.20660377  0.50143626  1
  P  P4  1  0.25566935  0.61288508  0.60438002  1
  P  P5  1  0.24433065  0.38711492  0.10438002  1
  P  P6  1  0.74433065  0.38711492  0.39561998  1
  P  P7  1  0.75566935  0.61288508  0.89561998  1
  P  P8  1  0.66047814  0.13843776  0.62439107  1
  P  P9  1  0.83952186  0.86156224  0.12439107  1
  P  P10  1  0.33952186  0.86156224  0.37560893  1
  P  P11  1  0.16047814  0.13843776  0.87560893  1
  H  H12  1  0.14686054  0.59017275  0.74272708  1
  H  H13  1  0.35313946  0.40982725  0.24272708  1
  H  H14  1  0.85313946  0.40982725  0.25727292  1
  H  H15  1  0.64686054  0.59017275  0.75727292  1
  H  H16  1  0.48918766  0.99411058  0.74019411  1
  H  H17  1  0.01081234  0.00588942  0.24019411  1
  H  H18  1  0.51081234  0.00588942  0.25980589  1
  H  H19  1  0.98918766  0.99411058  0.75980589  1
  O  O20  1  0.15155218  0.42195393  0.57634637  1
  O  O21  1  0.34844782  0.57804607  0.07634637  1
  O  O22  1  0.84844782  0.57804607  0.42365363  1
  O  O23  1  0.65155218  0.42195393  0.92365363  1
  O  O24  1  0.51724316  0.67912873  0.56247419  1
  O  O25  1  0.98275684  0.32087127  0.06247419  1
  O  O26  1  0.48275684  0.32087127  0.43752581  1
  O  O27  1  0.01724316  0.67912873  0.93752581  1
  O  O28  1  0.04549126  0.73317076  0.59038586  1
  O  O29  1  0.45450874  0.26682924  0.09038586  1
  O  O30  1  0.95450874  0.26682924  0.40961414  1
  O  O31  1  0.54549126  0.73317076  0.90961414  1
  O  O32  1  0.30873712  0.61543977  0.70714134  1
  O  O33  1  0.19126288  0.38456023  0.20714134  1
  O  O34  1  0.69126288  0.38456023  0.29285866  1
  O  O35  1  0.80873712  0.61543977  0.79285866  1
  O  O36  1  0.86166550  0.06976749  0.56237269  1
  O  O37  1  0.63833450  0.93023251  0.06237269  1
  O  O38  1  0.13833450  0.93023251  0.43762731  1
  O  O39  1  0.36166550  0.06976749  0.93762731  1
  O  O40  1  0.37914479  0.10260058  0.58759313  1
  O  O41  1  0.12085521  0.89739942  0.08759313  1
  O  O42  1  0.62085521  0.89739942  0.41240687  1
  O  O43  1  0.87914479  0.10260058  0.91240687  1
  O  O44  1  0.74094507  0.33121280  0.64879911  1
  O  O45  1  0.75905493  0.66878720  0.14879911  1
  O  O46  1  0.25905493  0.66878720  0.35120089  1
  O  O47  1  0.24094507  0.33121280  0.85120089  1
  O  O48  1  0.65713638  0.00972313  0.70714730  1
  O  O49  1  0.84286362  0.99027687  0.20714730  1
  O  O50  1  0.34286362  0.99027687  0.29285270  1
  O  O51  1  0.15713638  0.00972313  0.79285270  1
