# generated using pymatgen
data_Na6Co3B9P6H3O38
_symmetry_space_group_name_H-M   'P 1'
_cell_length_a   11.86310392
_cell_length_b   11.86415358
_cell_length_c   12.28780693
_cell_angle_alpha   90.00000000
_cell_angle_beta   90.00000000
_cell_angle_gamma   120.00615208
_symmetry_Int_Tables_number   1
_chemical_formula_structural   Na6Co3B9P6H3O38
_chemical_formula_sum   'Na12 Co6 B18 P12 H6 O76'
_cell_volume   1497.65982225
_cell_formula_units_Z   2
loop_
 _symmetry_equiv_pos_site_id
 _symmetry_equiv_pos_as_xyz
  1  'x, y, z'
loop_
 _atom_site_type_symbol
 _atom_site_label
 _atom_site_symmetry_multiplicity
 _atom_site_fract_x
 _atom_site_fract_y
 _atom_site_fract_z
 _atom_site_occupancy
  Na  Na0  1  0.26746125  0.28566290  0.61896500  1
  Na  Na1  1  0.71410470  0.98180522  0.61899251  1
  Na  Na2  1  0.01814580  0.73209547  0.61898039  1
  Na  Na3  1  0.73253875  0.71433710  0.11896500  1
  Na  Na4  1  0.28589530  0.01819478  0.11899251  1
  Na  Na5  1  0.98185420  0.26790453  0.11898039  1
  Na  Na6  1  0.33324000  0.66670708  0.26552791  1
  Na  Na7  1  0.66676000  0.33329292  0.76552791  1
  Na  Na8  1  0.33329860  0.66670344  0.77579654  1
  Na  Na9  1  0.66670140  0.33329656  0.27579654  1
  Na  Na10  1  0.00011103  0.99997764  0.85729967  1
  Na  Na11  1  0.99988897  0.00002236  0.35729967  1
  Co  Co12  1  0.49555878  0.99675155  0.36416938  1
  Co  Co13  1  0.00330074  0.49883203  0.36425901  1
  Co  Co14  1  0.50116179  0.50448940  0.36424169  1
  Co  Co15  1  0.50444122  0.00324845  0.86416938  1
  Co  Co16  1  0.99669926  0.50116797  0.86425901  1
  Co  Co17  1  0.49883821  0.49551060  0.86424169  1
  B  B18  1  0.70202666  0.95573802  0.21375193  1
  B  B19  1  0.04443036  0.74647639  0.21366360  1
  B  B20  1  0.25362140  0.29792340  0.21380118  1
  B  B21  1  0.29797334  0.04426198  0.71375193  1
  B  B22  1  0.95556964  0.25352361  0.71366360  1
  B  B23  1  0.74637860  0.70207660  0.71380118  1
  B  B24  1  0.50480969  0.91213384  0.10996093  1
  B  B25  1  0.08809732  0.59287296  0.10994586  1
  B  B26  1  0.40713345  0.49521681  0.10999179  1
  B  B27  1  0.49519031  0.08786616  0.60996093  1
  B  B28  1  0.91190268  0.40712704  0.60994586  1
  B  B29  1  0.59286655  0.50478319  0.60999179  1
  B  B30  1  0.29154485  0.03931808  0.51254495  1
  B  B31  1  0.96056821  0.25203334  0.51263779  1
  B  B32  1  0.74782885  0.70847039  0.51253068  1
  B  B33  1  0.70845515  0.96068192  0.01254495  1
  B  B34  1  0.03943179  0.74796666  0.01263779  1
  B  B35  1  0.25217115  0.29152961  0.01253068  1
  P  P36  1  0.18690949  0.80485244  0.40137278  1
  P  P37  1  0.19521965  0.38205934  0.40142882  1
  P  P38  1  0.61787977  0.81301752  0.40145742  1
  P  P39  1  0.81309051  0.19514756  0.90137278  1
  P  P40  1  0.80478035  0.61794066  0.90142882  1
  P  P41  1  0.38212023  0.18698248  0.90145742  1
  P  P42  1  0.37999610  0.18943360  0.32923630  1
  P  P43  1  0.81068640  0.19060476  0.32928252  1
  P  P44  1  0.80936987  0.62005893  0.32927104  1
  P  P45  1  0.62000390  0.81056640  0.82923630  1
  P  P46  1  0.18931360  0.80939524  0.82928252  1
  P  P47  1  0.19063013  0.37994107  0.82927104  1
  H  H48  1  0.33682824  0.83449322  0.03349796  1
  H  H49  1  0.16547971  0.50228041  0.03348201  1
  H  H50  1  0.49768096  0.66316063  0.03351032  1
  H  H51  1  0.66317176  0.16550678  0.53349796  1
  H  H52  1  0.83452029  0.49771959  0.53348201  1
  H  H53  1  0.50231904  0.33683937  0.53351032  1
  O  O54  1  0.27745180  0.11526849  0.42181400  1
  O  O55  1  0.88469294  0.16200880  0.42184295  1
  O  O56  1  0.83794457  0.72265635  0.42184736  1
  O  O57  1  0.72254820  0.88473151  0.92181400  1
  O  O58  1  0.11530706  0.83799120  0.92184295  1
  O  O59  1  0.16205543  0.27734365  0.92184736  1
  O  O60  1  0.56513613  0.93481700  0.21012374  1
  O  O61  1  0.06553074  0.63061849  0.21006657  1
  O  O62  1  0.36948259  0.43488155  0.21012750  1
  O  O63  1  0.43486387  0.06518300  0.71012374  1
  O  O64  1  0.93446926  0.36938151  0.71006657  1
  O  O65  1  0.63051741  0.56511845  0.71012750  1
  O  O66  1  0.43394301  0.10676242  0.28050456  1
  O  O67  1  0.89348242  0.32721569  0.28056601  1
  O  O68  1  0.67259107  0.56613565  0.28074930  1
  O  O69  1  0.56605699  0.89323758  0.78050456  1
  O  O70  1  0.10651758  0.67278431  0.78056601  1
  O  O71  1  0.32740893  0.43386435  0.78074930  1
  O  O72  1  0.19547751  0.89994211  0.49424228  1
  O  O73  1  0.10001968  0.29551974  0.49423196  1
  O  O74  1  0.70443307  0.80441513  0.49425674  1
  O  O75  1  0.80452249  0.10005789  0.99424228  1
  O  O76  1  0.89998032  0.70448026  0.99423196  1
  O  O77  1  0.29556693  0.19558487  0.99425674  1
  O  O78  1  0.30147836  0.20442319  0.23360290  1
  O  O79  1  0.79576190  0.09711372  0.23360790  1
  O  O80  1  0.90287446  0.69852398  0.23360425  1
  O  O81  1  0.69852164  0.79557681  0.73360290  1
  O  O82  1  0.20423810  0.90288628  0.73360790  1
  O  O83  1  0.09712554  0.30147602  0.73360425  1
  O  O84  1  0.09638203  0.66944075  0.44816682  1
  O  O85  1  0.33069706  0.42698987  0.44817025  1
  O  O86  1  0.57287898  0.90342508  0.44830856  1
  O  O87  1  0.90361797  0.33055925  0.94816682  1
  O  O88  1  0.66930294  0.57301013  0.94817025  1
  O  O89  1  0.42712102  0.09657492  0.94830856  1
  O  O90  1  0.42763941  0.05968178  0.51299022  1
  O  O91  1  0.94000637  0.36765563  0.51304048  1
  O  O92  1  0.63220179  0.57235168  0.51304022  1
  O  O93  1  0.57236059  0.94031822  0.01299022  1
  O  O94  1  0.05999363  0.63234437  0.01304048  1
  O  O95  1  0.36779821  0.42764832  0.01304022  1
  O  O96  1  0.26604520  0.08334278  0.61330067  1
  O  O97  1  0.91674201  0.18233563  0.61332880  1
  O  O98  1  0.81743950  0.73406609  0.61330520  1
  O  O99  1  0.73395480  0.91665722  0.11330067  1
  O  O100  1  0.08325799  0.81766437  0.11332880  1
  O  O101  1  0.18256050  0.26593391  0.11330520  1
  O  O102  1  0.67873369  0.16675300  0.37244013  1
  O  O103  1  0.83310973  0.51190883  0.37236230  1
  O  O104  1  0.48802284  0.32142313  0.37243132  1
  O  O105  1  0.32126631  0.83324700  0.87244013  1
  O  O106  1  0.16689027  0.48809117  0.87236230  1
  O  O107  1  0.51197716  0.67857687  0.87243132  1
  O  O108  1  0.11995065  0.83546705  0.30317576  1
  O  O109  1  0.16453357  0.28450896  0.30316483  1
  O  O110  1  0.71534780  0.88008972  0.30321865  1
  O  O111  1  0.88004935  0.16453295  0.80317576  1
  O  O112  1  0.83546643  0.71549104  0.80316483  1
  O  O113  1  0.28465220  0.11991028  0.80321865  1
  O  O114  1  0.32030298  0.82966807  0.36475540  1
  O  O115  1  0.17051966  0.49071536  0.36491133  1
  O  O116  1  0.50940284  0.67956134  0.36480932  1
  O  O117  1  0.67969702  0.17033193  0.86475540  1
  O  O118  1  0.82948034  0.50928464  0.86491133  1
  O  O119  1  0.49059716  0.32043866  0.86480932  1
  O  O120  1  0.37035030  0.85563170  0.10871996  1
  O  O121  1  0.14438236  0.51472122  0.10870334  1
  O  O122  1  0.48516112  0.62965077  0.10873670  1
  O  O123  1  0.62964970  0.14436830  0.60871996  1
  O  O124  1  0.85561764  0.48527878  0.60870334  1
  O  O125  1  0.51483888  0.37034923  0.60873670  1
  O  O126  1  0.33352578  0.66760095  0.57700172  1
  O  O127  1  0.66647422  0.33239905  0.07700172  1
  O  O128  1  0.00005631  0.00026739  0.66000007  1
  O  O129  1  0.99994369  0.99973261  0.16000007  1
