# generated using pymatgen
data_Tb3LuMn8
_symmetry_space_group_name_H-M   'P 1'
_cell_length_a   5.04001921
_cell_length_b   5.04001921
_cell_length_c   9.07499802
_cell_angle_alpha   73.87778984
_cell_angle_beta   90.00000000
_cell_angle_gamma   120.00000000
_symmetry_Int_Tables_number   1
_chemical_formula_structural   Tb3LuMn8
_chemical_formula_sum   'Tb3 Lu1 Mn8'
_cell_volume   189.09625350
_cell_formula_units_Z   1
loop_
 _symmetry_equiv_pos_site_id
 _symmetry_equiv_pos_as_xyz
  1  'x, y, z'
loop_
 _atom_site_type_symbol
 _atom_site_label
 _atom_site_symmetry_multiplicity
 _atom_site_fract_x
 _atom_site_fract_y
 _atom_site_fract_z
 _atom_site_occupancy
  Tb  Tb0  1  0.37561684  0.75123368  0.87314948  1
  Tb  Tb1  1  0.99914996  0.99829993  0.00255011  1
  Tb  Tb2  1  0.49990429  -0.00019141  0.50028712  1
  Lu  Lu3  1  0.87544874  0.75089748  0.37365378  1
  Mn  Mn4  1  0.43696987  0.37020570  0.19282443  1
  Mn  Mn5  1  0.93753372  0.38020005  0.68226623  1
  Mn  Mn6  1  0.43696987  0.87393974  0.19282443  1
  Mn  Mn7  1  0.93753372  0.87506745  0.68226623  1
  Mn  Mn8  1  0.18780489  0.37560978  0.43658533  1
  Mn  Mn9  1  0.68716593  0.37433185  0.93850222  1
  Mn  Mn10  1  0.93323583  0.37020570  0.19282443  1
  Mn  Mn11  1  0.44266632  0.38020005  0.68226623  1
