# generated using pymatgen
data_LaCO4
_symmetry_space_group_name_H-M   'P 1'
_cell_length_a   10.07917408
_cell_length_b   12.79206305
_cell_length_c   12.79091707
_cell_angle_alpha   120.00042970
_cell_angle_beta   90.00000000
_cell_angle_gamma   90.00000000
_symmetry_Int_Tables_number   1
_chemical_formula_structural   LaCO4
_chemical_formula_sum   'La18 C18 O72'
_cell_volume   1428.22283245
_cell_formula_units_Z   18
loop_
 _symmetry_equiv_pos_site_id
 _symmetry_equiv_pos_as_xyz
  1  'x, y, z'
loop_
 _atom_site_type_symbol
 _atom_site_label
 _atom_site_symmetry_multiplicity
 _atom_site_fract_x
 _atom_site_fract_y
 _atom_site_fract_z
 _atom_site_occupancy
  La  La0  1  0.24017702  0.88221085  0.77098947  1
  La  La1  1  0.24013497  0.22899094  0.11119139  1
  La  La2  1  0.24018299  0.88877543  0.11779555  1
  La  La3  1  0.75982298  0.88221085  0.77098947  1
  La  La4  1  0.75986503  0.22899094  0.11119139  1
  La  La5  1  0.75981701  0.88877543  0.11779555  1
  La  La6  1  0.25637836  0.21599381  0.43867708  1
  La  La7  1  0.25638982  0.56133925  0.77733526  1
  La  La8  1  0.25638299  0.22264211  0.78394561  1
  La  La9  1  0.74362164  0.21599381  0.43867708  1
  La  La10  1  0.74361018  0.56133925  0.77733526  1
  La  La11  1  0.74361701  0.22264211  0.78394561  1
  La  La12  1  0.25568852  0.89576572  0.45345702  1
  La  La13  1  0.25566337  0.54653438  0.44229256  1
  La  La14  1  0.25562701  0.55774625  0.10426622  1
  La  La15  1  0.74431148  0.89576572  0.45345702  1
  La  La16  1  0.74433663  0.54653438  0.44229256  1
  La  La17  1  0.74437299  0.55774625  0.10426622  1
  C  C18  1  0.00000000  0.35643829  0.49255607  1
  C  C19  1  0.00000000  0.50747341  0.86386321  1
  C  C20  1  0.00000000  0.13612005  0.64358589  1
  C  C21  1  0.00000000  0.79867002  0.88765306  1
  C  C22  1  0.00000000  0.11230445  0.91099493  1
  C  C23  1  0.00000000  0.08896017  0.20129896  1
  C  C24  1  0.00000000  0.83485393  0.53265461  1
  C  C25  1  0.00000000  0.46735057  0.30221354  1
  C  C26  1  0.00000000  0.69779410  0.16513897  1
  C  C27  1  0.50000000  0.13112393  0.57976697  1
  C  C28  1  0.50000000  0.42027954  0.55137947  1
  C  C29  1  0.50000000  0.44865025  0.86884386  1
  C  C30  1  0.50000000  0.76076418  0.22418370  1
  C  C31  1  0.50000000  0.77579763  0.53660423  1
  C  C32  1  0.50000000  0.46344836  0.23928513  1
  C  C33  1  0.50000000  0.79711636  0.82090838  1
  C  C34  1  0.50000000  0.17904370  0.97618885  1
  C  C35  1  0.50000000  0.02377933  0.20286418  1
  O  O36  1  0.00000000  0.25202310  0.48750613  1
  O  O37  1  0.00000000  0.51255501  0.76450449  1
  O  O38  1  0.00000000  0.23550908  0.74801489  1
  O  O39  1  0.11279452  0.40545245  0.49356208  1
  O  O40  1  0.11278238  0.50645546  0.91188765  1
  O  O41  1  0.11277398  0.08811672  0.59458530  1
  O  O42  1  0.88720548  0.40545245  0.49356208  1
  O  O43  1  0.88721762  0.50645546  0.91188765  1
  O  O44  1  0.88722602  0.08811672  0.59458530  1
  O  O45  1  0.00000000  0.86059875  0.83220761  1
  O  O46  1  0.00000000  0.16776388  0.02840909  1
  O  O47  1  0.00000000  0.97157600  0.13937565  1
  O  O48  1  0.11250424  0.08537154  0.85415786  1
  O  O49  1  0.11250874  0.14582636  0.23120488  1
  O  O50  1  0.11250221  0.76876559  0.91459908  1
  O  O51  1  0.88749576  0.08537154  0.85415786  1
  O  O52  1  0.88749126  0.14582636  0.23120488  1
  O  O53  1  0.88749779  0.76876559  0.91459908  1
  O  O54  1  0.00000000  0.83891264  0.43321851  1
  O  O55  1  0.00000000  0.56677222  0.40570506  1
  O  O56  1  0.00000000  0.59430612  0.16111330  1
  O  O57  1  0.11224328  0.83483188  0.58184438  1
  O  O58  1  0.11222897  0.41815695  0.25299856  1
  O  O59  1  0.11221956  0.74697894  0.16512589  1
  O  O60  1  0.88775672  0.83483188  0.58184438  1
  O  O61  1  0.88777103  0.41815695  0.25299856  1
  O  O62  1  0.88778044  0.74697894  0.16512589  1
  O  O63  1  0.50000000  0.30356784  0.49971240  1
  O  O64  1  0.50000000  0.50035776  0.80380542  1
  O  O65  1  0.50000000  0.19615114  0.69651554  1
  O  O66  1  0.38809554  0.09862715  0.52181245  1
  O  O67  1  0.38810234  0.47825465  0.57683419  1
  O  O68  1  0.38809516  0.42319310  0.90134614  1
  O  O69  1  0.61190446  0.09862715  0.52181245  1
  O  O70  1  0.61189766  0.47825465  0.57683419  1
  O  O71  1  0.61190484  0.42319310  0.90134614  1
  O  O72  1  0.50000000  0.83779683  0.48117907  1
  O  O73  1  0.50000000  0.51887766  0.35670008  1
  O  O74  1  0.50000000  0.64335025  0.16216562  1
  O  O75  1  0.38761467  0.81792672  0.25444026  1
  O  O76  1  0.38761286  0.74554129  0.56352314  1
  O  O77  1  0.38763703  0.43653558  0.18212397  1
  O  O78  1  0.61238533  0.81792672  0.25444026  1
  O  O79  1  0.61238714  0.74554129  0.56352314  1
  O  O80  1  0.61236297  0.43653558  0.18212397  1
  O  O81  1  0.50000000  0.89710875  0.81770252  1
  O  O82  1  0.50000000  0.18230262  0.07941226  1
  O  O83  1  0.50000000  0.92058525  0.10286612  1
  O  O84  1  0.38794164  0.74798860  0.82133661  1
  O  O85  1  0.38794498  0.17858510  0.92660751  1
  O  O86  1  0.38795577  0.07334924  0.25200562  1
  O  O87  1  0.61205836  0.74798860  0.82133661  1
  O  O88  1  0.61205502  0.17858510  0.92660751  1
  O  O89  1  0.61204423  0.07334924  0.25200562  1
  O  O90  1  0.26240517  0.00002535  0.00000713  1
  O  O91  1  0.73759483  0.00002535  0.00000713  1
  O  O92  1  0.24453287  0.33338540  0.66667231  1
  O  O93  1  0.75546713  0.33338540  0.66667231  1
  O  O94  1  0.24038949  0.66669161  0.33338107  1
  O  O95  1  0.75961051  0.66669161  0.33338107  1
  O  O96  1  0.30640148  0.32322026  0.32612435  1
  O  O97  1  0.30642653  0.67388662  0.99713307  1
  O  O98  1  0.30642802  0.00282189  0.67675970  1
  O  O99  1  0.69359852  0.32322026  0.32612435  1
  O  O100  1  0.69357347  0.67388662  0.99713307  1
  O  O101  1  0.69357198  0.00282189  0.67675970  1
  O  O102  1  0.19551270  0.99832315  0.34015358  1
  O  O103  1  0.19552573  0.65981405  0.65813057  1
  O  O104  1  0.19553451  0.34183400  0.00164359  1
  O  O105  1  0.80448730  0.99832315  0.34015358  1
  O  O106  1  0.80447427  0.65981405  0.65813057  1
  O  O107  1  0.80446549  0.34183400  0.00164359  1
