# generated using pymatgen
data_Ce3S3O16
_symmetry_space_group_name_H-M   'P 1'
_cell_length_a   9.35949061
_cell_length_b   9.35949061
_cell_length_c   9.35949061
_cell_angle_alpha   108.64040707
_cell_angle_beta   108.64040707
_cell_angle_gamma   111.14594000
_symmetry_Int_Tables_number   1
_chemical_formula_structural   Ce3S3O16
_chemical_formula_sum   'Ce6 S6 O32'
_cell_volume   630.74738819
_cell_formula_units_Z   2
loop_
 _symmetry_equiv_pos_site_id
 _symmetry_equiv_pos_as_xyz
  1  'x, y, z'
loop_
 _atom_site_type_symbol
 _atom_site_label
 _atom_site_symmetry_multiplicity
 _atom_site_fract_x
 _atom_site_fract_y
 _atom_site_fract_z
 _atom_site_occupancy
  Ce  Ce0  1  0.24723774  0.24723774  0.00000000  1
  Ce  Ce1  1  0.75276226  0.75276226  0.00000000  1
  Ce  Ce2  1  0.03124780  0.75815096  0.78939875  1
  Ce  Ce3  1  0.96875220  0.24184904  0.21060125  1
  Ce  Ce4  1  0.75815096  0.96875220  0.72690316  1
  Ce  Ce5  1  0.24184904  0.03124780  0.27309684  1
  S  S6  1  0.75000000  0.25000000  0.50000000  1
  S  S7  1  0.25000000  0.75000000  0.50000000  1
  S  S8  1  0.37165070  0.71904216  0.09069286  1
  S  S9  1  0.62834930  0.28095784  0.90930714  1
  S  S10  1  0.71904216  0.62834930  0.34739146  1
  S  S11  1  0.28095784  0.37165070  0.65260854  1
  O  O12  1  0.25492434  0.01886775  0.02940621  1
  O  O13  1  0.98946154  0.22551813  0.97059379  1
  O  O14  1  0.01886775  0.98946154  0.76394341  1
  O  O15  1  0.22551813  0.25492434  0.23605659  1
  O  O16  1  0.74507566  0.98113225  0.97059379  1
  O  O17  1  0.01053846  0.77448187  0.02940621  1
  O  O18  1  0.98113225  0.01053846  0.23605659  1
  O  O19  1  0.77448187  0.74507566  0.76394341  1
  O  O20  1  0.21843247  0.77315803  0.64961442  1
  O  O21  1  0.12354361  0.56881805  0.35038558  1
  O  O22  1  0.77315803  0.12354361  0.55472556  1
  O  O23  1  0.56881805  0.21843247  0.44527444  1
  O  O24  1  0.78156753  0.22684197  0.35038558  1
  O  O25  1  0.87645639  0.43118195  0.64961442  1
  O  O26  1  0.22684197  0.87645639  0.44527444  1
  O  O27  1  0.43118195  0.78156753  0.55472556  1
  O  O28  1  0.54767789  0.78459146  0.10314065  1
  O  O29  1  0.68145081  0.44453723  0.89685935  1
  O  O30  1  0.78459146  0.68145081  0.23691358  1
  O  O31  1  0.44453723  0.54767789  0.76308642  1
  O  O32  1  0.45232211  0.21540854  0.89685935  1
  O  O33  1  0.31854919  0.55546277  0.10314065  1
  O  O34  1  0.21540854  0.31854919  0.76308642  1
  O  O35  1  0.55546277  0.45232211  0.23691358  1
  O  O36  1  0.24113830  0.68155651  0.92269481  1
  O  O37  1  0.75886170  0.31844349  0.07730519  1
  O  O38  1  0.68155651  0.75886170  0.44041821  1
  O  O39  1  0.31844349  0.24113830  0.55958179  1
  O  O40  1  0.38405512  0.85394891  0.23800403  1
  O  O41  1  0.61594488  0.14605109  0.76199597  1
  O  O42  1  0.85394891  0.61594488  0.46989379  1
  O  O43  1  0.14605109  0.38405512  0.53010621  1
