# generated using pymatgen
data_KRu(NO2)4
_symmetry_space_group_name_H-M   'P 1'
_cell_length_a   8.76976095
_cell_length_b   9.80749284
_cell_length_c   10.41712596
_cell_angle_alpha   90.00000000
_cell_angle_beta   90.00000000
_cell_angle_gamma   105.44691234
_symmetry_Int_Tables_number   1
_chemical_formula_structural   KRu(NO2)4
_chemical_formula_sum   'K4 Ru4 N16 O32'
_cell_volume   863.60586098
_cell_formula_units_Z   4
loop_
 _symmetry_equiv_pos_site_id
 _symmetry_equiv_pos_as_xyz
  1  'x, y, z'
loop_
 _atom_site_type_symbol
 _atom_site_label
 _atom_site_symmetry_multiplicity
 _atom_site_fract_x
 _atom_site_fract_y
 _atom_site_fract_z
 _atom_site_occupancy
  K  K0  1  0.24562103  0.08104713  0.66382597  1
  K  K1  1  0.75437897  0.41895287  0.16382597  1
  K  K2  1  0.75437897  0.91895287  0.33617403  1
  K  K3  1  0.24562103  0.58104713  0.83617403  1
  Ru  Ru4  1  0.15634079  0.56870208  0.43133299  1
  Ru  Ru5  1  0.84365921  0.93129792  0.93133299  1
  Ru  Ru6  1  0.84365921  0.43129792  0.56866701  1
  Ru  Ru7  1  0.15634079  0.06870208  0.06866701  1
  N  N8  1  0.25847179  0.56342929  0.28293000  1
  N  N9  1  0.74152821  0.93657071  0.78293000  1
  N  N10  1  0.74152821  0.43657071  0.71707000  1
  N  N11  1  0.25847179  0.06342929  0.21707000  1
  N  N12  1  0.04925013  0.72402802  0.34938219  1
  N  N13  1  0.95074987  0.77597198  0.84938219  1
  N  N14  1  0.95074987  0.27597198  0.65061781  1
  N  N15  1  0.04925013  0.22402802  0.15061781  1
  N  N16  1  0.27656866  0.42639045  0.51747647  1
  N  N17  1  0.72343134  0.07360955  0.01747647  1
  N  N18  1  0.72343134  0.57360955  0.48252353  1
  N  N19  1  0.27656866  0.92639045  0.98252353  1
  N  N20  1  0.34216405  0.74794056  0.49475024  1
  N  N21  1  0.65783595  0.75205944  0.99475024  1
  N  N22  1  0.65783595  0.25205944  0.50524976  1
  N  N23  1  0.34216405  0.24794056  0.00524976  1
  O  O24  1  0.04787944  0.57281854  0.59566952  1
  O  O25  1  0.95212056  0.92718146  0.09566952  1
  O  O26  1  0.95212056  0.42718146  0.40433048  1
  O  O27  1  0.04787944  0.07281854  0.90433048  1
  O  O28  1  0.33277939  0.56581323  0.19054756  1
  O  O29  1  0.66722061  0.93418677  0.69054756  1
  O  O30  1  0.66722061  0.43418677  0.80945244  1
  O  O31  1  0.33277939  0.06581323  0.30945244  1
  O  O32  1  0.98365336  0.68917973  0.24452849  1
  O  O33  1  0.01634664  0.81082027  0.74452849  1
  O  O34  1  0.01634664  0.31082027  0.75547151  1
  O  O35  1  0.98365336  0.18917973  0.25547151  1
  O  O36  1  0.05149386  0.83723646  0.40387976  1
  O  O37  1  0.94850614  0.66276354  0.90387976  1
  O  O38  1  0.94850614  0.16276354  0.59612024  1
  O  O39  1  0.05149386  0.33723646  0.09612024  1
  O  O40  1  0.34204113  0.45019981  0.62395954  1
  O  O41  1  0.65795887  0.04980019  0.12395954  1
  O  O42  1  0.65795887  0.54980019  0.37604046  1
  O  O43  1  0.34204113  0.95019981  0.87604046  1
  O  O44  1  0.27204617  0.31756675  0.45501544  1
  O  O45  1  0.72795383  0.18243325  0.95501544  1
  O  O46  1  0.72795383  0.68243325  0.54498456  1
  O  O47  1  0.27204617  0.81756675  0.04498456  1
  O  O48  1  0.44240959  0.81290063  0.41597019  1
  O  O49  1  0.55759041  0.68709937  0.91597019  1
  O  O50  1  0.55759041  0.18709937  0.58402981  1
  O  O51  1  0.44240959  0.31290063  0.08402981  1
  O  O52  1  0.34071178  0.78731656  0.60792806  1
  O  O53  1  0.65928822  0.71268344  0.10792806  1
  O  O54  1  0.65928822  0.21268344  0.39207194  1
  O  O55  1  0.34071178  0.28731656  0.89207194  1
