# generated using pymatgen
data_Ca2MnAl2Si4BO16
_symmetry_space_group_name_H-M   'P 1'
_cell_length_a   7.23535751
_cell_length_b   9.05711759
_cell_length_c   9.26230461
_cell_angle_alpha   88.09794997
_cell_angle_beta   76.95805755
_cell_angle_gamma   81.86563758
_symmetry_Int_Tables_number   1
_chemical_formula_structural   Ca2MnAl2Si4BO16
_chemical_formula_sum   'Ca4 Mn2 Al4 Si8 B2 O32'
_cell_volume   585.36604445
_cell_formula_units_Z   2
loop_
 _symmetry_equiv_pos_site_id
 _symmetry_equiv_pos_as_xyz
  1  'x, y, z'
loop_
 _atom_site_type_symbol
 _atom_site_label
 _atom_site_symmetry_multiplicity
 _atom_site_fract_x
 _atom_site_fract_y
 _atom_site_fract_z
 _atom_site_occupancy
  Ca  Ca0  1  0.24447387  0.39375877  0.65918052  1
  Ca  Ca1  1  0.75552613  0.60624123  0.34081948  1
  Ca  Ca2  1  0.81738335  0.08481127  0.90282783  1
  Ca  Ca3  1  0.18261665  0.91518873  0.09717217  1
  Mn  Mn4  1  0.23371072  0.11090174  0.40317146  1
  Mn  Mn5  1  0.76628928  0.88909826  0.59682854  1
  Al  Al6  1  0.95098301  0.25666395  0.19388706  1
  Al  Al7  1  0.04901699  0.74333605  0.80611294  1
  Al  Al8  1  0.65310074  0.42080932  0.06187724  1
  Al  Al9  1  0.34689926  0.57919068  0.93812276  1
  Si  Si10  1  0.78957157  0.23876000  0.54894375  1
  Si  Si11  1  0.21042843  0.76124000  0.45105625  1
  Si  Si12  1  0.77906483  0.52651282  0.72476884  1
  Si  Si13  1  0.22093517  0.47348718  0.27523116  1
  Si  Si14  1  0.29656977  0.01245618  0.74336970  1
  Si  Si15  1  0.70343023  0.98754382  0.25663030  1
  Si  Si16  1  0.35751961  0.23172457  0.97947586  1
  Si  Si17  1  0.64248039  0.76827543  0.02052414  1
  B  B18  1  0.54001527  0.28626652  0.36649983  1
  B  B19  1  0.45998473  0.71373348  0.63350017  1
  O  O20  1  0.94490131  0.18739227  0.39520188  1
  O  O21  1  0.05509869  0.81260773  0.60479812  1
  O  O22  1  0.76961631  0.10107783  0.66370159  1
  O  O23  1  0.23038369  0.89892217  0.33629841  1
  O  O24  1  0.57981850  0.31185549  0.51386259  1
  O  O25  1  0.42018150  0.68814451  0.48613741  1
  O  O26  1  0.86571815  0.37629029  0.62159214  1
  O  O27  1  0.13428185  0.62370971  0.37840786  1
  O  O28  1  0.97659558  0.56807060  0.75372343  1
  O  O29  1  0.02340442  0.43192940  0.24627657  1
  O  O30  1  0.67078659  0.64947353  0.62040801  1
  O  O31  1  0.32921341  0.35052647  0.37959199  1
  O  O32  1  0.61861349  0.49626260  0.87203904  1
  O  O33  1  0.38138651  0.50373740  0.12796096  1
  O  O34  1  0.46056011  0.87867804  0.65463197  1
  O  O35  1  0.53943989  0.12132196  0.34536803  1
  O  O36  1  0.12077814  0.93400696  0.84566710  1
  O  O37  1  0.87922186  0.06599304  0.15433290  1
  O  O38  1  0.22587030  0.13843931  0.63239660  1
  O  O39  1  0.77412970  0.86156069  0.36760340  1
  O  O40  1  0.39360906  0.08936709  0.86235489  1
  O  O41  1  0.60639094  0.91063291  0.13764511  1
  O  O42  1  0.56225294  0.24367011  0.01830390  1
  O  O43  1  0.43774706  0.75632989  0.98169610  1
  O  O44  1  0.28424919  0.38592007  0.89836600  1
  O  O45  1  0.71575081  0.61407993  0.10163400  1
  O  O46  1  0.20949662  0.17549463  0.12741358  1
  O  O47  1  0.79050338  0.82450537  0.87258642  1
  O  O48  1  0.67444343  0.35403248  0.25525523  1
  O  O49  1  0.32555657  0.64596752  0.74474477  1
  O  O50  1  0.89730952  0.31184739  0.00853545  1
  O  O51  1  0.10269048  0.68815261  0.99146455  1
