# generated using pymatgen
data_LaH4C2SO8
_symmetry_space_group_name_H-M   'P 1'
_cell_length_a   6.66150990
_cell_length_b   9.78482532
_cell_length_c   11.14420563
_cell_angle_alpha   90.00000000
_cell_angle_beta   90.00000000
_cell_angle_gamma   96.17953600
_symmetry_Int_Tables_number   1
_chemical_formula_structural   LaH4C2SO8
_chemical_formula_sum   'La4 H16 C8 S4 O32'
_cell_volume   722.17763058
_cell_formula_units_Z   4
loop_
 _symmetry_equiv_pos_site_id
 _symmetry_equiv_pos_as_xyz
  1  'x, y, z'
loop_
 _atom_site_type_symbol
 _atom_site_label
 _atom_site_symmetry_multiplicity
 _atom_site_fract_x
 _atom_site_fract_y
 _atom_site_fract_z
 _atom_site_occupancy
  La  La0  1  0.17172658  0.60699278  0.34174646  1
  La  La1  1  0.67172658  0.10699278  0.15825354  1
  La  La2  1  0.82827342  0.39300722  0.65825354  1
  La  La3  1  0.32827342  0.89300722  0.84174646  1
  H  H4  1  0.27045606  0.29532216  0.30427177  1
  H  H5  1  0.77045606  0.79532216  0.19572823  1
  H  H6  1  0.72954394  0.70467784  0.69572823  1
  H  H7  1  0.22954394  0.20467784  0.80427177  1
  H  H8  1  0.10289437  0.30480418  0.40133952  1
  H  H9  1  0.60289437  0.80480418  0.09866048  1
  H  H10  1  0.89710563  0.69519582  0.59866048  1
  H  H11  1  0.39710563  0.19519582  0.90133952  1
  H  H12  1  0.49431915  0.86797308  0.39627001  1
  H  H13  1  0.99431915  0.36797308  0.10372999  1
  H  H14  1  0.50568085  0.13202692  0.60372999  1
  H  H15  1  0.00568085  0.63202692  0.89627001  1
  H  H16  1  0.39475025  0.82630443  0.52073005  1
  H  H17  1  0.89475025  0.32630443  0.97926995  1
  H  H18  1  0.60524975  0.17369557  0.47926995  1
  H  H19  1  0.10524975  0.67369557  0.02073005  1
  C  C20  1  0.98171732  0.89691207  0.47539015  1
  C  C21  1  0.48171732  0.39691207  0.02460985  1
  C  C22  1  0.01828268  0.10308793  0.52460985  1
  C  C23  1  0.51828268  0.60308793  0.97539015  1
  C  C24  1  0.88358277  0.01895170  0.44251261  1
  C  C25  1  0.38358277  0.51895170  0.05748739  1
  C  C26  1  0.11641723  0.98104830  0.55748739  1
  C  C27  1  0.61641723  0.48104830  0.94251261  1
  S  S28  1  0.70065942  0.46535016  0.32387514  1
  S  S29  1  0.20065942  0.96535016  0.17612486  1
  S  S30  1  0.29934058  0.53464984  0.67612486  1
  S  S31  1  0.79934058  0.03464984  0.82387514  1
  O  O32  1  0.83666463  0.54000272  0.23320559  1
  O  O33  1  0.33666463  0.04000272  0.26679441  1
  O  O34  1  0.16333537  0.45999728  0.76679441  1
  O  O35  1  0.66333537  0.95999728  0.73320559  1
  O  O36  1  0.82384113  0.46896303  0.43797788  1
  O  O37  1  0.32384113  0.96896303  0.06202212  1
  O  O38  1  0.17615887  0.53103697  0.56202212  1
  O  O39  1  0.67615887  0.03103697  0.93797788  1
  O  O40  1  0.51792159  0.53535638  0.34171366  1
  O  O41  1  0.01792159  0.03535638  0.15828634  1
  O  O42  1  0.48207841  0.46464362  0.65828634  1
  O  O43  1  0.98207841  0.96464362  0.84171366  1
  O  O44  1  0.64330644  0.32019758  0.28797841  1
  O  O45  1  0.14330644  0.82019758  0.21202159  1
  O  O46  1  0.35669356  0.67980242  0.71202159  1
  O  O47  1  0.85669356  0.17980242  0.78797841  1
  O  O48  1  0.95787853  0.77069332  0.44853538  1
  O  O49  1  0.45787853  0.27069332  0.05146462  1
  O  O50  1  0.04212147  0.22930668  0.55146462  1
  O  O51  1  0.54212147  0.72930668  0.94853538  1
  O  O52  1  0.73920184  0.04355761  0.37474384  1
  O  O53  1  0.23920184  0.54355761  0.12525616  1
  O  O54  1  0.26079816  0.95644239  0.62525616  1
  O  O55  1  0.76079816  0.45644239  0.87474384  1
  O  O56  1  0.15048596  0.34114969  0.32259043  1
  O  O57  1  0.65048596  0.84114969  0.17740957  1
  O  O58  1  0.84951404  0.65885031  0.67740957  1
  O  O59  1  0.34951404  0.15885031  0.82259043  1
  O  O60  1  0.42132365  0.79140424  0.44035373  1
  O  O61  1  0.92132365  0.29140424  0.05964627  1
  O  O62  1  0.57867635  0.20859576  0.55964627  1
  O  O63  1  0.07867635  0.70859576  0.94035373  1
