# generated using pymatgen
data_V5H18N3O17
_symmetry_space_group_name_H-M   'P 1'
_cell_length_a   10.42259367
_cell_length_b   10.43332610
_cell_length_c   16.91452194
_cell_angle_alpha   83.54798182
_cell_angle_beta   86.71895823
_cell_angle_gamma   69.62735293
_symmetry_Int_Tables_number   1
_chemical_formula_structural   V5H18N3O17
_chemical_formula_sum   'V20 H72 N12 O68'
_cell_volume   1713.02645447
_cell_formula_units_Z   4
loop_
 _symmetry_equiv_pos_site_id
 _symmetry_equiv_pos_as_xyz
  1  'x, y, z'
loop_
 _atom_site_type_symbol
 _atom_site_label
 _atom_site_symmetry_multiplicity
 _atom_site_fract_x
 _atom_site_fract_y
 _atom_site_fract_z
 _atom_site_occupancy
  V  V0  1  0.44079338  0.18892221  0.11182965  1
  V  V1  1  0.55920662  0.81107779  0.88817035  1
  V  V2  1  0.31192533  0.86822473  0.00696222  1
  V  V3  1  0.68807467  0.13177527  0.99303778  1
  V  V4  1  0.34823523  0.93821565  0.18190342  1
  V  V5  1  0.65176477  0.06178435  0.81809658  1
  V  V6  1  0.59654815  0.87929598  0.06275221  1
  V  V7  1  0.40345185  0.12070402  0.93724779  1
  V  V8  1  0.16210060  0.16736680  0.05894242  1
  V  V9  1  0.83789940  0.83263320  0.94105758  1
  V  V10  1  0.73642756  0.58834480  0.56205966  1
  V  V11  1  0.26357244  0.41165520  0.43794034  1
  V  V12  1  0.02131584  0.65579711  0.35925713  1
  V  V13  1  0.97868416  0.34420289  0.64074287  1
  V  V14  1  0.72091994  0.63904716  0.37424425  1
  V  V15  1  0.27908006  0.36095284  0.62575575  1
  V  V16  1  0.96220739  0.39257018  0.45029182  1
  V  V17  1  0.03779261  0.60742982  0.54970818  1
  V  V18  1  0.79838152  0.84441146  0.47080414  1
  V  V19  1  0.20161848  0.15558854  0.52919586  1
  H  H20  1  0.55115286  0.31787256  0.54245316  1
  H  H21  1  0.44884714  0.68212744  0.45754684  1
  H  H22  1  0.64796161  0.22063649  0.61902252  1
  H  H23  1  0.35203839  0.77936351  0.38097748  1
  H  H24  1  0.68131898  0.16963071  0.52616859  1
  H  H25  1  0.31868102  0.83036929  0.47383141  1
  H  H26  1  0.71907438  0.30753269  0.54953509  1
  H  H27  1  0.28092562  0.69246731  0.45046491  1
  H  H28  1  0.94779736  0.54922782  0.12931852  1
  H  H29  1  0.05220264  0.45077218  0.87068148  1
  H  H30  1  0.94229254  0.42443759  0.19843473  1
  H  H31  1  0.05770746  0.57556241  0.80156527  1
  H  H32  1  0.85574286  0.58689145  0.21444321  1
  H  H33  1  0.14425714  0.41310855  0.78555679  1
  H  H34  1  0.79673006  0.51728806  0.14231428  1
  H  H35  1  0.20326994  0.48271194  0.85768572  1
  H  H36  1  0.43308269  0.00759729  0.62943732  1
  H  H37  1  0.56691731  0.99240271  0.37056268  1
  H  H38  1  0.52811899  0.91091472  0.70704485  1
  H  H39  1  0.47188101  0.08908528  0.29295515  1
  H  H40  1  0.42835117  0.84632940  0.65807566  1
  H  H41  1  0.57164883  0.15367060  0.34192434  1
  H  H42  1  0.57211175  0.86462492  0.61285424  1
  H  H43  1  0.42788825  0.13537508  0.38714576  1
  H  H44  1  0.96692835  0.89909175  0.07529787  1
  H  H45  1  0.03307165  0.10090825  0.92470213  1
  H  H46  1  0.09794059  0.87914646  0.13575107  1
  H  H47  1  0.90205941  0.12085354  0.86424893  1
  H  H48  1  0.04819604  0.74572648  0.12824526  1
  H  H49  1  0.95180396  0.25427352  0.87175474  1
  H  H50  1  0.94020871  0.88246429  0.17456840  1
  H  H51  1  0.05979129  0.11753571  0.82543160  1
  H  H52  1  0.66726179  0.43282260  0.75049824  1
  H  H53  1  0.33273821  0.56717740  0.24950176  1
  H  H54  1  0.63078350  0.34613457  0.83472440  1
  H  H55  1  0.36921650  0.65386543  0.16527560  1
  H  H56  1  0.51448932  0.41204935  0.76299339  1
  H  H57  1  0.48551068  0.58795065  0.23700661  1
  H  H58  1  0.55200141  0.52149744  0.81745914  1
  H  H59  1  0.44799859  0.47850256  0.18254086  1
  H  H60  1  0.10547588  0.02325082  0.29208440  1
  H  H61  1  0.89452412  0.97674918  0.70791560  1
  H  H62  1  0.02143083  0.11646142  0.36567232  1
  H  H63  1  0.97856917  0.88353858  0.63432768  1
  H  H64  1  0.98034445  0.97893851  0.34453774  1
  H  H65  1  0.01965555  0.02106149  0.65546226  1
  H  H66  1  0.94302401  0.12601534  0.27831041  1
  H  H67  1  0.05697599  0.87398466  0.72168959  1
  H  H68  1  0.60588380  0.59205113  0.05257614  1
  H  H69  1  0.39411620  0.40794887  0.94742386  1
  H  H70  1  0.66501686  0.42853373  0.06599855  1
  H  H71  1  0.33498314  0.57146627  0.93400145  1
  H  H72  1  0.82925362  0.53034915  0.91313167  1
  H  H73  1  0.17074638  0.46965085  0.08686833  1
  H  H74  1  0.90037759  0.39630213  0.97105378  1
  H  H75  1  0.09962241  0.60369787  0.02894622  1
  H  H76  1  0.83042586  0.72221460  0.78553285  1
  H  H77  1  0.16957414  0.27778540  0.21446715  1
  H  H78  1  0.88937267  0.64725791  0.70755776  1
  H  H79  1  0.11062733  0.35274209  0.29244224  1
  H  H80  1  0.71491539  0.97701422  0.18698831  1
  H  H81  1  0.28508461  0.02298578  0.81301169  1
  H  H82  1  0.77124518  0.90041428  0.27174096  1
  H  H83  1  0.22875482  0.09958572  0.72825904  1
  H  H84  1  0.77961864  0.16232298  0.19578288  1
  H  H85  1  0.22038136  0.83767702  0.80421712  1
  H  H86  1  0.86501226  0.24546804  0.15088764  1
  H  H87  1  0.13498774  0.75453196  0.84911236  1
  H  H88  1  0.69645703  0.30169829  0.29220745  1
  H  H89  1  0.30354297  0.69830171  0.70779255  1
  H  H90  1  0.56217614  0.35965333  0.34462868  1
  H  H91  1  0.43782386  0.64034667  0.65537132  1
  N  N92  1  0.64976720  0.25463301  0.55902936  1
  N  N93  1  0.35023280  0.74536699  0.44097064  1
  N  N94  1  0.88271583  0.51966035  0.17049073  1
  N  N95  1  0.11728417  0.48033965  0.82950927  1
  N  N96  1  0.49019211  0.90805011  0.65165389  1
  N  N97  1  0.50980789  0.09194989  0.34834611  1
  N  N98  1  0.01355090  0.85146503  0.12903240  1
  N  N99  1  0.98644910  0.14853497  0.87096760  1
  N  N100  1  0.59110756  0.42941411  0.79159533  1
  N  N101  1  0.40889244  0.57058589  0.20840467  1
  N  N102  1  0.01198559  0.06034713  0.32068302  1
  N  N103  1  0.98801441  0.93965287  0.67931698  1
  O  O104  1  0.00221015  0.27332231  0.05896912  1
  O  O105  1  0.99778985  0.72667769  0.94103088  1
  O  O106  1  0.32180735  0.87495706  0.27258403  1
  O  O107  1  0.67819265  0.12504294  0.72741597  1
  O  O108  1  0.26862910  0.75098377  0.96932260  1
  O  O109  1  0.73137090  0.24901623  0.03067740  1
  O  O110  1  0.48614796  0.30277124  0.15162126  1
  O  O111  1  0.51385204  0.69722876  0.84837874  1
  O  O112  1  0.41445836  0.07764581  0.19982538  1
  O  O113  1  0.58554164  0.92235419  0.80017462  1
  O  O114  1  0.54228772  0.83026871  0.15620918  1
  O  O115  1  0.45771228  0.16973129  0.84379082  1
  O  O116  1  0.17730822  0.06607162  0.15646278  1
  O  O117  1  0.82269178  0.93392838  0.84353722  1
  O  O118  1  0.25613274  0.27609323  0.09633465  1
  O  O119  1  0.74386726  0.72390677  0.90366535  1
  O  O120  1  0.15217208  0.01746592  0.00826049  1
  O  O121  1  0.84782792  0.98253408  0.99173951  1
  O  O122  1  0.30888900  0.81947929  0.11523345  1
  O  O123  1  0.69111100  0.18052071  0.88476655  1
  O  O124  1  0.76676129  0.78030907  0.04956424  1
  O  O125  1  0.23323871  0.21969093  0.95043576  1
  O  O126  1  0.62585410  0.04178472  0.09379808  1
  O  O127  1  0.37414590  0.95821528  0.90620192  1
  O  O128  1  0.51912665  0.77381205  0.00394188  1
  O  O129  1  0.48087335  0.22618795  0.99605812  1
  O  O130  1  0.39480140  0.02287242  0.04948569  1
  O  O131  1  0.60519860  0.97712758  0.95051431  1
  O  O132  1  0.60555411  0.64522261  0.31083748  1
  O  O133  1  0.39444589  0.35477739  0.68916252  1
  O  O134  1  0.73602649  0.01003035  0.48044523  1
  O  O135  1  0.26397351  0.98996965  0.51955477  1
  O  O136  1  0.12456299  0.67883684  0.28627511  1
  O  O137  1  0.87543701  0.32116316  0.71372489  1
  O  O138  1  0.63145458  0.56420392  0.63438999  1
  O  O139  1  0.36854542  0.43579608  0.36561001  1
  O  O140  1  0.63893753  0.60142383  0.47224472  1
  O  O141  1  0.36106247  0.39857617  0.52775528  1
  O  O142  1  0.83082013  0.44056020  0.38341558  1
  O  O143  1  0.16917987  0.55943980  0.61658442  1
  O  O144  1  0.68389221  0.82122802  0.39764616  1
  O  O145  1  0.31610779  0.17877198  0.60235384  1
  O  O146  1  0.70644814  0.77284970  0.55516773  1
  O  O147  1  0.29355186  0.22715030  0.44483227  1
  O  O148  1  0.93748883  0.82985573  0.39149268  1
  O  O149  1  0.06251117  0.17014427  0.60850732  1
  O  O150  1  0.86990742  0.65694275  0.30830276  1
  O  O151  1  0.13009258  0.34305725  0.69169724  1
  O  O152  1  0.04373212  0.21660126  0.45081005  1
  O  O153  1  0.95626788  0.78339874  0.54918995  1
  O  O154  1  0.84901622  0.39126203  0.54585336  1
  O  O155  1  0.15098378  0.60873797  0.45414664  1
  O  O156  1  0.09047162  0.44853799  0.37703534  1
  O  O157  1  0.90952838  0.55146201  0.62296466  1
  O  O158  1  0.89919006  0.60549976  0.46806615  1
  O  O159  1  0.10080994  0.39450024  0.53193385  1
  O  O160  1  0.65042840  0.51280156  0.09136588  1
  O  O161  1  0.34957160  0.48719844  0.90863412  1
  O  O162  1  0.88993891  0.43303383  0.91473385  1
  O  O163  1  0.11006109  0.56696617  0.08526615  1
  O  O164  1  0.90868423  0.69851371  0.74861860  1
  O  O165  1  0.09131577  0.30148629  0.25138140  1
  O  O166  1  0.78444050  0.96431490  0.22762023  1
  O  O167  1  0.21555950  0.03568510  0.77237977  1
  O  O168  1  0.82717373  0.22593982  0.20349972  1
  O  O169  1  0.17282627  0.77406018  0.79650028  1
  O  O170  1  0.64586790  0.27999529  0.33942155  1
  O  O171  1  0.35413210  0.72000471  0.66057845  1
