# generated using pymatgen
data_CeH16N7O19
_symmetry_space_group_name_H-M   'P 1'
_cell_length_a   7.13178646
_cell_length_b   7.13178646
_cell_length_c   18.42660906
_cell_angle_alpha   81.03100005
_cell_angle_beta   81.03100005
_cell_angle_gamma   76.93592399
_symmetry_Int_Tables_number   1
_chemical_formula_structural   CeH16N7O19
_chemical_formula_sum   'Ce2 H32 N14 O38'
_cell_volume   894.68240796
_cell_formula_units_Z   2
loop_
 _symmetry_equiv_pos_site_id
 _symmetry_equiv_pos_as_xyz
  1  'x, y, z'
loop_
 _atom_site_type_symbol
 _atom_site_label
 _atom_site_symmetry_multiplicity
 _atom_site_fract_x
 _atom_site_fract_y
 _atom_site_fract_z
 _atom_site_occupancy
  Ce  Ce0  1  0.01268858  0.12827048  0.57586231  1
  Ce  Ce1  1  0.12827048  0.01268858  0.07586231  1
  H  H2  1  0.64974864  0.92318369  0.60436309  1
  H  H3  1  0.92318369  0.64974864  0.10436309  1
  H  H4  1  0.82306869  0.74610264  0.61625716  1
  H  H5  1  0.74610264  0.82306869  0.11625716  1
  H  H6  1  0.22017732  0.49329439  0.54978934  1
  H  H7  1  0.49329439  0.22017732  0.04978934  1
  H  H8  1  0.38848890  0.31602470  0.53115770  1
  H  H9  1  0.31602470  0.38848890  0.03115770  1
  H  H10  1  0.16829452  0.63275496  0.74130364  1
  H  H11  1  0.63275496  0.16829452  0.24130364  1
  H  H12  1  0.14680776  0.41425233  0.74447379  1
  H  H13  1  0.41425233  0.14680776  0.24447379  1
  H  H14  1  0.54057271  0.83208467  0.78377093  1
  H  H15  1  0.83208467  0.54057271  0.28377093  1
  H  H16  1  0.71963500  0.88915449  0.73256578  1
  H  H17  1  0.88915449  0.71963500  0.23256578  1
  H  H18  1  0.13096788  0.54167219  0.31266609  1
  H  H19  1  0.54167219  0.13096788  0.81266609  1
  H  H20  1  0.35126498  0.37923733  0.31313286  1
  H  H21  1  0.37923733  0.35126498  0.81313286  1
  H  H22  1  0.29762639  0.56933355  0.36313121  1
  H  H23  1  0.56933355  0.29762639  0.86313121  1
  H  H24  1  0.18120874  0.38600002  0.38868286  1
  H  H25  1  0.38600002  0.18120874  0.88868286  1
  H  H26  1  0.72814893  0.78319662  0.35498101  1
  H  H27  1  0.78319662  0.72814893  0.85498101  1
  H  H28  1  0.60171506  0.01295016  0.35508017  1
  H  H29  1  0.01295016  0.60171506  0.85508017  1
  H  H30  1  0.78697830  0.92409005  0.40985485  1
  H  H31  1  0.92409005  0.78697830  0.90985485  1
  H  H32  1  0.57272418  0.85314027  0.43112933  1
  H  H33  1  0.85314027  0.57272418  0.93112933  1
  N  N34  1  0.24139109  0.46841140  0.34414001  1
  N  N35  1  0.46841140  0.24139109  0.84414001  1
  N  N36  1  0.67152002  0.89395229  0.38844868  1
  N  N37  1  0.89395229  0.67152002  0.88844868  1
  N  N38  1  0.74851387  0.41715443  0.67398943  1
  N  N39  1  0.41715443  0.74851387  0.17398943  1
  N  N40  1  0.73186513  0.36255553  0.46489058  1
  N  N41  1  0.36255553  0.73186513  0.96489058  1
  N  N42  1  0.14812286  0.95963636  0.42393666  1
  N  N43  1  0.95963636  0.14812286  0.92393666  1
  N  N44  1  0.37043797  0.78645952  0.57050672  1
  N  N45  1  0.78645952  0.37043797  0.07050672  1
  N  N46  1  0.15198994  0.02269555  0.73339924  1
  N  N47  1  0.02269555  0.15198994  0.23339924  1
  O  O48  1  0.78091405  0.88727399  0.61987302  1
  O  O49  1  0.88727399  0.78091405  0.11987302  1
  O  O50  1  0.24602491  0.36046146  0.53640738  1
  O  O51  1  0.36046146  0.24602491  0.03640738  1
  O  O52  1  0.73759988  0.23926659  0.67761423  1
  O  O53  1  0.23926659  0.73759988  0.17761423  1
  O  O54  1  0.87125715  0.47825819  0.62156003  1
  O  O55  1  0.47825819  0.87125715  0.12156003  1
  O  O56  1  0.64832485  0.52399079  0.71837925  1
  O  O57  1  0.52399079  0.64832485  0.21837925  1
  O  O58  1  0.66622850  0.25016292  0.51987745  1
  O  O59  1  0.25016292  0.66622850  0.01987745  1
  O  O60  1  0.90726058  0.38001053  0.46368727  1
  O  O61  1  0.38001053  0.90726058  0.96368727  1
  O  O62  1  0.63119145  0.44853313  0.41591041  1
  O  O63  1  0.44853313  0.63119145  0.91591041  1
  O  O64  1  0.97533648  0.96226356  0.45699379  1
  O  O65  1  0.96226356  0.97533648  0.95699379  1
  O  O66  1  0.24826724  0.05635894  0.44976478  1
  O  O67  1  0.05635894  0.24826724  0.94976478  1
  O  O68  1  0.21630587  0.86667535  0.37086630  1
  O  O69  1  0.86667535  0.21630587  0.87086630  1
  O  O70  1  0.19940949  0.75823008  0.56892055  1
  O  O71  1  0.75823008  0.19940949  0.06892055  1
  O  O72  1  0.38101543  0.95034428  0.58871537  1
  O  O73  1  0.95034428  0.38101543  0.08871537  1
  O  O74  1  0.51797252  0.66452692  0.55340254  1
  O  O75  1  0.66452692  0.51797252  0.05340254  1
  O  O76  1  0.08318592  0.90316391  0.70514261  1
  O  O77  1  0.90316391  0.08318592  0.20514261  1
  O  O78  1  0.14086728  0.19308181  0.69746453  1
  O  O79  1  0.19308181  0.14086728  0.19746453  1
  O  O80  1  0.22741800  0.97439097  0.79170763  1
  O  O81  1  0.97439097  0.22741800  0.29170763  1
  O  O82  1  0.17592522  0.50726862  0.77322657  1
  O  O83  1  0.50726862  0.17592522  0.27322657  1
  O  O84  1  0.65520620  0.88538184  0.78400287  1
  O  O85  1  0.88538184  0.65520620  0.28400287  1
