# generated using pymatgen
data_Y3Ru2
_symmetry_space_group_name_H-M   'P 1'
_cell_length_a   4.74746590
_cell_length_b   7.63970887
_cell_length_c   7.63970887
_cell_angle_alpha   119.99999725
_cell_angle_beta   90.00000000
_cell_angle_gamma   90.00000000
_symmetry_Int_Tables_number   1
_chemical_formula_structural   Y3Ru2
_chemical_formula_sum   'Y6 Ru4'
_cell_volume   239.96401294
_cell_formula_units_Z   2
loop_
 _symmetry_equiv_pos_site_id
 _symmetry_equiv_pos_as_xyz
  1  'x, y, z'
loop_
 _atom_site_type_symbol
 _atom_site_label
 _atom_site_symmetry_multiplicity
 _atom_site_fract_x
 _atom_site_fract_y
 _atom_site_fract_z
 _atom_site_occupancy
  Y  Y0  1  0.75000000  0.61697857  0.69514933  1
  Y  Y1  1  0.25000000  0.38302143  0.30485067  1
  Y  Y2  1  0.75000000  0.07817076  0.38302143  1
  Y  Y3  1  0.25000000  0.92182924  0.61697857  1
  Y  Y4  1  0.75000000  0.30485067  0.92182924  1
  Y  Y5  1  0.25000000  0.69514933  0.07817076  1
  Ru  Ru6  1  0.75000000  0.66666700  0.33333300  1
  Ru  Ru7  1  0.25000000  0.33333300  0.66666700  1
  Ru  Ru8  1  0.00000000  0.00000000  -0.00000000  1
  Ru  Ru9  1  0.50000000  0.00000000  -0.00000000  1
