# generated using pymatgen
data_TaVCu
_symmetry_space_group_name_H-M   'P 1'
_cell_length_a   5.01041131
_cell_length_b   5.01041131
_cell_length_c   5.01041131
_cell_angle_alpha   91.97081900
_cell_angle_beta   60.55396657
_cell_angle_gamma   122.87356016
_symmetry_Int_Tables_number   1
_chemical_formula_structural   TaVCu
_chemical_formula_sum   'Ta2 V2 Cu2'
_cell_volume   87.22439397
_cell_formula_units_Z   2
loop_
 _symmetry_equiv_pos_site_id
 _symmetry_equiv_pos_as_xyz
  1  'x, y, z'
loop_
 _atom_site_type_symbol
 _atom_site_label
 _atom_site_symmetry_multiplicity
 _atom_site_fract_x
 _atom_site_fract_y
 _atom_site_fract_z
 _atom_site_occupancy
  Ta  Ta0  1  0.50000000  0.75448622  0.74551378  1
  Ta  Ta1  1  0.00000000  0.99551378  0.00448622  1
  V  V2  1  0.25000000  0.87500000  0.37500000  1
  V  V3  1  0.75000000  0.37500000  0.37500000  1
  Cu  Cu4  1  0.75000000  0.37500000  0.87500000  1
  Cu  Cu5  1  0.25000000  0.37500000  0.37500000  1
