# generated using pymatgen
data_Eu2ZrO4
_symmetry_space_group_name_H-M   'P 1'
_cell_length_a   4.16793018
_cell_length_b   4.16793018
_cell_length_c   6.96102325
_cell_angle_alpha   107.42014749
_cell_angle_beta   107.42014749
_cell_angle_gamma   90.00000000
_symmetry_Int_Tables_number   1
_chemical_formula_structural   Eu2ZrO4
_chemical_formula_sum   'Eu2 Zr1 O4'
_cell_volume   109.55161257
_cell_formula_units_Z   1
loop_
 _symmetry_equiv_pos_site_id
 _symmetry_equiv_pos_as_xyz
  1  'x, y, z'
loop_
 _atom_site_type_symbol
 _atom_site_label
 _atom_site_symmetry_multiplicity
 _atom_site_fract_x
 _atom_site_fract_y
 _atom_site_fract_z
 _atom_site_occupancy
  Eu  Eu0  1  0.35291082  0.35291082  0.70582164  1
  Eu  Eu1  1  0.64708918  0.64708918  0.29417836  1
  Zr  Zr2  1  -0.00000000  0.00000000  -0.00000000  1
  O  O3  1  0.16875431  0.16875431  0.33750861  1
  O  O4  1  0.83124569  0.83124569  0.66249139  1
  O  O5  1  -0.00000000  0.50000000  -0.00000000  1
  O  O6  1  0.50000000  0.00000000  -0.00000000  1
