# generated using pymatgen
data_KB6F6
_symmetry_space_group_name_H-M   'P 1'
_cell_length_a   8.34204137
_cell_length_b   8.36979118
_cell_length_c   11.53401557
_cell_angle_alpha   88.54504559
_cell_angle_beta   87.07945409
_cell_angle_gamma   60.10961469
_symmetry_Int_Tables_number   1
_chemical_formula_structural   KB6F6
_chemical_formula_sum   'K4 B24 F24'
_cell_volume   697.28820416
_cell_formula_units_Z   4
loop_
 _symmetry_equiv_pos_site_id
 _symmetry_equiv_pos_as_xyz
  1  'x, y, z'
loop_
 _atom_site_type_symbol
 _atom_site_label
 _atom_site_symmetry_multiplicity
 _atom_site_fract_x
 _atom_site_fract_y
 _atom_site_fract_z
 _atom_site_occupancy
  K  K0  1  0.66655977  0.66688046  0.25000000  1
  K  K1  1  0.33344023  0.33311954  0.75000000  1
  K  K2  1  -0.00000000  0.00000000  0.50000000  1
  K  K3  1  -0.00000000  0.00000000  0.00000000  1
  B  B4  1  0.29798742  0.34016583  0.39938265  1
  B  B5  1  0.36184675  0.34016583  0.10061735  1
  B  B6  1  0.70201258  0.65983417  0.60061735  1
  B  B7  1  0.63815325  0.65983417  0.89938265  1
  B  B8  1  0.35900887  0.14164574  0.31143872  1
  B  B9  1  0.49934539  0.14164574  0.18856128  1
  B  B10  1  0.64099113  0.85835426  0.68856128  1
  B  B11  1  0.50065461  0.85835426  0.81143872  1
  B  B12  1  0.13497089  0.34020696  0.30223079  1
  B  B13  1  0.52482215  0.34020696  0.19776921  1
  B  B14  1  0.86502911  0.65979304  0.69776921  1
  B  B15  1  0.47517785  0.65979304  0.80223079  1
  B  B16  1  0.16031151  0.53979813  0.31228310  1
  B  B17  1  0.29989036  0.53979813  0.18771690  1
  B  B18  1  0.83968849  0.46020187  0.68771690  1
  B  B19  1  0.70010964  0.46020187  0.81228310  1
  B  B20  1  0.39955730  0.46438869  0.32722809  1
  B  B21  1  0.13605401  0.46438869  0.17277191  1
  B  B22  1  0.60044270  0.53561131  0.67277191  1
  B  B23  1  0.86394599  0.53561131  0.82722809  1
  B  B24  1  0.52384464  0.21742520  0.32811156  1
  B  B25  1  0.25873016  0.21742520  0.17188844  1
  B  B26  1  0.47615536  0.78257480  0.67188844  1
  B  B27  1  0.74126984  0.78257480  0.82811156  1
  F  F28  1  0.27117681  0.33735642  0.51882915  1
  F  F29  1  0.39146677  0.33735642  0.98117085  1
  F  F30  1  0.72882319  0.66264358  0.48117085  1
  F  F31  1  0.60853323  0.66264358  0.01882915  1
  F  F32  1  0.37732463  0.97794323  0.35887830  1
  F  F33  1  0.64473214  0.97794323  0.14112170  1
  F  F34  1  0.62267537  0.02205677  0.64112170  1
  F  F35  1  0.35526786  0.02205677  0.85887830  1
  F  F36  1  0.97770852  0.33210601  0.34237414  1
  F  F37  1  0.69018547  0.33210601  0.15762586  1
  F  F38  1  0.02229148  0.66789399  0.65762586  1
  F  F39  1  0.30981453  0.66789399  0.84237414  1
  F  F40  1  0.02384454  0.70906281  0.35829839  1
  F  F41  1  0.26709265  0.70906281  0.14170161  1
  F  F42  1  0.97615546  0.29093719  0.64170161  1
  F  F43  1  0.73290735  0.29093719  0.85829839  1
  F  F44  1  0.45148225  0.57426719  0.38557518  1
  F  F45  1  0.97425056  0.57426719  0.11442482  1
  F  F46  1  0.54851775  0.42573281  0.61442482  1
  F  F47  1  0.02574944  0.42573281  0.88557518  1
  F  F48  1  0.68698276  0.11516773  0.38685834  1
  F  F49  1  0.19784951  0.11516773  0.11314166  1
  F  F50  1  0.31301724  0.88483227  0.61314166  1
  F  F51  1  0.80215049  0.88483227  0.88685834  1
