# generated using pymatgen
data_Tm2Ge6Pt
_symmetry_space_group_name_H-M   'P 1'
_cell_length_a   4.05953023
_cell_length_b   4.07533497
_cell_length_c   11.14728799
_cell_angle_alpha   90.00000000
_cell_angle_beta   100.49128544
_cell_angle_gamma   90.00000000
_symmetry_Int_Tables_number   1
_chemical_formula_structural   Tm2Ge6Pt
_chemical_formula_sum   'Tm2 Ge6 Pt1'
_cell_volume   181.33710259
_cell_formula_units_Z   1
loop_
 _symmetry_equiv_pos_site_id
 _symmetry_equiv_pos_as_xyz
  1  'x, y, z'
loop_
 _atom_site_type_symbol
 _atom_site_label
 _atom_site_symmetry_multiplicity
 _atom_site_fract_x
 _atom_site_fract_y
 _atom_site_fract_z
 _atom_site_occupancy
  Tm  Tm0  1  0.77810088  0.50000000  0.55620176  1
  Tm  Tm1  1  0.11690012  0.50000000  0.23380023  1
  Ge  Ge2  1  0.49293372  0.50000000  0.98586745  1
  Ge  Ge3  1  0.37870022  0.50000000  0.75740044  1
  Ge  Ge4  1  0.99214852  -0.00000000  0.98429705  1
  Ge  Ge5  1  0.87743431  0.00000000  0.75486862  1
  Ge  Ge6  1  0.67014646  0.00000000  0.34029291  1
  Ge  Ge7  1  0.24078639  -0.00000000  0.48157278  1
  Pt  Pt8  1  0.55984939  -0.00000000  0.11969877  1
