# generated using pymatgen
data_K2Fe2H8C4Cl2O13
_symmetry_space_group_name_H-M   'P 1'
_cell_length_a   8.97063834
_cell_length_b   8.91576178
_cell_length_c   13.10300873
_cell_angle_alpha   80.08368843
_cell_angle_beta   69.98219413
_cell_angle_gamma   59.79618434
_symmetry_Int_Tables_number   1
_chemical_formula_structural   K2Fe2H8C4Cl2O13
_chemical_formula_sum   'K4 Fe4 H16 C8 Cl4 O26'
_cell_volume   850.99012461
_cell_formula_units_Z   2
loop_
 _symmetry_equiv_pos_site_id
 _symmetry_equiv_pos_as_xyz
  1  'x, y, z'
loop_
 _atom_site_type_symbol
 _atom_site_label
 _atom_site_symmetry_multiplicity
 _atom_site_fract_x
 _atom_site_fract_y
 _atom_site_fract_z
 _atom_site_occupancy
  K  K0  1  0.69099603  0.06681933  0.17718200  1
  K  K1  1  0.93499736  0.93318067  0.82281800  1
  K  K2  1  0.50781536  0.43318067  0.67718200  1
  K  K3  1  0.61817803  0.56681933  0.32281800  1
  Fe  Fe4  1  0.10848620  0.36323415  0.38808688  1
  Fe  Fe5  1  0.85980723  0.63676585  0.61191312  1
  Fe  Fe6  1  0.22172035  0.13676585  0.88808688  1
  Fe  Fe7  1  0.24657308  0.86323415  0.11191312  1
  H  H8  1  0.52635072  0.93599597  0.40466481  1
  H  H9  1  0.86701149  0.06400403  0.59533519  1
  H  H10  1  0.21234668  0.56400403  0.90466481  1
  H  H11  1  0.68101553  0.43599597  0.09533519  1
  H  H12  1  0.72887442  0.80476234  0.39440825  1
  H  H13  1  0.92804501  0.19523766  0.60559175  1
  H  H14  1  0.28363676  0.69523766  0.89440825  1
  H  H15  1  0.87328267  0.30476234  0.10559175  1
  H  H16  1  0.76378707  0.24325781  0.93839788  1
  H  H17  1  0.94544276  0.75674219  0.06160212  1
  H  H18  1  0.75704488  0.25674219  0.43839788  1
  H  H19  1  0.45218495  0.74325781  0.56160212  1
  H  H20  1  0.55688691  0.33131669  0.98051117  1
  H  H21  1  0.86871477  0.66868331  0.01948883  1
  H  H22  1  0.63820360  0.16868331  0.48051117  1
  H  H23  1  0.28739808  0.83131669  0.51948883  1
  C  C24  1  0.07535933  0.13194681  0.27397804  1
  C  C25  1  0.48128419  0.86805319  0.72602196  1
  C  C26  1  0.95730614  0.36805319  0.77397804  1
  C  C27  1  0.09933737  0.63194681  0.22602196  1
  C  C28  1  0.27163890  0.09773427  0.22114889  1
  C  C29  1  0.59052206  0.90226573  0.77885111  1
  C  C30  1  0.11937317  0.40226573  0.72114889  1
  C  C31  1  0.24278778  0.59773427  0.27885111  1
  Cl  Cl32  1  0.25427053  0.13914532  0.50265707  1
  Cl  Cl33  1  0.89607291  0.86085468  0.49734293  1
  Cl  Cl34  1  0.14341585  0.36085468  0.00265707  1
  Cl  Cl35  1  0.50692759  0.63914532  0.99734293  1
  O  O36  1  0.90872346  0.50000000  0.50000000  1
  O  O37  1  0.15872346  0.00000000  -0.00000000  1
  O  O38  1  0.31732268  0.18940456  0.25415640  1
  O  O39  1  0.76088364  0.81059544  0.74584360  1
  O  O40  1  0.25672724  0.31059544  0.75415640  1
  O  O41  1  0.32147908  0.68940456  0.24584360  1
  O  O42  1  0.97785791  0.24449305  0.35010724  1
  O  O43  1  0.57245821  0.75550695  0.64989276  1
  O  O44  1  0.97235097  0.25550695  0.85010724  1
  O  O45  1  0.07796516  0.74449305  0.14989276  1
  O  O46  1  0.02766307  0.04581886  0.23827910  1
  O  O47  1  0.31176103  0.95418114  0.76172090  1
  O  O48  1  0.82348193  0.45418114  0.73827910  1
  O  O49  1  0.01594217  0.54581886  0.26172090  1
  O  O50  1  0.37223601  0.97891485  0.15039895  1
  O  O51  1  0.50154982  0.02108515  0.84960105  1
  O  O52  1  0.10115086  0.52108515  0.65039895  1
  O  O53  1  0.27263497  0.47891485  0.34960105  1
  O  O54  1  0.64110282  0.85653751  0.35344840  1
  O  O55  1  0.85108874  0.14346249  0.64655160  1
  O  O56  1  0.24764033  0.64346249  0.85344840  1
  O  O57  1  0.74455123  0.35653751  0.14655160  1
  O  O58  1  0.66358932  0.21686854  0.97303753  1
  O  O59  1  0.85349539  0.78313146  0.02696247  1
  O  O60  1  0.63045786  0.28313146  0.47303753  1
  O  O61  1  0.38662685  0.71686854  0.52696247  1
