# generated using pymatgen
data_Yb(Co2Ge)2
_symmetry_space_group_name_H-M   'P 1'
_cell_length_a   3.72967165
_cell_length_b   7.25171632
_cell_length_c   7.25171632
_cell_angle_alpha   90.00000000
_cell_angle_beta   90.00000000
_cell_angle_gamma   90.00000000
_symmetry_Int_Tables_number   1
_chemical_formula_structural   Yb(Co2Ge)2
_chemical_formula_sum   'Yb2 Co8 Ge4'
_cell_volume   196.13369609
_cell_formula_units_Z   2
loop_
 _symmetry_equiv_pos_site_id
 _symmetry_equiv_pos_as_xyz
  1  'x, y, z'
loop_
 _atom_site_type_symbol
 _atom_site_label
 _atom_site_symmetry_multiplicity
 _atom_site_fract_x
 _atom_site_fract_y
 _atom_site_fract_z
 _atom_site_occupancy
  Yb  Yb0  1  0.00000000  0.00000000  0.00000000  1
  Yb  Yb1  1  0.50000000  0.50000000  0.50000000  1
  Co  Co2  1  -0.00000000  0.14448892  0.58309708  1
  Co  Co3  1  0.00000000  0.85551108  0.41690292  1
  Co  Co4  1  0.50000000  0.91690292  0.64448892  1
  Co  Co5  1  0.50000000  0.35551108  0.08309708  1
  Co  Co6  1  0.50000000  0.08309708  0.35551108  1
  Co  Co7  1  0.50000000  0.64448892  0.91690292  1
  Co  Co8  1  -0.00000000  0.58309708  0.14448892  1
  Co  Co9  1  0.00000000  0.41690292  0.85551108  1
  Ge  Ge10  1  0.00000000  0.27867396  0.27867396  1
  Ge  Ge11  1  -0.00000000  0.72132604  0.72132604  1
  Ge  Ge12  1  0.50000000  0.22132604  0.77867396  1
  Ge  Ge13  1  0.50000000  0.77867396  0.22132604  1
