# generated using pymatgen
data_Tl3AsF6
_symmetry_space_group_name_H-M   'P 1'
_cell_length_a   8.92951497
_cell_length_b   7.11409626
_cell_length_c   7.16476909
_cell_angle_alpha   78.94350789
_cell_angle_beta   107.41450275
_cell_angle_gamma   128.80488459
_symmetry_Int_Tables_number   1
_chemical_formula_structural   Tl3AsF6
_chemical_formula_sum   'Tl3 As1 F6'
_cell_volume   338.42478133
_cell_formula_units_Z   1
loop_
 _symmetry_equiv_pos_site_id
 _symmetry_equiv_pos_as_xyz
  1  'x, y, z'
loop_
 _atom_site_type_symbol
 _atom_site_label
 _atom_site_symmetry_multiplicity
 _atom_site_fract_x
 _atom_site_fract_y
 _atom_site_fract_z
 _atom_site_occupancy
  Tl  Tl0  1  0.00000000  -0.00000000  0.50000000  1
  Tl  Tl1  1  0.50000000  0.50000000  0.00000000  1
  Tl  Tl2  1  0.00000000  0.50000000  0.00000000  1
  As  As3  1  0.00000000  -0.00000000  0.00000000  1
  F  F4  1  0.05926066  0.26686518  0.78496501  1
  F  F5  1  0.94073934  0.73313482  0.21503499  1
  F  F6  1  0.79472108  0.71779869  0.79680456  1
  F  F7  1  0.20527892  0.28220131  0.20319544  1
  F  F8  1  0.78269259  0.99521484  0.06105855  1
  F  F9  1  0.21730741  0.00478516  0.93894145  1
