# generated using pymatgen
data_Na3Eu2(GeSe3)2
_symmetry_space_group_name_H-M   'P 1'
_cell_length_a   7.38744129
_cell_length_b   7.38744129
_cell_length_c   8.03697795
_cell_angle_alpha   98.77288155
_cell_angle_beta   98.77288155
_cell_angle_gamma   120.01145449
_symmetry_Int_Tables_number   1
_chemical_formula_structural   Na3Eu2(GeSe3)2
_chemical_formula_sum   'Na3 Eu2 Ge2 Se6'
_cell_volume   361.69792206
_cell_formula_units_Z   1
loop_
 _symmetry_equiv_pos_site_id
 _symmetry_equiv_pos_as_xyz
  1  'x, y, z'
loop_
 _atom_site_type_symbol
 _atom_site_label
 _atom_site_symmetry_multiplicity
 _atom_site_fract_x
 _atom_site_fract_y
 _atom_site_fract_z
 _atom_site_occupancy
  Na  Na0  1  0.67353644  0.32646356  -0.00000000  1
  Na  Na1  1  0.32646356  0.67353644  -0.00000000  1
  Na  Na2  1  -0.00000000  -0.00000000  -0.00000000  1
  Eu  Eu3  1  0.83375469  0.16624531  0.50000000  1
  Eu  Eu4  1  0.16624531  0.83375469  0.50000000  1
  Ge  Ge5  1  0.55365448  0.55365448  0.66431655  1
  Ge  Ge6  1  0.44634552  0.44634552  0.33568345  1
  Se  Se7  1  0.25292030  0.25292030  0.75011076  1
  Se  Se8  1  0.74707970  0.74707970  0.24988924  1
  Se  Se9  1  0.58233101  0.91285536  0.74958317  1
  Se  Se10  1  0.41766899  0.08714464  0.25041683  1
  Se  Se11  1  0.08714464  0.41766899  0.25041683  1
  Se  Se12  1  0.91285536  0.58233101  0.74958317  1
