# generated using pymatgen
data_SrMnSb2
_symmetry_space_group_name_H-M   'P 1'
_cell_length_a   4.45106966
_cell_length_b   22.62601924
_cell_length_c   4.51581947
_cell_angle_alpha   90.00000000
_cell_angle_beta   90.00000000
_cell_angle_gamma   90.00000000
_symmetry_Int_Tables_number   1
_chemical_formula_structural   SrMnSb2
_chemical_formula_sum   'Sr4 Mn4 Sb8'
_cell_volume   454.78812358
_cell_formula_units_Z   4
loop_
 _symmetry_equiv_pos_site_id
 _symmetry_equiv_pos_as_xyz
  1  'x, y, z'
loop_
 _atom_site_type_symbol
 _atom_site_label
 _atom_site_symmetry_multiplicity
 _atom_site_fract_x
 _atom_site_fract_y
 _atom_site_fract_z
 _atom_site_occupancy
  Sr  Sr0  1  0.75000000  0.88114081  0.27496895  1
  Sr  Sr1  1  0.25000000  0.11885919  0.72503105  1
  Sr  Sr2  1  0.25000000  0.61885919  0.77496895  1
  Sr  Sr3  1  0.75000000  0.38114081  0.22503105  1
  Mn  Mn4  1  0.75000000  0.74994181  0.77657851  1
  Mn  Mn5  1  0.25000000  0.25005819  0.22342149  1
  Mn  Mn6  1  0.25000000  0.75005819  0.27657851  1
  Mn  Mn7  1  0.75000000  0.24994181  0.72342149  1
  Sb  Sb8  1  0.75000000  0.68084288  0.27446404  1
  Sb  Sb9  1  0.25000000  0.31915712  0.72553596  1
  Sb  Sb10  1  0.25000000  0.81915712  0.77446404  1
  Sb  Sb11  1  0.75000000  0.18084288  0.22553596  1
  Sb  Sb12  1  0.75000000  0.99837828  0.78530700  1
  Sb  Sb13  1  0.25000000  0.00162172  0.21469300  1
  Sb  Sb14  1  0.25000000  0.50162172  0.28530700  1
  Sb  Sb15  1  0.75000000  0.49837828  0.71469300  1
