# generated using pymatgen
data_LuTa5Ag2O15
_symmetry_space_group_name_H-M   'P 1'
_cell_length_a   3.91227650
_cell_length_b   12.57437885
_cell_length_c   12.57437885
_cell_angle_alpha   90.00000000
_cell_angle_beta   90.00000000
_cell_angle_gamma   90.00000000
_symmetry_Int_Tables_number   1
_chemical_formula_structural   LuTa5Ag2O15
_chemical_formula_sum   'Lu2 Ta10 Ag4 O30'
_cell_volume   618.58961235
_cell_formula_units_Z   2
loop_
 _symmetry_equiv_pos_site_id
 _symmetry_equiv_pos_as_xyz
  1  'x, y, z'
loop_
 _atom_site_type_symbol
 _atom_site_label
 _atom_site_symmetry_multiplicity
 _atom_site_fract_x
 _atom_site_fract_y
 _atom_site_fract_z
 _atom_site_occupancy
  Lu  Lu0  1  0.50000000  -0.00000000  -0.00000000  1
  Lu  Lu1  1  0.50000000  0.50000000  0.50000000  1
  Ta  Ta2  1  -0.00000000  -0.00000000  0.50000000  1
  Ta  Ta3  1  -0.00000000  0.50000000  -0.00000000  1
  Ta  Ta4  1  0.00000000  0.07868901  0.21046198  1
  Ta  Ta5  1  -0.00000000  0.92131099  0.78953802  1
  Ta  Ta6  1  -0.00000000  0.78953802  0.07868901  1
  Ta  Ta7  1  0.00000000  0.42131099  0.71046198  1
  Ta  Ta8  1  -0.00000000  0.21046198  0.92131099  1
  Ta  Ta9  1  0.00000000  0.57868901  0.28953802  1
  Ta  Ta10  1  -0.00000000  0.71046198  0.57868901  1
  Ta  Ta11  1  0.00000000  0.28953802  0.42131099  1
  Ag  Ag12  1  0.50000000  0.17222410  0.67222410  1
  Ag  Ag13  1  0.50000000  0.82777590  0.32777590  1
  Ag  Ag14  1  0.50000000  0.32777590  0.17222410  1
  Ag  Ag15  1  0.50000000  0.67222410  0.82777590  1
  O  O16  1  0.50000000  0.07995707  0.18817553  1
  O  O17  1  0.50000000  0.92004293  0.81182447  1
  O  O18  1  0.50000000  0.81182447  0.07995707  1
  O  O19  1  0.50000000  0.42004293  0.68817553  1
  O  O20  1  0.50000000  0.18817553  0.92004293  1
  O  O21  1  0.50000000  0.57995707  0.31182447  1
  O  O22  1  0.50000000  0.68817553  0.57995707  1
  O  O23  1  0.50000000  0.31182447  0.42004293  1
  O  O24  1  0.00000000  0.72549026  0.22549026  1
  O  O25  1  -0.00000000  0.27450974  0.77450974  1
  O  O26  1  0.00000000  0.77450974  0.72549026  1
  O  O27  1  -0.00000000  0.22549026  0.27450974  1
  O  O28  1  0.50000000  -0.00000000  0.50000000  1
  O  O29  1  0.50000000  0.50000000  -0.00000000  1
  O  O30  1  0.00000000  0.12880632  0.05615728  1
  O  O31  1  0.00000000  0.87119368  0.94384272  1
  O  O32  1  -0.00000000  0.94384272  0.12880632  1
  O  O33  1  -0.00000000  0.37119368  0.55615728  1
  O  O34  1  0.00000000  0.05615728  0.87119368  1
  O  O35  1  -0.00000000  0.62880632  0.44384272  1
  O  O36  1  0.00000000  0.55615728  0.62880632  1
  O  O37  1  -0.00000000  0.44384272  0.37119368  1
  O  O38  1  -0.00000000  0.99856665  0.34075396  1
  O  O39  1  0.00000000  0.00143335  0.65924604  1
  O  O40  1  -0.00000000  0.65924604  0.99856665  1
  O  O41  1  -0.00000000  0.50143335  0.84075396  1
  O  O42  1  -0.00000000  0.34075396  0.00143335  1
  O  O43  1  0.00000000  0.49856665  0.15924604  1
  O  O44  1  0.00000000  0.84075396  0.49856665  1
  O  O45  1  0.00000000  0.15924604  0.50143335  1
