# generated using pymatgen
data_Rb2Co2(MoO4)3
_symmetry_space_group_name_H-M   'P 1'
_cell_length_a   10.92088565
_cell_length_b   10.92088565
_cell_length_c   10.92088565
_cell_angle_alpha   90.00000000
_cell_angle_beta   90.00000000
_cell_angle_gamma   90.00000000
_symmetry_Int_Tables_number   1
_chemical_formula_structural   Rb2Co2(MoO4)3
_chemical_formula_sum   'Rb8 Co8 Mo12 O48'
_cell_volume   1302.48754542
_cell_formula_units_Z   4
loop_
 _symmetry_equiv_pos_site_id
 _symmetry_equiv_pos_as_xyz
  1  'x, y, z'
loop_
 _atom_site_type_symbol
 _atom_site_label
 _atom_site_symmetry_multiplicity
 _atom_site_fract_x
 _atom_site_fract_y
 _atom_site_fract_z
 _atom_site_occupancy
  Rb  Rb0  1  0.05122527  0.05122527  0.05122527  1
  Rb  Rb1  1  0.44877473  0.94877473  0.55122527  1
  Rb  Rb2  1  0.94877473  0.55122527  0.44877473  1
  Rb  Rb3  1  0.55122527  0.44877473  0.94877473  1
  Rb  Rb4  1  0.81816618  0.81816618  0.81816618  1
  Rb  Rb5  1  0.68183382  0.18183382  0.31816618  1
  Rb  Rb6  1  0.18183382  0.31816618  0.68183382  1
  Rb  Rb7  1  0.31816618  0.68183382  0.18183382  1
  Co  Co8  1  0.33694869  0.33694869  0.33694869  1
  Co  Co9  1  0.16305131  0.66305131  0.83694869  1
  Co  Co10  1  0.66305131  0.83694869  0.16305131  1
  Co  Co11  1  0.83694869  0.16305131  0.66305131  1
  Co  Co12  1  0.60355962  0.60355962  0.60355962  1
  Co  Co13  1  0.89644038  0.39644038  0.10355962  1
  Co  Co14  1  0.39644038  0.10355962  0.89644038  1
  Co  Co15  1  0.10355962  0.89644038  0.39644038  1
  Mo  Mo16  1  0.02158863  0.21259374  0.37620147  1
  Mo  Mo17  1  0.47841137  0.78740626  0.87620147  1
  Mo  Mo18  1  0.97841137  0.71259374  0.12379853  1
  Mo  Mo19  1  0.37620147  0.02158863  0.21259374  1
  Mo  Mo20  1  0.52158863  0.28740626  0.62379853  1
  Mo  Mo21  1  0.87620147  0.47841137  0.78740626  1
  Mo  Mo22  1  0.12379853  0.97841137  0.71259374  1
  Mo  Mo23  1  0.62379853  0.52158863  0.28740626  1
  Mo  Mo24  1  0.21259374  0.37620147  0.02158863  1
  Mo  Mo25  1  0.71259374  0.12379853  0.97841137  1
  Mo  Mo26  1  0.28740626  0.62379853  0.52158863  1
  Mo  Mo27  1  0.78740626  0.87620147  0.47841137  1
  O  O28  1  0.01585804  0.05494917  0.32779784  1
  O  O29  1  0.48414196  0.94505083  0.82779784  1
  O  O30  1  0.98414196  0.55494917  0.17220216  1
  O  O31  1  0.32779784  0.01585804  0.05494917  1
  O  O32  1  0.51585804  0.44505083  0.67220216  1
  O  O33  1  0.82779784  0.48414196  0.94505083  1
  O  O34  1  0.17220216  0.98414196  0.55494917  1
  O  O35  1  0.67220216  0.51585804  0.44505083  1
  O  O36  1  0.05494917  0.32779784  0.01585804  1
  O  O37  1  0.55494917  0.17220216  0.98414196  1
  O  O38  1  0.44505083  0.67220216  0.51585804  1
  O  O39  1  0.94505083  0.82779784  0.48414196  1
  O  O40  1  0.26882512  0.48536409  0.43418930  1
  O  O41  1  0.23117488  0.51463591  0.93418930  1
  O  O42  1  0.73117488  0.98536409  0.06581070  1
  O  O43  1  0.43418930  0.26882512  0.48536409  1
  O  O44  1  0.76882512  0.01463591  0.56581070  1
  O  O45  1  0.93418930  0.23117488  0.51463591  1
  O  O46  1  0.06581070  0.73117488  0.98536409  1
  O  O47  1  0.56581070  0.76882512  0.01463591  1
  O  O48  1  0.48536409  0.43418930  0.26882512  1
  O  O49  1  0.98536409  0.06581070  0.73117488  1
  O  O50  1  0.01463591  0.56581070  0.76882512  1
  O  O51  1  0.51463591  0.93418930  0.23117488  1
  O  O52  1  0.04929512  0.80857982  0.23750382  1
  O  O53  1  0.45070488  0.19142018  0.73750382  1
  O  O54  1  0.95070488  0.30857982  0.26249618  1
  O  O55  1  0.23750382  0.04929512  0.80857982  1
  O  O56  1  0.54929512  0.69142018  0.76249618  1
  O  O57  1  0.73750382  0.45070488  0.19142018  1
  O  O58  1  0.26249618  0.95070488  0.30857982  1
  O  O59  1  0.76249618  0.54929512  0.69142018  1
  O  O60  1  0.80857982  0.23750382  0.04929512  1
  O  O61  1  0.30857982  0.26249618  0.95070488  1
  O  O62  1  0.69142018  0.76249618  0.54929512  1
  O  O63  1  0.19142018  0.73750382  0.45070488  1
  O  O64  1  0.17655049  0.25964611  0.40189573  1
  O  O65  1  0.32344951  0.74035389  0.90189573  1
  O  O66  1  0.82344951  0.75964611  0.09810427  1
  O  O67  1  0.40189573  0.17655049  0.25964611  1
  O  O68  1  0.67655049  0.24035389  0.59810427  1
  O  O69  1  0.90189573  0.32344951  0.74035389  1
  O  O70  1  0.09810427  0.82344951  0.75964611  1
  O  O71  1  0.59810427  0.67655049  0.24035389  1
  O  O72  1  0.25964611  0.40189573  0.17655049  1
  O  O73  1  0.75964611  0.09810427  0.82344951  1
  O  O74  1  0.24035389  0.59810427  0.67655049  1
  O  O75  1  0.74035389  0.90189573  0.32344951  1
