# generated using pymatgen
data_Lu3Mg2(SiO4)3
_symmetry_space_group_name_H-M   'P 1'
_cell_length_a   10.44302052
_cell_length_b   10.44302052
_cell_length_c   10.44302052
_cell_angle_alpha   109.47122063
_cell_angle_beta   109.47122063
_cell_angle_gamma   109.47122063
_symmetry_Int_Tables_number   1
_chemical_formula_structural   Lu3Mg2(SiO4)3
_chemical_formula_sum   'Lu12 Mg8 Si12 O48'
_cell_volume   876.71109705
_cell_formula_units_Z   4
loop_
 _symmetry_equiv_pos_site_id
 _symmetry_equiv_pos_as_xyz
  1  'x, y, z'
loop_
 _atom_site_type_symbol
 _atom_site_label
 _atom_site_symmetry_multiplicity
 _atom_site_fract_x
 _atom_site_fract_y
 _atom_site_fract_z
 _atom_site_occupancy
  Lu  Lu0  1  0.87500000  0.62500000  0.75000000  1
  Lu  Lu1  1  0.12500000  0.37500000  0.25000000  1
  Lu  Lu2  1  0.62500000  0.87500000  0.25000000  1
  Lu  Lu3  1  0.62500000  0.75000000  0.87500000  1
  Lu  Lu4  1  0.87500000  0.25000000  0.62500000  1
  Lu  Lu5  1  0.37500000  0.12500000  0.75000000  1
  Lu  Lu6  1  0.37500000  0.25000000  0.12500000  1
  Lu  Lu7  1  0.12500000  0.75000000  0.37500000  1
  Lu  Lu8  1  0.75000000  0.87500000  0.62500000  1
  Lu  Lu9  1  0.25000000  0.12500000  0.37500000  1
  Lu  Lu10  1  0.25000000  0.62500000  0.87500000  1
  Lu  Lu11  1  0.75000000  0.37500000  0.12500000  1
  Mg  Mg12  1  0.00000000  0.00000000  0.00000000  1
  Mg  Mg13  1  0.50000000  0.00000000  0.50000000  1
  Mg  Mg14  1  0.50000000  0.50000000  0.00000000  1
  Mg  Mg15  1  0.00000000  0.00000000  0.50000000  1
  Mg  Mg16  1  0.00000000  0.50000000  0.50000000  1
  Mg  Mg17  1  0.50000000  0.50000000  0.50000000  1
  Mg  Mg18  1  0.50000000  0.00000000  0.00000000  1
  Mg  Mg19  1  0.00000000  0.50000000  0.00000000  1
  Si  Si20  1  0.62500000  0.37500000  0.75000000  1
  Si  Si21  1  0.37500000  0.62500000  0.25000000  1
  Si  Si22  1  0.87500000  0.12500000  0.25000000  1
  Si  Si23  1  0.37500000  0.75000000  0.62500000  1
  Si  Si24  1  0.62500000  0.25000000  0.37500000  1
  Si  Si25  1  0.12500000  0.87500000  0.75000000  1
  Si  Si26  1  0.12500000  0.25000000  0.87500000  1
  Si  Si27  1  0.87500000  0.75000000  0.12500000  1
  Si  Si28  1  0.75000000  0.62500000  0.37500000  1
  Si  Si29  1  0.25000000  0.37500000  0.62500000  1
  Si  Si30  1  0.25000000  0.87500000  0.12500000  1
  Si  Si31  1  0.75000000  0.12500000  0.87500000  1
  O  O32  1  0.71355396  0.62181626  0.51708616  1
  O  O33  1  0.28644604  0.37818374  0.48291384  1
  O  O34  1  0.78644604  0.80353220  0.40826230  1
  O  O35  1  0.39526990  0.87818374  0.09173770  1
  O  O36  1  0.62181626  0.51708616  0.71355396  1
  O  O37  1  0.71355396  0.09173770  0.69646780  1
  O  O38  1  0.21355396  0.19646780  0.59173770  1
  O  O39  1  0.60473010  0.12181626  0.90826230  1
  O  O40  1  0.37818374  0.48291384  0.28644604  1
  O  O41  1  0.28644604  0.90826230  0.30353220  1
  O  O42  1  0.10473010  0.69646780  0.98291384  1
  O  O43  1  0.80353220  0.40826230  0.78644604  1
  O  O44  1  0.78644604  0.98291384  0.87818374  1
  O  O45  1  0.89526990  0.30353220  0.01708616  1
  O  O46  1  0.19646780  0.59173770  0.21355396  1
  O  O47  1  0.21355396  0.01708616  0.12181626  1
  O  O48  1  0.87818374  0.09173770  0.39526990  1
  O  O49  1  0.39526990  0.51708616  0.80353220  1
  O  O50  1  0.12181626  0.90826230  0.60473010  1
  O  O51  1  0.60473010  0.48291384  0.19646780  1
  O  O52  1  0.69646780  0.98291384  0.10473010  1
  O  O53  1  0.10473010  0.40826230  0.62181626  1
  O  O54  1  0.30353220  0.01708616  0.89526990  1
  O  O55  1  0.89526990  0.59173770  0.37818374  1
  O  O56  1  0.51708616  0.71355396  0.62181626  1
  O  O57  1  0.62181626  0.10473010  0.40826230  1
  O  O58  1  0.48291384  0.28644604  0.37818374  1
  O  O59  1  0.37818374  0.89526990  0.59173770  1
  O  O60  1  0.09173770  0.39526990  0.87818374  1
  O  O61  1  0.87818374  0.78644604  0.98291384  1
  O  O62  1  0.90826230  0.60473010  0.12181626  1
  O  O63  1  0.12181626  0.21355396  0.01708616  1
  O  O64  1  0.98291384  0.10473010  0.69646780  1
  O  O65  1  0.69646780  0.71355396  0.09173770  1
  O  O66  1  0.01708616  0.89526990  0.30353220  1
  O  O67  1  0.30353220  0.28644604  0.90826230  1
  O  O68  1  0.40826230  0.78644604  0.80353220  1
  O  O69  1  0.80353220  0.39526990  0.51708616  1
  O  O70  1  0.59173770  0.21355396  0.19646780  1
  O  O71  1  0.19646780  0.60473010  0.48291384  1
  O  O72  1  0.09173770  0.69646780  0.71355396  1
  O  O73  1  0.90826230  0.30353220  0.28644604  1
  O  O74  1  0.98291384  0.87818374  0.78644604  1
  O  O75  1  0.01708616  0.12181626  0.21355396  1
  O  O76  1  0.40826230  0.62181626  0.10473010  1
  O  O77  1  0.59173770  0.37818374  0.89526990  1
  O  O78  1  0.51708616  0.80353220  0.39526990  1
  O  O79  1  0.48291384  0.19646780  0.60473010  1
