# generated using pymatgen
data_Nd3(SeO)2
_symmetry_space_group_name_H-M   'P 1'
_cell_length_a   4.05006582
_cell_length_b   9.40043408
_cell_length_c   12.34772012
_cell_angle_alpha   95.35425121
_cell_angle_beta   99.43917940
_cell_angle_gamma   90.00000000
_symmetry_Int_Tables_number   1
_chemical_formula_structural   Nd3(SeO)2
_chemical_formula_sum   'Nd9 Se6 O6'
_cell_volume   461.66246387
_cell_formula_units_Z   3
loop_
 _symmetry_equiv_pos_site_id
 _symmetry_equiv_pos_as_xyz
  1  'x, y, z'
loop_
 _atom_site_type_symbol
 _atom_site_label
 _atom_site_symmetry_multiplicity
 _atom_site_fract_x
 _atom_site_fract_y
 _atom_site_fract_z
 _atom_site_occupancy
  Nd  Nd0  1  0.46223031  0.32202602  0.92446063  1
  Nd  Nd1  1  0.53776969  0.67797398  0.07553937  1
  Nd  Nd2  1  0.81410923  0.01182209  0.62821847  1
  Nd  Nd3  1  0.18589077  0.98817791  0.37178153  1
  Nd  Nd4  1  0.00000000  -0.00000000  0.00000000  1
  Nd  Nd5  1  0.27912564  0.34886228  0.55825127  1
  Nd  Nd6  1  0.72087436  0.65113772  0.44174873  1
  Nd  Nd7  1  0.09420197  0.35809251  0.18840394  1
  Nd  Nd8  1  0.90579803  0.64190749  0.81159606  1
  Se  Se9  1  0.13240157  0.67578245  0.26480315  1
  Se  Se10  1  0.86759843  0.32421755  0.73519685  1
  Se  Se11  1  0.31025197  0.67208492  0.62050393  1
  Se  Se12  1  0.68974803  0.32791508  0.37949607  1
  Se  Se13  1  0.58897180  0.02700942  0.17794360  1
  Se  Se14  1  0.41102820  0.97299058  0.82205640  1
  O  O15  1  0.55352632  0.43592414  0.10705263  1
  O  O16  1  0.44647368  0.56407586  0.89294737  1
  O  O17  1  0.00262767  0.24930581  0.00525533  1
  O  O18  1  0.99737233  0.75069419  0.99474467  1
  O  O19  1  0.27707719  0.09112495  0.55415437  1
  O  O20  1  0.72292281  0.90887505  0.44584563  1
