# generated using pymatgen
data_TaNbV
_symmetry_space_group_name_H-M   'P 1'
_cell_length_a   2.84306774
_cell_length_b   2.84306774
_cell_length_c   6.84053831
_cell_angle_alpha   97.76609680
_cell_angle_beta   97.76609680
_cell_angle_gamma   110.47181989
_symmetry_Int_Tables_number   1
_chemical_formula_structural   TaNbV
_chemical_formula_sum   'Ta1 Nb1 V1'
_cell_volume   50.32464672
_cell_formula_units_Z   1
loop_
 _symmetry_equiv_pos_site_id
 _symmetry_equiv_pos_as_xyz
  1  'x, y, z'
loop_
 _atom_site_type_symbol
 _atom_site_label
 _atom_site_symmetry_multiplicity
 _atom_site_fract_x
 _atom_site_fract_y
 _atom_site_fract_z
 _atom_site_occupancy
  Ta  Ta0  1  0.67447356  0.67447356  0.34894612  1
  Nb  Nb1  1  0.99233197  0.99233197  0.98466394  1
  V  V2  1  0.33319447  0.33319447  0.66638994  1
