# generated using pymatgen
data_RbSm2Cl5
_symmetry_space_group_name_H-M   'P 1'
_cell_length_a   7.14251649
_cell_length_b   8.97870681
_cell_length_c   13.39282714
_cell_angle_alpha   89.11545997
_cell_angle_beta   90.00000000
_cell_angle_gamma   90.00000000
_symmetry_Int_Tables_number   1
_chemical_formula_structural   RbSm2Cl5
_chemical_formula_sum   'Rb4 Sm8 Cl20'
_cell_volume   858.78717406
_cell_formula_units_Z   4
loop_
 _symmetry_equiv_pos_site_id
 _symmetry_equiv_pos_as_xyz
  1  'x, y, z'
loop_
 _atom_site_type_symbol
 _atom_site_label
 _atom_site_symmetry_multiplicity
 _atom_site_fract_x
 _atom_site_fract_y
 _atom_site_fract_z
 _atom_site_occupancy
  Rb  Rb0  1  0.93197051  0.49989441  0.66257209  1
  Rb  Rb1  1  0.06802949  0.50010559  0.33742791  1
  Rb  Rb2  1  0.43197051  0.50010559  0.83742791  1
  Rb  Rb3  1  0.56802949  0.49989441  0.16257209  1
  Sm  Sm4  1  0.89723678  0.00898034  0.65914970  1
  Sm  Sm5  1  0.10276322  0.99101966  0.34085030  1
  Sm  Sm6  1  0.39723678  0.99101966  0.84085030  1
  Sm  Sm7  1  0.60276322  0.00898034  0.15914970  1
  Sm  Sm8  1  0.97262852  0.80401982  0.00119104  1
  Sm  Sm9  1  0.02737148  0.19598018  0.99880896  1
  Sm  Sm10  1  0.47262852  0.19598018  0.49880896  1
  Sm  Sm11  1  0.52737148  0.80401982  0.50119104  1
  Cl  Cl12  1  0.83453426  0.45934241  0.92152998  1
  Cl  Cl13  1  0.16546574  0.54065759  0.07847002  1
  Cl  Cl14  1  0.33453426  0.54065759  0.57847002  1
  Cl  Cl15  1  0.66546574  0.45934241  0.42152998  1
  Cl  Cl16  1  0.13783342  0.76428579  0.81264843  1
  Cl  Cl17  1  0.86216658  0.23571421  0.18735157  1
  Cl  Cl18  1  0.63783342  0.23571421  0.68735157  1
  Cl  Cl19  1  0.36216658  0.76428579  0.31264843  1
  Cl  Cl20  1  0.65658832  0.77449448  0.70808206  1
  Cl  Cl21  1  0.34341168  0.22550552  0.29191794  1
  Cl  Cl22  1  0.15658832  0.22550552  0.79191794  1
  Cl  Cl23  1  0.84341168  0.77449448  0.20808206  1
  Cl  Cl24  1  0.55408213  0.79874229  0.00091079  1
  Cl  Cl25  1  0.44591787  0.20125771  0.99908921  1
  Cl  Cl26  1  0.05408213  0.20125771  0.49908921  1
  Cl  Cl27  1  0.94591787  0.79874229  0.50091079  1
  Cl  Cl28  1  0.30535503  0.97623046  0.63301362  1
  Cl  Cl29  1  0.69464497  0.02376954  0.36698638  1
  Cl  Cl30  1  0.80535503  0.02376954  0.86698638  1
  Cl  Cl31  1  0.19464497  0.97623046  0.13301362  1
