# generated using pymatgen
data_Dy4FeS7
_symmetry_space_group_name_H-M   'P 1'
_cell_length_a   3.76165022
_cell_length_b   6.32298027
_cell_length_c   11.28423670
_cell_angle_alpha   103.60247747
_cell_angle_beta   89.99999975
_cell_angle_gamma   72.69496926
_symmetry_Int_Tables_number   1
_chemical_formula_structural   Dy4FeS7
_chemical_formula_sum   'Dy4 Fe1 S7'
_cell_volume   248.34861631
_cell_formula_units_Z   1
loop_
 _symmetry_equiv_pos_site_id
 _symmetry_equiv_pos_as_xyz
  1  'x, y, z'
loop_
 _atom_site_type_symbol
 _atom_site_label
 _atom_site_symmetry_multiplicity
 _atom_site_fract_x
 _atom_site_fract_y
 _atom_site_fract_z
 _atom_site_occupancy
  Dy  Dy0  1  0.69821480  0.60357040  0.21816426  1
  Dy  Dy1  1  0.30522093  0.38955814  0.79323487  1
  Dy  Dy2  1  0.99920886  0.00158227  0.01243789  1
  Dy  Dy3  1  0.10447363  0.79105273  0.55563735  1
  Fe  Fe4  1  0.88826649  0.22346702  0.42752378  1
  S  S5  1  0.74911841  0.50176319  0.62286784  1
  S  S6  1  0.28546994  0.42906011  0.36090645  1
  S  S7  1  0.33384594  0.33230812  0.05699172  1
  S  S8  1  0.66087010  0.67825980  0.94381960  1
  S  S9  1  0.02992425  0.94015150  0.24027448  1
  S  S10  1  0.96747454  0.06505093  0.78360984  1
  S  S11  1  0.47791211  0.04417578  0.48453192  1
