# generated using pymatgen
data_Ba2NaCe2Ti2FeSi8HO27
_symmetry_space_group_name_H-M   'P 1'
_cell_length_a   7.20708415
_cell_length_b   7.20708415
_cell_length_c   11.87746886
_cell_angle_alpha   75.27674300
_cell_angle_beta   75.27674300
_cell_angle_gamma   85.67433651
_symmetry_Int_Tables_number   1
_chemical_formula_structural   Ba2NaCe2Ti2FeSi8HO27
_chemical_formula_sum   'Ba2 Na1 Ce2 Ti2 Fe1 Si8 H1 O27'
_cell_volume   577.05181092
_cell_formula_units_Z   1
loop_
 _symmetry_equiv_pos_site_id
 _symmetry_equiv_pos_as_xyz
  1  'x, y, z'
loop_
 _atom_site_type_symbol
 _atom_site_label
 _atom_site_symmetry_multiplicity
 _atom_site_fract_x
 _atom_site_fract_y
 _atom_site_fract_z
 _atom_site_occupancy
  Ba  Ba0  1  0.70010026  0.81216226  0.50450088  1
  Ba  Ba1  1  0.18783774  0.29989974  0.49549912  1
  Na  Na2  1  0.00056933  -0.00056933  0.00000000  1
  Ce  Ce3  1  0.50877229  0.17433384  0.96219622  1
  Ce  Ce4  1  0.82566616  0.49122771  0.03780378  1
  Ti  Ti5  1  0.63524941  0.26416902  0.62824639  1
  Ti  Ti6  1  0.73583098  0.36475059  0.37175361  1
  Fe  Fe7  1  0.32758129  0.67241871  -0.00000000  1
  Si  Si8  1  0.85892968  0.88967960  0.79415376  1
  Si  Si9  1  0.11032040  0.14107032  0.20584624  1
  Si  Si10  1  0.90527491  0.48080770  0.74232058  1
  Si  Si11  1  0.51919230  0.09472509  0.25767942  1
  Si  Si12  1  0.30272308  0.93855479  0.74680981  1
  Si  Si13  1  0.06144521  0.69727692  0.25319019  1
  Si  Si14  1  0.47698580  0.71613515  0.22374687  1
  Si  Si15  1  0.28386485  0.52301420  0.77625313  1
  H  H16  1  0.14329796  0.85670204  0.50000000  1
  O  O17  1  0.42638911  0.10078173  0.63549404  1
  O  O18  1  0.89921827  0.57361089  0.36450596  1
  O  O19  1  0.70828146  0.06171503  0.75984432  1
  O  O20  1  0.93828497  0.29171854  0.24015568  1
  O  O21  1  0.81613124  0.18386876  0.50000000  1
  O  O22  1  0.83472225  0.70843808  0.73602239  1
  O  O23  1  0.29156192  0.16527775  0.26397761  1
  O  O24  1  0.15416936  0.54568428  0.90518501  1
  O  O25  1  0.45431572  0.84583064  0.09481499  1
  O  O26  1  0.52976031  0.47023969  0.00000000  1
  O  O27  1  0.07828230  0.97919144  0.73060414  1
  O  O28  1  0.02080856  0.92171770  0.26939586  1
  O  O29  1  0.38563600  0.73543357  0.70479289  1
  O  O30  1  0.26456643  0.61436400  0.29520711  1
  O  O31  1  0.56485299  0.16868328  0.36633941  1
  O  O32  1  0.83131672  0.43514701  0.63366059  1
  O  O33  1  0.52465329  0.85566598  0.30557532  1
  O  O34  1  0.14433402  0.47534671  0.69442468  1
  O  O35  1  0.82207760  0.81120260  0.93822454  1
  O  O36  1  0.18879740  0.17792240  0.06177546  1
  O  O37  1  0.55384428  0.44615572  0.50000000  1
  O  O38  1  0.84341493  0.33472345  0.87458271  1
  O  O39  1  0.66527655  0.15658507  0.12541729  1
  O  O40  1  0.45598598  0.36155369  0.77621176  1
  O  O41  1  0.63844631  0.54401402  0.22378824  1
  O  O42  1  0.31648544  0.93925504  0.88016663  1
  O  O43  1  0.06074496  0.68351456  0.11983337  1
