# generated using pymatgen
data_K2YbGe4O11
_symmetry_space_group_name_H-M   'P 1'
_cell_length_a   8.77996785
_cell_length_b   12.16861225
_cell_length_c   12.43848357
_cell_angle_alpha   112.73166139
_cell_angle_beta   90.00000000
_cell_angle_gamma   90.00000000
_symmetry_Int_Tables_number   1
_chemical_formula_structural   K2YbGe4O11
_chemical_formula_sum   'K8 Yb4 Ge16 O44'
_cell_volume   1225.70301335
_cell_formula_units_Z   4
loop_
 _symmetry_equiv_pos_site_id
 _symmetry_equiv_pos_as_xyz
  1  'x, y, z'
loop_
 _atom_site_type_symbol
 _atom_site_label
 _atom_site_symmetry_multiplicity
 _atom_site_fract_x
 _atom_site_fract_y
 _atom_site_fract_z
 _atom_site_occupancy
  K  K0  1  0.75000000  0.40984650  0.91885582  1
  K  K1  1  0.25000000  0.59015350  0.08114418  1
  K  K2  1  0.75000000  0.92964636  0.56659764  1
  K  K3  1  0.25000000  0.07035364  0.43340236  1
  K  K4  1  0.75000000  0.01446686  0.95367316  1
  K  K5  1  0.25000000  0.98553314  0.04632684  1
  K  K6  1  0.75000000  0.49351087  0.52051683  1
  K  K7  1  0.25000000  0.50648913  0.47948317  1
  Yb  Yb8  1  0.50736962  0.78640061  0.71380651  1
  Yb  Yb9  1  0.49263038  0.21359939  0.28619349  1
  Yb  Yb10  1  0.00736962  0.21359939  0.28619349  1
  Yb  Yb11  1  0.99263038  0.78640061  0.71380651  1
  Ge  Ge12  1  0.43025820  0.50301149  0.74784677  1
  Ge  Ge13  1  0.56974180  0.49698851  0.25215323  1
  Ge  Ge14  1  0.93025820  0.49698851  0.25215323  1
  Ge  Ge15  1  0.06974180  0.50301149  0.74784677  1
  Ge  Ge16  1  0.93553220  0.71691986  0.96610985  1
  Ge  Ge17  1  0.06446780  0.28308014  0.03389015  1
  Ge  Ge18  1  0.43553220  0.28308014  0.03389015  1
  Ge  Ge19  1  0.56446780  0.71691986  0.96610985  1
  Ge  Ge20  1  0.94050220  0.89362462  0.22879403  1
  Ge  Ge21  1  0.05949780  0.10637538  0.77120597  1
  Ge  Ge22  1  0.44050220  0.10637538  0.77120597  1
  Ge  Ge23  1  0.55949780  0.89362462  0.22879403  1
  Ge  Ge24  1  0.93632202  0.23923824  0.60957147  1
  Ge  Ge25  1  0.06367798  0.76076176  0.39042853  1
  Ge  Ge26  1  0.43632202  0.76076176  0.39042853  1
  Ge  Ge27  1  0.56367798  0.23923824  0.60957147  1
  O  O28  1  0.75000000  0.18125206  0.61691887  1
  O  O29  1  0.25000000  0.81874794  0.38308113  1
  O  O30  1  0.99093749  0.23727194  0.88872598  1
  O  O31  1  0.00906251  0.76272806  0.11127402  1
  O  O32  1  0.49093749  0.76272806  0.11127402  1
  O  O33  1  0.50906251  0.23727194  0.88872598  1
  O  O34  1  0.48498535  0.76502441  0.52624441  1
  O  O35  1  0.51501465  0.23497559  0.47375559  1
  O  O36  1  0.98498535  0.23497559  0.47375559  1
  O  O37  1  0.01501465  0.76502441  0.52624441  1
  O  O38  1  0.94998404  0.98383484  0.75536902  1
  O  O39  1  0.05001596  0.01616516  0.24463098  1
  O  O40  1  0.44998404  0.01616516  0.24463098  1
  O  O41  1  0.55001596  0.98383484  0.75536902  1
  O  O42  1  0.75000000  0.65304098  0.95856782  1
  O  O43  1  0.25000000  0.34695902  0.04143218  1
  O  O44  1  0.93300530  0.38589291  0.72092628  1
  O  O45  1  0.06699470  0.61410709  0.27907372  1
  O  O46  1  0.43300530  0.61410709  0.27907372  1
  O  O47  1  0.56699470  0.38589291  0.72092628  1
  O  O48  1  0.75000000  0.91587180  0.19195340  1
  O  O49  1  0.25000000  0.08412820  0.80804660  1
  O  O50  1  0.46188617  0.58555886  0.66390314  1
  O  O51  1  0.53811383  0.41444114  0.33609686  1
  O  O52  1  0.96188617  0.41444114  0.33609686  1
  O  O53  1  0.03811383  0.58555886  0.66390314  1
  O  O54  1  0.75000000  0.56993005  0.27507795  1
  O  O55  1  0.25000000  0.43006995  0.72492205  1
  O  O56  1  0.75000000  0.21076086  0.24236129  1
  O  O57  1  0.25000000  0.78923914  0.75763871  1
  O  O58  1  0.44749118  0.58679166  0.90124090  1
  O  O59  1  0.55250882  0.41320834  0.09875910  1
  O  O60  1  0.94749118  0.41320834  0.09875910  1
  O  O61  1  0.05250882  0.58679166  0.90124090  1
  O  O62  1  0.95010411  0.82335090  0.90681354  1
  O  O63  1  0.04989589  0.17664910  0.09318646  1
  O  O64  1  0.45010411  0.17664910  0.09318646  1
  O  O65  1  0.54989589  0.82335090  0.90681354  1
  O  O66  1  0.93967612  0.85941334  0.35680812  1
  O  O67  1  0.06032388  0.14058666  0.64319188  1
  O  O68  1  0.43967612  0.14058666  0.64319188  1
  O  O69  1  0.56032388  0.85941334  0.35680812  1
  O  O70  1  0.75000000  0.72732462  0.64181547  1
  O  O71  1  0.25000000  0.27267538  0.35818453  1
