# generated using pymatgen
data_Zn4FeSe5
_symmetry_space_group_name_H-M   'P 1'
_cell_length_a   4.04798621
_cell_length_b   4.04798621
_cell_length_c   16.70686860
_cell_angle_alpha   83.04167515
_cell_angle_beta   90.00000000
_cell_angle_gamma   120.00000000
_symmetry_Int_Tables_number   1
_chemical_formula_structural   Zn4FeSe5
_chemical_formula_sum   'Zn4 Fe1 Se5'
_cell_volume   234.75360723
_cell_formula_units_Z   1
loop_
 _symmetry_equiv_pos_site_id
 _symmetry_equiv_pos_as_xyz
  1  'x, y, z'
loop_
 _atom_site_type_symbol
 _atom_site_label
 _atom_site_symmetry_multiplicity
 _atom_site_fract_x
 _atom_site_fract_y
 _atom_site_fract_z
 _atom_site_occupancy
  Zn  Zn0  1  0.59993977  0.19987955  0.20018068  1
  Zn  Zn1  1  0.19996543  0.39993087  0.40010370  1
  Zn  Zn2  1  0.79997071  0.59994142  0.60008787  1
  Zn  Zn3  1  0.39999111  0.79998222  0.80002668  1
  Fe  Fe4  1  0.99989268  0.99978536  0.00032197  1
  Se  Se5  1  0.95042871  0.90085742  0.14871388  1
  Se  Se6  1  0.54995245  0.09990489  0.35014266  1
  Se  Se7  1  0.15000031  0.30000063  0.54999906  1
  Se  Se8  1  0.75001599  0.50003199  0.74995202  1
  Se  Se9  1  0.34984284  0.69968567  0.95047149  1
