# generated using pymatgen
data_K4H5(SeO4)4
_symmetry_space_group_name_H-M   'P 1'
_cell_length_a   7.66135339
_cell_length_b   7.93003384
_cell_length_c   7.96790248
_cell_angle_alpha   72.23318045
_cell_angle_beta   86.78594994
_cell_angle_gamma   85.20906868
_symmetry_Int_Tables_number   1
_chemical_formula_structural   K4H5(SeO4)4
_chemical_formula_sum   'K4 H5 Se4 O16'
_cell_volume   459.15099826
_cell_formula_units_Z   1
loop_
 _symmetry_equiv_pos_site_id
 _symmetry_equiv_pos_as_xyz
  1  'x, y, z'
loop_
 _atom_site_type_symbol
 _atom_site_label
 _atom_site_symmetry_multiplicity
 _atom_site_fract_x
 _atom_site_fract_y
 _atom_site_fract_z
 _atom_site_occupancy
  K  K0  1  0.66504329  0.18840020  0.33672324  1
  K  K1  1  0.33495671  0.81159980  0.66327676  1
  K  K2  1  0.03252904  0.74687715  0.21668002  1
  K  K3  1  0.96747096  0.25312285  0.78331998  1
  H  H4  1  0.25170841  0.42458103  0.03134997  1
  H  H5  1  0.74829159  0.57541897  0.96865003  1
  H  H6  1  0.64281367  0.01231356  0.08070498  1
  H  H7  1  0.35718633  0.98768644  0.91929502  1
  H  H8  1  0.50000000  0.50000000  0.50000000  1
  Se  Se9  1  0.12932996  0.21814092  0.27885233  1
  Se  Se10  1  0.87067004  0.78185908  0.72114767  1
  Se  Se11  1  0.52961795  0.72104727  0.19934667  1
  Se  Se12  1  0.47038205  0.27895273  0.80065333  1
  O  O13  1  0.00546232  0.26978166  0.43525945  1
  O  O14  1  0.99453768  0.73021834  0.56474055  1
  O  O15  1  0.32318898  0.09805037  0.81556142  1
  O  O16  1  0.67681102  0.90194963  0.18443858  1
  O  O17  1  0.31145763  0.09553683  0.34819956  1
  O  O18  1  0.68854237  0.90446317  0.65180044  1
  O  O19  1  0.43254162  0.64105958  0.41094163  1
  O  O20  1  0.56745838  0.35894042  0.58905837  1
  O  O21  1  0.36936045  0.79765357  0.05055358  1
  O  O22  1  0.63063955  0.20234643  0.94944642  1
  O  O23  1  0.66403828  0.55566989  0.16277608  1
  O  O24  1  0.33596172  0.44433011  0.83722392  1
  O  O25  1  0.01449619  0.13695901  0.15376061  1
  O  O26  1  0.98550381  0.86304099  0.84623939  1
  O  O27  1  0.19118147  0.43129744  0.14722253  1
  O  O28  1  0.80881853  0.56870256  0.85277747  1
