# generated using pymatgen
data_KRb(SO4)2
_symmetry_space_group_name_H-M   'P 1'
_cell_length_a   7.29519107
_cell_length_b   8.42501056
_cell_length_c   14.61126078
_cell_angle_alpha   90.00000000
_cell_angle_beta   90.00000000
_cell_angle_gamma   103.26873224
_symmetry_Int_Tables_number   1
_chemical_formula_structural   KRb(SO4)2
_chemical_formula_sum   'K4 Rb4 S8 O32'
_cell_volume   874.06442901
_cell_formula_units_Z   4
loop_
 _symmetry_equiv_pos_site_id
 _symmetry_equiv_pos_as_xyz
  1  'x, y, z'
loop_
 _atom_site_type_symbol
 _atom_site_label
 _atom_site_symmetry_multiplicity
 _atom_site_fract_x
 _atom_site_fract_y
 _atom_site_fract_z
 _atom_site_occupancy
  K  K0  1  0.59018273  0.77550526  0.95600319  1
  K  K1  1  0.40981727  0.22449474  0.04399681  1
  K  K2  1  0.40981727  0.72449474  0.45600319  1
  K  K3  1  0.59018273  0.27550526  0.54399681  1
  Rb  Rb4  1  0.96566161  0.65233101  0.71240503  1
  Rb  Rb5  1  0.03433839  0.34766899  0.28759497  1
  Rb  Rb6  1  0.03433839  0.84766899  0.21240503  1
  Rb  Rb7  1  0.96566161  0.15233101  0.78759497  1
  S  S8  1  0.91803278  0.73329256  0.46185238  1
  S  S9  1  0.08196722  0.26670744  0.53814762  1
  S  S10  1  0.08196722  0.76670744  0.96185238  1
  S  S11  1  0.91803278  0.23329256  0.03814762  1
  S  S12  1  0.50297377  0.85333242  0.69310485  1
  S  S13  1  0.49702623  0.14666758  0.30689515  1
  S  S14  1  0.49702623  0.64666758  0.19310485  1
  S  S15  1  0.50297377  0.35333242  0.80689515  1
  O  O16  1  0.56256837  0.96137049  0.61437571  1
  O  O17  1  0.43743163  0.03862951  0.38562429  1
  O  O18  1  0.43743163  0.53862951  0.11437571  1
  O  O19  1  0.56256837  0.46137049  0.88562429  1
  O  O20  1  0.34065809  0.89595481  0.74328628  1
  O  O21  1  0.65934191  0.10404519  0.25671372  1
  O  O22  1  0.65934191  0.60404519  0.24328628  1
  O  O23  1  0.34065809  0.39595481  0.75671372  1
  O  O24  1  0.41415890  0.68375227  0.65957325  1
  O  O25  1  0.58584110  0.31624773  0.34042675  1
  O  O26  1  0.58584110  0.81624773  0.15957325  1
  O  O27  1  0.41415890  0.18375227  0.84042675  1
  O  O28  1  0.98980177  0.85438632  0.89368778  1
  O  O29  1  0.01019823  0.14561368  0.10631222  1
  O  O30  1  0.01019823  0.64561368  0.39368778  1
  O  O31  1  0.98980177  0.35438632  0.60631222  1
  O  O32  1  0.75746549  0.62213930  0.50842520  1
  O  O33  1  0.24253451  0.37786070  0.49157480  1
  O  O34  1  0.24253451  0.87786070  0.00842520  1
  O  O35  1  0.75746549  0.12213930  0.99157480  1
  O  O36  1  0.93980640  0.18833286  0.46998769  1
  O  O37  1  0.06019360  0.81166714  0.53001231  1
  O  O38  1  0.06019360  0.31166714  0.96998769  1
  O  O39  1  0.93980640  0.68833286  0.03001231  1
  O  O40  1  0.84399606  0.85947778  0.41086915  1
  O  O41  1  0.15600394  0.14052222  0.58913085  1
  O  O42  1  0.15600394  0.64052222  0.91086915  1
  O  O43  1  0.84399606  0.35947778  0.08913085  1
  O  O44  1  0.65957685  0.85195743  0.75623078  1
  O  O45  1  0.34042315  0.14804257  0.24376922  1
  O  O46  1  0.34042315  0.64804257  0.25623078  1
  O  O47  1  0.65957685  0.35195743  0.74376922  1
