# generated using pymatgen
data_ZrTaCN
_symmetry_space_group_name_H-M   'P 1'
_cell_length_a   3.21455632
_cell_length_b   3.21455632
_cell_length_c   5.61471495
_cell_angle_alpha   73.36571545
_cell_angle_beta   90.00000000
_cell_angle_gamma   120.00000000
_symmetry_Int_Tables_number   1
_chemical_formula_structural   ZrTaCN
_chemical_formula_sum   'Zr1 Ta1 C1 N1'
_cell_volume   47.42153872
_cell_formula_units_Z   1
loop_
 _symmetry_equiv_pos_site_id
 _symmetry_equiv_pos_as_xyz
  1  'x, y, z'
loop_
 _atom_site_type_symbol
 _atom_site_label
 _atom_site_symmetry_multiplicity
 _atom_site_fract_x
 _atom_site_fract_y
 _atom_site_fract_z
 _atom_site_occupancy
  Zr  Zr0  1  0.74672661  0.49345321  0.75982018  1
  Ta  Ta1  1  0.25357958  0.50715917  0.23926125  1
  C  C2  1  0.99458339  0.98916678  0.01624982  1
  N  N3  1  0.50511042  0.01022083  0.48466875  1
