# generated using pymatgen
data_Er3ScS6
_symmetry_space_group_name_H-M   'P 1'
_cell_length_a   3.87394877
_cell_length_b   10.88045141
_cell_length_c   11.14672181
_cell_angle_alpha   109.04058757
_cell_angle_beta   90.00000000
_cell_angle_gamma   90.00000000
_symmetry_Int_Tables_number   1
_chemical_formula_structural   Er3ScS6
_chemical_formula_sum   'Er6 Sc2 S12'
_cell_volume   444.13189312
_cell_formula_units_Z   2
loop_
 _symmetry_equiv_pos_site_id
 _symmetry_equiv_pos_as_xyz
  1  'x, y, z'
loop_
 _atom_site_type_symbol
 _atom_site_label
 _atom_site_symmetry_multiplicity
 _atom_site_fract_x
 _atom_site_fract_y
 _atom_site_fract_z
 _atom_site_occupancy
  Er  Er0  1  0.75000000  0.56802065  0.16907141  1
  Er  Er1  1  0.25000000  0.43197935  0.83092859  1
  Er  Er2  1  0.75000000  0.31556686  0.49803685  1
  Er  Er3  1  0.25000000  0.68443314  0.50196315  1
  Er  Er4  1  0.75000000  0.84170361  0.91850931  1
  Er  Er5  1  0.25000000  0.15829639  0.08149069  1
  Sc  Sc6  1  0.75000000  0.95963466  0.31486071  1
  Sc  Sc7  1  0.25000000  0.04036534  0.68513929  1
  S  S8  1  0.75000000  0.52054165  0.38654899  1
  S  S9  1  0.25000000  0.47945835  0.61345101  1
  S  S10  1  0.75000000  0.08249944  0.89831628  1
  S  S11  1  0.25000000  0.91750056  0.10168372  1
  S  S12  1  0.75000000  0.60419024  0.93863570  1
  S  S13  1  0.25000000  0.39580976  0.06136430  1
  S  S14  1  0.75000000  0.25033199  0.72076234  1
  S  S15  1  0.25000000  0.74966801  0.27923766  1
  S  S16  1  0.75000000  0.89805293  0.53775246  1
  S  S17  1  0.25000000  0.10194707  0.46224754  1
  S  S18  1  0.75000000  0.18457650  0.25172065  1
  S  S19  1  0.25000000  0.81542350  0.74827935  1
