# generated using pymatgen
data_Zr3(VNi2)2
_symmetry_space_group_name_H-M   'P 1'
_cell_length_a   5.01191845
_cell_length_b   4.93029163
_cell_length_c   12.45477967
_cell_angle_alpha   91.22912504
_cell_angle_beta   89.35364923
_cell_angle_gamma   118.22928911
_symmetry_Int_Tables_number   1
_chemical_formula_structural   Zr3(VNi2)2
_chemical_formula_sum   'Zr6 V4 Ni8'
_cell_volume   271.09325578
_cell_formula_units_Z   2
loop_
 _symmetry_equiv_pos_site_id
 _symmetry_equiv_pos_as_xyz
  1  'x, y, z'
loop_
 _atom_site_type_symbol
 _atom_site_label
 _atom_site_symmetry_multiplicity
 _atom_site_fract_x
 _atom_site_fract_y
 _atom_site_fract_z
 _atom_site_occupancy
  Zr  Zr0  1  0.33864344  0.65593321  0.91313671  1
  Zr  Zr1  1  0.00606130  0.00581483  0.25126041  1
  Zr  Zr2  1  0.67417035  0.32587680  0.58219487  1
  Zr  Zr3  1  0.32582965  0.67412320  0.66780513  1
  Zr  Zr4  1  0.99393870  0.99418517  0.99873959  1
  Zr  Zr5  1  0.66135656  0.34406679  0.33686329  1
  V  V6  1  0.50000000  0.50000000  0.12500000  1
  V  V7  1  0.16604288  0.83234782  0.45894158  1
  V  V8  1  0.83395712  0.16765218  0.79105842  1
  V  V9  1  0.50000000  0.00000000  0.12500000  1
  Ni  Ni10  1  0.16707058  0.33083913  0.46092034  1
  Ni  Ni11  1  0.83292942  0.66916087  0.78907966  1
  Ni  Ni12  1  0.33020502  0.66759823  0.29300341  1
  Ni  Ni13  1  -0.00000000  0.00000000  0.62500000  1
  Ni  Ni14  1  0.66979498  0.33240177  0.95699659  1
  Ni  Ni15  1  -0.00000000  0.50000000  0.12500000  1
  Ni  Ni16  1  0.66544709  0.83001725  0.45903696  1
  Ni  Ni17  1  0.33455291  0.16998275  0.79096304  1
