# generated using pymatgen
data_YbAg(MoO4)2
_symmetry_space_group_name_H-M   'P 1'
_cell_length_a   5.25437288
_cell_length_b   5.25437288
_cell_length_c   6.82342490
_cell_angle_alpha   67.35473256
_cell_angle_beta   67.35473256
_cell_angle_gamma   90.00000000
_symmetry_Int_Tables_number   1
_chemical_formula_structural   YbAg(MoO4)2
_chemical_formula_sum   'Yb1 Ag1 Mo2 O8'
_cell_volume   158.00833092
_cell_formula_units_Z   1
loop_
 _symmetry_equiv_pos_site_id
 _symmetry_equiv_pos_as_xyz
  1  'x, y, z'
loop_
 _atom_site_type_symbol
 _atom_site_label
 _atom_site_symmetry_multiplicity
 _atom_site_fract_x
 _atom_site_fract_y
 _atom_site_fract_z
 _atom_site_occupancy
  Yb  Yb0  1  0.50000000  0.50000000  -0.00000000  1
  Ag  Ag1  1  0.25000000  0.75000000  0.50000000  1
  Mo  Mo2  1  0.75000000  0.25000000  0.50000000  1
  Mo  Mo3  1  -0.00000000  0.00000000  0.00000000  1
  O  O4  1  0.92685162  0.33012838  0.83263803  1
  O  O5  1  0.24051035  0.83723359  0.83263803  1
  O  O6  1  0.66987162  0.75948965  0.16736197  1
  O  O7  1  0.16276641  0.07314838  0.16736197  1
  O  O8  1  0.51074222  0.40463079  0.67619872  1
  O  O9  1  0.81305906  0.91917048  0.67619872  1
  O  O10  1  0.59536921  0.18694094  0.32380128  1
  O  O11  1  0.08082952  0.48925778  0.32380128  1
