# generated using pymatgen
data_Ta4N3
_symmetry_space_group_name_H-M   'P 1'
_cell_length_a   4.40639168
_cell_length_b   4.40639168
_cell_length_c   5.31878989
_cell_angle_alpha   65.52924163
_cell_angle_beta   65.52924163
_cell_angle_gamma   90.00000000
_symmetry_Int_Tables_number   1
_chemical_formula_structural   Ta4N3
_chemical_formula_sum   'Ta4 N3'
_cell_volume   83.69609666
_cell_formula_units_Z   1
loop_
 _symmetry_equiv_pos_site_id
 _symmetry_equiv_pos_as_xyz
  1  'x, y, z'
loop_
 _atom_site_type_symbol
 _atom_site_label
 _atom_site_symmetry_multiplicity
 _atom_site_fract_x
 _atom_site_fract_y
 _atom_site_fract_z
 _atom_site_occupancy
  Ta  Ta0  1  0.25000000  0.75000000  0.50000000  1
  Ta  Ta1  1  0.48618008  0.48618008  0.02763985  1
  Ta  Ta2  1  0.75000000  0.25000000  0.50000000  1
  Ta  Ta3  1  0.01381992  0.01381992  0.97236015  1
  N  N4  1  0.50000000  0.00000000  0.00000000  1
  N  N5  1  0.75000000  0.75000000  0.50000000  1
  N  N6  1  0.00000000  0.50000000  -0.00000000  1
