# generated using pymatgen
data_UNiGe
_symmetry_space_group_name_H-M   'P 1'
_cell_length_a   4.16903974
_cell_length_b   5.56750378
_cell_length_c   5.32923000
_cell_angle_alpha   92.37543924
_cell_angle_beta   113.02597118
_cell_angle_gamma   68.01225566
_symmetry_Int_Tables_number   1
_chemical_formula_structural   UNiGe
_chemical_formula_sum   'U2 Ni2 Ge2'
_cell_volume   104.75971383
_cell_formula_units_Z   2
loop_
 _symmetry_equiv_pos_site_id
 _symmetry_equiv_pos_as_xyz
  1  'x, y, z'
loop_
 _atom_site_type_symbol
 _atom_site_label
 _atom_site_symmetry_multiplicity
 _atom_site_fract_x
 _atom_site_fract_y
 _atom_site_fract_z
 _atom_site_occupancy
  U  U0  1  0.77470744  0.67427932  0.22369420  1
  U  U1  1  0.22529256  0.32572068  0.77630580  1
  Ni  Ni2  1  0.55035394  0.28639771  0.38710558  1
  Ni  Ni3  1  0.44964606  0.71360229  0.61289442  1
  Ge  Ge4  1  0.06371252  0.10049961  0.22792464  1
  Ge  Ge5  1  0.93628748  0.89950039  0.77207536  1
