# generated using pymatgen
data_Zn3In2O6
_symmetry_space_group_name_H-M   'P 1'
_cell_length_a   3.45667541
_cell_length_b   3.45669408
_cell_length_c   14.30258247
_cell_angle_alpha   83.05932209
_cell_angle_beta   83.06020305
_cell_angle_gamma   59.99980212
_symmetry_Int_Tables_number   1
_chemical_formula_structural   Zn3In2O6
_chemical_formula_sum   'Zn3 In2 O6'
_cell_volume   146.55299917
_cell_formula_units_Z   1
loop_
 _symmetry_equiv_pos_site_id
 _symmetry_equiv_pos_as_xyz
  1  'x, y, z'
loop_
 _atom_site_type_symbol
 _atom_site_label
 _atom_site_symmetry_multiplicity
 _atom_site_fract_x
 _atom_site_fract_y
 _atom_site_fract_z
 _atom_site_occupancy
  Zn  Zn0  1  0.73734228  0.73737582  0.78790608  1
  Zn  Zn1  1  0.26157239  0.26156568  0.21529625  1
  Zn  Zn2  1  0.86881701  0.86875923  0.39366452  1
  In  In3  1  0.99931568  0.99930317  0.00207797  1
  In  In4  1  0.13684387  0.13684080  0.58947454  1
  O  O5  1  0.08494249  0.08495542  0.74514667  1
  O  O6  1  0.91602374  0.91603801  0.25190024  1
  O  O7  1  0.80575350  0.80591726  0.58241198  1
  O  O8  1  0.18965232  0.18954960  0.43124849  1
  O  O9  1  0.69098894  0.69104614  0.92691877  1
  O  O10  1  0.30874779  0.30864886  0.07395450  1
