# generated using pymatgen
data_Y14Ge4O29F5
_symmetry_space_group_name_H-M   'P 1'
_cell_length_a   5.63765093
_cell_length_b   11.01371315
_cell_length_c   12.22723101
_cell_angle_alpha   89.95672670
_cell_angle_beta   89.98709366
_cell_angle_gamma   79.97713089
_symmetry_Int_Tables_number   1
_chemical_formula_structural   Y14Ge4O29F5
_chemical_formula_sum   'Y14 Ge4 O29 F5'
_cell_volume   747.61979589
_cell_formula_units_Z   1
loop_
 _symmetry_equiv_pos_site_id
 _symmetry_equiv_pos_as_xyz
  1  'x, y, z'
loop_
 _atom_site_type_symbol
 _atom_site_label
 _atom_site_symmetry_multiplicity
 _atom_site_fract_x
 _atom_site_fract_y
 _atom_site_fract_z
 _atom_site_occupancy
  Y  Y0  1  0.05779560  0.82800311  0.85552637  1
  Y  Y1  1  0.55392234  0.32746000  0.35241928  1
  Y  Y2  1  0.94473669  0.17210669  0.85326284  1
  Y  Y3  1  0.44412347  0.67149932  0.35497461  1
  Y  Y4  1  0.94336656  0.17193540  0.14529731  1
  Y  Y5  1  0.44435253  0.67096408  0.64506974  1
  Y  Y6  1  0.05705076  0.82837766  0.14492279  1
  Y  Y7  1  0.55668691  0.32805666  0.64489567  1
  Y  Y8  1  0.99814550  0.49918163  0.50141543  1
  Y  Y9  1  0.49575728  0.99830373  0.00247639  1
  Y  Y10  1  0.36833328  0.32589874  0.00303693  1
  Y  Y11  1  0.87492339  0.82550117  0.49962404  1
  Y  Y12  1  0.63012635  0.67524938  0.00052319  1
  Y  Y13  1  0.12663721  0.17449969  0.50225205  1
  Ge  Ge14  1  0.00021745  0.49994364  0.22062800  1
  Ge  Ge15  1  0.50001342  0.00025019  0.72114014  1
  Ge  Ge16  1  0.00000363  0.49960183  0.77908035  1
  Ge  Ge17  1  0.50011865  0.00073394  0.27922832  1
  O  O18  1  0.80936882  0.84210453  0.99945918  1
  O  O19  1  0.30885195  0.33972930  0.49961672  1
  O  O20  1  0.18730433  0.15819436  0.99974818  1
  O  O21  1  0.68919281  0.66048631  0.49980004  1
  O  O22  1  0.93268677  0.63425344  0.86167870  1
  O  O23  1  0.43123282  0.13391944  0.36214794  1
  O  O24  1  0.06374956  0.36518113  0.86121196  1
  O  O25  1  0.56077416  0.86567659  0.36186915  1
  O  O26  1  0.06302873  0.36545824  0.13838610  1
  O  O27  1  0.56080381  0.86593795  0.63862953  1
  O  O28  1  0.92855917  0.63492576  0.13936447  1
  O  O29  1  0.43273032  0.13405171  0.63791423  1
  O  O30  1  0.24060854  0.50141822  0.31778829  1
  O  O31  1  0.74096166  0.00349623  0.81755120  1
  O  O32  1  0.75891972  0.49643272  0.31756142  1
  O  O33  1  0.25840829  0.99835608  0.81705129  1
  O  O34  1  0.75918725  0.49852739  0.68214294  1
  O  O35  1  0.25845399  0.99766127  0.18292596  1
  O  O36  1  0.24075222  0.50209787  0.68209839  1
  O  O37  1  0.74053619  0.00085300  0.18220318  1
  O  O38  1  0.69477195  0.16478334  0.00170684  1
  O  O39  1  0.19292074  0.66347730  0.49995136  1
  O  O40  1  0.30399680  0.83434377  0.99991323  1
  O  O41  1  0.80330057  0.33481825  0.50044663  1
  O  O42  1  0.43230815  0.51716090  0.99947582  1
  O  O43  1  0.57629128  0.30256648  0.16699062  1
  O  O44  1  0.07930365  0.80252314  0.66955198  1
  O  O45  1  0.92432632  0.20023678  0.67066998  1
  O  O46  1  0.07892515  0.80259075  0.33055312  1
  F  F47  1  0.93960282  0.01528753  0.49883135  1
  F  F48  1  0.43092549  0.70016109  0.17360219  1
  F  F49  1  0.43145401  0.69901043  0.82723255  1
  F  F50  1  0.92859136  0.20054132  0.32788849  1
  F  F51  1  0.57085956  0.30017051  0.82826353  1
