# generated using pymatgen
data_Tm4CrS7
_symmetry_space_group_name_H-M   'P 1'
_cell_length_a   3.75702442
_cell_length_b   6.44811281
_cell_length_c   11.26364981
_cell_angle_alpha   104.82076248
_cell_angle_beta   90.00000000
_cell_angle_gamma   73.06255524
_symmetry_Int_Tables_number   1
_chemical_formula_structural   Tm4CrS7
_chemical_formula_sum   'Tm4 Cr1 S7'
_cell_volume   251.52881521
_cell_formula_units_Z   1
loop_
 _symmetry_equiv_pos_site_id
 _symmetry_equiv_pos_as_xyz
  1  'x, y, z'
loop_
 _atom_site_type_symbol
 _atom_site_label
 _atom_site_symmetry_multiplicity
 _atom_site_fract_x
 _atom_site_fract_y
 _atom_site_fract_z
 _atom_site_occupancy
  Tm  Tm0  1  0.69408474  0.61183052  0.20612614  1
  Tm  Tm1  1  0.30658668  0.38682663  0.80285118  1
  Tm  Tm2  1  0.99848982  0.00302037  0.00688556  1
  Tm  Tm3  1  0.11311939  0.77376122  0.56388623  1
  Cr  Cr4  1  0.88494033  0.23011934  0.42422054  1
  S  S5  1  0.74741966  0.50516068  0.63376368  1
  S  S6  1  0.27096335  0.45807330  0.35256134  1
  S  S7  1  0.33667594  0.32664811  0.05199542  1
  S  S8  1  0.65925581  0.68148838  0.94805745  1
  S  S9  1  0.03150869  0.93698262  0.22977844  1
  S  S10  1  0.96401770  0.07196460  0.78484796  1
  S  S11  1  0.49293789  0.01412422  0.49502607  1
