# generated using pymatgen
data_Zn3Fe12(CoO12)2
_symmetry_space_group_name_H-M   'P 1'
_cell_length_a   6.04286866
_cell_length_b   8.60238444
_cell_length_c   10.47280546
_cell_angle_alpha   65.75111859
_cell_angle_beta   73.23165432
_cell_angle_gamma   90.00000000
_symmetry_Int_Tables_number   1
_chemical_formula_structural   Zn3Fe12(CoO12)2
_chemical_formula_sum   'Zn3 Fe12 Co2 O24'
_cell_volume   470.87125559
_cell_formula_units_Z   1
loop_
 _symmetry_equiv_pos_site_id
 _symmetry_equiv_pos_as_xyz
  1  'x, y, z'
loop_
 _atom_site_type_symbol
 _atom_site_label
 _atom_site_symmetry_multiplicity
 _atom_site_fract_x
 _atom_site_fract_y
 _atom_site_fract_z
 _atom_site_occupancy
  Zn  Zn0  1  0.00000000  0.99711920  -0.00000000  1
  Zn  Zn1  1  0.33493846  0.33704784  0.33012207  1
  Zn  Zn2  1  0.66506154  0.66717091  0.66987793  1
  Fe  Fe3  1  0.25553099  0.37720055  -0.00000000  1
  Fe  Fe4  1  0.58452790  0.70684787  0.33188982  1
  Fe  Fe5  1  0.91641872  0.03873869  0.66811018  1
  Fe  Fe6  1  0.08023100  0.70702921  0.83953700  1
  Fe  Fe7  1  0.41804771  0.04062308  0.16390557  1
  Fe  Fe8  1  0.75226524  0.38007757  0.49546952  1
  Fe  Fe9  1  0.91976900  0.54656722  0.16046300  1
  Fe  Fe10  1  0.24773476  0.87554710  0.50453048  1
  Fe  Fe11  1  0.58195229  0.20452765  0.83609443  1
  Fe  Fe12  1  0.74446901  0.37720055  -0.00000000  1
  Fe  Fe13  1  0.08358128  0.70684787  0.33188982  1
  Fe  Fe14  1  0.41547210  0.03873869  0.66811018  1
  Co  Co15  1  0.83381585  0.08334552  0.33236731  1
  Co  Co16  1  0.16618415  0.41571383  0.66763269  1
  O  O17  1  0.73034223  0.13598708  0.00000000  1
  O  O18  1  0.06227105  0.46930550  0.33384544  1
  O  O19  1  0.39611749  0.80315194  0.66615456  1
  O  O20  1  0.57732557  0.43827884  0.84534887  1
  O  O21  1  0.90929754  0.77448750  0.18140392  1
  O  O22  1  0.24357733  0.10802209  0.51284635  1
  O  O23  1  0.42267443  0.28362771  0.15465113  1
  O  O24  1  0.75642267  0.62086744  0.48715365  1
  O  O25  1  0.09070246  0.95589242  0.81859608  1
  O  O26  1  0.26965777  0.13598708  -0.00000000  1
  O  O27  1  0.60388251  0.46930550  0.33384544  1
  O  O28  1  0.93772895  0.80315194  0.66615456  1
  O  O29  1  0.78149312  0.60112432  0.00000000  1
  O  O30  1  0.09050203  0.95144850  0.33769471  1
  O  O31  1  0.42819773  0.28914421  0.66230529  1
  O  O32  1  0.91862103  0.29438681  0.16275794  1
  O  O33  1  0.25137226  0.63634381  0.49725448  1
  O  O34  1  0.59909250  0.99743395  0.80181600  1
  O  O35  1  0.08137897  0.45714475  0.83724206  1
  O  O36  1  0.40090750  0.79924895  0.19818400  1
  O  O37  1  0.74862774  0.13359929  0.50274552  1
  O  O38  1  0.21850688  0.60112432  -0.00000000  1
  O  O39  1  0.57180227  0.95144850  0.33769471  1
  O  O40  1  0.90949797  0.28914421  0.66230529  1
