# generated using pymatgen
data_Ta4FeCoO12
_symmetry_space_group_name_H-M   'P 1'
_cell_length_a   4.81908658
_cell_length_b   4.81908658
_cell_length_c   9.13049329
_cell_angle_alpha   90.00000000
_cell_angle_beta   90.00000000
_cell_angle_gamma   89.48495116
_symmetry_Int_Tables_number   1
_chemical_formula_structural   Ta4FeCoO12
_chemical_formula_sum   'Ta4 Fe1 Co1 O12'
_cell_volume   212.03431505
_cell_formula_units_Z   1
loop_
 _symmetry_equiv_pos_site_id
 _symmetry_equiv_pos_as_xyz
  1  'x, y, z'
loop_
 _atom_site_type_symbol
 _atom_site_label
 _atom_site_symmetry_multiplicity
 _atom_site_fract_x
 _atom_site_fract_y
 _atom_site_fract_z
 _atom_site_occupancy
  Ta  Ta0  1  0.50000000  0.50000000  0.16603280  1
  Ta  Ta1  1  -0.00000000  0.00000000  0.67191036  1
  Ta  Ta2  1  0.50000000  0.50000000  0.83396720  1
  Ta  Ta3  1  -0.00000000  0.00000000  0.32808964  1
  Fe  Fe4  1  0.50000000  0.50000000  0.50000000  1
  Co  Co5  1  -0.00000000  0.00000000  -0.00000000  1
  O  O6  1  0.18562760  0.81437240  0.50000000  1
  O  O7  1  0.81437240  0.18562760  0.50000000  1
  O  O8  1  0.31352049  0.31352049  -0.00000000  1
  O  O9  1  0.68647951  0.68647951  -0.00000000  1
  O  O10  1  0.20026723  0.79973277  0.16833288  1
  O  O11  1  0.79973277  0.20026723  0.16833288  1
  O  O12  1  0.29442088  0.29442088  0.67900009  1
  O  O13  1  0.70557912  0.70557912  0.67900009  1
  O  O14  1  0.79973277  0.20026723  0.83166712  1
  O  O15  1  0.20026723  0.79973277  0.83166712  1
  O  O16  1  0.70557912  0.70557912  0.32099991  1
  O  O17  1  0.29442088  0.29442088  0.32099991  1
