# generated using pymatgen
data_ThZr2U2O10
_symmetry_space_group_name_H-M   'P 1'
_cell_length_a   3.80059906
_cell_length_b   3.80059906
_cell_length_c   15.50643747
_cell_angle_alpha   97.03923974
_cell_angle_beta   82.96076026
_cell_angle_gamma   120.00000000
_symmetry_Int_Tables_number   1
_chemical_formula_structural   ThZr2U2O10
_chemical_formula_sum   'Th1 Zr2 U2 O10'
_cell_volume   192.02351548
_cell_formula_units_Z   1
loop_
 _symmetry_equiv_pos_site_id
 _symmetry_equiv_pos_as_xyz
  1  'x, y, z'
loop_
 _atom_site_type_symbol
 _atom_site_label
 _atom_site_symmetry_multiplicity
 _atom_site_fract_x
 _atom_site_fract_y
 _atom_site_fract_z
 _atom_site_occupancy
  Th  Th0  1  0.99677404  0.00322596  0.00967789  1
  Zr  Zr1  1  0.59595475  0.40404525  0.21213576  1
  Zr  Zr2  1  0.20212184  0.79787816  0.39363448  1
  U  U3  1  0.80320085  0.19679915  0.59039744  1
  U  U4  1  0.40185693  0.59814307  0.79442921  1
  O  O5  1  0.05123379  0.94876621  0.84629863  1
  O  O6  1  0.85417327  0.14582673  0.43748018  1
  O  O7  1  0.45304242  0.54695758  0.64087273  1
  O  O8  1  0.64444949  0.35555051  0.06665154  1
  O  O9  1  0.24843538  0.75156462  0.25469387  1
  O  O10  1  0.34900943  0.65099057  0.95297171  1
  O  O11  1  0.15389789  0.84610211  0.53830633  1
  O  O12  1  0.75231120  0.24768880  0.74306641  1
  O  O13  1  0.94378493  0.05621507  0.16864520  1
  O  O14  1  0.54975379  0.45024621  0.35073863  1
