# generated using pymatgen
data_Sr2YCr(CuO4)2
_symmetry_space_group_name_H-M   'P 1'
_cell_length_a   3.85807426
_cell_length_b   3.85807426
_cell_length_c   11.44657820
_cell_angle_alpha   90.05175364
_cell_angle_beta   89.94824636
_cell_angle_gamma   89.82739229
_symmetry_Int_Tables_number   1
_chemical_formula_structural   Sr2YCr(CuO4)2
_chemical_formula_sum   'Sr2 Y1 Cr1 Cu2 O8'
_cell_volume   170.37839374
_cell_formula_units_Z   1
loop_
 _symmetry_equiv_pos_site_id
 _symmetry_equiv_pos_as_xyz
  1  'x, y, z'
loop_
 _atom_site_type_symbol
 _atom_site_label
 _atom_site_symmetry_multiplicity
 _atom_site_fract_x
 _atom_site_fract_y
 _atom_site_fract_z
 _atom_site_occupancy
  Sr  Sr0  1  0.48942653  0.49261940  0.67265509  1
  Sr  Sr1  1  0.49261940  0.48942653  0.32734491  1
  Y  Y2  1  0.50073138  0.50073138  0.00000000  1
  Cr  Cr3  1  0.96774100  0.96774100  0.50000000  1
  Cu  Cu4  1  0.00003366  0.99989782  0.84877062  1
  Cu  Cu5  1  0.99989782  0.00003366  0.15122938  1
  O  O6  1  0.50040516  0.00000358  0.87457807  1
  O  O7  1  0.00106877  0.50039097  0.87484190  1
  O  O8  1  0.50039097  0.00106877  0.12515810  1
  O  O9  1  0.00000358  0.50040516  0.12542193  1
  O  O10  1  0.00305885  0.00741705  0.66281459  1
  O  O11  1  0.00741705  0.00305885  0.33718541  1
  O  O12  1  0.48863512  0.97457071  0.50005383  1
  O  O13  1  0.97457071  0.48863512  0.49994617  1
