# generated using pymatgen
data_Sr2ZnAs2
_symmetry_space_group_name_H-M   'P 1'
_cell_length_a   4.38028043
_cell_length_b   4.38028043
_cell_length_c   8.56552648
_cell_angle_alpha   90.00000000
_cell_angle_beta   90.00000000
_cell_angle_gamma   120.02286110
_symmetry_Int_Tables_number   1
_chemical_formula_structural   Sr2ZnAs2
_chemical_formula_sum   'Sr2 Zn1 As2'
_cell_volume   142.29460464
_cell_formula_units_Z   1
loop_
 _symmetry_equiv_pos_site_id
 _symmetry_equiv_pos_as_xyz
  1  'x, y, z'
loop_
 _atom_site_type_symbol
 _atom_site_label
 _atom_site_symmetry_multiplicity
 _atom_site_fract_x
 _atom_site_fract_y
 _atom_site_fract_z
 _atom_site_occupancy
  Sr  Sr0  1  0.99980095  0.00019905  0.54446572  1
  Sr  Sr1  1  0.99980095  0.00019905  0.95553428  1
  Zn  Zn2  1  0.66675919  0.33324081  0.25000000  1
  As  As3  1  0.66691162  0.33308838  0.75000000  1
  As  As4  1  0.33342730  0.66657270  0.25000000  1
