# generated using pymatgen
data_Sb8I2O11
_symmetry_space_group_name_H-M   'P 1'
_cell_length_a   4.23140858
_cell_length_b   10.14363790
_cell_length_c   10.82053535
_cell_angle_alpha   106.96628556
_cell_angle_beta   87.02958052
_cell_angle_gamma   80.65732607
_symmetry_Int_Tables_number   1
_chemical_formula_structural   Sb8I2O11
_chemical_formula_sum   'Sb8 I2 O11'
_cell_volume   435.90356491
_cell_formula_units_Z   1
loop_
 _symmetry_equiv_pos_site_id
 _symmetry_equiv_pos_as_xyz
  1  'x, y, z'
loop_
 _atom_site_type_symbol
 _atom_site_label
 _atom_site_symmetry_multiplicity
 _atom_site_fract_x
 _atom_site_fract_y
 _atom_site_fract_z
 _atom_site_occupancy
  Sb  Sb0  1  0.77628461  0.53052451  0.17527399  1
  Sb  Sb1  1  0.25187329  0.47621837  0.83753871  1
  Sb  Sb2  1  0.50921063  0.99434424  0.25001197  1
  Sb  Sb3  1  0.56122433  0.98309486  0.69414114  1
  Sb  Sb4  1  0.85009174  0.17247727  0.02437635  1
  Sb  Sb5  1  0.10941316  0.82499050  0.00216330  1
  Sb  Sb6  1  0.32663853  0.36448275  0.33074253  1
  Sb  Sb7  1  0.71229268  0.61268116  0.66262641  1
  I  I8  1  0.84698248  0.21558405  0.54775144  1
  I  I9  1  0.09655337  0.80680203  0.47940882  1
  O  O10  1  0.46419618  0.17349972  0.17660607  1
  O  O11  1  0.61439516  0.82143692  0.76415555  1
  O  O12  1  0.80867395  0.36598156  0.01315738  1
  O  O13  1  0.16301704  0.62897681  0.01308180  1
  O  O14  1  0.60657993  0.11294639  0.87138098  1
  O  O15  1  0.57739936  0.85091168  0.07273298  1
  O  O16  1  0.27685800  0.48307844  0.21096713  1
  O  O17  1  0.71303912  0.54328258  0.82004118  1
  O  O18  1  0.02057783  0.95406899  0.19276021  1
  O  O19  1  0.81070397  0.38840324  0.28168926  1
  O  O20  1  0.20489463  0.59841393  0.71589281  1
