# generated using pymatgen
data_Pr2Fe20Si2C
_symmetry_space_group_name_H-M   'P 1'
_cell_length_a   6.40427112
_cell_length_b   7.84950933
_cell_length_c   7.82353328
_cell_angle_alpha   100.50573887
_cell_angle_beta   114.30048580
_cell_angle_gamma   65.60665906
_symmetry_Int_Tables_number   1
_chemical_formula_structural   Pr2Fe20Si2C
_chemical_formula_sum   'Pr2 Fe20 Si2 C1'
_cell_volume   326.41208889
_cell_formula_units_Z   1
loop_
 _symmetry_equiv_pos_site_id
 _symmetry_equiv_pos_as_xyz
  1  'x, y, z'
loop_
 _atom_site_type_symbol
 _atom_site_label
 _atom_site_symmetry_multiplicity
 _atom_site_fract_x
 _atom_site_fract_y
 _atom_site_fract_z
 _atom_site_occupancy
  Pr  Pr0  1  0.37418481  0.75106187  0.25410460  1
  Pr  Pr1  1  0.62581519  0.24893813  0.74589540  1
  Fe  Fe2  1  0.17737772  0.58291173  0.82530779  1
  Fe  Fe3  1  0.43442739  0.32351606  0.08065286  1
  Fe  Fe4  1  0.26977349  0.41963699  0.33153927  1
  Fe  Fe5  1  0.85620308  0.83265715  0.91774009  1
  Fe  Fe6  1  0.19093307  0.16762912  0.42137340  1
  Fe  Fe7  1  0.43751839  0.91949185  0.67113234  1
  Fe  Fe8  1  0.25787255  0.67598831  0.57736062  1
  Fe  Fe9  1  0.85724860  0.07862452  0.17470002  1
  Fe  Fe10  1  0.82262228  0.41708827  0.17469221  1
  Fe  Fe11  1  0.56557261  0.67648394  0.91934714  1
  Fe  Fe12  1  0.73022651  0.58036301  0.66846073  1
  Fe  Fe13  1  0.14379692  0.16734285  0.08225991  1
  Fe  Fe14  1  0.80906693  0.83237088  0.57862660  1
  Fe  Fe15  1  0.56248161  0.08050815  0.32886766  1
  Fe  Fe16  1  0.74212745  0.32401169  0.42263938  1
  Fe  Fe17  1  0.14275140  0.92137548  0.82529998  1
  Fe  Fe18  1  0.12308197  0.24807655  0.74877853  1
  Fe  Fe19  1  0.87691803  0.75192345  0.25122147  1
  Fe  Fe20  1  -0.00000000  0.50000000  -0.00000000  1
  Fe  Fe21  1  -0.00000000  0.50000000  0.50000000  1
  Si  Si22  1  0.50000000  0.00000000  -0.00000000  1
  Si  Si23  1  -0.00000000  0.00000000  0.50000000  1
  C  C24  1  0.50000000  0.50000000  -0.00000000  1
