# generated using pymatgen
data_Sm3Ti4CoO14
_symmetry_space_group_name_H-M   'P 1'
_cell_length_a   7.31115772
_cell_length_b   7.14304104
_cell_length_c   7.31115772
_cell_angle_alpha   90.00000000
_cell_angle_beta   60.00000000
_cell_angle_gamma   120.78165822
_symmetry_Int_Tables_number   1
_chemical_formula_structural   Sm3Ti4CoO14
_chemical_formula_sum   'Sm3 Ti4 Co1 O14'
_cell_volume   266.75159842
_cell_formula_units_Z   1
loop_
 _symmetry_equiv_pos_site_id
 _symmetry_equiv_pos_as_xyz
  1  'x, y, z'
loop_
 _atom_site_type_symbol
 _atom_site_label
 _atom_site_symmetry_multiplicity
 _atom_site_fract_x
 _atom_site_fract_y
 _atom_site_fract_z
 _atom_site_occupancy
  Sm  Sm0  1  0.50000000  0.50000000  0.50000000  1
  Sm  Sm1  1  -0.00000000  0.50000000  -0.00000000  1
  Sm  Sm2  1  -0.00000000  0.50000000  0.50000000  1
  Ti  Ti3  1  0.50000000  0.50000000  -0.00000000  1
  Ti  Ti4  1  0.50000000  -0.00000000  -0.00000000  1
  Ti  Ti5  1  -0.00000000  -0.00000000  0.50000000  1
  Ti  Ti6  1  -0.00000000  -0.00000000  -0.00000000  1
  Co  Co7  1  0.50000000  -0.00000000  0.50000000  1
  O  O8  1  0.85672830  0.92489335  0.32163585  1
  O  O9  1  0.66189586  0.33411427  0.91905207  1
  O  O10  1  0.24652920  0.92489335  0.93183495  1
  O  O11  1  0.25316634  0.33411427  0.32778158  1
  O  O12  1  0.25316634  0.33411427  0.91905207  1
  O  O13  1  0.24652920  0.92489335  0.32163585  1
  O  O14  1  0.14327170  0.07510665  0.67836415  1
  O  O15  1  0.33810414  0.66588573  0.08094793  1
  O  O16  1  0.75347080  0.07510665  0.06816505  1
  O  O17  1  0.74683366  0.66588573  0.67221842  1
  O  O18  1  0.74683366  0.66588573  0.08094793  1
  O  O19  1  0.75347080  0.07510665  0.67836415  1
  O  O20  1  0.72288361  0.33432541  0.38855820  1
  O  O21  1  0.27711639  0.66567459  0.61144180  1
