# generated using pymatgen
data_Pb3IF5
_symmetry_space_group_name_H-M   'P 1'
_cell_length_a   4.30995282
_cell_length_b   4.32810483
_cell_length_c   22.87699779
_cell_angle_alpha   90.00000000
_cell_angle_beta   90.00000000
_cell_angle_gamma   60.13862969
_symmetry_Int_Tables_number   1
_chemical_formula_structural   Pb3IF5
_chemical_formula_sum   'Pb6 I2 F10'
_cell_volume   370.08793925
_cell_formula_units_Z   2
loop_
 _symmetry_equiv_pos_site_id
 _symmetry_equiv_pos_as_xyz
  1  'x, y, z'
loop_
 _atom_site_type_symbol
 _atom_site_label
 _atom_site_symmetry_multiplicity
 _atom_site_fract_x
 _atom_site_fract_y
 _atom_site_fract_z
 _atom_site_occupancy
  Pb  Pb0  1  0.32463391  0.35073217  0.63513800  1
  Pb  Pb1  1  0.67323028  0.65353944  0.35394282  1
  Pb  Pb2  1  0.32676972  0.34646056  0.85394282  1
  Pb  Pb3  1  0.67536609  0.64926783  0.13513800  1
  Pb  Pb4  1  0.99633375  0.00733250  0.50923625  1
  Pb  Pb5  1  0.00366625  0.99266750  0.00923625  1
  I  I6  1  0.34165530  0.31668941  0.25478538  1
  I  I7  1  0.65834470  0.68331059  0.75478538  1
  F  F8  1  0.33315677  0.33368645  0.52846079  1
  F  F9  1  0.67079479  0.65841042  0.45614165  1
  F  F10  1  0.32920521  0.34158958  0.95614165  1
  F  F11  1  0.66684323  0.66631355  0.02846079  1
  F  F12  1  0.99682803  0.00634394  0.62544453  1
  F  F13  1  0.00590682  0.98818637  0.38074483  1
  F  F14  1  0.99409318  0.01181363  0.88074483  1
  F  F15  1  0.00317197  0.99365606  0.12544453  1
  F  F16  1  0.66745853  0.66508293  0.58610575  1
  F  F17  1  0.33254147  0.33491707  0.08610575  1
