# generated using pymatgen
data_Sr2TbCu2IrO8
_symmetry_space_group_name_H-M   'P 1'
_cell_length_a   3.87852432
_cell_length_b   3.87852432
_cell_length_c   11.90440412
_cell_angle_alpha   90.00000000
_cell_angle_beta   90.00000000
_cell_angle_gamma   89.37921833
_symmetry_Int_Tables_number   1
_chemical_formula_structural   Sr2TbCu2IrO8
_chemical_formula_sum   'Sr2 Tb1 Cu2 Ir1 O8'
_cell_volume   179.06685604
_cell_formula_units_Z   1
loop_
 _symmetry_equiv_pos_site_id
 _symmetry_equiv_pos_as_xyz
  1  'x, y, z'
loop_
 _atom_site_type_symbol
 _atom_site_label
 _atom_site_symmetry_multiplicity
 _atom_site_fract_x
 _atom_site_fract_y
 _atom_site_fract_z
 _atom_site_occupancy
  Sr  Sr0  1  0.50454025  0.49545975  0.80729784  1
  Sr  Sr1  1  0.50454025  0.49545975  0.19270216  1
  Tb  Tb2  1  0.49983538  0.50016462  0.50000000  1
  Cu  Cu3  1  0.99978415  0.00021585  0.63881142  1
  Cu  Cu4  1  0.99978415  0.00021585  0.36118858  1
  Ir  Ir5  1  0.97818651  0.02181349  -0.00000000  1
  O  O6  1  0.00025066  0.99974934  0.82918951  1
  O  O7  1  0.00025066  0.99974934  0.17081049  1
  O  O8  1  0.99944640  0.50018407  0.62230609  1
  O  O9  1  0.49981593  0.00055360  0.62230609  1
  O  O10  1  0.99944640  0.50018407  0.37769391  1
  O  O11  1  0.49981593  0.00055360  0.37769391  1
  O  O12  1  0.47241182  0.08110847  -0.00000000  1
  O  O13  1  0.91889153  0.52758818  -0.00000000  1
