# generated using pymatgen
data_Nd2TiCuO6
_symmetry_space_group_name_H-M   'P 1'
_cell_length_a   5.50165071
_cell_length_b   5.83780395
_cell_length_c   7.60849077
_cell_angle_alpha   90.00000000
_cell_angle_beta   89.86625836
_cell_angle_gamma   90.00000000
_symmetry_Int_Tables_number   1
_chemical_formula_structural   Nd2TiCuO6
_chemical_formula_sum   'Nd4 Ti2 Cu2 O12'
_cell_volume   244.36547981
_cell_formula_units_Z   2
loop_
 _symmetry_equiv_pos_site_id
 _symmetry_equiv_pos_as_xyz
  1  'x, y, z'
loop_
 _atom_site_type_symbol
 _atom_site_label
 _atom_site_symmetry_multiplicity
 _atom_site_fract_x
 _atom_site_fract_y
 _atom_site_fract_z
 _atom_site_occupancy
  Nd  Nd0  1  0.48543597  0.06828305  0.24898358  1
  Nd  Nd1  1  0.01456403  0.56828305  0.25101642  1
  Nd  Nd2  1  0.51456403  0.93171695  0.75101642  1
  Nd  Nd3  1  0.98543597  0.43171695  0.74898358  1
  Ti  Ti4  1  0.50000000  0.50000000  0.50000000  1
  Ti  Ti5  1  0.00000000  0.00000000  0.00000000  1
  Cu  Cu6  1  0.50000000  0.50000000  0.00000000  1
  Cu  Cu7  1  0.00000000  0.00000000  0.50000000  1
  O  O8  1  0.59678545  0.46835087  0.24833116  1
  O  O9  1  0.90321455  0.96835087  0.25166884  1
  O  O10  1  0.40321455  0.53164913  0.75166884  1
  O  O11  1  0.09678545  0.03164913  0.74833116  1
  O  O12  1  0.28861178  0.81933647  0.04829977  1
  O  O13  1  0.21138822  0.31933647  0.45170023  1
  O  O14  1  0.68457835  0.21293028  0.55092243  1
  O  O15  1  0.81542165  0.71293028  0.94907757  1
  O  O16  1  0.71138822  0.18066353  0.95170023  1
  O  O17  1  0.78861178  0.68066353  0.54829977  1
  O  O18  1  0.31542165  0.78706972  0.44907757  1
  O  O19  1  0.18457835  0.28706972  0.05092243  1
