# generated using pymatgen
data_Sc2Fe3Si
_symmetry_space_group_name_H-M   'P 1'
_cell_length_a   4.91962333
_cell_length_b   4.92073312
_cell_length_c   8.07808623
_cell_angle_alpha   90.00000000
_cell_angle_beta   90.00000000
_cell_angle_gamma   60.67776797
_symmetry_Int_Tables_number   1
_chemical_formula_structural   Sc2Fe3Si
_chemical_formula_sum   'Sc4 Fe6 Si2'
_cell_volume   170.50083998
_cell_formula_units_Z   2
loop_
 _symmetry_equiv_pos_site_id
 _symmetry_equiv_pos_as_xyz
  1  'x, y, z'
loop_
 _atom_site_type_symbol
 _atom_site_label
 _atom_site_symmetry_multiplicity
 _atom_site_fract_x
 _atom_site_fract_y
 _atom_site_fract_z
 _atom_site_occupancy
  Sc  Sc0  1  0.33064899  0.33056066  0.55744541  1
  Sc  Sc1  1  0.66825942  0.66829763  0.43452662  1
  Sc  Sc2  1  0.66825942  0.66829763  0.06547338  1
  Sc  Sc3  1  0.33064899  0.33056066  0.94255459  1
  Fe  Fe4  1  0.83186067  0.83183181  0.75000000  1
  Fe  Fe5  1  0.17053058  0.66430382  0.25000000  1
  Fe  Fe6  1  0.66428073  0.17054532  0.25000000  1
  Fe  Fe7  1  0.17072213  0.17074527  0.25000000  1
  Fe  Fe8  1  0.99969074  0.99972400  0.49922177  1
  Fe  Fe9  1  0.99969074  0.99972400  0.00077823  1
  Si  Si10  1  0.83068585  0.33472596  0.75000000  1
  Si  Si11  1  0.33472175  0.83068322  0.75000000  1
