# generated using pymatgen
data_SbH5(O2F3)2
_symmetry_space_group_name_H-M   'P 1'
_cell_length_a   6.86687060
_cell_length_b   8.13207619
_cell_length_c   8.49782056
_cell_angle_alpha   112.39250010
_cell_angle_beta   95.83991915
_cell_angle_gamma   113.84525026
_symmetry_Int_Tables_number   1
_chemical_formula_structural   SbH5(O2F3)2
_chemical_formula_sum   'Sb2 H10 O8 F12'
_cell_volume   382.50908793
_cell_formula_units_Z   2
loop_
 _symmetry_equiv_pos_site_id
 _symmetry_equiv_pos_as_xyz
  1  'x, y, z'
loop_
 _atom_site_type_symbol
 _atom_site_label
 _atom_site_symmetry_multiplicity
 _atom_site_fract_x
 _atom_site_fract_y
 _atom_site_fract_z
 _atom_site_occupancy
  Sb  Sb0  1  0.76200322  0.39924572  0.19895223  1
  Sb  Sb1  1  0.23447824  0.59433027  0.79783891  1
  H  H2  1  0.36217005  0.87954958  0.24970607  1
  H  H3  1  0.61438163  0.10511923  0.74739706  1
  H  H4  1  0.15629036  0.18614305  0.90886564  1
  H  H5  1  0.86425739  0.81367883  0.06793344  1
  H  H6  1  0.91328113  0.83956817  0.63997555  1
  H  H7  1  0.08468697  0.15026747  0.34880020  1
  H  H8  1  0.39617910  0.60612642  0.26984718  1
  H  H9  1  0.61341477  0.38716574  0.72301126  1
  H  H10  1  0.49254853  0.99177213  0.49659754  1
  H  H11  1  0.01754670  0.00367204  0.99285826  1
  O  O12  1  0.09202129  0.04023659  0.88033198  1
  O  O13  1  0.93153282  0.96101532  0.10184554  1
  O  O14  1  0.88953007  0.94278294  0.73253352  1
  O  O15  1  0.11995199  0.05383801  0.25959894  1
  O  O16  1  0.51263886  0.74832141  0.31594496  1
  O  O17  1  0.48773126  0.24962286  0.67777417  1
  O  O18  1  0.37737035  0.84987114  0.35272520  1
  O  O19  1  0.60821331  0.13377023  0.64320437  1
  F  F20  1  0.05596655  0.42740207  0.24066915  1
  F  F21  1  0.93814888  0.56274592  0.76048398  1
  F  F22  1  0.84777910  0.62816901  0.42657068  1
  F  F23  1  0.14694278  0.36744292  0.56915174  1
  F  F24  1  0.46309011  0.36225374  0.14867804  1
  F  F25  1  0.53400846  0.63446758  0.84756357  1
  F  F26  1  0.67725276  0.17274137  0.96756387  1
  F  F27  1  0.31529839  0.81985641  0.02924689  1
  F  F28  1  0.67792472  0.22188607  0.30416102  1
  F  F29  1  0.31421009  0.77327002  0.69400796  1
  F  F30  1  0.84041070  0.57829758  0.09156871  1
  F  F31  1  0.16073942  0.41337017  0.90359238  1
