# generated using pymatgen
data_Nb6BiTe8
_symmetry_space_group_name_H-M   'P 1'
_cell_length_a   3.62747913
_cell_length_b   10.81885288
_cell_length_c   10.81926690
_cell_angle_alpha   120.05183932
_cell_angle_beta   90.00145208
_cell_angle_gamma   89.99898086
_symmetry_Int_Tables_number   1
_chemical_formula_structural   Nb6BiTe8
_chemical_formula_sum   'Nb6 Bi1 Te8'
_cell_volume   367.52552386
_cell_formula_units_Z   1
loop_
 _symmetry_equiv_pos_site_id
 _symmetry_equiv_pos_as_xyz
  1  'x, y, z'
loop_
 _atom_site_type_symbol
 _atom_site_label
 _atom_site_symmetry_multiplicity
 _atom_site_fract_x
 _atom_site_fract_y
 _atom_site_fract_z
 _atom_site_occupancy
  Nb  Nb0  1  0.75031720  0.38477223  0.89759350  1
  Nb  Nb1  1  0.75042157  0.10253923  0.48715699  1
  Nb  Nb2  1  0.75033171  0.51258048  0.61534948  1
  Nb  Nb3  1  0.24968280  0.61522777  0.10240650  1
  Nb  Nb4  1  0.24957843  0.89746077  0.51284301  1
  Nb  Nb5  1  0.24966829  0.48741952  0.38465052  1
  Bi  Bi6  1  0.50000000  -0.00000000  -0.00000000  1
  Te  Te7  1  0.74745984  0.06549997  0.73077664  1
  Te  Te8  1  0.74733638  0.26901840  0.33473746  1
  Te  Te9  1  0.74748360  0.66521918  0.93434128  1
  Te  Te10  1  0.25254016  0.93450003  0.26922336  1
  Te  Te11  1  0.25266362  0.73098160  0.66526254  1
  Te  Te12  1  0.25251640  0.33478082  0.06565872  1
  Te  Te13  1  0.74912306  0.66672393  0.33333623  1
  Te  Te14  1  0.25087694  0.33327607  0.66666377  1
