# generated using pymatgen
data_MnCr(Ni2Sn)2
_symmetry_space_group_name_H-M   'P 1'
_cell_length_a   4.29428583
_cell_length_b   4.29428582
_cell_length_c   7.43165923
_cell_angle_alpha   73.20678220
_cell_angle_beta   90.00000000
_cell_angle_gamma   119.99999995
_symmetry_Int_Tables_number   1
_chemical_formula_structural   MnCr(Ni2Sn)2
_chemical_formula_sum   'Mn1 Cr1 Ni4 Sn2'
_cell_volume   111.88613384
_cell_formula_units_Z   1
loop_
 _symmetry_equiv_pos_site_id
 _symmetry_equiv_pos_as_xyz
  1  'x, y, z'
loop_
 _atom_site_type_symbol
 _atom_site_label
 _atom_site_symmetry_multiplicity
 _atom_site_fract_x
 _atom_site_fract_y
 _atom_site_fract_z
 _atom_site_occupancy
  Mn  Mn0  1  0.50000000  0.00000000  0.50000000  1
  Cr  Cr1  1  0.00000000  0.00000000  -0.00000000  1
  Ni  Ni2  1  0.62470326  0.24940652  0.12589023  1
  Ni  Ni3  1  0.12546855  0.25093710  0.62359435  1
  Ni  Ni4  1  0.87453145  0.74906290  0.37640565  1
  Ni  Ni5  1  0.37529674  0.75059348  0.87410977  1
  Sn  Sn6  1  0.25037808  0.50075616  0.24886575  1
  Sn  Sn7  1  0.74962192  0.49924384  0.75113425  1
