# generated using pymatgen
data_Nb3V5(B2Ir)4
_symmetry_space_group_name_H-M   'P 1'
_cell_length_a   3.21678515
_cell_length_b   7.31841694
_cell_length_c   9.35885876
_cell_angle_alpha   89.86049377
_cell_angle_beta   90.00000000
_cell_angle_gamma   90.00000000
_symmetry_Int_Tables_number   1
_chemical_formula_structural   Nb3V5(B2Ir)4
_chemical_formula_sum   'Nb3 V5 B8 Ir4'
_cell_volume   220.32349364
_cell_formula_units_Z   1
loop_
 _symmetry_equiv_pos_site_id
 _symmetry_equiv_pos_as_xyz
  1  'x, y, z'
loop_
 _atom_site_type_symbol
 _atom_site_label
 _atom_site_symmetry_multiplicity
 _atom_site_fract_x
 _atom_site_fract_y
 _atom_site_fract_z
 _atom_site_occupancy
  Nb  Nb0  1  0.50000000  0.67814938  0.87100414  1
  Nb  Nb1  1  0.50000000  0.32232555  0.12959862  1
  Nb  Nb2  1  0.00000000  0.17690607  0.62783670  1
  V  V3  1  0.00000000  0.81476856  0.36962997  1
  V  V4  1  0.50000000  0.92784290  0.13921746  1
  V  V5  1  0.50000000  0.06895457  0.86538675  1
  V  V6  1  0.00000000  0.43093695  0.36505987  1
  V  V7  1  0.00000000  0.57187526  0.63389806  1
  B  B8  1  0.50000000  0.61791111  0.46015670  1
  B  B9  1  0.50000000  0.39113212  0.53653687  1
  B  B10  1  -0.00000000  0.10945701  0.03976300  1
  B  B11  1  0.00000000  0.88931704  0.96286647  1
  B  B12  1  0.50000000  0.62754185  0.27071796  1
  B  B13  1  0.50000000  0.38224183  0.73049501  1
  B  B14  1  0.00000000  0.11610149  0.23438444  1
  B  B15  1  0.00000000  0.88042887  0.76590879  1
  Ir  Ir16  1  0.50000000  0.12640872  0.39065657  1
  Ir  Ir17  1  0.50000000  0.86545262  0.60386283  1
  Ir  Ir18  1  -0.00000000  0.63582695  0.11257486  1
  Ir  Ir19  1  -0.00000000  0.36642117  0.89044494  1
