# generated using pymatgen
data_Sr6Fe2Ru2O11
_symmetry_space_group_name_H-M   'P 1'
_cell_length_a   5.51028665
_cell_length_b   5.51174625
_cell_length_c   10.69263477
_cell_angle_alpha   91.03061860
_cell_angle_beta   75.06829961
_cell_angle_gamma   94.00284935
_symmetry_Int_Tables_number   1
_chemical_formula_structural   Sr6Fe2Ru2O11
_chemical_formula_sum   'Sr6 Fe2 Ru2 O11'
_cell_volume   313.01819594
_cell_formula_units_Z   1
loop_
 _symmetry_equiv_pos_site_id
 _symmetry_equiv_pos_as_xyz
  1  'x, y, z'
loop_
 _atom_site_type_symbol
 _atom_site_label
 _atom_site_symmetry_multiplicity
 _atom_site_fract_x
 _atom_site_fract_y
 _atom_site_fract_z
 _atom_site_occupancy
  Sr  Sr0  1  0.98330890  0.51259286  0.00713362  1
  Sr  Sr1  1  0.50955748  0.98740714  0.00713362  1
  Sr  Sr2  1  0.32151803  0.99457381  0.36837515  1
  Sr  Sr3  1  0.81010681  0.50542619  0.36837515  1
  Sr  Sr4  1  0.17874341  0.49894296  0.62828457  1
  Sr  Sr5  1  0.69297202  0.00105704  0.62828457  1
  Fe  Fe6  1  0.90373292  0.00276076  0.19814334  1
  Fe  Fe7  1  0.39812375  0.49723924  0.19814334  1
  Ru  Ru8  1  0.58508499  0.49106461  0.80656244  1
  Ru  Ru9  1  0.10835257  0.00893539  0.80656244  1
  O  O10  1  0.84757393  0.25000000  0.80485213  1
  O  O11  1  0.34628941  0.75000000  0.80742118  1
  O  O12  1  0.65483418  0.25000000  0.19033165  1
  O  O13  1  0.15488915  0.75000000  0.19022169  1
  O  O14  1  0.19613356  0.99260009  0.61263231  1
  O  O15  1  0.69123413  0.50739991  0.61263231  1
  O  O16  1  0.27839577  0.47371681  0.39079561  1
  O  O17  1  0.83080862  0.02628319  0.39079561  1
  O  O18  1  0.47126043  0.46840703  0.99640522  1
  O  O19  1  0.03233435  0.03159297  0.99640522  1
  O  O20  1  0.65754559  0.75000000  0.18490881  1
