# generated using pymatgen
data_Mn3In2Sb3O14
_symmetry_space_group_name_H-M   'P 1'
_cell_length_a   7.29190270
_cell_length_b   7.16404693
_cell_length_c   7.26382009
_cell_angle_alpha   90.00000000
_cell_angle_beta   60.12731529
_cell_angle_gamma   120.66844359
_symmetry_Int_Tables_number   1
_chemical_formula_structural   Mn3In2Sb3O14
_chemical_formula_sum   'Mn3 In2 Sb3 O14'
_cell_volume   266.09523498
_cell_formula_units_Z   1
loop_
 _symmetry_equiv_pos_site_id
 _symmetry_equiv_pos_as_xyz
  1  'x, y, z'
loop_
 _atom_site_type_symbol
 _atom_site_label
 _atom_site_symmetry_multiplicity
 _atom_site_fract_x
 _atom_site_fract_y
 _atom_site_fract_z
 _atom_site_occupancy
  Mn  Mn0  1  0.50000000  0.00000000  0.50000000  1
  Mn  Mn1  1  0.50000000  0.50000000  0.00000000  1
  Mn  Mn2  1  0.50000000  0.00000000  0.00000000  1
  In  In3  1  0.00000000  0.00000000  0.50000000  1
  In  In4  1  0.00000000  0.00000000  0.00000000  1
  Sb  Sb5  1  0.50000000  0.50000000  0.50000000  1
  Sb  Sb6  1  0.00000000  0.50000000  0.00000000  1
  Sb  Sb7  1  0.00000000  0.50000000  0.50000000  1
  O  O8  1  0.23935263  0.12199782  0.13032369  1
  O  O9  1  0.76064737  0.87800218  0.86967631  1
  O  O10  1  0.66328451  0.83353685  0.41835775  1
  O  O11  1  0.83503978  0.41635278  0.83248011  1
  O  O12  1  0.24906697  0.83380179  0.82850332  1
  O  O13  1  0.24983927  0.41760889  0.41843900  1
  O  O14  1  0.24983927  0.41760889  0.83172173  1
  O  O15  1  0.24906697  0.83380179  0.42242971  1
  O  O16  1  0.33671549  0.16646315  0.58164225  1
  O  O17  1  0.16496022  0.58364722  0.16751989  1
  O  O18  1  0.75093303  0.16619821  0.17149668  1
  O  O19  1  0.75016073  0.58239111  0.58156100  1
  O  O20  1  0.75016073  0.58239111  0.16827827  1
  O  O21  1  0.75093303  0.16619821  0.57757029  1
