# generated using pymatgen
data_SbH15C2(N4Cl3)2
_symmetry_space_group_name_H-M   'P 1'
_cell_length_a   7.87032308
_cell_length_b   14.29641664
_cell_length_c   15.65777369
_cell_angle_alpha   90.00000000
_cell_angle_beta   93.81317793
_cell_angle_gamma   90.00000000
_symmetry_Int_Tables_number   1
_chemical_formula_structural   SbH15C2(N4Cl3)2
_chemical_formula_sum   'Sb4 H60 C8 N32 Cl24'
_cell_volume   1757.87205219
_cell_formula_units_Z   4
loop_
 _symmetry_equiv_pos_site_id
 _symmetry_equiv_pos_as_xyz
  1  'x, y, z'
loop_
 _atom_site_type_symbol
 _atom_site_label
 _atom_site_symmetry_multiplicity
 _atom_site_fract_x
 _atom_site_fract_y
 _atom_site_fract_z
 _atom_site_occupancy
  Sb  Sb0  1  0.77615448  0.26690221  0.00068520  1
  Sb  Sb1  1  0.77615448  0.73309779  0.50068520  1
  Sb  Sb2  1  0.22551412  0.74597221  0.00234629  1
  Sb  Sb3  1  0.22551412  0.25402779  0.50234629  1
  H  H4  1  0.58211994  0.61861070  0.05161005  1
  H  H5  1  0.58211994  0.38138930  0.55161005  1
  H  H6  1  0.63741158  0.83472524  0.93524365  1
  H  H7  1  0.63741158  0.16527476  0.43524365  1
  H  H8  1  0.65195646  0.79743301  0.79473555  1
  H  H9  1  0.65195646  0.20256699  0.29473555  1
  H  H10  1  0.18684742  0.31826155  0.92934317  1
  H  H11  1  0.18684742  0.68173845  0.42934317  1
  H  H12  1  0.31898468  0.58730741  0.80050091  1
  H  H13  1  0.31898468  0.41269259  0.30050091  1
  H  H14  1  0.18212891  0.31026262  0.79574848  1
  H  H15  1  0.18212891  0.68973738  0.29574848  1
  H  H16  1  0.37205573  0.86623564  0.52581718  1
  H  H17  1  0.37205573  0.13376436  0.02581718  1
  H  H18  1  0.70842963  0.94276565  0.97614967  1
  H  H19  1  0.70842963  0.05723435  0.47614967  1
  H  H20  1  0.35727489  0.08028938  0.72726836  1
  H  H21  1  0.35727489  0.91971062  0.22726836  1
  H  H22  1  0.32830921  0.02273879  0.58913860  1
  H  H23  1  0.32830921  0.97726121  0.08913860  1
  H  H24  1  0.39238298  0.35887108  0.95290858  1
  H  H25  1  0.39238298  0.64112892  0.45290858  1
  H  H26  1  0.16749044  0.89793355  0.51420550  1
  H  H27  1  0.16749044  0.10206645  0.01420550  1
  H  H28  1  0.83604857  0.99884725  0.70700127  1
  H  H29  1  0.83604857  0.00115275  0.20700127  1
  H  H30  1  0.24877874  0.51739765  0.92646121  1
  H  H31  1  0.24877874  0.48260235  0.42646121  1
  H  H32  1  0.28545522  0.01371127  0.81204056  1
  H  H33  1  0.28545522  0.98628873  0.31204056  1
  H  H34  1  0.67508524  0.63414505  0.28981963  1
  H  H35  1  0.67508524  0.36585495  0.78981963  1
  H  H36  1  0.80936963  0.49212742  0.30479301  1
  H  H37  1  0.80936963  0.50787258  0.80479301  1
  H  H38  1  0.64220532  0.69092165  0.19080388  1
  H  H39  1  0.64220532  0.30907835  0.69080388  1
  H  H40  1  0.86743006  0.10126761  0.75036147  1
  H  H41  1  0.86743006  0.89873239  0.25036147  1
  H  H42  1  0.20628739  0.81359546  0.67938943  1
  H  H43  1  0.20628739  0.18640454  0.17938943  1
  H  H44  1  0.26513831  0.36446786  0.70650767  1
  H  H45  1  0.26513831  0.63553214  0.20650767  1
  H  H46  1  0.88265891  0.43539378  0.21319628  1
  H  H47  1  0.88265891  0.56460622  0.71319628  1
  H  H48  1  0.27757999  0.52644994  0.70299141  1
  H  H49  1  0.27757999  0.47355006  0.20299141  1
  H  H50  1  0.21855662  0.85247983  0.78767995  1
  H  H51  1  0.21855662  0.14752017  0.28767995  1
  H  H52  1  0.84144139  0.49798907  0.08182587  1
  H  H53  1  0.84144139  0.50201093  0.58182587  1
  H  H54  1  0.74603953  0.60268671  0.98815358  1
  H  H55  1  0.74603953  0.39731329  0.48815358  1
  H  H56  1  0.76569770  0.68982373  0.06051281  1
  H  H57  1  0.76569770  0.31017627  0.56051281  1
  H  H58  1  0.72930732  0.87533810  0.72127996  1
  H  H59  1  0.72930732  0.12466190  0.22127996  1
  H  H60  1  0.22738662  0.39467530  0.01056328  1
  H  H61  1  0.22738662  0.60532470  0.51056328  1
  H  H62  1  0.79388004  0.05556437  0.87918909  1
  H  H63  1  0.79388004  0.94443563  0.37918909  1
  C  C64  1  0.25326158  0.44860192  0.80978679  1
  C  C65  1  0.25326158  0.55139808  0.30978679  1
  C  C66  1  0.76855101  0.56247765  0.19224481  1
  C  C67  1  0.76855101  0.43752235  0.69224481  1
  C  C68  1  0.27689903  0.94749386  0.69603355  1
  C  C69  1  0.27689903  0.05250614  0.19603355  1
  C  C70  1  0.72819796  0.92266729  0.84649501  1
  C  C71  1  0.72819796  0.07733271  0.34649501  1
  N  N72  1  0.69306957  0.89778990  0.92616082  1
  N  N73  1  0.69306957  0.10221010  0.42616082  1
  N  N74  1  0.78447364  0.04575588  0.74774976  1
  N  N75  1  0.78447364  0.95424412  0.24774976  1
  N  N76  1  0.24284543  0.36639047  0.77009083  1
  N  N77  1  0.24284543  0.63360953  0.27009083  1
  N  N78  1  0.28325349  0.52721467  0.76830499  1
  N  N79  1  0.28325349  0.47278533  0.26830499  1
  N  N80  1  0.79879280  0.55906994  0.10770552  1
  N  N81  1  0.79879280  0.44093006  0.60770552  1
  N  N82  1  0.30488901  0.02046451  0.74888316  1
  N  N83  1  0.30488901  0.97953549  0.24888316  1
  N  N84  1  0.82721929  0.49158747  0.24073897  1
  N  N85  1  0.82721929  0.50841253  0.74073897  1
  N  N86  1  0.22738130  0.45496076  0.89509062  1
  N  N87  1  0.22738130  0.54503924  0.39509062  1
  N  N88  1  0.68905966  0.63451462  0.22532379  1
  N  N89  1  0.68905966  0.36548538  0.72532379  1
  N  N90  1  0.22399781  0.86516640  0.72392654  1
  N  N91  1  0.22399781  0.13483360  0.22392654  1
  N  N92  1  0.26410501  0.37720905  0.94949086  1
  N  N93  1  0.26410501  0.62279095  0.44949086  1
  N  N94  1  0.69819631  0.86200753  0.78199624  1
  N  N95  1  0.69819631  0.13799247  0.28199624  1
  N  N96  1  0.71624253  0.62232327  0.04943733  1
  N  N97  1  0.71624253  0.37767673  0.54943733  1
  N  N98  1  0.26639667  0.88222709  0.55756327  1
  N  N99  1  0.26639667  0.11777291  0.05756327  1
  N  N100  1  0.30077326  0.95796432  0.61239068  1
  N  N101  1  0.30077326  0.04203568  0.11239068  1
  N  N102  1  0.79612710  0.00643159  0.83202837  1
  N  N103  1  0.79612710  0.99356841  0.33202837  1
  Cl  Cl104  1  0.46033505  0.69876139  0.88397120  1
  Cl  Cl105  1  0.46033505  0.30123861  0.38397120  1
  Cl  Cl106  1  0.03252380  0.21967386  0.87857382  1
  Cl  Cl107  1  0.03252380  0.78032614  0.37857382  1
  Cl  Cl108  1  0.69545097  0.44108573  0.92539204  1
  Cl  Cl109  1  0.69545097  0.55891427  0.42539204  1
  Cl  Cl110  1  0.56724150  0.30762176  0.10766571  1
  Cl  Cl111  1  0.56724150  0.69237824  0.60766571  1
  Cl  Cl112  1  0.19186726  0.90709700  0.93501823  1
  Cl  Cl113  1  0.19186726  0.09290300  0.43501823  1
  Cl  Cl114  1  0.99507531  0.77858723  0.10995120  1
  Cl  Cl115  1  0.99507531  0.22141277  0.60995120  1
  Cl  Cl116  1  0.99262838  0.66860194  0.90037080  1
  Cl  Cl117  1  0.99262838  0.33139806  0.40037080  1
  Cl  Cl118  1  0.33105757  0.56497191  0.07223084  1
  Cl  Cl119  1  0.33105757  0.43502809  0.57223084  1
  Cl  Cl120  1  0.02283743  0.36453089  0.10609600  1
  Cl  Cl121  1  0.02283743  0.63546911  0.60609600  1
  Cl  Cl122  1  0.80540073  0.09854847  0.06284409  1
  Cl  Cl123  1  0.80540073  0.90145153  0.56284409  1
  Cl  Cl124  1  0.48504419  0.80930870  0.11484590  1
  Cl  Cl125  1  0.48504419  0.19069130  0.61484590  1
  Cl  Cl126  1  0.54017828  0.20713167  0.89522673  1
  Cl  Cl127  1  0.54017828  0.79286833  0.39522673  1
