# generated using pymatgen
data_In3Co
_symmetry_space_group_name_H-M   'P 1'
_cell_length_a   3.97731129
_cell_length_b   6.56709889
_cell_length_c   6.56709889
_cell_angle_alpha   89.54634854
_cell_angle_beta   90.00000000
_cell_angle_gamma   90.00000000
_symmetry_Int_Tables_number   1
_chemical_formula_structural   In3Co
_chemical_formula_sum   'In6 Co2'
_cell_volume   171.52328367
_cell_formula_units_Z   2
loop_
 _symmetry_equiv_pos_site_id
 _symmetry_equiv_pos_as_xyz
  1  'x, y, z'
loop_
 _atom_site_type_symbol
 _atom_site_label
 _atom_site_symmetry_multiplicity
 _atom_site_fract_x
 _atom_site_fract_y
 _atom_site_fract_z
 _atom_site_occupancy
  In  In0  1  0.00000000  0.50000000  0.50000000  1
  In  In1  1  -0.00000000  -0.00000000  0.00000000  1
  In  In2  1  0.50000000  0.16036491  0.66036491  1
  In  In3  1  0.50000000  0.83963509  0.33963509  1
  In  In4  1  0.50000000  0.33714716  0.16285284  1
  In  In5  1  0.50000000  0.66285284  0.83714716  1
  Co  Co6  1  -0.00000000  0.63472458  0.13472458  1
  Co  Co7  1  0.00000000  0.36527542  0.86527542  1
