# generated using pymatgen
data_Sr2Nb2Bi3BrO11
_symmetry_space_group_name_H-M   'P 1'
_cell_length_a   3.97733333
_cell_length_b   3.97733333
_cell_length_c   20.32860972
_cell_angle_alpha   90.00000000
_cell_angle_beta   90.00000000
_cell_angle_gamma   90.00000000
_symmetry_Int_Tables_number   1
_chemical_formula_structural   Sr2Nb2Bi3BrO11
_chemical_formula_sum   'Sr2 Nb2 Bi3 Br1 O11'
_cell_volume   321.58194481
_cell_formula_units_Z   1
loop_
 _symmetry_equiv_pos_site_id
 _symmetry_equiv_pos_as_xyz
  1  'x, y, z'
loop_
 _atom_site_type_symbol
 _atom_site_label
 _atom_site_symmetry_multiplicity
 _atom_site_fract_x
 _atom_site_fract_y
 _atom_site_fract_z
 _atom_site_occupancy
  Sr  Sr0  1  -0.00000000  0.00000000  0.72727334  1
  Sr  Sr1  1  0.00000000  0.00000000  0.27272666  1
  Nb  Nb2  1  0.50000000  0.50000000  0.88997723  1
  Nb  Nb3  1  0.50000000  0.50000000  0.11002277  1
  Bi  Bi4  1  -0.00000000  0.00000000  -0.00000000  1
  Bi  Bi5  1  0.50000000  0.50000000  0.60817774  1
  Bi  Bi6  1  0.50000000  0.50000000  0.39182226  1
  Br  Br7  1  -0.00000000  0.00000000  0.50000000  1
  O  O8  1  0.50000000  0.00000000  0.66104715  1
  O  O9  1  0.00000000  0.50000000  0.66104715  1
  O  O10  1  0.50000000  0.00000000  0.33895285  1
  O  O11  1  -0.00000000  0.50000000  0.33895285  1
  O  O12  1  0.50000000  -0.00000000  0.90936005  1
  O  O13  1  0.00000000  0.50000000  0.90936005  1
  O  O14  1  0.50000000  0.00000000  0.09063995  1
  O  O15  1  -0.00000000  0.50000000  0.09063995  1
  O  O16  1  0.50000000  0.50000000  0.80077698  1
  O  O17  1  0.50000000  0.50000000  0.19922302  1
  O  O18  1  0.50000000  0.50000000  -0.00000000  1
