# generated using pymatgen
data_InSn3Se4
_symmetry_space_group_name_H-M   'P 1'
_cell_length_a   4.10614915
_cell_length_b   4.58100319
_cell_length_c   11.76400456
_cell_angle_alpha   88.54811662
_cell_angle_beta   90.00000000
_cell_angle_gamma   90.00000000
_symmetry_Int_Tables_number   1
_chemical_formula_structural   InSn3Se4
_chemical_formula_sum   'In1 Sn3 Se4'
_cell_volume   221.21320537
_cell_formula_units_Z   1
loop_
 _symmetry_equiv_pos_site_id
 _symmetry_equiv_pos_as_xyz
  1  'x, y, z'
loop_
 _atom_site_type_symbol
 _atom_site_label
 _atom_site_symmetry_multiplicity
 _atom_site_fract_x
 _atom_site_fract_y
 _atom_site_fract_z
 _atom_site_occupancy
  In  In0  1  0.25000000  0.39689740  0.61841760  1
  Sn  Sn1  1  0.25000000  0.10532422  0.11732496  1
  Sn  Sn2  1  0.75000000  0.59950666  0.38473046  1
  Sn  Sn3  1  0.75000000  0.89668906  0.88170921  1
  Se  Se4  1  0.25000000  0.49334271  0.85375841  1
  Se  Se5  1  0.25000000  0.01041524  0.35086603  1
  Se  Se6  1  0.75000000  0.51258943  0.14960460  1
  Se  Se7  1  0.75000000  0.98523529  0.64358873  1
