# generated using pymatgen
data_LaNi5H6
_symmetry_space_group_name_H-M   'P 1'
_cell_length_a   4.06915478
_cell_length_b   5.41375542
_cell_length_c   5.41090746
_cell_angle_alpha   120.01741875
_cell_angle_beta   90.00665677
_cell_angle_gamma   89.98669350
_symmetry_Int_Tables_number   1
_chemical_formula_structural   LaNi5H6
_chemical_formula_sum   'La1 Ni5 H6'
_cell_volume   103.21131522
_cell_formula_units_Z   1
loop_
 _symmetry_equiv_pos_site_id
 _symmetry_equiv_pos_as_xyz
  1  'x, y, z'
loop_
 _atom_site_type_symbol
 _atom_site_label
 _atom_site_symmetry_multiplicity
 _atom_site_fract_x
 _atom_site_fract_y
 _atom_site_fract_z
 _atom_site_occupancy
  La  La0  1  0.87882884  0.00013612  1.00000000  1
  Ni  Ni1  1  0.99368431  0.33336845  0.66669812  1
  Ni  Ni2  1  0.99368431  0.66667033  0.33330188  1
  Ni  Ni3  1  0.50420879  0.49999313  0.00000000  1
  Ni  Ni4  1  0.50401075  0.49999451  0.49998341  1
  Ni  Ni5  1  0.50401075  0.00001109  0.50001659  1
  H  H6  1  0.29039162  0.20456143  0.40908060  1
  H  H7  1  0.29023706  0.20450598  0.79549013  1
  H  H8  1  0.29015744  0.59076286  0.79536344  1
  H  H9  1  0.29039162  0.79548083  0.59091940  1
  H  H10  1  0.29023706  0.40901585  0.20450987  1
  H  H11  1  0.29015744  0.79539942  0.20463656  1
