# generated using pymatgen
data_Na2Ca4ZrNbSi4O17F
_symmetry_space_group_name_H-M   'P 1'
_cell_length_a   7.43161725
_cell_length_b   10.46150265
_cell_length_c   11.07844006
_cell_angle_alpha   90.00000000
_cell_angle_beta   110.12701982
_cell_angle_gamma   90.00000000
_symmetry_Int_Tables_number   1
_chemical_formula_structural   Na2Ca4ZrNbSi4O17F
_chemical_formula_sum   'Na4 Ca8 Zr2 Nb2 Si8 O34 F2'
_cell_volume   808.70512376
_cell_formula_units_Z   2
loop_
 _symmetry_equiv_pos_site_id
 _symmetry_equiv_pos_as_xyz
  1  'x, y, z'
loop_
 _atom_site_type_symbol
 _atom_site_label
 _atom_site_symmetry_multiplicity
 _atom_site_fract_x
 _atom_site_fract_y
 _atom_site_fract_z
 _atom_site_occupancy
  Na  Na0  1  0.04250105  0.57822090  0.36183545  1
  Na  Na1  1  0.95749895  0.07822090  0.63816455  1
  Na  Na2  1  0.69942719  0.43136151  0.12596386  1
  Na  Na3  1  0.30057281  0.93136151  0.87403614  1
  Ca  Ca4  1  0.70047243  0.77861741  0.15854676  1
  Ca  Ca5  1  0.29952757  0.27861741  0.84145324  1
  Ca  Ca6  1  0.19764593  0.80951305  0.14989878  1
  Ca  Ca7  1  0.80235407  0.30951305  0.85010122  1
  Ca  Ca8  1  0.56672747  0.57303212  0.36731205  1
  Ca  Ca9  1  0.43327253  0.07303212  0.63268795  1
  Ca  Ca10  1  0.04432298  0.19422471  0.34936507  1
  Ca  Ca11  1  0.95567702  0.69422471  0.65063493  1
  Zr  Zr12  1  0.54135239  0.19082672  0.34960416  1
  Zr  Zr13  1  0.45864761  0.69082672  0.65039584  1
  Nb  Nb14  1  0.20547143  0.44236234  0.11681316  1
  Nb  Nb15  1  0.79452857  0.94236234  0.88318684  1
  Si  Si16  1  0.62798392  0.87515176  0.43057723  1
  Si  Si17  1  0.37201608  0.37515176  0.56942277  1
  Si  Si18  1  0.19561223  0.12158498  0.07662726  1
  Si  Si19  1  0.80438777  0.62158498  0.92337274  1
  Si  Si20  1  0.06452768  0.87497008  0.43427140  1
  Si  Si21  1  0.93547232  0.37497008  0.56572860  1
  Si  Si22  1  0.61746908  0.12598735  0.07053394  1
  Si  Si23  1  0.38253092  0.62598735  0.92946606  1
  O  O24  1  0.06231705  0.99713548  0.01590247  1
  O  O25  1  0.93768295  0.49713548  0.98409753  1
  O  O26  1  0.68781483  0.99210424  0.01792764  1
  O  O27  1  0.31218517  0.49210424  0.98207236  1
  O  O28  1  0.14013684  0.01926797  0.47054237  1
  O  O29  1  0.85986316  0.51926797  0.52945763  1
  O  O30  1  0.59172231  0.02317187  0.46615136  1
  O  O31  1  0.40827769  0.52317187  0.53384864  1
  O  O32  1  0.38570889  0.09900878  0.03474192  1
  O  O33  1  0.61429111  0.59900878  0.96525808  1
  O  O34  1  0.10811633  0.26008450  0.01471589  1
  O  O35  1  0.89188367  0.76008450  0.98528411  1
  O  O36  1  0.02418095  0.83124755  0.28736217  1
  O  O37  1  0.97581905  0.33124755  0.71263783  1
  O  O38  1  0.86394620  0.85724023  0.47155405  1
  O  O39  1  0.13605380  0.35724023  0.52844595  1
  O  O40  1  0.73206192  0.59917013  0.24986490  1
  O  O41  1  0.26793808  0.09917013  0.75013510  1
  O  O42  1  0.26162024  0.11993539  0.23366993  1
  O  O43  1  0.73837976  0.61993539  0.76633007  1
  O  O44  1  0.41082793  0.26513066  0.47328401  1
  O  O45  1  0.58917207  0.76513066  0.52671599  1
  O  O46  1  0.64418863  0.25205684  0.99585122  1
  O  O47  1  0.35581137  0.75205684  0.00414878  1
  O  O48  1  0.43252680  0.35873773  0.23004732  1
  O  O49  1  0.56747320  0.85873773  0.76995268  1
  O  O50  1  0.51276391  0.83653174  0.28370163  1
  O  O51  1  0.48723609  0.33653174  0.71629837  1
  O  O52  1  0.70843503  0.13667780  0.22894683  1
  O  O53  1  0.29156497  0.63667780  0.77105317  1
  O  O54  1  0.80105007  0.26894293  0.46024020  1
  O  O55  1  0.19894993  0.76894293  0.53975980  1
  O  O56  1  0.23701818  0.58991396  0.21215953  1
  O  O57  1  0.76298182  0.08991396  0.78784047  1
  F  F58  1  0.03787509  0.37378925  0.22729451  1
  F  F59  1  0.96212491  0.87378925  0.77270549  1
