# generated using pymatgen
data_LuTh(B2Os3)2
_symmetry_space_group_name_H-M   'P 1'
_cell_length_a   3.04746929
_cell_length_b   5.57828985
_cell_length_c   9.62505664
_cell_angle_alpha   89.99999707
_cell_angle_beta   90.00000000
_cell_angle_gamma   90.00000000
_symmetry_Int_Tables_number   1
_chemical_formula_structural   LuTh(B2Os3)2
_chemical_formula_sum   'Lu1 Th1 B4 Os6'
_cell_volume   163.62275796
_cell_formula_units_Z   1
loop_
 _symmetry_equiv_pos_site_id
 _symmetry_equiv_pos_as_xyz
  1  'x, y, z'
loop_
 _atom_site_type_symbol
 _atom_site_label
 _atom_site_symmetry_multiplicity
 _atom_site_fract_x
 _atom_site_fract_y
 _atom_site_fract_z
 _atom_site_occupancy
  Lu  Lu0  1  -0.00000000  0.00002309  1.00000000  1
  Th  Th1  1  -0.00000000  0.49998726  0.50000000  1
  B  B2  1  0.00000000  0.99997120  0.33355183  1
  B  B3  1  0.00000000  0.49996846  0.83031620  1
  B  B4  1  -0.00000000  0.49996846  0.16968380  1
  B  B5  1  -0.00000000  0.99997120  0.66644817  1
  Os  Os6  1  0.50000000  0.00000102  0.50000000  1
  Os  Os7  1  0.50000000  0.50001108  -0.00000000  1
  Os  Os8  1  0.50000000  0.24012301  0.24071352  1
  Os  Os9  1  0.50000000  0.75982611  0.75930655  1
  Os  Os10  1  0.50000000  0.75982611  0.24069345  1
  Os  Os11  1  0.50000000  0.24012301  0.75928648  1
