# generated using pymatgen
data_Fe2P4Pb3O17
_symmetry_space_group_name_H-M   'P 1'
_cell_length_a   9.16990039
_cell_length_b   9.16990039
_cell_length_c   16.96825171
_cell_angle_alpha   90.00000000
_cell_angle_beta   90.00000000
_cell_angle_gamma   90.00000000
_symmetry_Int_Tables_number   1
_chemical_formula_structural   Fe2P4Pb3O17
_chemical_formula_sum   'Fe8 P16 Pb12 O68'
_cell_volume   1426.81062298
_cell_formula_units_Z   4
loop_
 _symmetry_equiv_pos_site_id
 _symmetry_equiv_pos_as_xyz
  1  'x, y, z'
loop_
 _atom_site_type_symbol
 _atom_site_label
 _atom_site_symmetry_multiplicity
 _atom_site_fract_x
 _atom_site_fract_y
 _atom_site_fract_z
 _atom_site_occupancy
  Fe  Fe0  1  0.00017161  0.23875590  0.62945925  1
  Fe  Fe1  1  0.99982839  0.76124410  0.12945925  1
  Fe  Fe2  1  0.73875590  0.49982839  0.37945925  1
  Fe  Fe3  1  0.26124410  0.50017161  0.87945925  1
  Fe  Fe4  1  0.75968119  0.00058496  0.87047722  1
  Fe  Fe5  1  0.24031881  0.99941504  0.37047722  1
  Fe  Fe6  1  0.50058496  0.74031881  0.62047722  1
  Fe  Fe7  1  0.49941504  0.25968119  0.12047722  1
  P  P8  1  0.96481288  0.23179006  0.43164377  1
  P  P9  1  0.03518712  0.76820994  0.93164377  1
  P  P10  1  0.73179006  0.53518712  0.18164377  1
  P  P11  1  0.26820994  0.46481288  0.68164377  1
  P  P12  1  0.76935409  0.03410720  0.06796388  1
  P  P13  1  0.23064591  0.96589280  0.56796388  1
  P  P14  1  0.53410720  0.73064591  0.81796388  1
  P  P15  1  0.46589280  0.26935409  0.31796388  1
  P  P16  1  0.72635909  0.00869807  0.67196972  1
  P  P17  1  0.27364091  0.99130193  0.17196972  1
  P  P18  1  0.50869807  0.77364091  0.42196972  1
  P  P19  1  0.49130193  0.22635909  0.92196972  1
  P  P20  1  0.99246688  0.27211540  0.82827504  1
  P  P21  1  0.00753312  0.72788460  0.32827504  1
  P  P22  1  0.77211540  0.50753312  0.57827504  1
  P  P23  1  0.22788460  0.49246688  0.07827504  1
  Pb  Pb24  1  0.63152886  0.36768729  0.75034797  1
  Pb  Pb25  1  0.36847114  0.63231271  0.25034797  1
  Pb  Pb26  1  0.86768729  0.86847114  0.50034797  1
  Pb  Pb27  1  0.13231271  0.13152886  0.00034797  1
  Pb  Pb28  1  0.57682658  0.16258368  0.48214366  1
  Pb  Pb29  1  0.42317342  0.83741632  0.98214366  1
  Pb  Pb30  1  0.66258368  0.92317342  0.23214366  1
  Pb  Pb31  1  0.33741632  0.07682658  0.73214366  1
  Pb  Pb32  1  0.84679266  0.42230125  0.01697900  1
  Pb  Pb33  1  0.15320734  0.57769875  0.51697900  1
  Pb  Pb34  1  0.92230125  0.65320734  0.76697900  1
  Pb  Pb35  1  0.07769875  0.34679266  0.26697900  1
  O  O36  1  0.02134671  0.27722768  0.51338453  1
  O  O37  1  0.97865329  0.72277232  0.01338453  1
  O  O38  1  0.77722768  0.47865329  0.26338453  1
  O  O39  1  0.22277232  0.52134671  0.76338453  1
  O  O40  1  0.72239920  0.97823157  0.98636239  1
  O  O41  1  0.27760080  0.02176843  0.48636239  1
  O  O42  1  0.47823157  0.77760080  0.73636239  1
  O  O43  1  0.52176843  0.22239920  0.23636239  1
  O  O44  1  0.59456418  0.32976169  0.36925730  1
  O  O45  1  0.40543582  0.67023831  0.86925730  1
  O  O46  1  0.82976169  0.90543582  0.11925730  1
  O  O47  1  0.17023831  0.09456418  0.61925730  1
  O  O48  1  0.66943740  0.40677711  0.13071203  1
  O  O49  1  0.33056260  0.59322289  0.63071203  1
  O  O50  1  0.90677711  0.83056260  0.88071203  1
  O  O51  1  0.09322289  0.16943740  0.38071203  1
  O  O52  1  0.82389855  0.37775724  0.63131441  1
  O  O53  1  0.17610145  0.62224276  0.13131441  1
  O  O54  1  0.87775724  0.67610145  0.38131441  1
  O  O55  1  0.12224276  0.32389855  0.88131441  1
  O  O56  1  0.62135712  0.17571164  0.86857912  1
  O  O57  1  0.37864288  0.82428836  0.36857912  1
  O  O58  1  0.67571164  0.87864288  0.61857912  1
  O  O59  1  0.32428836  0.12135712  0.11857912  1
  O  O60  1  0.92246354  0.37187464  0.38432318  1
  O  O61  1  0.07753646  0.62812536  0.88432318  1
  O  O62  1  0.87187464  0.57753646  0.13432318  1
  O  O63  1  0.12812536  0.42246354  0.63432318  1
  O  O64  1  0.63109872  0.07927001  0.11613666  1
  O  O65  1  0.36890128  0.92072999  0.61613666  1
  O  O66  1  0.57927001  0.86890128  0.86613666  1
  O  O67  1  0.42072999  0.13109872  0.36613666  1
  O  O68  1  0.85477697  0.07678344  0.62405737  1
  O  O69  1  0.14522303  0.92321656  0.12405737  1
  O  O70  1  0.57678344  0.64522303  0.37405737  1
  O  O71  1  0.42321656  0.35477697  0.87405737  1
  O  O72  1  0.92436627  0.14358467  0.87598950  1
  O  O73  1  0.07563373  0.85641533  0.37598950  1
  O  O74  1  0.64358467  0.57563373  0.62598950  1
  O  O75  1  0.35641533  0.42436627  0.12598950  1
  O  O76  1  0.60080629  0.11957598  0.68312239  1
  O  O77  1  0.39919371  0.88042402  0.18312239  1
  O  O78  1  0.61957598  0.89919371  0.43312239  1
  O  O79  1  0.38042402  0.10080629  0.93312239  1
  O  O80  1  0.87907058  0.39610141  0.81829751  1
  O  O81  1  0.12092942  0.60389859  0.31829751  1
  O  O82  1  0.89610141  0.62092942  0.56829751  1
  O  O83  1  0.10389859  0.37907058  0.06829751  1
  O  O84  1  0.83667320  0.12368738  0.43764906  1
  O  O85  1  0.16332680  0.87631262  0.93764906  1
  O  O86  1  0.62368738  0.66332680  0.18764906  1
  O  O87  1  0.37631262  0.33667320  0.68764906  1
  O  O88  1  0.87929995  0.16026642  0.06259328  1
  O  O89  1  0.12070005  0.83973358  0.56259328  1
  O  O90  1  0.66026642  0.62070005  0.81259328  1
  O  O91  1  0.33973358  0.37929995  0.31259328  1
  O  O92  1  0.71932147  0.45312949  0.49667584  1
  O  O93  1  0.28067853  0.54687051  0.99667584  1
  O  O94  1  0.95312949  0.78067853  0.24667584  1
  O  O95  1  0.04687051  0.21932147  0.74667584  1
  O  O96  1  0.54577618  0.28147555  0.00323789  1
  O  O97  1  0.45422382  0.71852445  0.50323789  1
  O  O98  1  0.78147555  0.95422382  0.75323789  1
  O  O99  1  0.21852445  0.04577618  0.25323789  1
  O  O100  1  0.36451603  0.39927511  0.51154803  1
  O  O101  1  0.63548397  0.60072489  0.01154803  1
  O  O102  1  0.89927511  0.13548397  0.26154803  1
  O  O103  1  0.10072489  0.86451603  0.76154803  1
