# generated using pymatgen
data_In2CuTe3Cl
_symmetry_space_group_name_H-M   'P 1'
_cell_length_a   6.22651199
_cell_length_b   6.19148451
_cell_length_c   7.45680595
_cell_angle_alpha   67.74000987
_cell_angle_beta   65.24357783
_cell_angle_gamma   90.81890848
_symmetry_Int_Tables_number   1
_chemical_formula_structural   In2CuTe3Cl
_chemical_formula_sum   'In2 Cu1 Te3 Cl1'
_cell_volume   236.42601955
_cell_formula_units_Z   1
loop_
 _symmetry_equiv_pos_site_id
 _symmetry_equiv_pos_as_xyz
  1  'x, y, z'
loop_
 _atom_site_type_symbol
 _atom_site_label
 _atom_site_symmetry_multiplicity
 _atom_site_fract_x
 _atom_site_fract_y
 _atom_site_fract_z
 _atom_site_occupancy
  In  In0  1  -0.00297258  0.98066422  0.99567926  1
  In  In1  1  0.73909503  0.24441229  0.51670063  1
  Cu  Cu2  1  0.54244348  0.53396164  0.98049083  1
  Te  Te3  1  0.90647094  0.40809295  0.74816419  1
  Te  Te4  1  0.38092383  0.82217062  0.74111102  1
  Te  Te5  1  0.57419083  0.61858278  0.28022090  1
  Cl  Cl6  1  0.10984847  0.14211549  0.23763317  1
