# generated using pymatgen
data_DyAlCu
_symmetry_space_group_name_H-M   'P 1'
_cell_length_a   5.36337885
_cell_length_b   5.36337885
_cell_length_c   5.36337885
_cell_angle_alpha   88.49480292
_cell_angle_beta   60.80181535
_cell_angle_gamma   119.07147941
_symmetry_Int_Tables_number   1
_chemical_formula_structural   DyAlCu
_chemical_formula_sum   'Dy2 Al2 Cu2'
_cell_volume   110.47909052
_cell_formula_units_Z   2
loop_
 _symmetry_equiv_pos_site_id
 _symmetry_equiv_pos_as_xyz
  1  'x, y, z'
loop_
 _atom_site_type_symbol
 _atom_site_label
 _atom_site_symmetry_multiplicity
 _atom_site_fract_x
 _atom_site_fract_y
 _atom_site_fract_z
 _atom_site_occupancy
  Dy  Dy0  1  0.50000000  0.75222839  0.74777161  1
  Dy  Dy1  1  0.00000000  0.99777161  0.00222839  1
  Al  Al2  1  0.75000000  0.37500000  0.87500000  1
  Al  Al3  1  0.25000000  0.37500000  0.37500000  1
  Cu  Cu4  1  0.25000000  0.87500000  0.37500000  1
  Cu  Cu5  1  0.75000000  0.37500000  0.37500000  1
