# generated using pymatgen
data_GdUC4
_symmetry_space_group_name_H-M   'P 1'
_cell_length_a   3.61494027
_cell_length_b   3.61494027
_cell_length_c   6.16950232
_cell_angle_alpha   90.00000000
_cell_angle_beta   90.00000000
_cell_angle_gamma   90.00000000
_symmetry_Int_Tables_number   1
_chemical_formula_structural   GdUC4
_chemical_formula_sum   'Gd1 U1 C4'
_cell_volume   80.62178019
_cell_formula_units_Z   1
loop_
 _symmetry_equiv_pos_site_id
 _symmetry_equiv_pos_as_xyz
  1  'x, y, z'
loop_
 _atom_site_type_symbol
 _atom_site_label
 _atom_site_symmetry_multiplicity
 _atom_site_fract_x
 _atom_site_fract_y
 _atom_site_fract_z
 _atom_site_occupancy
  Gd  Gd0  1  -0.00000000  0.00000000  -0.00000000  1
  U  U1  1  0.50000000  0.50000000  0.50000000  1
  C  C2  1  -0.00000000  -0.00000000  0.39089577  1
  C  C3  1  0.50000000  0.50000000  0.89376865  1
  C  C4  1  0.50000000  0.50000000  0.10623135  1
  C  C5  1  -0.00000000  0.00000000  0.60910423  1
