# generated using pymatgen
data_Sm2Fe17N2
_symmetry_space_group_name_H-M   'P 1'
_cell_length_a   6.49406098
_cell_length_b   6.49406098
_cell_length_c   6.53845051
_cell_angle_alpha   83.75573393
_cell_angle_beta   83.75573393
_cell_angle_gamma   83.49317388
_symmetry_Int_Tables_number   1
_chemical_formula_structural   Sm2Fe17N2
_chemical_formula_sum   'Sm2 Fe17 N2'
_cell_volume   271.04182729
_cell_formula_units_Z   1
loop_
 _symmetry_equiv_pos_site_id
 _symmetry_equiv_pos_as_xyz
  1  'x, y, z'
loop_
 _atom_site_type_symbol
 _atom_site_label
 _atom_site_symmetry_multiplicity
 _atom_site_fract_x
 _atom_site_fract_y
 _atom_site_fract_z
 _atom_site_occupancy
  Sm  Sm0  1  0.65809988  0.65809988  0.65757493  1
  Sm  Sm1  1  0.34190012  0.34190012  0.34242507  1
  Fe  Fe2  1  0.28506218  0.71493782  -0.00000000  1
  Fe  Fe3  1  0.71609018  0.00031488  0.28281529  1
  Fe  Fe4  1  0.99968512  0.28390982  0.71718471  1
  Fe  Fe5  1  0.28390982  0.99968512  0.71718471  1
  Fe  Fe6  1  0.00031488  0.71609018  0.28281529  1
  Fe  Fe7  1  0.71493782  0.28506218  -0.00000000  1
  Fe  Fe8  1  -0.00000000  -0.00000000  0.50000000  1
  Fe  Fe9  1  -0.00000000  0.50000000  -0.00000000  1
  Fe  Fe10  1  0.50000000  -0.00000000  -0.00000000  1
  Fe  Fe11  1  0.34505987  0.34505987  0.85687262  1
  Fe  Fe12  1  0.34389126  0.85353470  0.33891764  1
  Fe  Fe13  1  0.85353470  0.34389126  0.33891764  1
  Fe  Fe14  1  0.65494013  0.65494013  0.14312738  1
  Fe  Fe15  1  0.65610874  0.14646530  0.66108236  1
  Fe  Fe16  1  0.14646530  0.65610874  0.66108236  1
  Fe  Fe17  1  0.90427692  0.90427692  0.90613869  1
  Fe  Fe18  1  0.09572308  0.09572308  0.09386131  1
  N  N19  1  0.50000000  -0.00000000  0.50000000  1
  N  N20  1  -0.00000000  0.50000000  0.50000000  1
