# generated using pymatgen
data_Fe4Te3Se
_symmetry_space_group_name_H-M   'P 1'
_cell_length_a   3.64210950
_cell_length_b   7.38833862
_cell_length_c   7.38833862
_cell_angle_alpha   59.25642336
_cell_angle_beta   90.00000000
_cell_angle_gamma   90.00000000
_symmetry_Int_Tables_number   1
_chemical_formula_structural   Fe4Te3Se
_chemical_formula_sum   'Fe4 Te3 Se1'
_cell_volume   170.87327150
_cell_formula_units_Z   1
loop_
 _symmetry_equiv_pos_site_id
 _symmetry_equiv_pos_as_xyz
  1  'x, y, z'
loop_
 _atom_site_type_symbol
 _atom_site_label
 _atom_site_symmetry_multiplicity
 _atom_site_fract_x
 _atom_site_fract_y
 _atom_site_fract_z
 _atom_site_occupancy
  Fe  Fe0  1  0.50000000  0.25338604  0.75338604  1
  Fe  Fe1  1  0.50000000  0.75129411  0.25129411  1
  Fe  Fe2  1  -0.00000000  0.00613863  0.99882738  1
  Fe  Fe3  1  -0.00000000  0.49882738  0.50613863  1
  Te  Te4  1  -0.00000000  0.89279819  0.39279819  1
  Te  Te5  1  0.50000000  0.35902208  0.36100408  1
  Te  Te6  1  0.50000000  0.86100408  0.85902208  1
  Se  Se7  1  -0.00000000  0.37752949  0.87752949  1
