# generated using pymatgen
data_FeMoAs2
_symmetry_space_group_name_H-M   'P 1'
_cell_length_a   3.36121821
_cell_length_b   5.81218105
_cell_length_c   6.28076022
_cell_angle_alpha   90.00000000
_cell_angle_beta   90.00000000
_cell_angle_gamma   90.00000000
_symmetry_Int_Tables_number   1
_chemical_formula_structural   FeMoAs2
_chemical_formula_sum   'Fe2 Mo2 As4'
_cell_volume   122.70098683
_cell_formula_units_Z   2
loop_
 _symmetry_equiv_pos_site_id
 _symmetry_equiv_pos_as_xyz
  1  'x, y, z'
loop_
 _atom_site_type_symbol
 _atom_site_label
 _atom_site_symmetry_multiplicity
 _atom_site_fract_x
 _atom_site_fract_y
 _atom_site_fract_z
 _atom_site_occupancy
  Fe  Fe0  1  0.25000000  0.50855574  0.31236109  1
  Fe  Fe1  1  0.25000000  0.00855574  0.18763891  1
  Mo  Mo2  1  0.75000000  0.49591380  0.69092051  1
  Mo  Mo3  1  0.75000000  0.99591380  0.80907949  1
  As  As4  1  0.75000000  0.30601091  0.08633978  1
  As  As5  1  0.75000000  0.80601091  0.41366022  1
  As  As6  1  0.25000000  0.68951955  0.94457145  1
  As  As7  1  0.25000000  0.18951955  0.55542855  1
