# generated using pymatgen
data_Hf2Ga3Co
_symmetry_space_group_name_H-M   'P 1'
_cell_length_a   6.30437239
_cell_length_b   7.76479257
_cell_length_c   7.67531016
_cell_angle_alpha   83.59682772
_cell_angle_beta   113.36392180
_cell_angle_gamma   65.28539573
_symmetry_Int_Tables_number   1
_chemical_formula_structural   Hf2Ga3Co
_chemical_formula_sum   'Hf6 Ga9 Co3'
_cell_volume   295.48776764
_cell_formula_units_Z   3
loop_
 _symmetry_equiv_pos_site_id
 _symmetry_equiv_pos_as_xyz
  1  'x, y, z'
loop_
 _atom_site_type_symbol
 _atom_site_label
 _atom_site_symmetry_multiplicity
 _atom_site_fract_x
 _atom_site_fract_y
 _atom_site_fract_z
 _atom_site_occupancy
  Hf  Hf0  1  0.47991218  0.47206497  0.97925464  1
  Hf  Hf1  1  0.98530721  0.50880826  0.02809258  1
  Hf  Hf2  1  0.45082903  0.04309891  0.52853752  1
  Hf  Hf3  1  0.94375880  0.96963025  0.44928475  1
  Hf  Hf4  1  0.78994016  0.24778410  0.74961095  1
  Hf  Hf5  1  0.29693248  0.75262242  0.24187400  1
  Ga  Ga6  1  0.49098593  0.33592168  0.33648093  1
  Ga  Ga7  1  0.48648702  0.66300434  0.65379598  1
  Ga  Ga8  1  0.98792704  0.83874099  0.83522775  1
  Ga  Ga9  1  0.00959930  0.15444810  0.15787974  1
  Ga  Ga10  1  0.28574011  0.25807095  0.78542109  1
  Ga  Ga11  1  0.77381829  0.75067429  0.23263614  1
  Ga  Ga12  1  0.38194776  0.89630348  0.87365337  1
  Ga  Ga13  1  0.88858649  0.63275096  0.61411619  1
  Ga  Ga14  1  0.90931783  0.36846975  0.38908110  1
  Co  Co15  1  0.23823399  0.49669956  0.50393346  1
  Co  Co16  1  0.75489895  0.00143921  0.00018133  1
  Co  Co17  1  0.40577744  0.10946778  0.14093848  1
