# generated using pymatgen
data_Hf4FeS8
_symmetry_space_group_name_H-M   'P 1'
_cell_length_a   6.87659526
_cell_length_b   7.18661431
_cell_length_c   6.87396428
_cell_angle_alpha   74.80015153
_cell_angle_beta   63.19716698
_cell_angle_gamma   105.28248545
_symmetry_Int_Tables_number   1
_chemical_formula_structural   Hf4FeS8
_chemical_formula_sum   'Hf4 Fe1 S8'
_cell_volume   262.28648409
_cell_formula_units_Z   1
loop_
 _symmetry_equiv_pos_site_id
 _symmetry_equiv_pos_as_xyz
  1  'x, y, z'
loop_
 _atom_site_type_symbol
 _atom_site_label
 _atom_site_symmetry_multiplicity
 _atom_site_fract_x
 _atom_site_fract_y
 _atom_site_fract_z
 _atom_site_occupancy
  Hf  Hf0  1  0.99585819  0.99703441  0.99883619  1
  Hf  Hf1  1  0.50414181  0.00296559  0.50116381  1
  Hf  Hf2  1  0.99555643  0.49982951  0.00459812  1
  Hf  Hf3  1  0.50444357  0.50017049  0.49540188  1
  Fe  Fe4  1  0.25000000  0.00000000  0.25000000  1
  S  S5  1  0.29154488  0.33009399  0.96120236  1
  S  S6  1  0.79485036  0.33479281  0.45949185  1
  S  S7  1  0.29368107  0.83467073  0.96500588  1
  S  S8  1  0.80019703  0.83433446  0.45888498  1
  S  S9  1  0.69980297  0.16566554  0.04111502  1
  S  S10  1  0.20631893  0.16532927  0.53499412  1
  S  S11  1  0.70514964  0.66520719  0.04050815  1
  S  S12  1  0.20845512  0.66990601  0.53879764  1
