# generated using pymatgen
data_Cr4CdCoS8
_symmetry_space_group_name_H-M   'P 1'
_cell_length_a   7.16645821
_cell_length_b   7.16645821
_cell_length_c   7.16645821
_cell_angle_alpha   90.00000000
_cell_angle_beta   60.00000000
_cell_angle_gamma   120.00000000
_symmetry_Int_Tables_number   1
_chemical_formula_structural   Cr4CdCoS8
_chemical_formula_sum   'Cr4 Cd1 Co1 S8'
_cell_volume   260.25478369
_cell_formula_units_Z   1
loop_
 _symmetry_equiv_pos_site_id
 _symmetry_equiv_pos_as_xyz
  1  'x, y, z'
loop_
 _atom_site_type_symbol
 _atom_site_label
 _atom_site_symmetry_multiplicity
 _atom_site_fract_x
 _atom_site_fract_y
 _atom_site_fract_z
 _atom_site_occupancy
  Cr  Cr0  1  0.50270750  0.50406124  0.99864625  1
  Cr  Cr1  1  0.50270750  0.99864625  0.99864625  1
  Cr  Cr2  1  0.99729250  0.99864625  0.50406124  1
  Cr  Cr3  1  0.99729250  0.99864625  0.99864625  1
  Cd  Cd4  1  0.75000000  0.37500000  0.37500000  1
  Co  Co5  1  0.25000000  0.62500000  0.62500000  1
  S  S6  1  0.03263441  0.79895161  0.23368280  1
  S  S7  1  0.03263441  0.23368280  0.23368280  1
  S  S8  1  0.46736559  0.23368280  0.79895161  1
  S  S9  1  0.46736559  0.23368280  0.23368280  1
  S  S10  1  0.98599107  0.22898660  0.75700447  1
  S  S11  1  0.98599107  0.75700447  0.75700447  1
  S  S12  1  0.51400893  0.75700447  0.22898660  1
  S  S13  1  0.51400893  0.75700447  0.75700447  1
