# generated using pymatgen
data_CePr3O8
_symmetry_space_group_name_H-M   'P 1'
_cell_length_a   4.00818982
_cell_length_b   4.00818982
_cell_length_c   13.23887117
_cell_angle_alpha   90.00000000
_cell_angle_beta   81.29311564
_cell_angle_gamma   120.00000000
_symmetry_Int_Tables_number   1
_chemical_formula_structural   CePr3O8
_chemical_formula_sum   'Ce1 Pr3 O8'
_cell_volume   181.35931891
_cell_formula_units_Z   1
loop_
 _symmetry_equiv_pos_site_id
 _symmetry_equiv_pos_as_xyz
  1  'x, y, z'
loop_
 _atom_site_type_symbol
 _atom_site_label
 _atom_site_symmetry_multiplicity
 _atom_site_fract_x
 _atom_site_fract_y
 _atom_site_fract_z
 _atom_site_occupancy
  Ce  Ce0  1  -0.00000000  -0.00000000  0.00000000  1
  Pr  Pr1  1  0.50395637  0.25197818  0.24406545  1
  Pr  Pr2  1  -0.00000000  0.50000000  0.50000000  1
  Pr  Pr3  1  0.49604363  0.74802182  0.75593455  1
  O  O4  1  0.62407784  0.81203892  0.56388324  1
  O  O5  1  0.11678637  0.05839319  0.82482044  1
  O  O6  1  0.63160503  0.31580252  0.05259245  1
  O  O7  1  0.12673300  0.56336650  0.30990051  1
  O  O8  1  0.87326700  0.43663350  0.69009949  1
  O  O9  1  0.36839497  0.68419748  0.94740755  1
  O  O10  1  0.88321363  0.94160681  0.17517956  1
  O  O11  1  0.37592216  0.18796108  0.43611676  1
