# generated using pymatgen
data_Eu(GaGe2)2
_symmetry_space_group_name_H-M   'P 1'
_cell_length_a   4.20368902
_cell_length_b   6.06318404
_cell_length_c   13.44880865
_cell_angle_alpha   90.00000000
_cell_angle_beta   90.00000000
_cell_angle_gamma   69.71702383
_symmetry_Int_Tables_number   1
_chemical_formula_structural   Eu(GaGe2)2
_chemical_formula_sum   'Eu2 Ga4 Ge8'
_cell_volume   321.52464568
_cell_formula_units_Z   2
loop_
 _symmetry_equiv_pos_site_id
 _symmetry_equiv_pos_as_xyz
  1  'x, y, z'
loop_
 _atom_site_type_symbol
 _atom_site_label
 _atom_site_symmetry_multiplicity
 _atom_site_fract_x
 _atom_site_fract_y
 _atom_site_fract_z
 _atom_site_occupancy
  Eu  Eu0  1  0.79194365  0.41611270  0.25000000  1
  Eu  Eu1  1  0.20805635  0.58388730  0.75000000  1
  Ga  Ga2  1  0.47686975  0.04626051  0.09133323  1
  Ga  Ga3  1  0.52313025  0.95373949  0.90866677  1
  Ga  Ga4  1  0.47686975  0.04626051  0.40866677  1
  Ga  Ga5  1  0.52313025  0.95373949  0.59133323  1
  Ge  Ge6  1  0.25871811  0.48256377  0.05461633  1
  Ge  Ge7  1  0.74128189  0.51743623  0.94538367  1
  Ge  Ge8  1  0.25871811  0.48256377  0.44538367  1
  Ge  Ge9  1  0.74128189  0.51743623  0.55461633  1
  Ge  Ge10  1  0.06761196  0.86477607  0.15548756  1
  Ge  Ge11  1  0.93238804  0.13522393  0.84451244  1
  Ge  Ge12  1  0.06761196  0.86477607  0.34451244  1
  Ge  Ge13  1  0.93238804  0.13522393  0.65548756  1
