# generated using pymatgen
data_CeYC4
_symmetry_space_group_name_H-M   'P 1'
_cell_length_a   3.72471523
_cell_length_b   4.12154141
_cell_length_c   6.64283088
_cell_angle_alpha   84.54949192
_cell_angle_beta   73.71854582
_cell_angle_gamma   63.13695004
_symmetry_Int_Tables_number   1
_chemical_formula_structural   CeYC4
_chemical_formula_sum   'Ce1 Y1 C4'
_cell_volume   87.26512151
_cell_formula_units_Z   1
loop_
 _symmetry_equiv_pos_site_id
 _symmetry_equiv_pos_as_xyz
  1  'x, y, z'
loop_
 _atom_site_type_symbol
 _atom_site_label
 _atom_site_symmetry_multiplicity
 _atom_site_fract_x
 _atom_site_fract_y
 _atom_site_fract_z
 _atom_site_occupancy
  Ce  Ce0  1  0.00000000  0.50000000  0.50000000  1
  Y  Y1  1  0.00000000  0.00000000  0.00000000  1
  C  C2  1  0.60898147  0.59012284  0.19191422  1
  C  C3  1  0.59887297  0.09643404  0.70582002  1
  C  C4  1  0.39101853  0.40987716  0.80808578  1
  C  C5  1  0.40112703  0.90356596  0.29417998  1
