# generated using pymatgen
data_Sm4TiFe33N4
_symmetry_space_group_name_H-M   'P 1'
_cell_length_a   6.57064812
_cell_length_b   6.49241485
_cell_length_c   13.04515499
_cell_angle_alpha   83.09961105
_cell_angle_beta   83.62829970
_cell_angle_gamma   83.71178520
_symmetry_Int_Tables_number   1
_chemical_formula_structural   Sm4TiFe33N4
_chemical_formula_sum   'Sm4 Ti1 Fe33 N4'
_cell_volume   546.43849408
_cell_formula_units_Z   1
loop_
 _symmetry_equiv_pos_site_id
 _symmetry_equiv_pos_as_xyz
  1  'x, y, z'
loop_
 _atom_site_type_symbol
 _atom_site_label
 _atom_site_symmetry_multiplicity
 _atom_site_fract_x
 _atom_site_fract_y
 _atom_site_fract_z
 _atom_site_occupancy
  Sm  Sm0  1  0.65948168  0.65798166  0.32895929  1
  Sm  Sm1  1  0.65929374  0.65757793  0.82948715  1
  Sm  Sm2  1  0.34079370  0.34242571  0.17091074  1
  Sm  Sm3  1  0.34750369  0.34897338  0.67415490  1
  Ti  Ti4  1  0.09398870  0.09293270  0.54653419  1
  Fe  Fe5  1  0.28227867  0.71678610  0.00066271  1
  Fe  Fe6  1  0.28251744  0.71396136  0.49974706  1
  Fe  Fe7  1  0.71830970  0.99804451  0.14189919  1
  Fe  Fe8  1  0.71473813  0.99623916  0.64196630  1
  Fe  Fe9  1  0.99975926  0.29230911  0.35415387  1
  Fe  Fe10  1  0.99992048  0.28931846  0.85548590  1
  Fe  Fe11  1  0.28304827  0.99909431  0.35673542  1
  Fe  Fe12  1  0.28122946  0.00257344  0.85798822  1
  Fe  Fe13  1  0.00027902  0.71108545  0.14423059  1
  Fe  Fe14  1  0.99963561  0.70738973  0.64638057  1
  Fe  Fe15  1  0.71775516  0.28334115  0.99914868  1
  Fe  Fe16  1  0.71457641  0.28259516  0.49874003  1
  Fe  Fe17  1  0.34046421  0.34638544  0.42669017  1
  Fe  Fe18  1  0.33893464  0.34549166  0.92771808  1
  Fe  Fe19  1  0.33993043  0.85421784  0.17221326  1
  Fe  Fe20  1  0.34072134  0.85317843  0.67335546  1
  Fe  Fe21  1  0.85438763  0.34304378  0.17169735  1
  Fe  Fe22  1  0.85199744  0.34447696  0.67243422  1
  Fe  Fe23  1  0.66124319  0.65446843  0.07250586  1
  Fe  Fe24  1  0.66082471  0.65458596  0.57241797  1
  Fe  Fe25  1  0.66047837  0.14508571  0.32717974  1
  Fe  Fe26  1  0.66030391  0.14553898  0.82761945  1
  Fe  Fe27  1  0.14530011  0.65668926  0.32791007  1
  Fe  Fe28  1  0.14530081  0.65692382  0.82859369  1
  Fe  Fe29  1  0.99997840  0.99988234  0.25019937  1
  Fe  Fe30  1  0.99856797  0.99965070  0.75125092  1
  Fe  Fe31  1  0.99844306  0.50328061  0.49988457  1
  Fe  Fe32  1  0.00007911  0.49997801  0.99987601  1
  Fe  Fe33  1  0.50005949  0.99982180  0.99978751  1
  Fe  Fe34  1  0.50327285  0.99837021  0.49937542  1
  Fe  Fe35  1  0.90364213  0.90537640  0.45123204  1
  Fe  Fe36  1  0.90452347  0.90473718  0.95269610  1
  Fe  Fe37  1  0.09510933  0.09470747  0.04793747  1
  N  N38  1  0.49984331  0.49999128  0.00013385  1
  N  N39  1  0.50092375  0.50071290  0.49994056  1
  N  N40  1  0.50182731  0.00096749  0.24894866  1
  N  N41  1  0.49873391  0.99980802  0.75121737  1
