# generated using pymatgen
data_CePr4O10
_symmetry_space_group_name_H-M   'P 1'
_cell_length_a   5.70600807
_cell_length_b   6.93260306
_cell_length_c   6.93260306
_cell_angle_alpha   80.24936126
_cell_angle_beta   65.69874554
_cell_angle_gamma   65.69874554
_symmetry_Int_Tables_number   1
_chemical_formula_structural   CePr4O10
_chemical_formula_sum   'Ce1 Pr4 O10'
_cell_volume   227.79156347
_cell_formula_units_Z   1
loop_
 _symmetry_equiv_pos_site_id
 _symmetry_equiv_pos_as_xyz
  1  'x, y, z'
loop_
 _atom_site_type_symbol
 _atom_site_label
 _atom_site_symmetry_multiplicity
 _atom_site_fract_x
 _atom_site_fract_y
 _atom_site_fract_z
 _atom_site_occupancy
  Ce  Ce0  1  -0.00000000  -0.00000000  0.00000000  1
  Pr  Pr1  1  0.20080496  0.19887288  0.39951719  1
  Pr  Pr2  1  0.39967785  0.39951719  0.80112712  1
  Pr  Pr3  1  0.60032215  0.60048281  0.19887288  1
  Pr  Pr4  1  0.79919504  0.80112712  0.60048281  1
  O  O5  1  0.75000000  0.50000000  0.50000000  1
  O  O6  1  0.95125300  0.71062879  0.90326949  1
  O  O7  1  0.14547751  0.90326949  0.28937121  1
  O  O8  1  0.33811820  0.09673051  0.71062879  1
  O  O9  1  0.56515128  0.28937121  0.09673051  1
  O  O10  1  0.04874700  0.28937121  0.09673051  1
  O  O11  1  0.25000000  0.50000000  0.50000000  1
  O  O12  1  0.43484872  0.71062879  0.90326949  1
  O  O13  1  0.66188180  0.90326949  0.28937121  1
  O  O14  1  0.85452249  0.09673051  0.71062879  1
