# generated using pymatgen
data_Cu5Ge2
_symmetry_space_group_name_H-M   'P 1'
_cell_length_a   4.12752666
_cell_length_b   4.12752665
_cell_length_c   7.09081329
_cell_angle_alpha   73.07932892
_cell_angle_beta   90.00000000
_cell_angle_gamma   120.00000006
_symmetry_Int_Tables_number   1
_chemical_formula_structural   Cu5Ge2
_chemical_formula_sum   'Cu5 Ge2'
_cell_volume   98.53301831
_cell_formula_units_Z   1
loop_
 _symmetry_equiv_pos_site_id
 _symmetry_equiv_pos_as_xyz
  1  'x, y, z'
loop_
 _atom_site_type_symbol
 _atom_site_label
 _atom_site_symmetry_multiplicity
 _atom_site_fract_x
 _atom_site_fract_y
 _atom_site_fract_z
 _atom_site_occupancy
  Cu  Cu0  1  0.62701906  0.25403812  0.11894282  1
  Cu  Cu1  1  0.12347583  0.24695165  0.62957252  1
  Cu  Cu2  1  0.87298094  0.74596188  0.38105718  1
  Cu  Cu3  1  0.37652417  0.75304835  0.87042748  1
  Cu  Cu4  1  0.25000000  0.50000000  0.25000000  1
  Ge  Ge5  1  0.00160151  0.00320302  0.99519548  1
  Ge  Ge6  1  0.49839849  0.99679698  0.50480452  1
