# generated using pymatgen
data_Cr3SbAs2
_symmetry_space_group_name_H-M   'P 1'
_cell_length_a   3.69758971
_cell_length_b   8.69675769
_cell_length_c   13.30025624
_cell_angle_alpha   102.81080257
_cell_angle_beta   90.00000000
_cell_angle_gamma   90.00000000
_symmetry_Int_Tables_number   1
_chemical_formula_structural   Cr3SbAs2
_chemical_formula_sum   'Cr12 Sb4 As8'
_cell_volume   417.05047860
_cell_formula_units_Z   4
loop_
 _symmetry_equiv_pos_site_id
 _symmetry_equiv_pos_as_xyz
  1  'x, y, z'
loop_
 _atom_site_type_symbol
 _atom_site_label
 _atom_site_symmetry_multiplicity
 _atom_site_fract_x
 _atom_site_fract_y
 _atom_site_fract_z
 _atom_site_occupancy
  Cr  Cr0  1  0.75000000  0.97248666  0.73523865  1
  Cr  Cr1  1  0.75000000  0.64531305  0.07571129  1
  Cr  Cr2  1  0.75000000  0.30523436  0.40077241  1
  Cr  Cr3  1  0.75000000  0.17368765  0.58956346  1
  Cr  Cr4  1  0.75000000  0.85227021  0.92922958  1
  Cr  Cr5  1  0.75000000  0.50598943  0.25784954  1
  Cr  Cr6  1  0.25000000  0.70519917  0.59776838  1
  Cr  Cr7  1  0.25000000  0.36123818  0.93244809  1
  Cr  Cr8  1  0.25000000  0.03630517  0.26401044  1
  Cr  Cr9  1  0.25000000  0.46830194  0.73364116  1
  Cr  Cr10  1  0.25000000  0.14944618  0.08124736  1
  Cr  Cr11  1  0.25000000  0.81711608  0.41524679  1
  Sb  Sb12  1  0.75000000  0.14968761  0.93165303  1
  Sb  Sb13  1  0.75000000  0.81730633  0.26813039  1
  Sb  Sb14  1  0.75000000  0.48331246  0.59267662  1
  Sb  Sb15  1  0.75000000  0.54152315  0.87482540  1
  As  As16  1  0.75000000  0.20449751  0.21218551  1
  As  As17  1  0.75000000  0.87153656  0.54623956  1
  As  As18  1  0.25000000  0.85396942  0.06788694  1
  As  As19  1  0.25000000  0.51779674  0.39919602  1
  As  As20  1  0.25000000  0.18027382  0.73156144  1
  As  As21  1  0.25000000  0.46272836  0.12134980  1
  As  As22  1  0.25000000  0.12959995  0.45364823  1
  As  As23  1  0.25000000  0.79517998  0.78791990  1
