# generated using pymatgen
data_Cu4MoW3O16
_symmetry_space_group_name_H-M   'P 1'
_cell_length_a   4.97144484
_cell_length_b   7.09111041
_cell_length_c   8.13615812
_cell_angle_alpha   77.17564229
_cell_angle_beta   85.54087449
_cell_angle_gamma   90.06980147
_symmetry_Int_Tables_number   1
_chemical_formula_structural   Cu4MoW3O16
_chemical_formula_sum   'Cu4 Mo1 W3 O16'
_cell_volume   278.77278403
_cell_formula_units_Z   1
loop_
 _symmetry_equiv_pos_site_id
 _symmetry_equiv_pos_as_xyz
  1  'x, y, z'
loop_
 _atom_site_type_symbol
 _atom_site_label
 _atom_site_symmetry_multiplicity
 _atom_site_fract_x
 _atom_site_fract_y
 _atom_site_fract_z
 _atom_site_occupancy
  Cu  Cu0  1  0.25351139  0.91934045  0.42230868  1
  Cu  Cu1  1  0.25499082  0.41783012  0.92497645  1
  Cu  Cu2  1  0.74448480  0.08093081  0.57570881  1
  Cu  Cu3  1  0.74534665  0.58150929  0.07495605  1
  Mo  Mo4  1  0.25226971  0.92199578  0.90479301  1
  W  W5  1  0.25394933  0.42247074  0.40889076  1
  W  W6  1  0.74518057  0.07562592  0.09253737  1
  W  W7  1  0.74632883  0.57740915  0.59096060  1
  O  O8  1  0.42970874  0.66842955  0.45430855  1
  O  O9  1  0.43011492  0.16833621  0.95424709  1
  O  O10  1  0.56966591  0.33165197  0.54609716  1
  O  O11  1  0.57202555  0.83285300  0.04511558  1
  O  O12  1  0.42829326  0.94848053  0.70000990  1
  O  O13  1  0.42835095  0.44971396  0.19958621  1
  O  O14  1  0.57167305  0.05189664  0.30197206  1
  O  O15  1  0.57095858  0.55119331  0.80019784  1
  O  O16  1  0.05224081  0.93671624  0.15339046  1
  O  O17  1  0.05501215  0.43544785  0.65091074  1
  O  O18  1  0.94888424  0.06366173  0.84869534  1
  O  O19  1  0.94463245  0.56408328  0.34957948  1
  O  O20  1  0.09403340  0.17260025  0.44436595  1
  O  O21  1  0.09396934  0.67335717  0.94515171  1
  O  O22  1  0.90705227  0.82708049  0.55614613  1
  O  O23  1  0.90732227  0.32738555  0.05509407  1
