# generated using pymatgen
data_CaZn3O4
_symmetry_space_group_name_H-M   'P 1'
_cell_length_a   3.42175695
_cell_length_b   6.41912655
_cell_length_c   5.89752210
_cell_angle_alpha   62.56131098
_cell_angle_beta   90.00350157
_cell_angle_gamma   74.54050867
_symmetry_Int_Tables_number   1
_chemical_formula_structural   CaZn3O4
_chemical_formula_sum   'Ca1 Zn3 O4'
_cell_volume   109.65589966
_cell_formula_units_Z   1
loop_
 _symmetry_equiv_pos_site_id
 _symmetry_equiv_pos_as_xyz
  1  'x, y, z'
loop_
 _atom_site_type_symbol
 _atom_site_label
 _atom_site_symmetry_multiplicity
 _atom_site_fract_x
 _atom_site_fract_y
 _atom_site_fract_z
 _atom_site_occupancy
  Ca  Ca0  1  0.74870650  0.50258351  0.41803587  1
  Zn  Zn1  1  0.24822645  0.50369209  0.91195545  1
  Zn  Zn2  1  -0.00201685  0.00403362  0.33465799  1
  Zn  Zn3  1  0.50546031  0.98889078  0.83450441  1
  O  O4  1  0.95345730  0.09294894  0.62494469  1
  O  O5  1  0.44156833  0.11689038  0.10600028  1
  O  O6  1  0.17993918  0.64019239  0.53531372  1
  O  O7  1  0.69065877  0.61876830  0.00058758  1
