# generated using pymatgen
data_Sc4BC4
_symmetry_space_group_name_H-M   'P 1'
_cell_length_a   3.32601771
_cell_length_b   3.32601771
_cell_length_c   31.05155232
_cell_angle_alpha   90.00000000
_cell_angle_beta   90.00000000
_cell_angle_gamma   90.00000000
_symmetry_Int_Tables_number   1
_chemical_formula_structural   Sc4BC4
_chemical_formula_sum   'Sc12 B3 C12'
_cell_volume   343.50450009
_cell_formula_units_Z   3
loop_
 _symmetry_equiv_pos_site_id
 _symmetry_equiv_pos_as_xyz
  1  'x, y, z'
loop_
 _atom_site_type_symbol
 _atom_site_label
 _atom_site_symmetry_multiplicity
 _atom_site_fract_x
 _atom_site_fract_y
 _atom_site_fract_z
 _atom_site_occupancy
  Sc  Sc0  1  0.00000000  0.00000000  0.00068175  1
  Sc  Sc1  1  -0.00000000  -0.00000000  0.24931825  1
  Sc  Sc2  1  0.00000000  -0.00000000  0.49999695  1
  Sc  Sc3  1  -0.00000000  0.00000000  0.75000305  1
  Sc  Sc4  1  0.50000000  0.50000000  0.17636565  1
  Sc  Sc5  1  0.50000000  0.50000000  0.42946544  1
  Sc  Sc6  1  0.50000000  0.50000000  0.67945923  1
  Sc  Sc7  1  0.50000000  0.50000000  0.92967299  1
  Sc  Sc8  1  0.50000000  0.50000000  0.07363435  1
  Sc  Sc9  1  0.50000000  0.50000000  0.32032701  1
  Sc  Sc10  1  0.50000000  0.50000000  0.57054077  1
  Sc  Sc11  1  0.50000000  0.50000000  0.82053456  1
  B  B12  1  -0.00000000  0.00000000  0.37504182  1
  B  B13  1  0.00000000  0.00000000  0.62500000  1
  B  B14  1  0.00000000  0.00000000  0.87495818  1
  C  C15  1  0.50000000  0.50000000  0.99950685  1
  C  C16  1  0.50000000  0.50000000  0.25049315  1
  C  C17  1  0.50000000  0.50000000  0.50000915  1
  C  C18  1  0.50000000  0.50000000  0.74999085  1
  C  C19  1  -0.00000000  -0.00000000  0.17237690  1
  C  C20  1  0.00000000  0.00000000  0.42222522  1
  C  C21  1  0.00000000  -0.00000000  0.67210995  1
  C  C22  1  -0.00000000  0.00000000  0.92180702  1
  C  C23  1  0.00000000  0.00000000  0.07762310  1
  C  C24  1  0.00000000  -0.00000000  0.32819298  1
  C  C25  1  -0.00000000  -0.00000000  0.57789005  1
  C  C26  1  -0.00000000  -0.00000000  0.82777478  1
