# generated using pymatgen
data_CaNdGaO4
_symmetry_space_group_name_H-M   'P 1'
_cell_length_a   5.41557652
_cell_length_b   5.53565853
_cell_length_c   6.61321292
_cell_angle_alpha   90.00000000
_cell_angle_beta   65.82962825
_cell_angle_gamma   90.00000000
_symmetry_Int_Tables_number   1
_chemical_formula_structural   CaNdGaO4
_chemical_formula_sum   'Ca2 Nd2 Ga2 O8'
_cell_volume   180.87535161
_cell_formula_units_Z   2
loop_
 _symmetry_equiv_pos_site_id
 _symmetry_equiv_pos_as_xyz
  1  'x, y, z'
loop_
 _atom_site_type_symbol
 _atom_site_label
 _atom_site_symmetry_multiplicity
 _atom_site_fract_x
 _atom_site_fract_y
 _atom_site_fract_z
 _atom_site_occupancy
  Ca  Ca0  1  0.64568736  0.98473783  0.70862527  1
  Ca  Ca1  1  0.85431264  0.48473783  0.29137473  1
  Nd  Nd2  1  0.36058103  0.01755599  0.27883795  1
  Nd  Nd3  1  0.13941897  0.51755599  0.72116205  1
  Ga  Ga4  1  0.50406294  0.50202413  0.99187413  1
  Ga  Ga5  1  0.99593706  0.00202413  0.00812587  1
  O  O6  1  0.66954741  0.55253708  0.66090518  1
  O  O7  1  0.32702067  0.44603582  0.34595866  1
  O  O8  1  0.83045259  0.05253708  0.33909482  1
  O  O9  1  0.17297933  0.94603582  0.65404134  1
  O  O10  1  0.26768179  0.24855457  0.96734601  1
  O  O11  1  0.23231821  0.74855457  0.03265399  1
  O  O12  1  0.73502780  0.74855457  0.03265399  1
  O  O13  1  0.76497220  0.24855457  0.96734601  1
