# generated using pymatgen
data_AlAu4
_symmetry_space_group_name_H-M   'P 1'
_cell_length_a   2.96940566
_cell_length_b   2.96940566
_cell_length_c   10.91795119
_cell_angle_alpha   85.85175485
_cell_angle_beta   94.14824515
_cell_angle_gamma   109.48494631
_symmetry_Int_Tables_number   1
_chemical_formula_structural   AlAu4
_chemical_formula_sum   'Al1 Au4'
_cell_volume   90.39748052
_cell_formula_units_Z   1
loop_
 _symmetry_equiv_pos_site_id
 _symmetry_equiv_pos_as_xyz
  1  'x, y, z'
loop_
 _atom_site_type_symbol
 _atom_site_label
 _atom_site_symmetry_multiplicity
 _atom_site_fract_x
 _atom_site_fract_y
 _atom_site_fract_z
 _atom_site_occupancy
  Al  Al0  1  0.00000000  -0.00000000  -0.00000000  1
  Au  Au1  1  0.38694427  0.61305573  0.17805280  1
  Au  Au2  1  0.80128984  0.19871016  0.39405126  1
  Au  Au3  1  0.19871016  0.80128984  0.60594874  1
  Au  Au4  1  0.61305573  0.38694427  0.82194720  1
