# generated using pymatgen
data_Cd4Si(SeS)3
_symmetry_space_group_name_H-M   'P 1'
_cell_length_a   7.31724591
_cell_length_b   7.35094034
_cell_length_c   12.82695484
_cell_angle_alpha   90.07977605
_cell_angle_beta   73.42744840
_cell_angle_gamma   119.84848453
_symmetry_Int_Tables_number   1
_chemical_formula_structural   Cd4Si(SeS)3
_chemical_formula_sum   'Cd8 Si2 Se6 S6'
_cell_volume   565.30171414
_cell_formula_units_Z   2
loop_
 _symmetry_equiv_pos_site_id
 _symmetry_equiv_pos_as_xyz
  1  'x, y, z'
loop_
 _atom_site_type_symbol
 _atom_site_label
 _atom_site_symmetry_multiplicity
 _atom_site_fract_x
 _atom_site_fract_y
 _atom_site_fract_z
 _atom_site_occupancy
  Cd  Cd0  1  0.43026110  0.50658800  0.50320075  1
  Cd  Cd1  1  0.07312615  0.00658800  0.00320075  1
  Cd  Cd2  1  0.05453991  0.80838041  0.49846469  1
  Cd  Cd3  1  0.75537581  0.30838041  0.99846469  1
  Cd  Cd4  1  0.41160551  0.58072425  0.15256124  1
  Cd  Cd5  1  0.51655750  0.08072425  0.65256124  1
  Cd  Cd6  1  0.75536965  0.05906769  0.30778635  1
  Cd  Cd7  1  0.49591169  0.55906769  0.80778635  1
  Si  Si8  1  0.92317726  0.61674781  0.24601235  1
  Si  Si9  1  0.94755820  0.11674781  0.74601235  1
  Se  Se10  1  0.06650159  0.94410242  0.29683884  1
  Se  Se11  1  0.08076199  0.44410242  0.79683884  1
  Se  Se12  1  0.54505327  0.41769436  0.29592425  1
  Se  Se13  1  0.07671684  0.91769436  0.79592425  1
  Se  Se14  1  0.07795825  0.65516576  0.05950839  1
  Se  Se15  1  0.01769912  0.15516576  0.55950839  1
  S  S16  1  0.70831579  0.98850845  0.11588339  1
  S  S17  1  0.66430927  0.48850845  0.61588339  1
  S  S18  1  0.03893680  0.45117505  0.32022036  1
  S  S19  1  0.59201790  0.95117505  0.82022036  1
  S  S20  1  0.43538432  0.36184582  0.99359940  1
  S  S21  1  0.43286211  0.86184582  0.49359940  1
