# generated using pymatgen
data_Ce3Y
_symmetry_space_group_name_H-M   'P 1'
_cell_length_a   3.44763016
_cell_length_b   3.44763016
_cell_length_c   11.21317331
_cell_angle_alpha   90.00000000
_cell_angle_beta   90.00000000
_cell_angle_gamma   119.99988293
_symmetry_Int_Tables_number   1
_chemical_formula_structural   Ce3Y
_chemical_formula_sum   'Ce3 Y1'
_cell_volume   115.42530242
_cell_formula_units_Z   1
loop_
 _symmetry_equiv_pos_site_id
 _symmetry_equiv_pos_as_xyz
  1  'x, y, z'
loop_
 _atom_site_type_symbol
 _atom_site_label
 _atom_site_symmetry_multiplicity
 _atom_site_fract_x
 _atom_site_fract_y
 _atom_site_fract_z
 _atom_site_occupancy
  Ce  Ce0  1  0.33325764  0.66674236  0.25000000  1
  Ce  Ce1  1  0.00003387  0.99996613  0.49398987  1
  Ce  Ce2  1  0.00003387  0.99996613  0.00601013  1
  Y  Y3  1  0.66667463  0.33332537  0.75000000  1
