# generated using pymatgen
data_Ce3NdC8
_symmetry_space_group_name_H-M   'P 1'
_cell_length_a   3.79753236
_cell_length_b   3.79753236
_cell_length_c   12.76635327
_cell_angle_alpha   90.00000000
_cell_angle_beta   90.00000000
_cell_angle_gamma   90.00000000
_symmetry_Int_Tables_number   1
_chemical_formula_structural   Ce3NdC8
_chemical_formula_sum   'Ce3 Nd1 C8'
_cell_volume   184.10679795
_cell_formula_units_Z   1
loop_
 _symmetry_equiv_pos_site_id
 _symmetry_equiv_pos_as_xyz
  1  'x, y, z'
loop_
 _atom_site_type_symbol
 _atom_site_label
 _atom_site_symmetry_multiplicity
 _atom_site_fract_x
 _atom_site_fract_y
 _atom_site_fract_z
 _atom_site_occupancy
  Ce  Ce0  1  0.50000000  0.50000000  0.25144765  1
  Ce  Ce1  1  0.00000000  0.00000000  0.50000000  1
  Ce  Ce2  1  0.50000000  0.50000000  0.74855235  1
  Nd  Nd3  1  0.00000000  0.00000000  -0.00000000  1
  C  C4  1  0.00000000  0.00000000  0.20023149  1
  C  C5  1  0.50000000  0.50000000  0.44868600  1
  C  C6  1  0.00000000  -0.00000000  0.69763773  1
  C  C7  1  0.50000000  0.50000000  0.94913621  1
  C  C8  1  0.50000000  0.50000000  0.05086379  1
  C  C9  1  0.00000000  0.00000000  0.30236227  1
  C  C10  1  0.50000000  0.50000000  0.55131400  1
  C  C11  1  0.00000000  -0.00000000  0.79976851  1
