# generated using pymatgen
data_Ba2Co4BrO7
_symmetry_space_group_name_H-M   'P 1'
_cell_length_a   6.00225491
_cell_length_b   5.98256201
_cell_length_c   16.16757247
_cell_angle_alpha   89.98781444
_cell_angle_beta   100.69765058
_cell_angle_gamma   59.89103695
_symmetry_Int_Tables_number   1
_chemical_formula_structural   Ba2Co4BrO7
_chemical_formula_sum   'Ba4 Co8 Br2 O14'
_cell_volume   490.51386931
_cell_formula_units_Z   2
loop_
 _symmetry_equiv_pos_site_id
 _symmetry_equiv_pos_as_xyz
  1  'x, y, z'
loop_
 _atom_site_type_symbol
 _atom_site_label
 _atom_site_symmetry_multiplicity
 _atom_site_fract_x
 _atom_site_fract_y
 _atom_site_fract_z
 _atom_site_occupancy
  Ba  Ba0  1  0.13534940  0.43071629  0.70301062  1
  Ba  Ba1  1  0.86305508  0.56928371  0.29698938  1
  Ba  Ba2  1  0.42301347  0.28848401  0.14247793  1
  Ba  Ba3  1  0.56901955  0.71151599  0.85752207  1
  Co  Co4  1  0.49998386  0.00011225  0.49994523  1
  Co  Co5  1  0.49985879  0.50000000  0.50000000  1
  Co  Co6  1  0.00015088  -0.00011225  0.50005477  1
  Co  Co7  1  0.79874466  0.09568818  0.69479631  1
  Co  Co8  1  0.19963653  0.90431182  0.30520369  1
  Co  Co9  1  0.43746616  0.77735000  0.65268042  1
  Co  Co10  1  0.56213575  0.22265000  0.34731958  1
  Co  Co11  1  -0.00001156  0.50000000  0.50000000  1
  Br  Br12  1  0.68141964  0.65740853  0.08118484  1
  Br  Br13  1  0.25764332  0.34259147  0.91881516  1
  O  O14  1  0.16244570  0.92141797  0.72971169  1
  O  O15  1  0.64444478  0.92196496  0.73031203  1
  O  O16  1  0.64708497  0.43470096  0.73126330  1
  O  O17  1  0.83609771  0.07803504  0.26968797  1
  O  O18  1  0.35415198  0.07858203  0.27028831  1
  O  O19  1  0.35052263  0.56529904  0.26873670  1
  O  O20  1  0.28429186  0.85960918  0.42834890  1
  O  O21  1  0.71555214  0.14039082  0.57165110  1
  O  O22  1  0.69856834  0.65092215  0.57095485  1
  O  O23  1  0.22137776  0.65089653  0.57083629  1
  O  O24  1  0.22045827  0.12880794  0.56970151  1
  O  O25  1  0.30143800  0.34910347  0.42916371  1
  O  O26  1  0.77853564  0.34907785  0.42904515  1
  O  O27  1  0.77956469  0.87119206  0.43029849  1
