# generated using pymatgen
data_Bi2TeSe2
_symmetry_space_group_name_H-M   'P 1'
_cell_length_a   4.27943004
_cell_length_b   4.27943004
_cell_length_c   10.43344025
_cell_angle_alpha   78.16567609
_cell_angle_beta   78.16567609
_cell_angle_gamma   60.00000622
_symmetry_Int_Tables_number   1
_chemical_formula_structural   Bi2TeSe2
_chemical_formula_sum   'Bi2 Te1 Se2'
_cell_volume   160.76741004
_cell_formula_units_Z   1
loop_
 _symmetry_equiv_pos_site_id
 _symmetry_equiv_pos_as_xyz
  1  'x, y, z'
loop_
 _atom_site_type_symbol
 _atom_site_label
 _atom_site_symmetry_multiplicity
 _atom_site_fract_x
 _atom_site_fract_y
 _atom_site_fract_z
 _atom_site_occupancy
  Bi  Bi0  1  0.39452312  0.39452312  0.81643065  1
  Bi  Bi1  1  0.60217909  0.60217909  0.19346274  1
  Te  Te2  1  0.78739114  0.78739114  0.63782657  1
  Se  Se3  1  0.99780209  0.99780209  0.00659372  1
  Se  Se4  1  0.21810456  0.21810456  0.34568632  1
