# generated using pymatgen
data_Nd2NiO4
_symmetry_space_group_name_H-M   'P 1'
_cell_length_a   5.41718877
_cell_length_b   5.69321812
_cell_length_c   6.66164810
_cell_angle_alpha   90.00000000
_cell_angle_beta   113.99113164
_cell_angle_gamma   90.00000000
_symmetry_Int_Tables_number   1
_chemical_formula_structural   Nd2NiO4
_chemical_formula_sum   'Nd4 Ni2 O8'
_cell_volume   187.70401608
_cell_formula_units_Z   2
loop_
 _symmetry_equiv_pos_site_id
 _symmetry_equiv_pos_as_xyz
  1  'x, y, z'
loop_
 _atom_site_type_symbol
 _atom_site_label
 _atom_site_symmetry_multiplicity
 _atom_site_fract_x
 _atom_site_fract_y
 _atom_site_fract_z
 _atom_site_occupancy
  O  O0  1  0.32033983  0.42672808  0.64068063  1
  O  O1  1  0.67965991  0.57327153  0.35932025  1
  O  O2  1  0.17965999  0.92672788  0.35932013  1
  O  O3  1  0.82033975  0.07327173  0.64068075  1
  O  O4  1  0.27204180  0.24999990  0.04408298  1
  O  O5  1  0.22795805  0.74999971  0.95591630  1
  O  O6  1  0.77204173  0.24999990  0.04408310  1
  O  O7  1  0.72795797  0.74999971  0.95591642  1
  Ni  Ni8  1  0.00000000  0.00000000  0.00000000  1
  Ni  Ni9  1  0.49999992  0.49999980  0.00000012  1
  Nd  Nd10  1  0.63718716  0.98299366  0.27437401  1
  Nd  Nd11  1  0.36281262  0.01700595  0.72562540  1
  Nd  Nd12  1  0.86281254  0.48299386  0.72562552  1
  Nd  Nd13  1  0.13718724  0.51700754  0.27437389  1
