# generated using pymatgen
data_Si4Pb2O11
_symmetry_space_group_name_H-M   'P 1'
_cell_length_a   8.69005706
_cell_length_b   9.79876044
_cell_length_c   13.21157162
_cell_angle_alpha   90.00000000
_cell_angle_beta   90.00000000
_cell_angle_gamma   90.00000000
_symmetry_Int_Tables_number   1
_chemical_formula_structural   Si4Pb2O11
_chemical_formula_sum   'Si16 Pb8 O44'
_cell_volume   1124.98893702
_cell_formula_units_Z   4
loop_
 _symmetry_equiv_pos_site_id
 _symmetry_equiv_pos_as_xyz
  1  'x, y, z'
loop_
 _atom_site_type_symbol
 _atom_site_label
 _atom_site_symmetry_multiplicity
 _atom_site_fract_x
 _atom_site_fract_y
 _atom_site_fract_z
 _atom_site_occupancy
  Si  Si0  1  0.18507112  0.18511890  0.73039442  1
  Si  Si1  1  0.68657369  0.31494188  0.77264921  1
  Si  Si2  1  0.81492888  0.31488110  0.23039442  1
  Si  Si3  1  0.31342631  0.18505812  0.27264921  1
  Si  Si4  1  0.81342631  0.81494188  0.27264921  1
  Si  Si5  1  0.31492888  0.68511890  0.23039442  1
  Si  Si6  1  0.18657369  0.68505812  0.77264921  1
  Si  Si7  1  0.68507112  0.81488110  0.73039442  1
  Si  Si8  1  0.86348552  0.07273249  0.69843177  1
  Si  Si9  1  0.36418114  0.42837390  0.80395017  1
  Si  Si10  1  0.13651448  0.42726751  0.19843177  1
  Si  Si11  1  0.63581886  0.07162610  0.30395017  1
  Si  Si12  1  0.13581886  0.92837390  0.30395017  1
  Si  Si13  1  0.63651448  0.57273249  0.19843177  1
  Si  Si14  1  0.86418114  0.57162610  0.80395017  1
  Si  Si15  1  0.36348552  0.92726751  0.69843177  1
  Pb  Pb16  1  0.03917743  0.19746889  0.47429553  1
  Pb  Pb17  1  0.53658641  0.30490009  0.03058455  1
  Pb  Pb18  1  0.96082257  0.30253111  0.97429553  1
  Pb  Pb19  1  0.46341359  0.19509991  0.53058455  1
  Pb  Pb20  1  0.96341359  0.80490009  0.53058455  1
  Pb  Pb21  1  0.46082257  0.69746889  0.97429553  1
  Pb  Pb22  1  0.03658641  0.69509991  0.03058455  1
  Pb  Pb23  1  0.53917743  0.80253111  0.47429553  1
  O  O24  1  0.72291675  0.18558286  0.69693942  1
  O  O25  1  0.22443117  0.31370608  0.80654742  1
  O  O26  1  0.27708325  0.31441714  0.19693942  1
  O  O27  1  0.77556883  0.18629392  0.30654742  1
  O  O28  1  0.27556883  0.81370608  0.30654742  1
  O  O29  1  0.77708325  0.68558286  0.19693942  1
  O  O30  1  0.72443117  0.68629392  0.80654742  1
  O  O31  1  0.22291675  0.81441714  0.69693942  1
  O  O32  1  0.80477083  0.93802889  0.76091450  1
  O  O33  1  0.30447787  0.56132391  0.74065349  1
  O  O34  1  0.19522917  0.56197111  0.26091450  1
  O  O35  1  0.69552213  0.93867609  0.24065349  1
  O  O36  1  0.19552213  0.06132391  0.24065349  1
  O  O37  1  0.69522917  0.43802889  0.26091450  1
  O  O38  1  0.80447787  0.43867609  0.74065349  1
  O  O39  1  0.30477083  0.06197111  0.76091450  1
  O  O40  1  0.00794052  0.14242802  0.76099342  1
  O  O41  1  0.50905264  0.35769288  0.74312079  1
  O  O42  1  0.99205948  0.35757198  0.26099342  1
  O  O43  1  0.49094736  0.14230712  0.24312079  1
  O  O44  1  0.99094736  0.85769288  0.24312079  1
  O  O45  1  0.49205948  0.64242802  0.26099342  1
  O  O46  1  0.00905264  0.64230712  0.74312079  1
  O  O47  1  0.50794052  0.85757198  0.76099342  1
  O  O48  1  0.91367263  0.03277766  0.58419913  1
  O  O49  1  0.41527030  0.46972090  0.91776465  1
  O  O50  1  0.08632737  0.46722234  0.08419913  1
  O  O51  1  0.58472970  0.03027910  0.41776465  1
  O  O52  1  0.08472970  0.96972090  0.41776465  1
  O  O53  1  0.58632737  0.53277766  0.08419913  1
  O  O54  1  0.91527030  0.53027910  0.91776465  1
  O  O55  1  0.41367263  0.96722234  0.58419913  1
  O  O56  1  0.20527510  0.22145574  0.61095842  1
  O  O57  1  0.70875407  0.27751423  0.89189250  1
  O  O58  1  0.79472490  0.27854426  0.11095842  1
  O  O59  1  0.29124593  0.22248577  0.39189250  1
  O  O60  1  0.79124593  0.77751423  0.39189250  1
  O  O61  1  0.29472490  0.72145574  0.11095842  1
  O  O62  1  0.20875407  0.72248577  0.89189250  1
  O  O63  1  0.70527510  0.77854426  0.61095842  1
  O  O64  1  0.90546590  0.39928842  0.51471059  1
  O  O65  1  0.09453410  0.10071158  0.01471059  1
  O  O66  1  0.59453410  0.89928842  0.01471059  1
  O  O67  1  0.40546590  0.60071158  0.51471059  1
