# generated using pymatgen
data_Al2Co3GeO8
_symmetry_space_group_name_H-M   'P 1'
_cell_length_a   5.88712228
_cell_length_b   5.88712228
_cell_length_c   5.88712228
_cell_angle_alpha   90.48596553
_cell_angle_beta   59.30809405
_cell_angle_gamma   119.87174356
_symmetry_Int_Tables_number   1
_chemical_formula_structural   Al2Co3GeO8
_chemical_formula_sum   'Al2 Co3 Ge1 O8'
_cell_volume   143.64654580
_cell_formula_units_Z   1
loop_
 _symmetry_equiv_pos_site_id
 _symmetry_equiv_pos_as_xyz
  1  'x, y, z'
loop_
 _atom_site_type_symbol
 _atom_site_label
 _atom_site_symmetry_multiplicity
 _atom_site_fract_x
 _atom_site_fract_y
 _atom_site_fract_z
 _atom_site_occupancy
  Al  Al0  1  0.23638912  0.85619033  0.38019880  1
  Al  Al1  1  0.76361088  0.38341208  0.38019880  1
  Co  Co2  1  0.50000000  0.75488596  0.74511404  1
  Co  Co3  1  0.75558348  0.37801697  0.86639955  1
  Co  Co4  1  0.24441652  0.37801697  0.37756650  1
  Ge  Ge5  1  0.00000000  0.99068528  0.00931472  1
  O  O6  1  0.26373494  0.11878058  0.61748447  1
  O  O7  1  0.73626506  0.11878058  0.14495436  1
  O  O8  1  0.75137538  0.61198439  0.13939099  1
  O  O9  1  0.24862462  0.10923364  0.13939099  1
  O  O10  1  0.21818063  0.62590473  0.15591465  1
  O  O11  1  0.78181937  0.62590473  0.59227590  1
  O  O12  1  0.75968802  0.15878990  0.60089811  1
  O  O13  1  0.24031198  0.63941387  0.60089811  1
