# generated using pymatgen
data_Ti3FeS6
_symmetry_space_group_name_H-M   'P 1'
_cell_length_a   5.93561199
_cell_length_b   5.93561199
_cell_length_c   11.59406913
_cell_angle_alpha   90.00000000
_cell_angle_beta   90.00000000
_cell_angle_gamma   119.99999996
_symmetry_Int_Tables_number   1
_chemical_formula_structural   Ti3FeS6
_chemical_formula_sum   'Ti6 Fe2 S12'
_cell_volume   353.75087608
_cell_formula_units_Z   2
loop_
 _symmetry_equiv_pos_site_id
 _symmetry_equiv_pos_as_xyz
  1  'x, y, z'
loop_
 _atom_site_type_symbol
 _atom_site_label
 _atom_site_symmetry_multiplicity
 _atom_site_fract_x
 _atom_site_fract_y
 _atom_site_fract_z
 _atom_site_occupancy
  S  S0  1  0.66822855  0.66610495  0.62445468  1
  S  S1  1  0.33389505  0.00212360  0.62445468  1
  S  S2  1  0.99787640  0.33177145  0.62445468  1
  S  S3  1  0.33389505  0.33177145  0.87554532  1
  S  S4  1  0.99787640  0.66610495  0.87554532  1
  S  S5  1  0.66822855  0.00212360  0.87554532  1
  S  S6  1  0.33177145  0.33389505  0.37554532  1
  S  S7  1  0.66610495  0.99787640  0.37554532  1
  S  S8  1  0.33177145  0.99787640  0.12445468  1
  S  S9  1  0.00212360  0.33389505  0.12445468  1
  S  S10  1  0.66610495  0.66822855  0.12445468  1
  S  S11  1  0.00212360  0.66822855  0.37554532  1
  Ti  Ti12  1  0.66666667  0.33333333  0.49910592  1
  Ti  Ti13  1  0.66666667  0.33333333  0.00089408  1
  Ti  Ti14  1  0.33333333  0.66666667  0.50089408  1
  Ti  Ti15  1  0.33333333  0.66666667  0.99910592  1
  Ti  Ti16  1  0.66666667  0.33333333  0.75000000  1
  Ti  Ti17  1  0.33333333  0.66666667  0.25000000  1
  Fe  Fe18  1  0.00000000  0.00000000  0.50000000  1
  Fe  Fe19  1  0.00000000  0.00000000  0.00000000  1
