# generated using pymatgen
data_BaSm2FeS5
_symmetry_space_group_name_H-M   'P 1'
_cell_length_a   7.82072708
_cell_length_b   7.82072707
_cell_length_c   8.72053833
_cell_angle_alpha   116.64162091
_cell_angle_beta   116.64162086
_cell_angle_gamma   90.00000003
_symmetry_Int_Tables_number   1
_chemical_formula_structural   BaSm2FeS5
_chemical_formula_sum   'Ba2 Sm4 Fe2 S10'
_cell_volume   412.41758077
_cell_formula_units_Z   2
loop_
 _symmetry_equiv_pos_site_id
 _symmetry_equiv_pos_as_xyz
  1  'x, y, z'
loop_
 _atom_site_type_symbol
 _atom_site_label
 _atom_site_symmetry_multiplicity
 _atom_site_fract_x
 _atom_site_fract_y
 _atom_site_fract_z
 _atom_site_occupancy
  S  S0  1  0.48624033  0.98624033  0.26774554  1
  S  S1  1  0.21849479  0.71849479  0.73225446  1
  S  S2  1  0.51375967  0.01375967  0.73225446  1
  S  S3  1  0.71849479  0.51375967  0.73225446  1
  S  S4  1  0.01375967  0.21849479  0.73225446  1
  S  S5  1  0.28150521  0.48624033  0.26774554  1
  S  S6  1  0.98624033  0.78150521  0.26774554  1
  S  S7  1  0.78150521  0.28150521  0.26774554  1
  S  S8  1  0.00000000  0.00000000  0.00000000  1
  S  S9  1  0.50000000  0.50000000  0.00000000  1
  Fe  Fe10  1  0.75000000  0.25000000  0.50000000  1
  Fe  Fe11  1  0.25000000  0.75000000  0.50000000  1
  Ba  Ba12  1  0.75000000  0.75000000  0.50000000  1
  Ba  Ba13  1  0.25000000  0.25000000  0.50000000  1
  Sm  Sm14  1  0.66187001  0.83812999  0.00000000  1
  Sm  Sm15  1  0.16187001  0.66187001  0.00000000  1
  Sm  Sm16  1  0.83812999  0.33812999  0.00000000  1
  Sm  Sm17  1  0.33812999  0.16187001  0.00000000  1
