# generated using pymatgen
data_Si5Pt12
_symmetry_space_group_name_H-M   'P 1'
_cell_length_a   5.58278594
_cell_length_b   7.34174414
_cell_length_c   7.34174414
_cell_angle_alpha   81.68828945
_cell_angle_beta   67.65340652
_cell_angle_gamma   67.65340651
_symmetry_Int_Tables_number   1
_chemical_formula_structural   Si5Pt12
_chemical_formula_sum   'Si5 Pt12'
_cell_volume   257.41853218
_cell_formula_units_Z   1
loop_
 _symmetry_equiv_pos_site_id
 _symmetry_equiv_pos_as_xyz
  1  'x, y, z'
loop_
 _atom_site_type_symbol
 _atom_site_label
 _atom_site_symmetry_multiplicity
 _atom_site_fract_x
 _atom_site_fract_y
 _atom_site_fract_z
 _atom_site_occupancy
  Si  Si0  1  0.80396470  0.77366308  0.61840751  1
  Si  Si1  1  0.42237221  0.38159249  0.77366308  1
  Si  Si2  1  0.57762779  0.61840751  0.22633692  1
  Si  Si3  1  0.19603530  0.22633692  0.38159249  1
  Si  Si4  1  0.00000000  0.00000000  0.00000000  1
  Pt  Pt5  1  0.07561611  0.29618243  0.05279807  1
  Pt  Pt6  1  0.42459661  0.70381757  0.94720193  1
  Pt  Pt7  1  0.12841418  0.94720193  0.29618243  1
  Pt  Pt8  1  0.62820146  0.94720193  0.29618243  1
  Pt  Pt9  1  0.92438389  0.70381757  0.94720193  1
  Pt  Pt10  1  0.57540339  0.29618243  0.05279807  1
  Pt  Pt11  1  0.87158582  0.05279807  0.70381757  1
  Pt  Pt12  1  0.37179854  0.05279807  0.70381757  1
  Pt  Pt13  1  0.63292023  0.31126987  0.42288966  1
  Pt  Pt14  1  0.05580989  0.57711034  0.31126987  1
  Pt  Pt15  1  0.94419011  0.42288966  0.68873013  1
  Pt  Pt16  1  0.36707977  0.68873013  0.57711034  1
