# generated using pymatgen
data_Er2FeSbO7
_symmetry_space_group_name_H-M   'P 1'
_cell_length_a   7.19727826
_cell_length_b   7.15483762
_cell_length_c   7.28292378
_cell_angle_alpha   90.00000000
_cell_angle_beta   59.60557386
_cell_angle_gamma   119.80512769
_symmetry_Int_Tables_number   1
_chemical_formula_structural   Er2FeSbO7
_chemical_formula_sum   'Er4 Fe2 Sb2 O14'
_cell_volume   264.38214653
_cell_formula_units_Z   2
loop_
 _symmetry_equiv_pos_site_id
 _symmetry_equiv_pos_as_xyz
  1  'x, y, z'
loop_
 _atom_site_type_symbol
 _atom_site_label
 _atom_site_symmetry_multiplicity
 _atom_site_fract_x
 _atom_site_fract_y
 _atom_site_fract_z
 _atom_site_occupancy
  Er  Er0  1  0.50000000  0.50000000  -0.00000000  1
  Er  Er1  1  0.50000000  -0.00000000  -0.00000000  1
  Er  Er2  1  0.00000000  -0.00000000  0.50000000  1
  Er  Er3  1  -0.00000000  -0.00000000  -0.00000000  1
  Fe  Fe4  1  0.50000000  -0.00000000  0.50000000  1
  Fe  Fe5  1  0.50000000  0.50000000  0.50000000  1
  Sb  Sb6  1  0.00000000  0.50000000  -0.00000000  1
  Sb  Sb7  1  0.00000000  0.50000000  0.50000000  1
  O  O8  1  0.25206273  0.12603137  0.12396863  1
  O  O9  1  0.74793727  0.87396863  0.87603137  1
  O  O10  1  0.66779948  0.83389974  0.41610026  1
  O  O11  1  0.82795610  0.41397805  0.83602195  1
  O  O12  1  0.25264011  0.83531842  0.83430033  1
  O  O13  1  0.25264011  0.41732169  0.41305956  1
  O  O14  1  0.25264011  0.41732169  0.83430033  1
  O  O15  1  0.25264011  0.83531842  0.41305956  1
  O  O16  1  0.33220052  0.16610026  0.58389974  1
  O  O17  1  0.17204390  0.58602195  0.16397805  1
  O  O18  1  0.74735989  0.16468158  0.16569967  1
  O  O19  1  0.74735989  0.58267831  0.58694044  1
  O  O20  1  0.74735989  0.58267831  0.16569967  1
  O  O21  1  0.74735989  0.16468158  0.58694044  1
