# generated using pymatgen
data_U2FeS5
_symmetry_space_group_name_H-M   'P 1'
_cell_length_a   5.99064334
_cell_length_b   6.94821922
_cell_length_c   7.84221084
_cell_angle_alpha   96.87810359
_cell_angle_beta   112.45443748
_cell_angle_gamma   90.00000000
_symmetry_Int_Tables_number   1
_chemical_formula_structural   U2FeS5
_chemical_formula_sum   'U4 Fe2 S10'
_cell_volume   299.13453028
_cell_formula_units_Z   2
loop_
 _symmetry_equiv_pos_site_id
 _symmetry_equiv_pos_as_xyz
  1  'x, y, z'
loop_
 _atom_site_type_symbol
 _atom_site_label
 _atom_site_symmetry_multiplicity
 _atom_site_fract_x
 _atom_site_fract_y
 _atom_site_fract_z
 _atom_site_occupancy
  S  S0  1  0.30798492  0.30861525  0.44270972  1
  S  S1  1  0.86527520  0.19138475  0.55729028  1
  S  S2  1  0.69201508  0.69138475  0.55729028  1
  S  S3  1  0.13472480  0.80861525  0.44270972  1
  S  S4  1  0.52458035  0.07516967  0.81517583  1
  S  S5  1  0.70940452  0.42483033  0.18482417  1
  S  S6  1  0.90236296  0.75000000  0.00000000  1
  S  S7  1  0.09763704  0.25000000  0.00000000  1
  S  S8  1  0.29059548  0.57516967  0.81517583  1
  S  S9  1  0.47541965  0.92483033  0.18482417  1
  Fe  Fe10  1  0.00000000  0.50000000  0.50000000  1
  Fe  Fe11  1  0.50000000  0.00000000  0.50000000  1
  U  U12  1  0.31372322  0.58529524  0.21868625  1
  U  U13  1  0.09503697  0.91470476  0.78131375  1
  U  U14  1  0.90496303  0.08529524  0.21868625  1
  U  U15  1  0.68627678  0.41470476  0.78131375  1
