# generated using pymatgen
data_FeCO3
_symmetry_space_group_name_H-M   'P 1'
_cell_length_a   5.80226604
_cell_length_b   5.80226605
_cell_length_c   5.80226604
_cell_angle_alpha   48.61163610
_cell_angle_beta   48.61163607
_cell_angle_gamma   48.61163612
_symmetry_Int_Tables_number   1
_chemical_formula_structural   FeCO3
_chemical_formula_sum   'Fe2 C2 O6'
_cell_volume   100.86701099
_cell_formula_units_Z   2
loop_
 _symmetry_equiv_pos_site_id
 _symmetry_equiv_pos_as_xyz
  1  'x, y, z'
loop_
 _atom_site_type_symbol
 _atom_site_label
 _atom_site_symmetry_multiplicity
 _atom_site_fract_x
 _atom_site_fract_y
 _atom_site_fract_z
 _atom_site_occupancy
  C  C0  1  0.75000111  0.74999946  0.74999988  1
  C  C1  1  0.24999926  0.25000066  0.25000071  1
  O  O2  1  0.02173747  0.75000072  0.47826164  1
  O  O3  1  0.74999915  0.47826311  0.02173832  1
  O  O4  1  0.52173735  0.97826317  0.24999924  1
  O  O5  1  0.47826301  0.02173695  0.74999964  1
  O  O6  1  0.97826289  0.24999940  0.52173724  1
  O  O7  1  0.24999891  0.52173701  0.97826383  1
  Fe  Fe8  1  0.49999953  0.49999879  0.50000072  1
  Fe  Fe9  1  0.00000000  0.00000000  0.00000000  1
