# generated using pymatgen
data_Zn(InS2)2
_symmetry_space_group_name_H-M   'P 1'
_cell_length_a   3.92356100
_cell_length_b   3.92356100
_cell_length_c   26.60876922
_cell_angle_alpha   90.00000000
_cell_angle_beta   90.00000000
_cell_angle_gamma   119.99999999
_symmetry_Int_Tables_number   1
_chemical_formula_structural   Zn(InS2)2
_chemical_formula_sum   'Zn2 In4 S8'
_cell_volume   354.74496221
_cell_formula_units_Z   2
loop_
 _symmetry_equiv_pos_site_id
 _symmetry_equiv_pos_as_xyz
  1  'x, y, z'
loop_
 _atom_site_type_symbol
 _atom_site_label
 _atom_site_symmetry_multiplicity
 _atom_site_fract_x
 _atom_site_fract_y
 _atom_site_fract_z
 _atom_site_occupancy
  S  S0  1  0.66666667  0.33333333  0.57183224  1
  S  S1  1  0.33333333  0.66666667  0.19673102  1
  S  S2  1  0.66666667  0.33333333  0.06332257  1
  S  S3  1  0.33333333  0.66666667  0.93667743  1
  S  S4  1  0.66666667  0.33333333  0.80326898  1
  S  S5  1  0.66666667  0.33333333  0.30305051  1
  S  S6  1  0.33333333  0.66666667  0.42816776  1
  S  S7  1  0.33333333  0.66666667  0.69694949  1
  Zn  Zn8  1  0.33333333  0.66666667  0.57836888  1
  Zn  Zn9  1  0.66666667  0.33333333  0.42163112  1
  In  In10  1  0.33333333  0.66666667  0.10612414  1
  In  In11  1  0.66666667  0.33333333  0.89387586  1
  In  In12  1  0.00000000  0.00000000  0.74242347  1
  In  In13  1  0.00000000  0.00000000  0.25757653  1
