# generated using pymatgen
data_YbNiB4
_symmetry_space_group_name_H-M   'P 1'
_cell_length_a   3.37061643
_cell_length_b   5.87816584
_cell_length_c   11.40257291
_cell_angle_alpha   90.00000000
_cell_angle_beta   90.00000000
_cell_angle_gamma   90.00000000
_symmetry_Int_Tables_number   1
_chemical_formula_structural   YbNiB4
_chemical_formula_sum   'Yb4 Ni4 B16'
_cell_volume   225.91966006
_cell_formula_units_Z   4
loop_
 _symmetry_equiv_pos_site_id
 _symmetry_equiv_pos_as_xyz
  1  'x, y, z'
loop_
 _atom_site_type_symbol
 _atom_site_label
 _atom_site_symmetry_multiplicity
 _atom_site_fract_x
 _atom_site_fract_y
 _atom_site_fract_z
 _atom_site_occupancy
  Yb  Yb0  1  0.00000000  0.62782701  0.34967731  1
  Yb  Yb1  1  0.00000000  0.12782701  0.15032269  1
  Yb  Yb2  1  0.00000000  0.87217299  0.84967731  1
  Yb  Yb3  1  0.00000000  0.37217299  0.65032269  1
  Ni  Ni4  1  -0.00000000  0.13555111  0.41137489  1
  Ni  Ni5  1  0.00000000  0.36444889  0.91137489  1
  Ni  Ni6  1  -0.00000000  0.63555111  0.08862511  1
  Ni  Ni7  1  -0.00000000  0.86444889  0.58862511  1
  B  B8  1  0.50000000  0.01993515  0.69058596  1
  B  B9  1  0.50000000  0.78208117  0.18407504  1
  B  B10  1  0.50000000  0.61224949  0.95271042  1
  B  B11  1  0.50000000  0.28208117  0.31592496  1
  B  B12  1  0.50000000  0.88775051  0.45271042  1
  B  B13  1  0.50000000  0.86055088  0.03257786  1
  B  B14  1  0.50000000  0.63944912  0.53257786  1
  B  B15  1  0.50000000  0.11224949  0.54728958  1
  B  B16  1  0.50000000  0.21791883  0.81592496  1
  B  B17  1  0.50000000  0.48006485  0.19058596  1
  B  B18  1  0.50000000  0.51993515  0.80941404  1
  B  B19  1  0.50000000  0.98006485  0.30941404  1
  B  B20  1  0.50000000  0.38775051  0.04728958  1
  B  B21  1  0.50000000  0.71791883  0.68407504  1
  B  B22  1  0.50000000  0.36055088  0.46742214  1
  B  B23  1  0.50000000  0.13944912  0.96742214  1
