# generated using pymatgen
data_Sc2Al4(CO)3
_symmetry_space_group_name_H-M   'P 1'
_cell_length_a   3.36175609
_cell_length_b   3.36175681
_cell_length_c   14.41340382
_cell_angle_alpha   90.00232896
_cell_angle_beta   83.30050783
_cell_angle_gamma   119.99937955
_symmetry_Int_Tables_number   1
_chemical_formula_structural   Sc2Al4(CO)3
_chemical_formula_sum   'Sc2 Al4 C3 O3'
_cell_volume   139.78389895
_cell_formula_units_Z   1
loop_
 _symmetry_equiv_pos_site_id
 _symmetry_equiv_pos_as_xyz
  1  'x, y, z'
loop_
 _atom_site_type_symbol
 _atom_site_label
 _atom_site_symmetry_multiplicity
 _atom_site_fract_x
 _atom_site_fract_y
 _atom_site_fract_z
 _atom_site_occupancy
  Sc  Sc0  1  0.00147362  0.00074797  0.99777841  1
  Sc  Sc1  1  0.99458162  0.49740728  0.50801111  1
  Al  Al2  1  0.53989786  0.77009715  0.69000500  1
  Al  Al3  1  0.46779387  0.23389517  0.29831096  1
  Al  Al4  1  0.76885812  0.38442843  0.84671345  1
  Al  Al5  1  0.23515550  0.61737430  0.14747020  1
  C  C6  1  0.38909594  0.69448384  0.91642022  1
  C  C7  1  0.58351838  0.29151374  0.12496788  1
  C  C8  1  0.85823615  0.42922291  0.71254093  1
  O  O9  1  0.38617431  0.19317732  0.42064837  1
  O  O10  1  0.62931248  0.81472874  0.55595878  1
  O  O11  1  0.14586914  0.57292316  0.28120770  1
