# generated using pymatgen
data_BRh2
_symmetry_space_group_name_H-M   'P 1'
_cell_length_a   3.84564446
_cell_length_b   5.39987836
_cell_length_c   6.78833992
_cell_angle_alpha   90.00000000
_cell_angle_beta   90.00000000
_cell_angle_gamma   90.00000000
_symmetry_Int_Tables_number   1
_chemical_formula_structural   BRh2
_chemical_formula_sum   'B4 Rh8'
_cell_volume   140.96675027
_cell_formula_units_Z   4
loop_
 _symmetry_equiv_pos_site_id
 _symmetry_equiv_pos_as_xyz
  1  'x, y, z'
loop_
 _atom_site_type_symbol
 _atom_site_label
 _atom_site_symmetry_multiplicity
 _atom_site_fract_x
 _atom_site_fract_y
 _atom_site_fract_z
 _atom_site_occupancy
  B  B0  1  0.25000000  0.73274522  0.60084735  1
  B  B1  1  0.25000000  0.23274522  0.89915265  1
  B  B2  1  0.75000000  0.76725478  0.10084735  1
  B  B3  1  0.75000000  0.26725478  0.39915265  1
  Rh  Rh4  1  0.25000000  0.50691658  0.35068303  1
  Rh  Rh5  1  0.25000000  0.62492569  0.90348577  1
  Rh  Rh6  1  0.75000000  0.37507431  0.09651423  1
  Rh  Rh7  1  0.25000000  0.00691658  0.14931697  1
  Rh  Rh8  1  0.75000000  0.49308342  0.64931697  1
  Rh  Rh9  1  0.75000000  0.99308342  0.85068303  1
  Rh  Rh10  1  0.75000000  0.87507431  0.40348577  1
  Rh  Rh11  1  0.25000000  0.12492569  0.59651423  1
