# generated using pymatgen
data_BaLa(CoO3)2
_symmetry_space_group_name_H-M   'P 1'
_cell_length_a   3.88561291
_cell_length_b   3.88561291
_cell_length_c   7.93077910
_cell_angle_alpha   90.00000000
_cell_angle_beta   90.00000000
_cell_angle_gamma   90.00000000
_symmetry_Int_Tables_number   1
_chemical_formula_structural   BaLa(CoO3)2
_chemical_formula_sum   'Ba1 La1 Co2 O6'
_cell_volume   119.73880520
_cell_formula_units_Z   1
loop_
 _symmetry_equiv_pos_site_id
 _symmetry_equiv_pos_as_xyz
  1  'x, y, z'
loop_
 _atom_site_type_symbol
 _atom_site_label
 _atom_site_symmetry_multiplicity
 _atom_site_fract_x
 _atom_site_fract_y
 _atom_site_fract_z
 _atom_site_occupancy
  O  O0  1  0.49999898  0.49999898  0.50000038  1
  O  O1  1  0.49999898  0.00000000  0.77182115  1
  O  O2  1  0.00000000  0.49999898  0.77182115  1
  O  O3  1  0.49999898  0.00000000  0.22817960  1
  O  O4  1  0.49999898  0.49999898  0.00000000  1
  O  O5  1  0.00000000  0.49999898  0.22817960  1
  Co  Co6  1  0.49999898  0.49999898  0.75122144  1
  Co  Co7  1  0.49999898  0.49999898  0.24877801  1
  Ba  Ba8  1  0.00000000  0.00000000  0.50000038  1
  La  La9  1  0.00000000  0.00000000  0.00000000  1
