# generated using pymatgen
data_LiNb(PO3)4
_symmetry_space_group_name_H-M   'P 1'
_cell_length_a   7.40469349
_cell_length_b   7.40469330
_cell_length_c   9.93003256
_cell_angle_alpha   81.04861545
_cell_angle_beta   70.58527068
_cell_angle_gamma   110.21658059
_symmetry_Int_Tables_number   1
_chemical_formula_structural   LiNb(PO3)4
_chemical_formula_sum   'Li2 Nb2 P8 O24'
_cell_volume   458.81186684
_cell_formula_units_Z   2
loop_
 _symmetry_equiv_pos_site_id
 _symmetry_equiv_pos_as_xyz
  1  'x, y, z'
loop_
 _atom_site_type_symbol
 _atom_site_label
 _atom_site_symmetry_multiplicity
 _atom_site_fract_x
 _atom_site_fract_y
 _atom_site_fract_z
 _atom_site_occupancy
  Li  Li0  1  0.00000000  0.50000000  0.00000000  1
  Li  Li1  1  0.00000000  0.00000000  0.50000000  1
  Nb  Nb2  1  0.80658736  0.05658736  0.25000000  1
  Nb  Nb3  1  0.19341264  0.94341264  0.75000000  1
  P  P4  1  0.26421109  0.72356586  0.47726636  1
  P  P5  1  0.73578891  0.27643414  0.52273364  1
  P  P6  1  0.49077368  0.29521794  0.19867968  1
  P  P7  1  0.00610139  0.31054564  0.69867968  1
  P  P8  1  0.99389861  0.68945436  0.30132032  1
  P  P9  1  0.29916678  0.25852155  0.97726636  1
  P  P10  1  0.70083322  0.74147845  0.02273364  1
  P  P11  1  0.50922632  0.70478206  0.80132032  1
  O  O12  1  0.78850602  0.50112600  0.43732502  1
  O  O13  1  0.30180624  0.71895000  0.82428973  1
  O  O14  1  0.56154898  0.77416896  0.93732502  1
  O  O15  1  0.10954229  0.28183888  0.08159171  1
  O  O16  1  0.74369097  0.90564258  0.09433836  1
  O  O17  1  0.86343160  0.19113400  0.41840829  1
  O  O18  1  0.89045771  0.71816112  0.91840829  1
  O  O19  1  0.49998094  0.83802933  0.40566164  1
  O  O20  1  0.18592357  0.69377925  0.34753540  1
  O  O21  1  0.04323974  0.12609597  0.67571027  1
  O  O22  1  0.95676026  0.87390403  0.32428973  1
  O  O23  1  0.21149398  0.49887400  0.56267498  1
  O  O24  1  0.96303637  0.34959588  0.84428963  1
  O  O25  1  0.25630903  0.09435742  0.90566164  1
  O  O26  1  0.45868536  0.46654103  0.84753540  1
  O  O27  1  0.54131464  0.53345897  0.15246460  1
  O  O28  1  0.30611449  0.19267399  0.34428963  1
  O  O29  1  0.69388551  0.80732601  0.65571037  1
  O  O30  1  0.43845102  0.22583104  0.06267498  1
  O  O31  1  0.03696363  0.65040412  0.15571037  1
  O  O32  1  0.13656840  0.80886600  0.58159171  1
  O  O33  1  0.69819376  0.28105000  0.17571027  1
  O  O34  1  0.81407643  0.30622075  0.65246460  1
  O  O35  1  0.50001906  0.16197067  0.59433836  1
