# generated using pymatgen
data_CdH8C4(S2N3)2
_symmetry_space_group_name_H-M   'P 1'
_cell_length_a   4.16783643
_cell_length_b   8.01458729
_cell_length_c   10.20254712
_cell_angle_alpha   84.31445548
_cell_angle_beta   80.91024913
_cell_angle_gamma   73.48146752
_symmetry_Int_Tables_number   1
_chemical_formula_structural   CdH8C4(S2N3)2
_chemical_formula_sum   'Cd1 H8 C4 S4 N6'
_cell_volume   322.10373792
_cell_formula_units_Z   1
loop_
 _symmetry_equiv_pos_site_id
 _symmetry_equiv_pos_as_xyz
  1  'x, y, z'
loop_
 _atom_site_type_symbol
 _atom_site_label
 _atom_site_symmetry_multiplicity
 _atom_site_fract_x
 _atom_site_fract_y
 _atom_site_fract_z
 _atom_site_occupancy
  H  H0  1  0.12070398  0.47899455  0.86780248  1
  H  H1  1  0.87929602  0.52100545  0.13219752  1
  H  H2  1  0.11197038  0.50681049  0.69662983  1
  H  H3  1  0.88802962  0.49318951  0.30337017  1
  H  H4  1  0.43340279  0.89936233  0.72112013  1
  H  H5  1  0.56659721  0.10063767  0.27887987  1
  H  H6  1  0.73429471  0.75915142  0.61043440  1
  H  H7  1  0.26570529  0.24084858  0.38956560  1
  C  C8  1  0.76660755  0.69635268  0.80840097  1
  C  C9  1  0.23339245  0.30364732  0.19159903  1
  C  C10  1  0.89704373  0.17689167  0.69230371  1
  C  C11  1  0.10295627  0.82310833  0.30769629  1
  N  N12  1  0.62976205  0.78878971  0.70582727  1
  N  N13  1  0.97763302  0.44686665  0.21126665  1
  N  N14  1  0.02236698  0.55313335  0.78873335  1
  N  N15  1  0.37023795  0.21121029  0.29417273  1
  N  N16  1  0.02813942  0.08489024  0.77917685  1
  N  N17  1  0.97186058  0.91510976  0.22082315  1
  S  S18  1  0.72688344  0.29996876  0.57231364  1
  S  S19  1  0.27311656  0.70003124  0.42768636  1
  S  S20  1  0.62256340  0.75739692  0.97092815  1
  S  S21  1  0.37743660  0.24260308  0.02907185  1
  Cd  Cd22  1  0.00000000  0.00000000  0.00000000  1
