# generated using pymatgen
data_V(PO3)4
_symmetry_space_group_name_H-M   'P 1'
_cell_length_a   9.38305423
_cell_length_b   10.40416354
_cell_length_c   9.09816069
_cell_angle_alpha   90.00000000
_cell_angle_beta   90.81572506
_cell_angle_gamma   90.00000000
_symmetry_Int_Tables_number   1
_chemical_formula_structural   V(PO3)4
_chemical_formula_sum   'V4 P16 O48'
_cell_volume   888.09818669
_cell_formula_units_Z   4
loop_
 _symmetry_equiv_pos_site_id
 _symmetry_equiv_pos_as_xyz
  1  'x, y, z'
loop_
 _atom_site_type_symbol
 _atom_site_label
 _atom_site_symmetry_multiplicity
 _atom_site_fract_x
 _atom_site_fract_y
 _atom_site_fract_z
 _atom_site_occupancy
  O  O0  1  0.10205850  0.70158132  0.59201199  1
  O  O1  1  0.11167206  0.72017825  0.91400838  1
  O  O2  1  0.11110381  0.26923720  0.75066283  1
  O  O3  1  0.11156468  0.93985581  0.73851595  1
  O  O4  1  0.14765437  0.48321192  0.87519698  1
  O  O5  1  0.12639577  0.37736976  0.24292412  1
  O  O6  1  0.13679218  0.14021702  0.41093353  1
  O  O7  1  0.13504610  0.13478420  0.10204225  1
  O  O8  1  0.13517290  0.86912145  0.23373328  1
  O  O9  1  0.16778636  0.46534926  0.60076438  1
  O  O10  1  0.19772367  0.58423612  0.37405045  1
  O  O11  1  0.21114994  0.57868804  0.11411540  1
  O  O12  1  0.28884959  0.07868795  0.88588427  1
  O  O13  1  0.30227693  0.08423603  0.62594925  1
  O  O14  1  0.33221424  0.96534935  0.39923642  1
  O  O15  1  0.36482662  0.36912137  0.76626639  1
  O  O16  1  0.36495342  0.63478428  0.89795852  1
  O  O17  1  0.89794104  0.29841885  0.40798799  1
  O  O18  1  0.37360376  0.87736985  0.75707555  1
  O  O19  1  0.35234516  0.98321201  0.12480269  1
  O  O20  1  0.38843593  0.43985670  0.26148374  1
  O  O21  1  0.38889572  0.76923632  0.24933684  1
  O  O22  1  0.38832747  0.22017817  0.08599129  1
  O  O23  1  0.39794103  0.20158124  0.40798768  1
  O  O24  1  0.60205851  0.79841893  0.59201230  1
  O  O25  1  0.61167207  0.77982201  0.91400869  1
  O  O26  1  0.61110382  0.23076288  0.75066315  1
  O  O27  1  0.61156469  0.56014348  0.73851627  1
  O  O28  1  0.64765438  0.01678816  0.87519729  1
  O  O29  1  0.62639578  0.12263033  0.24292443  1
  O  O30  1  0.63679220  0.35978307  0.41093273  1
  O  O31  1  0.63504612  0.36521589  0.10204146  1
  O  O32  1  0.63517291  0.63087880  0.23373359  1
  O  O33  1  0.66778637  0.03465082  0.60076359  1
  O  O34  1  0.69772368  0.91576414  0.37405076  1
  O  O35  1  0.71114995  0.92131222  0.11411572  1
  O  O36  1  0.78884960  0.42131213  0.88588458  1
  O  O37  1  0.80227694  0.41576405  0.62594956  1
  O  O38  1  0.83221426  0.53465091  0.39923563  1
  O  O39  1  0.86482663  0.13087872  0.76626671  1
  O  O40  1  0.86495344  0.86521598  0.89795773  1
  O  O41  1  0.86320843  0.85978315  0.58906648  1
  O  O42  1  0.87360377  0.62263041  0.75707586  1
  O  O43  1  0.85234517  0.51678825  0.12480300  1
  O  O44  1  0.88843594  0.06014339  0.26148406  1
  O  O45  1  0.88889573  0.73076297  0.24933715  1
  O  O46  1  0.88832748  0.27982192  0.08599160  1
  O  O47  1  0.36320842  0.64021711  0.58906727  1
  P  P48  1  0.20727686  0.38234028  0.75023882  1
  P  P49  1  0.21307579  0.61003547  0.94386846  1
  P  P50  1  0.21263268  0.60408423  0.54700632  1
  P  P51  1  0.23517158  0.48379240  0.24820159  1
  P  P52  1  0.26482902  0.98379248  0.75179921  1
  P  P53  1  0.28736684  0.10408415  0.45299335  1
  P  P54  1  0.28692373  0.11003539  0.05613231  1
  P  P55  1  0.29272266  0.88234036  0.24976196  1
  P  P56  1  0.70727688  0.11765981  0.75023803  1
  P  P57  1  0.71307581  0.88996382  0.94386767  1
  P  P58  1  0.79272268  0.61765989  0.24976117  1
  P  P59  1  0.73517160  0.01620769  0.24820080  1
  P  P60  1  0.76482903  0.51620778  0.75179952  1
  P  P61  1  0.78736686  0.39591594  0.45299367  1
  P  P62  1  0.78692375  0.38996470  0.05613152  1
  P  P63  1  0.71263269  0.89591603  0.54700663  1
  V  V64  1  0.01190777  0.21412582  0.25188002  1
  V  V65  1  0.48809284  0.71412590  0.74811967  1
  V  V66  1  0.51190778  0.28587427  0.25188033  1
  V  V67  1  0.98809285  0.78587436  0.74811999  1
