# generated using pymatgen
data_LiBi2(PO4)3
_symmetry_space_group_name_H-M   'P 1'
_cell_length_a   9.17112896
_cell_length_b   12.95110120
_cell_length_c   9.25915537
_cell_angle_alpha   90.00000000
_cell_angle_beta   90.00000000
_cell_angle_gamma   89.49558037
_symmetry_Int_Tables_number   1
_chemical_formula_structural   LiBi2(PO4)3
_chemical_formula_sum   'Li4 Bi8 P12 O48'
_cell_volume   1099.72484998
_cell_formula_units_Z   4
loop_
 _symmetry_equiv_pos_site_id
 _symmetry_equiv_pos_as_xyz
  1  'x, y, z'
loop_
 _atom_site_type_symbol
 _atom_site_label
 _atom_site_symmetry_multiplicity
 _atom_site_fract_x
 _atom_site_fract_y
 _atom_site_fract_z
 _atom_site_occupancy
  Li  Li0  1  0.79285085  0.18004511  0.27026579  1
  Li  Li1  1  0.21136115  0.17997330  0.77199274  1
  Li  Li2  1  0.29285085  0.68004511  0.22973421  1
  Li  Li3  1  0.71136115  0.67997330  0.72800726  1
  Bi  Bi4  1  0.75081243  0.88881180  0.53302208  1
  Bi  Bi5  1  0.76091980  0.61157910  0.05596641  1
  Bi  Bi6  1  0.25102523  0.62228080  0.55885593  1
  Bi  Bi7  1  0.24185984  0.88328830  0.02819369  1
  Bi  Bi8  1  0.25081243  0.38881180  0.96697792  1
  Bi  Bi9  1  0.75102523  0.12228080  0.94114407  1
  Bi  Bi10  1  0.74185984  0.38328830  0.47180631  1
  Bi  Bi11  1  0.26091980  0.11157910  0.44403359  1
  P  P12  1  0.38624821  0.34493899  0.59881159  1
  P  P13  1  0.55612216  0.00453964  0.24638998  1
  P  P14  1  0.88624821  0.84493899  0.90118841  1
  P  P15  1  0.05612216  0.50453964  0.25361002  1
  P  P16  1  0.60214825  0.65158428  0.40535141  1
  P  P17  1  0.10678074  0.84867931  0.39659913  1
  P  P18  1  0.94777204  0.49754063  0.75636407  1
  P  P19  1  0.90771575  0.15012271  0.59789445  1
  P  P20  1  0.40771575  0.65012271  0.90210555  1
  P  P21  1  0.10214825  0.15158428  0.09464859  1
  P  P22  1  0.44777204  0.99754063  0.74363593  1
  P  P23  1  0.60678074  0.34867931  0.10340087  1
  O  O24  1  0.03768886  0.56076168  0.64983140  1
  O  O25  1  0.64198922  0.54496120  0.46538502  1
  O  O26  1  0.66759048  0.67809939  0.25570429  1
  O  O27  1  0.34559952  0.45481876  0.55398838  1
  O  O28  1  0.81613913  0.81279051  0.75271950  1
  O  O29  1  0.13653638  0.96652626  0.40741234  1
  O  O30  1  0.66294360  0.30529912  0.24965018  1
  O  O31  1  0.03492704  0.43476830  0.86990031  1
  O  O32  1  0.67464069  0.28908988  0.97683985  1
  O  O33  1  0.47946463  0.07553921  0.36157409  1
  O  O34  1  0.16864415  0.22484422  0.97540485  1
  O  O35  1  0.31613913  0.31279051  0.74728050  1
  O  O36  1  0.53492704  0.93476830  0.63009969  1
  O  O37  1  0.16294360  0.80529912  0.25034982  1
  O  O38  1  0.34650022  0.08020507  0.66786802  1
  O  O39  1  0.57933231  0.65687533  0.90368194  1
  O  O40  1  0.16759048  0.17809939  0.24429571  1
  O  O41  1  0.16324093  0.57941295  0.32766294  1
  O  O42  1  0.93640429  0.83560793  0.39367828  1
  O  O43  1  0.66864415  0.72484422  0.52459515  1
  O  O44  1  0.53768886  0.06076168  0.85016860  1
  O  O45  1  0.31563443  0.27589068  0.47810452  1
  O  O46  1  0.64355524  0.91689359  0.32476201  1
  O  O47  1  0.86818392  0.19504751  0.74655449  1
  O  O48  1  0.43640429  0.33560793  0.10632172  1
  O  O49  1  0.14198922  0.04496120  0.03461498  1
  O  O50  1  0.66324093  0.07941295  0.17233706  1
  O  O51  1  0.95120409  0.45066557  0.35522386  1
  O  O52  1  0.84176382  0.21310921  0.47127799  1
  O  O53  1  0.85159464  0.41717791  0.68060557  1
  O  O54  1  0.45120409  0.95066557  0.14477614  1
  O  O55  1  0.17464069  0.78908988  0.52316015  1
  O  O56  1  0.81563443  0.77589068  0.02189548  1
  O  O57  1  0.07933231  0.15687533  0.59631806  1
  O  O58  1  0.34176382  0.71310921  0.02872201  1
  O  O59  1  0.63653638  0.46652626  0.09258766  1
  O  O60  1  0.93556307  0.16804052  0.10738533  1
  O  O61  1  0.84559852  0.95481876  0.94601162  1
  O  O62  1  0.55190311  0.32658054  0.60881029  1
  O  O63  1  0.05190311  0.82658054  0.89118971  1
  O  O64  1  0.36818392  0.69504751  0.75344551  1
  O  O65  1  0.85982577  0.03670566  0.58507814  1
  O  O66  1  0.14355524  0.41689359  0.17523799  1
  O  O67  1  0.97946463  0.57553921  0.13842591  1
  O  O68  1  0.35982577  0.53670566  0.91492186  1
  O  O69  1  0.84650022  0.58020507  0.83213198  1
  O  O70  1  0.35159464  0.91717791  0.81939443  1
  O  O71  1  0.43556307  0.66804052  0.39261467  1
