# generated using pymatgen
data_B5H9N
_symmetry_space_group_name_H-M   'P 1'
_cell_length_a   7.29130222
_cell_length_b   7.50090766
_cell_length_c   18.21689149
_cell_angle_alpha   90.00000000
_cell_angle_beta   90.00000000
_cell_angle_gamma   90.00000000
_symmetry_Int_Tables_number   1
_chemical_formula_structural   B5H9N
_chemical_formula_sum   'B40 H72 N8'
_cell_volume   996.30702003
_cell_formula_units_Z   8
loop_
 _symmetry_equiv_pos_site_id
 _symmetry_equiv_pos_as_xyz
  1  'x, y, z'
loop_
 _atom_site_type_symbol
 _atom_site_label
 _atom_site_symmetry_multiplicity
 _atom_site_fract_x
 _atom_site_fract_y
 _atom_site_fract_z
 _atom_site_occupancy
  H  H0  1  0.95048276  0.75000000  0.50694327  1
  H  H1  1  0.45048276  0.25000000  0.99305673  1
  H  H2  1  0.04951724  0.25000000  0.49305673  1
  H  H3  1  0.54951724  0.75000000  0.00694327  1
  H  H4  1  0.47721662  0.75000000  0.44933913  1
  H  H5  1  0.97721662  0.25000000  0.05066087  1
  H  H6  1  0.52278338  0.25000000  0.55066087  1
  H  H7  1  0.02278338  0.75000000  0.94933913  1
  H  H8  1  0.29646880  0.58393376  0.54250124  1
  H  H9  1  0.79646880  0.41606624  0.95749876  1
  H  H10  1  0.70353120  0.08393376  0.45749876  1
  H  H11  1  0.20353120  0.91606624  0.04250124  1
  H  H12  1  0.70353120  0.41606624  0.45749876  1
  H  H13  1  0.20353120  0.58393376  0.04250124  1
  H  H14  1  0.29646880  0.91606624  0.54250124  1
  H  H15  1  0.79646880  0.08393376  0.95749876  1
  H  H16  1  0.05782018  0.45508732  0.57290926  1
  H  H17  1  0.55782018  0.54491268  0.92709074  1
  H  H18  1  0.94217982  0.95508732  0.42709074  1
  H  H19  1  0.44217982  0.04491268  0.07290926  1
  H  H20  1  0.94217982  0.54491268  0.42709074  1
  H  H21  1  0.44217982  0.45508732  0.07290926  1
  H  H22  1  0.05782018  0.04491268  0.57290926  1
  H  H23  1  0.55782018  0.95508732  0.92709074  1
  H  H24  1  0.03502265  0.58421788  0.67262518  1
  H  H25  1  0.53502265  0.41578212  0.82737482  1
  H  H26  1  0.96497735  0.08421788  0.32737482  1
  H  H27  1  0.46497735  0.91578212  0.17262518  1
  H  H28  1  0.96497735  0.41578212  0.32737482  1
  H  H29  1  0.76894926  0.75000000  0.61648232  1
  H  H30  1  0.46497735  0.58421788  0.17262518  1
  H  H31  1  0.53502265  0.08421788  0.82737482  1
  H  H32  1  0.42269768  0.45076565  0.68927002  1
  H  H33  1  0.92269768  0.54923435  0.81072998  1
  H  H34  1  0.57730232  0.95076565  0.31072998  1
  H  H35  1  0.07730232  0.04923435  0.18927002  1
  H  H36  1  0.57730232  0.54923435  0.31072998  1
  H  H37  1  0.07730232  0.45076565  0.18927002  1
  H  H38  1  0.42269768  0.04923435  0.68927002  1
  H  H39  1  0.92269768  0.95076565  0.81072998  1
  H  H40  1  0.89193415  0.75000000  0.23985308  1
  H  H41  1  0.39193415  0.25000000  0.26014692  1
  H  H42  1  0.10806585  0.25000000  0.76014692  1
  H  H43  1  0.60806585  0.75000000  0.73985308  1
  H  H44  1  0.14076210  0.75000000  0.41103405  1
  H  H45  1  0.64076210  0.25000000  0.08896595  1
  H  H46  1  0.85923790  0.25000000  0.58896595  1
  H  H47  1  0.35923790  0.75000000  0.91103405  1
  H  H48  1  0.13526982  0.75000000  0.81230445  1
  H  H49  1  0.63526982  0.25000000  0.68769555  1
  H  H50  1  0.86473018  0.25000000  0.18769555  1
  H  H51  1  0.36473018  0.75000000  0.31230445  1
  H  H52  1  0.27125799  0.85935541  0.75561780  1
  H  H53  1  0.77125799  0.14064459  0.74438220  1
  H  H54  1  0.72874201  0.35935541  0.24438220  1
  H  H55  1  0.22874201  0.64064459  0.25561780  1
  H  H56  1  0.72874201  0.14064459  0.24438220  1
  H  H57  1  0.22874201  0.85935541  0.25561780  1
  H  H58  1  0.27125799  0.64064459  0.75561780  1
  H  H59  1  0.77125799  0.35935541  0.74438220  1
  H  H60  1  0.90397427  0.64067427  0.07804705  1
  H  H61  1  0.40397427  0.35932573  0.42195295  1
  H  H62  1  0.09602573  0.14067427  0.92195295  1
  H  H63  1  0.59602573  0.85932573  0.57804705  1
  H  H64  1  0.09602573  0.35932573  0.92195295  1
  H  H65  1  0.59602573  0.64067427  0.57804705  1
  H  H66  1  0.90397427  0.85932573  0.07804705  1
  H  H67  1  0.40397427  0.14067427  0.42195295  1
  H  H68  1  0.73105074  0.75000000  0.11648232  1
  H  H69  1  0.23105074  0.25000000  0.38351768  1
  H  H70  1  0.26894926  0.25000000  0.88351768  1
  H  H71  1  0.03502265  0.91578212  0.67262518  1
  B  B72  1  0.78832060  0.75000000  0.49599158  1
  B  B73  1  0.28832060  0.25000000  0.00400842  1
  B  B74  1  0.21167940  0.25000000  0.50400842  1
  B  B75  1  0.71167940  0.75000000  0.99599158  1
  B  B76  1  0.63081170  0.75000000  0.42559777  1
  B  B77  1  0.13081170  0.25000000  0.07440223  1
  B  B78  1  0.36918830  0.25000000  0.57440223  1
  B  B79  1  0.86918830  0.75000000  0.92559777  1
  B  B80  1  0.23910514  0.44497345  0.56565187  1
  B  B81  1  0.73910514  0.55502655  0.93434813  1
  B  B82  1  0.76089486  0.94497345  0.43434813  1
  B  B83  1  0.26089486  0.05502655  0.06565187  1
  B  B84  1  0.76089486  0.55502655  0.43434813  1
  B  B85  1  0.26089486  0.44497345  0.06565187  1
  B  B86  1  0.23910514  0.05502655  0.56565187  1
  B  B87  1  0.73910514  0.94497345  0.93434813  1
  B  B88  1  0.07966337  0.44485673  0.64532513  1
  B  B89  1  0.57966337  0.55514327  0.85467487  1
  B  B90  1  0.92033663  0.94485673  0.35467487  1
  B  B91  1  0.42033663  0.05514327  0.14532513  1
  B  B92  1  0.92033663  0.55514327  0.35467487  1
  B  B93  1  0.42033663  0.44485673  0.14532513  1
  B  B94  1  0.07966337  0.05514327  0.64532513  1
  B  B95  1  0.57966337  0.94485673  0.85467487  1
  B  B96  1  0.31005785  0.37149754  0.65368714  1
  B  B97  1  0.81005785  0.62850246  0.84631286  1
  B  B98  1  0.68994215  0.87149754  0.34631286  1
  B  B99  1  0.18994215  0.12850246  0.15368714  1
  B  B100  1  0.68994215  0.62850246  0.34631286  1
  B  B101  1  0.18994215  0.37149754  0.15368714  1
  B  B102  1  0.31005785  0.12850246  0.65368714  1
  B  B103  1  0.81005785  0.87149754  0.84631286  1
  B  B104  1  0.86873575  0.75000000  0.30527127  1
  B  B105  1  0.36873575  0.25000000  0.19472873  1
  B  B106  1  0.13126425  0.25000000  0.69472873  1
  B  B107  1  0.63126425  0.75000000  0.80527127  1
  B  B108  1  0.07682057  0.75000000  0.35027296  1
  B  B109  1  0.57682057  0.25000000  0.14972704  1
  B  B110  1  0.92317943  0.25000000  0.64972704  1
  B  B111  1  0.42317943  0.75000000  0.85027296  1
  N  N112  1  0.68018422  0.75000000  0.57274658  1
  N  N113  1  0.18018422  0.25000000  0.92725342  1
  N  N114  1  0.31981578  0.25000000  0.42725342  1
  N  N115  1  0.81981578  0.75000000  0.07274658  1
  N  N116  1  0.23533830  0.75000000  0.28977176  1
  N  N117  1  0.73533830  0.25000000  0.21022824  1
  N  N118  1  0.76466170  0.25000000  0.71022824  1
  N  N119  1  0.26466170  0.75000000  0.78977176  1
