# generated using pymatgen
data_Ce2Nd2O7
_symmetry_space_group_name_H-M   'P 1'
_cell_length_a   9.57380695
_cell_length_b   9.58795350
_cell_length_c   9.66860630
_cell_angle_alpha   109.24753322
_cell_angle_beta   109.80763288
_cell_angle_gamma   108.97674881
_symmetry_Int_Tables_number   1
_chemical_formula_structural   Ce2Nd2O7
_chemical_formula_sum   'Ce8 Nd8 O28'
_cell_volume   686.37908372
_cell_formula_units_Z   4
loop_
 _symmetry_equiv_pos_site_id
 _symmetry_equiv_pos_as_xyz
  1  'x, y, z'
loop_
 _atom_site_type_symbol
 _atom_site_label
 _atom_site_symmetry_multiplicity
 _atom_site_fract_x
 _atom_site_fract_y
 _atom_site_fract_z
 _atom_site_occupancy
  Ce  Ce0  1  0.24858461  0.25081175  0.99425143  1
  Ce  Ce1  1  0.52641596  0.27268186  0.77020579  1
  Ce  Ce2  1  0.49868676  0.49474081  0.49595979  1
  Ce  Ce3  1  0.49371560  0.74487448  0.24882736  1
  Ce  Ce4  1  0.75892783  0.75536653  0.00393576  1
  Ce  Ce5  1  0.49571124  0.99696600  0.99505473  1
  Ce  Ce6  1  0.74844771  0.00313014  0.74988614  1
  Ce  Ce7  1  0.99760471  0.24655506  0.22801931  1
  Nd  Nd8  1  0.99434914  0.76584645  0.76321757  1
  Nd  Nd9  1  0.24080628  0.99759161  0.22547294  1
  Nd  Nd10  1  0.97293709  0.00782423  0.49548986  1
  Nd  Nd11  1  0.00602273  0.51097941  0.02943883  1
  Nd  Nd12  1  0.29505227  0.51908614  0.77267029  1
  Nd  Nd13  1  0.26957464  0.72512399  0.50449856  1
  Nd  Nd14  1  0.69872532  0.22950161  0.47869805  1
  Nd  Nd15  1  0.73388242  0.47907001  0.24164454  1
  O  O16  1  0.23414759  0.73790099  0.74603749  1
  O  O17  1  0.25442380  0.24063846  0.72569351  1
  O  O18  1  0.00035202  0.01755216  0.26141139  1
  O  O19  1  0.24626353  0.47099689  0.49554582  1
  O  O20  1  0.99576619  0.24064781  0.99255813  1
  O  O21  1  0.26491440  0.76978816  0.27613211  1
  O  O22  1  0.24901385  0.25692677  0.23545399  1
  O  O23  1  0.74131400  0.00677245  0.98999201  1
  O  O24  1  0.51001663  0.73839132  0.49820672  1
  O  O25  1  0.50267642  0.24102642  0.99829760  1
  O  O26  1  0.52734322  0.51427139  0.75815045  1
  O  O27  1  0.24333381  0.50529356  0.99197025  1
  O  O28  1  0.48341468  0.49348014  0.23665365  1
  O  O29  1  0.52473285  0.75751050  0.01477854  1
  O  O30  1  0.46766630  0.23267832  0.49828713  1
  O  O31  1  0.25386019  0.01334728  0.99462975  1
  O  O32  1  0.74680379  0.76828048  0.76291457  1
  O  O33  1  0.49287669  0.00609922  0.73105008  1
  O  O34  1  0.99253768  0.74075316  0.98906220  1
  O  O35  1  0.76249724  0.27497134  0.75663748  1
  O  O36  1  0.48593167  0.98625709  0.22478098  1
  O  O37  1  0.75330398  0.50630506  0.51219761  1
  O  O38  1  0.99376545  0.99448382  0.73671206  1
  O  O39  1  0.76926466  0.74794011  0.28075307  1
  O  O40  1  0.74383618  0.50685444  0.00610014  1
  O  O41  1  0.77420980  0.23663746  0.26835785  1
  O  O42  1  0.74219785  0.00947439  0.49690878  1
  O  O43  1  0.00199121  0.50394072  0.26618571  1
