# generated using pymatgen
data_Pu4ZrC5
_symmetry_space_group_name_H-M   'P 1'
_cell_length_a   3.46423957
_cell_length_b   3.46423957
_cell_length_c   14.46294167
_cell_angle_alpha   90.00000000
_cell_angle_beta   96.87840289
_cell_angle_gamma   120.00000000
_symmetry_Int_Tables_number   1
_chemical_formula_structural   Pu4ZrC5
_chemical_formula_sum   'Pu4 Zr1 C5'
_cell_volume   148.87100874
_cell_formula_units_Z   1
loop_
 _symmetry_equiv_pos_site_id
 _symmetry_equiv_pos_as_xyz
  1  'x, y, z'
loop_
 _atom_site_type_symbol
 _atom_site_label
 _atom_site_symmetry_multiplicity
 _atom_site_fract_x
 _atom_site_fract_y
 _atom_site_fract_z
 _atom_site_occupancy
  Pu  Pu0  1  0.19628206  0.09814103  0.29442308  1
  Pu  Pu1  1  0.99975857  0.49987929  0.49963786  1
  Pu  Pu2  1  0.80024143  0.90012071  0.70036214  1
  Pu  Pu3  1  0.60371794  0.30185897  0.90557692  1
  Zr  Zr4  1  0.40000000  0.70000000  0.10000000  1
  C  C5  1  0.20144455  0.60072227  0.80216682  1
  C  C6  1  0.40000000  0.20000000  0.60000000  1
  C  C7  1  0.59855545  0.79927773  0.39783318  1
  C  C8  1  0.00244244  0.00122122  0.00366365  1
  C  C9  1  0.79755756  0.39877878  0.19633635  1
