# generated using pymatgen
data_Sr(YS2)2
_symmetry_space_group_name_H-M   'P 1'
_cell_length_a   7.39651028
_cell_length_b   7.39651027
_cell_length_c   7.39650992
_cell_angle_alpha   109.40190882
_cell_angle_beta   109.40190727
_cell_angle_gamma   109.60993017
_symmetry_Int_Tables_number   1
_chemical_formula_structural   Sr(YS2)2
_chemical_formula_sum   'Sr2 Y4 S8'
_cell_volume   311.49910187
_cell_formula_units_Z   2
loop_
 _symmetry_equiv_pos_site_id
 _symmetry_equiv_pos_as_xyz
  1  'x, y, z'
loop_
 _atom_site_type_symbol
 _atom_site_label
 _atom_site_symmetry_multiplicity
 _atom_site_fract_x
 _atom_site_fract_y
 _atom_site_fract_z
 _atom_site_occupancy
  S  S0  1  0.48689809  0.98297696  0.85098170  1
  S  S1  1  0.13591639  0.13199526  0.14901830  1
  S  S2  1  0.36408361  0.51310191  0.99607887  1
  S  S3  1  0.63199526  0.63591639  0.64901830  1
  S  S4  1  0.48297696  0.98689809  0.35098170  1
  S  S5  1  0.01310191  0.86408361  0.49607887  1
  S  S6  1  0.86800474  0.51702304  0.00392113  1
  S  S7  1  0.01702304  0.36800474  0.50392113  1
  Sr  Sr8  1  0.62500000  0.37500000  0.25000000  1
  Sr  Sr9  1  0.87500000  0.12500000  0.75000000  1
  Y  Y10  1  0.12981332  0.75000000  0.87981332  1
  Y  Y11  1  0.25000000  0.62981332  0.37981332  1
  Y  Y12  1  0.37018668  0.25000000  0.62018668  1
  Y  Y13  1  0.75000000  0.87018668  0.12018668  1
