# generated using pymatgen
data_Na2TbO3
_symmetry_space_group_name_H-M   'P 1'
_cell_length_a   6.73726093
_cell_length_b   10.37785051
_cell_length_c   6.03394693
_cell_angle_alpha   29.29191994
_cell_angle_beta   54.86543177
_cell_angle_gamma   59.87325777
_symmetry_Int_Tables_number   1
_chemical_formula_structural   Na2TbO3
_chemical_formula_sum   'Na4 Tb2 O6'
_cell_volume   168.80294315
_cell_formula_units_Z   2
loop_
 _symmetry_equiv_pos_site_id
 _symmetry_equiv_pos_as_xyz
  1  'x, y, z'
loop_
 _atom_site_type_symbol
 _atom_site_label
 _atom_site_symmetry_multiplicity
 _atom_site_fract_x
 _atom_site_fract_y
 _atom_site_fract_z
 _atom_site_occupancy
  Na  Na0  1  1.00000000  0.00579410  0.99130884  1
  Na  Na1  1  1.00000000  0.65812799  0.01280852  1
  Na  Na2  1  0.50000000  0.32753890  0.00869116  1
  Na  Na3  1  0.50000000  0.67520601  0.98719148  1
  O  O4  1  0.25776947  0.02640902  0.41751440  1
  O  O5  1  0.24223053  0.30692398  0.58248560  1
  O  O6  1  0.74223053  0.02640902  0.50325854  1
  O  O7  1  0.25000000  0.66666700  0.50000000  1
  O  O8  1  0.75776947  0.30692398  0.49674146  1
  O  O9  1  0.75000000  0.66666700  0.50000000  1
  Tb  Tb10  1  0.00000000  0.35568222  0.96647616  1
  Tb  Tb11  1  0.50000000  0.97765078  0.03352384  1
