# generated using pymatgen
data_Er2Se3
_symmetry_space_group_name_H-M   'P 1'
_cell_length_a   22.43498811
_cell_length_b   8.63629386
_cell_length_c   8.63629396
_cell_angle_alpha   89.99999921
_cell_angle_beta   54.73062150
_cell_angle_gamma   54.73062104
_symmetry_Int_Tables_number   1
_chemical_formula_structural   Er2Se3
_chemical_formula_sum   'Er16 Se24'
_cell_volume   965.85750586
_cell_formula_units_Z   8
loop_
 _symmetry_equiv_pos_site_id
 _symmetry_equiv_pos_as_xyz
  1  'x, y, z'
loop_
 _atom_site_type_symbol
 _atom_site_label
 _atom_site_symmetry_multiplicity
 _atom_site_fract_x
 _atom_site_fract_y
 _atom_site_fract_z
 _atom_site_occupancy
  Er  Er0  1  0.99516259  0.12316474  0.76711017  1
  Er  Er1  1  0.08335384  0.62496874  0.37496874  1
  Er  Er2  1  0.16666700  0.25000000  0.63317276  1
  Er  Er3  1  0.33817041  0.37683526  0.25259794  1
  Er  Er4  1  0.24997916  0.87503126  0.12503126  1
  Er  Er5  1  0.33817041  0.10865251  0.73288983  1
  Er  Er6  1  0.16666700  0.75000000  0.86682724  1
  Er  Er7  1  0.49516259  0.26711017  0.62316474  1
  Er  Er8  1  0.66666700  0.36682724  0.25000000  1
  Er  Er9  1  0.58335384  0.87496874  0.12496874  1
  Er  Er10  1  0.66666700  0.13317276  0.75000000  1
  Er  Er11  1  0.49516259  0.74740206  0.89134749  1
  Er  Er12  1  0.74997916  0.62503126  0.37503126  1
  Er  Er13  1  0.83817041  0.23288983  0.60865251  1
  Er  Er14  1  0.99516259  0.39134749  0.24740206  1
  Er  Er15  1  0.83817041  0.75259794  0.87683526  1
  Se  Se16  1  0.12735987  0.48958648  0.99235976  1
  Se  Se17  1  0.04755928  0.35864027  0.49375399  1
  Se  Se18  1  0.04755928  0.99868089  0.36356718  1
  Se  Se19  1  0.28577372  0.14135973  0.13643282  1
  Se  Se20  1  0.28577372  0.50131911  0.00624601  1
  Se  Se21  1  0.12735987  0.62833293  0.62555965  1
  Se  Se22  1  0.20597313  0.87166707  0.50764024  1
  Se  Se23  1  0.45161232  0.49367166  0.99995917  1
  Se  Se24  1  0.38172168  0.35479513  0.50632834  1
  Se  Se25  1  0.20597313  0.01041352  0.87444035  1
  Se  Se26  1  0.38172168  0.00004083  0.34850762  1
  Se  Se27  1  0.62735987  0.12555965  0.12833293  1
  Se  Se28  1  0.62735987  0.49235976  0.98958648  1
  Se  Se29  1  0.45161232  0.65149238  0.64520487  1
  Se  Se30  1  0.54755928  0.86356718  0.49868089  1
  Se  Se31  1  0.78577372  0.50624601  0.00131911  1
  Se  Se32  1  0.70597313  0.37444035  0.51041352  1
  Se  Se33  1  0.54755928  0.99375399  0.85864027  1
  Se  Se34  1  0.95161232  0.14520487  0.15149238  1
  Se  Se35  1  0.70597313  0.00764024  0.37166707  1
  Se  Se36  1  0.95161232  0.49995917  0.99367166  1
  Se  Se37  1  0.78577372  0.63643282  0.64135973  1
  Se  Se38  1  0.88172168  0.84850762  0.50004083  1
  Se  Se39  1  0.88172168  0.00632834  0.85479513  1
