# generated using pymatgen
data_Gd2MgS4
_symmetry_space_group_name_H-M   'P 1'
_cell_length_a   7.23331269
_cell_length_b   7.23331292
_cell_length_c   7.23331302
_cell_angle_alpha   110.71393927
_cell_angle_beta   107.01338468
_cell_angle_gamma   110.71393617
_symmetry_Int_Tables_number   1
_chemical_formula_structural   Gd2MgS4
_chemical_formula_sum   'Gd4 Mg2 S8'
_cell_volume   290.93323390
_cell_formula_units_Z   2
loop_
 _symmetry_equiv_pos_site_id
 _symmetry_equiv_pos_as_xyz
  1  'x, y, z'
loop_
 _atom_site_type_symbol
 _atom_site_label
 _atom_site_symmetry_multiplicity
 _atom_site_fract_x
 _atom_site_fract_y
 _atom_site_fract_z
 _atom_site_occupancy
  Gd  Gd0  1  0.25000000  0.63233594  0.38233594  1
  Gd  Gd1  1  0.61766406  0.36766406  0.25000000  1
  Gd  Gd2  1  0.75000000  0.86766406  0.11766406  1
  Gd  Gd3  1  0.88233594  0.13233594  0.75000000  1
  Mg  Mg4  1  0.12500000  0.75000000  0.87500000  1
  Mg  Mg5  1  0.37500000  0.25000000  0.62500000  1
  S  S6  1  0.99722018  0.37830379  0.51071736  1
  S  S7  1  0.13241356  0.12169621  0.11891638  1
  S  S8  1  0.36758644  0.48650282  0.98928264  1
  S  S9  1  0.48928264  0.98650282  0.86758644  1
  S  S10  1  0.61891638  0.62169621  0.63241356  1
  S  S11  1  0.50277982  0.01349718  0.38108362  1
  S  S12  1  0.01071736  0.87830379  0.49722018  1
  S  S13  1  0.88108362  0.51349718  0.00277982  1
