# generated using pymatgen
data_CsS2N(O2F)2
_symmetry_space_group_name_H-M   'P 1'
_cell_length_a   8.11631816
_cell_length_b   8.69918919
_cell_length_c   10.79842905
_cell_angle_alpha   90.00000000
_cell_angle_beta   99.43957109
_cell_angle_gamma   90.00000000
_symmetry_Int_Tables_number   1
_chemical_formula_structural   CsS2N(O2F)2
_chemical_formula_sum   'Cs4 S8 N4 O16 F8'
_cell_volume   752.10333320
_cell_formula_units_Z   4
loop_
 _symmetry_equiv_pos_site_id
 _symmetry_equiv_pos_as_xyz
  1  'x, y, z'
loop_
 _atom_site_type_symbol
 _atom_site_label
 _atom_site_symmetry_multiplicity
 _atom_site_fract_x
 _atom_site_fract_y
 _atom_site_fract_z
 _atom_site_occupancy
  Cs  Cs0  1  0.14469159  0.24387587  0.91167135  1
  Cs  Cs1  1  0.35530841  0.74387587  0.58832865  1
  Cs  Cs2  1  0.85530841  0.75612413  0.08832865  1
  Cs  Cs3  1  0.64469159  0.25612413  0.41167135  1
  S  S4  1  0.18154098  0.18754532  0.53843510  1
  S  S5  1  0.31845902  0.68754532  0.96156490  1
  S  S6  1  0.81845902  0.81245468  0.46156490  1
  S  S7  1  0.68154098  0.31245468  0.03843510  1
  S  S8  1  0.13474891  0.39777561  0.34351618  1
  S  S9  1  0.36525109  0.89777561  0.15648382  1
  S  S10  1  0.86525109  0.60222439  0.65648382  1
  S  S11  1  0.63474891  0.10222439  0.84351618  1
  F  F12  1  0.29173377  0.31200968  0.63090115  1
  F  F13  1  0.20826623  0.81200968  0.86909885  1
  F  F14  1  0.70826623  0.68799032  0.36909885  1
  F  F15  1  0.79173377  0.18799032  0.13090115  1
  F  F16  1  0.16871899  0.27647332  0.23639577  1
  F  F17  1  0.33128101  0.77647332  0.26360423  1
  F  F18  1  0.83128101  0.72352668  0.76360423  1
  F  F19  1  0.66871899  0.22352668  0.73639577  1
  N  N20  1  0.06159996  0.29209537  0.44232173  1
  N  N21  1  0.43840004  0.79209537  0.05767827  1
  N  N22  1  0.93840004  0.70790463  0.55767827  1
  N  N23  1  0.56159996  0.20790463  0.94232173  1
  O  O24  1  0.30614302  0.10245979  0.48585217  1
  O  O25  1  0.19385698  0.60245979  0.01414783  1
  O  O26  1  0.69385698  0.89754021  0.51414783  1
  O  O27  1  0.80614302  0.39754021  0.98585217  1
  O  O28  1  0.08390411  0.11088424  0.61920431  1
  O  O29  1  0.41609589  0.61088424  0.88079569  1
  O  O30  1  0.91609589  0.88911576  0.38079569  1
  O  O31  1  0.58390411  0.38911576  0.11920431  1
  O  O32  1  0.00194444  0.49321786  0.28244657  1
  O  O33  1  0.49805556  0.99321786  0.21755343  1
  O  O34  1  0.99805556  0.50678214  0.71755343  1
  O  O35  1  0.50194444  0.00678214  0.78244657  1
  O  O36  1  0.29735653  0.46270842  0.38699197  1
  O  O37  1  0.20264347  0.96270842  0.11300803  1
  O  O38  1  0.70264347  0.53729158  0.61300803  1
  O  O39  1  0.79735653  0.03729158  0.88699197  1
