# generated using pymatgen
data_Li3Ni2(PO4)3
_symmetry_space_group_name_H-M   'P 1'
_cell_length_a   8.52576697
_cell_length_b   8.52576693
_cell_length_c   6.31662317
_cell_angle_alpha   74.24038055
_cell_angle_beta   105.75961942
_cell_angle_gamma   85.48708975
_symmetry_Int_Tables_number   1
_chemical_formula_structural   Li3Ni2(PO4)3
_chemical_formula_sum   'Li6 Ni4 P6 O24'
_cell_volume   419.47681547
_cell_formula_units_Z   2
loop_
 _symmetry_equiv_pos_site_id
 _symmetry_equiv_pos_as_xyz
  1  'x, y, z'
loop_
 _atom_site_type_symbol
 _atom_site_label
 _atom_site_symmetry_multiplicity
 _atom_site_fract_x
 _atom_site_fract_y
 _atom_site_fract_z
 _atom_site_occupancy
  Li  Li0  1  0.98067597  0.98067697  0.75000000  1
  Li  Li1  1  0.71284395  0.71284295  0.75000000  1
  Li  Li2  1  0.50000100  0.50000000  0.50000100  1
  Li  Li3  1  0.28715605  0.28715605  0.24999900  1
  Li  Li4  1  0.01932403  0.01932303  0.25000000  1
  Li  Li5  1  0.50000000  0.50000000  0.00000000  1
  O  O6  1  0.15245018  0.85004707  0.10380602  1
  O  O7  1  0.85004807  0.15245018  0.39619298  1
  O  O8  1  0.60109160  0.04738355  0.17661149  1
  O  O9  1  0.66339792  0.00808973  0.59446475  1
  O  O10  1  0.00808873  0.66339792  0.90553425  1
  O  O11  1  0.14995293  0.84754882  0.60380702  1
  O  O12  1  0.39890740  0.95261645  0.82338851  1
  O  O13  1  0.33660208  0.99191127  0.40553525  1
  O  O14  1  0.99191127  0.33660108  0.09446575  1
  O  O15  1  0.04738255  0.60109160  0.32338951  1
  O  O16  1  0.45182946  0.70249027  0.69849041  1
  O  O17  1  0.26545875  0.46613860  0.76819971  1
  O  O18  1  0.26096207  0.17773258  0.97284714  1
  O  O19  1  0.29751073  0.54817154  0.19848941  1
  O  O20  1  0.84754982  0.14995193  0.89619398  1
  O  O21  1  0.17773258  0.26096207  0.52715186  1
  O  O22  1  0.82226742  0.73903793  0.47284814  1
  O  O23  1  0.46613760  0.26545775  0.73180029  1
  O  O24  1  0.70248927  0.45182946  0.80150959  1
  O  O25  1  0.73903793  0.82226642  0.02715286  1
  O  O26  1  0.73454225  0.53386140  0.23180129  1
  O  O27  1  0.54817054  0.29751073  0.30150959  1
  O  O28  1  0.95261645  0.39890840  0.67661149  1
  O  O29  1  0.53386140  0.73454225  0.26819871  1
  P  P30  1  0.66451238  0.13533764  0.36507353  1
  P  P31  1  0.86466236  0.33548662  0.86507353  1
  P  P32  1  0.71247821  0.71247821  0.24999900  1
  P  P33  1  0.28752179  0.28752179  0.75000000  1
  P  P34  1  0.33548762  0.86466236  0.63492647  1
  P  P35  1  0.13533764  0.66451238  0.13492647  1
  Ni  Ni36  1  0.05364898  0.62487106  0.63097297  1
  Ni  Ni37  1  0.37512994  0.94635102  0.13097197  1
  Ni  Ni38  1  0.62487006  0.05364898  0.86902803  1
  Ni  Ni39  1  0.94635102  0.37512994  0.36902703  1
