# generated using pymatgen
data_V2O5
_symmetry_space_group_name_H-M   'P 1'
_cell_length_a   4.72962200
_cell_length_b   5.38372402
_cell_length_c   6.48305406
_cell_angle_alpha   102.57921472
_cell_angle_beta   111.39330887
_cell_angle_gamma   89.99999999
_symmetry_Int_Tables_number   1
_chemical_formula_structural   V2O5
_chemical_formula_sum   'V4 O10'
_cell_volume   149.43989676
_cell_formula_units_Z   2
loop_
 _symmetry_equiv_pos_site_id
 _symmetry_equiv_pos_as_xyz
  1  'x, y, z'
loop_
 _atom_site_type_symbol
 _atom_site_label
 _atom_site_symmetry_multiplicity
 _atom_site_fract_x
 _atom_site_fract_y
 _atom_site_fract_z
 _atom_site_occupancy
  O  O0  1  0.72690396  0.37000980  0.59269752  1
  O  O1  1  0.13420644  0.12999020  0.40730248  1
  O  O2  1  0.27309604  0.62999020  0.40730248  1
  O  O3  1  0.86579356  0.87000980  0.59269752  1
  O  O4  1  0.88556881  0.75000000  0.00000000  1
  O  O5  1  0.11443119  0.25000000  0.00000000  1
  O  O6  1  0.33170586  0.51449676  0.77974394  1
  O  O7  1  0.55196192  0.98550324  0.22025606  1
  O  O8  1  0.66829414  0.48550324  0.22025606  1
  O  O9  1  0.44803808  0.01449676  0.77974394  1
  V  V10  1  0.38292399  0.24921955  0.28429206  1
  V  V11  1  0.09863193  0.25078045  0.71570794  1
  V  V12  1  0.61707601  0.75078045  0.71570794  1
  V  V13  1  0.90136807  0.74921955  0.28429206  1
