# generated using pymatgen
data_CaTa2O6
_symmetry_space_group_name_H-M   'P 1'
_cell_length_a   7.85686810
_cell_length_b   7.85686810
_cell_length_c   7.85686810
_cell_angle_alpha   90.00000000
_cell_angle_beta   90.00000000
_cell_angle_gamma   90.00000000
_symmetry_Int_Tables_number   1
_chemical_formula_structural   CaTa2O6
_chemical_formula_sum   'Ca4 Ta8 O24'
_cell_volume   485.00742467
_cell_formula_units_Z   4
loop_
 _symmetry_equiv_pos_site_id
 _symmetry_equiv_pos_as_xyz
  1  'x, y, z'
loop_
 _atom_site_type_symbol
 _atom_site_label
 _atom_site_symmetry_multiplicity
 _atom_site_fract_x
 _atom_site_fract_y
 _atom_site_fract_z
 _atom_site_occupancy
  Ca  Ca0  1  0.50000000  0.00000000  0.00000000  1
  Ca  Ca1  1  0.50000000  0.50000000  0.50000000  1
  Ca  Ca2  1  0.00000000  0.50000000  0.00000000  1
  Ca  Ca3  1  0.00000000  0.00000000  0.50000000  1
  Ta  Ta4  1  0.75066497  0.24933503  0.75066497  1
  Ta  Ta5  1  0.24933503  0.24933503  0.24933503  1
  Ta  Ta6  1  0.75066497  0.75066497  0.75066497  1
  Ta  Ta7  1  0.75066497  0.75066497  0.24933503  1
  Ta  Ta8  1  0.24933503  0.24933503  0.75066497  1
  Ta  Ta9  1  0.75066497  0.24933503  0.24933503  1
  Ta  Ta10  1  0.24933503  0.75066497  0.24933503  1
  Ta  Ta11  1  0.24933503  0.75066497  0.75066497  1
  O  O12  1  0.28263404  0.78866351  0.00000000  1
  O  O13  1  0.77298849  0.27631163  0.50000000  1
  O  O14  1  0.00000000  0.28263404  0.78866351  1
  O  O15  1  0.71736596  0.78866351  0.00000000  1
  O  O16  1  0.22701151  0.27631163  0.50000000  1
  O  O17  1  0.78866351  0.00000000  0.28263404  1
  O  O18  1  0.50000000  0.22701151  0.72368837  1
  O  O19  1  0.50000000  0.77298849  0.72368837  1
  O  O20  1  0.27631163  0.50000000  0.22701151  1
  O  O21  1  0.28263404  0.21133649  0.00000000  1
  O  O22  1  0.71736596  0.21133649  0.00000000  1
  O  O23  1  0.78866351  0.00000000  0.71736596  1
  O  O24  1  0.21133649  0.00000000  0.28263404  1
  O  O25  1  0.22701151  0.72368837  0.50000000  1
  O  O26  1  0.50000000  0.22701151  0.27631163  1
  O  O27  1  0.72368837  0.50000000  0.22701151  1
  O  O28  1  0.00000000  0.71736596  0.78866351  1
  O  O29  1  0.50000000  0.77298849  0.27631163  1
  O  O30  1  0.00000000  0.28263404  0.21133649  1
  O  O31  1  0.77298849  0.72368837  0.50000000  1
  O  O32  1  0.27631163  0.50000000  0.77298849  1
  O  O33  1  0.00000000  0.71736596  0.21133649  1
  O  O34  1  0.21133649  0.00000000  0.71736596  1
  O  O35  1  0.72368837  0.50000000  0.77298849  1
