# generated using pymatgen
data_SnO
_symmetry_space_group_name_H-M   'P 1'
_cell_length_a   4.22197047
_cell_length_b   3.35500529
_cell_length_c   5.67410417
_cell_angle_alpha   90.00000000
_cell_angle_beta   90.00143838
_cell_angle_gamma   90.00000000
_symmetry_Int_Tables_number   1
_chemical_formula_structural   SnO
_chemical_formula_sum   'Sn2 O2'
_cell_volume   80.37217205
_cell_formula_units_Z   2
loop_
 _symmetry_equiv_pos_site_id
 _symmetry_equiv_pos_as_xyz
  1  'x, y, z'
loop_
 _atom_site_type_symbol
 _atom_site_label
 _atom_site_symmetry_multiplicity
 _atom_site_fract_x
 _atom_site_fract_y
 _atom_site_fract_z
 _atom_site_occupancy
  Sn  Sn0  1  0.48685619  -0.00000000  0.26809032  1
  Sn  Sn1  1  0.98687492  0.50000000  0.73190771  1
  O  O2  1  0.26314301  -0.00000000  0.60874927  1
  O  O3  1  0.76312589  0.50000000  0.39125270  1
