# generated using pymatgen
data_Rb2PSO8
_symmetry_space_group_name_H-M   'P 1'
_cell_length_a   7.56202264
_cell_length_b   8.03567125
_cell_length_c   7.64286554
_cell_angle_alpha   90.06208600
_cell_angle_beta   99.39632200
_cell_angle_gamma   89.51796142
_symmetry_Int_Tables_number   1
_chemical_formula_structural   Rb2PSO8
_chemical_formula_sum   'Rb4 P2 S2 O16'
_cell_volume   458.17821486
_cell_formula_units_Z   2
loop_
 _symmetry_equiv_pos_site_id
 _symmetry_equiv_pos_as_xyz
  1  'x, y, z'
loop_
 _atom_site_type_symbol
 _atom_site_label
 _atom_site_symmetry_multiplicity
 _atom_site_fract_x
 _atom_site_fract_y
 _atom_site_fract_z
 _atom_site_occupancy
  Rb  Rb0  1  0.59935402  0.31636613  0.23345831  1
  Rb  Rb1  1  0.89909111  0.81871849  0.26508873  1
  Rb  Rb2  1  0.40064598  0.68363387  0.76654169  1
  Rb  Rb3  1  0.10090889  0.18128151  0.73491127  1
  P  P4  1  0.10347061  0.31321072  0.25290078  1
  P  P5  1  0.89652939  0.68678928  0.74709922  1
  S  S6  1  0.39522496  0.81551248  0.24412928  1
  S  S7  1  0.60477504  0.18448752  0.75587072  1
  O  O8  1  0.99365779  0.17924694  0.32879160  1
  O  O9  1  0.50205521  0.68442019  0.17173703  1
  O  O10  1  0.00634221  0.82075306  0.67120840  1
  O  O11  1  0.49794479  0.31557981  0.82826297  1
  O  O12  1  0.97673199  0.45645746  0.17465708  1
  O  O13  1  0.51792693  0.94966958  0.32629961  1
  O  O14  1  0.02326801  0.54354254  0.82534292  1
  O  O15  1  0.48207307  0.05033042  0.67370039  1
  O  O16  1  0.23907156  0.39457267  0.40215622  1
  O  O17  1  0.26267144  0.88611761  0.09667561  1
  O  O18  1  0.76092844  0.60542733  0.59784378  1
  O  O19  1  0.73732856  0.11388239  0.90332439  1
  O  O20  1  0.20567203  0.23694543  0.11426518  1
  O  O21  1  0.30302821  0.74812066  0.38563351  1
  O  O22  1  0.79432797  0.76305457  0.88573482  1
  O  O23  1  0.69697179  0.25187934  0.61436649  1
