# generated using pymatgen
data_Sc2O3
_symmetry_space_group_name_H-M   'P 1'
_cell_length_a   3.21431456
_cell_length_b   6.88689773
_cell_length_c   8.05094014
_cell_angle_alpha   100.36216620
_cell_angle_beta   90.00000000
_cell_angle_gamma   103.49523383
_symmetry_Int_Tables_number   1
_chemical_formula_structural   Sc2O3
_chemical_formula_sum   'Sc6 O9'
_cell_volume   170.30942788
_cell_formula_units_Z   3
loop_
 _symmetry_equiv_pos_site_id
 _symmetry_equiv_pos_as_xyz
  1  'x, y, z'
loop_
 _atom_site_type_symbol
 _atom_site_label
 _atom_site_symmetry_multiplicity
 _atom_site_fract_x
 _atom_site_fract_y
 _atom_site_fract_z
 _atom_site_occupancy
  Sc  Sc0  1  0.96921400  0.93842800  0.18395172  1
  Sc  Sc1  1  0.63632560  0.27265121  0.48718946  1
  Sc  Sc2  1  0.30798433  0.61596866  0.86366549  1
  Sc  Sc3  1  0.03078600  0.06157200  0.81604828  1
  Sc  Sc4  1  0.36367440  0.72734879  0.51281054  1
  Sc  Sc5  1  0.69201567  0.38403134  0.13633451  1
  O  O6  1  0.17372561  0.34745122  0.96491224  1
  O  O7  1  0.82627439  0.65254878  0.03508776  1
  O  O8  1  0.21004588  0.42009175  0.62115529  1
  O  O9  1  0.87444893  0.74889786  0.72056124  1
  O  O10  1  0.50000000  0.00000000  0.00000000  1
  O  O11  1  0.78995412  0.57990825  0.37884471  1
  O  O12  1  0.46584733  0.93169466  0.34097753  1
  O  O13  1  0.12555107  0.25110214  0.27943876  1
  O  O14  1  0.53415267  0.06830534  0.65902247  1
