# generated using pymatgen
data_SiO2
_symmetry_space_group_name_H-M   'P 1'
_cell_length_a   10.34269462
_cell_length_b   10.34269463
_cell_length_c   10.34269475
_cell_angle_alpha   83.91047042
_cell_angle_beta   83.91047044
_cell_angle_gamma   83.91046830
_symmetry_Int_Tables_number   1
_chemical_formula_structural   SiO2
_chemical_formula_sum   'Si24 O48'
_cell_volume   1088.87853560
_cell_formula_units_Z   24
loop_
 _symmetry_equiv_pos_site_id
 _symmetry_equiv_pos_as_xyz
  1  'x, y, z'
loop_
 _atom_site_type_symbol
 _atom_site_label
 _atom_site_symmetry_multiplicity
 _atom_site_fract_x
 _atom_site_fract_y
 _atom_site_fract_z
 _atom_site_occupancy
  Si  Si0  1  0.00333593  0.76467371  0.81887722  1
  Si  Si1  1  0.90767640  0.29033681  0.71335237  1
  Si  Si2  1  0.32859271  0.82143001  0.64065031  1
  Si  Si3  1  0.36220318  0.41981380  0.88102842  1
  Si  Si4  1  0.41981380  0.88102842  0.36220318  1
  Si  Si5  1  0.23532629  0.18112278  0.99666407  1
  Si  Si6  1  0.99666407  0.23532629  0.18112278  1
  Si  Si7  1  0.63779682  0.58018620  0.11897158  1
  Si  Si8  1  0.18112278  0.99666407  0.23532629  1
  Si  Si9  1  0.64065031  0.32859271  0.82143001  1
  Si  Si10  1  0.82143001  0.64065031  0.32859271  1
  Si  Si11  1  0.71335237  0.90767640  0.29033681  1
  Si  Si12  1  0.17856999  0.35934969  0.67140729  1
  Si  Si13  1  0.76467371  0.81887722  0.00333593  1
  Si  Si14  1  0.88102842  0.36220318  0.41981380  1
  Si  Si15  1  0.58018620  0.11897158  0.63779682  1
  Si  Si16  1  0.09232360  0.70966319  0.28664763  1
  Si  Si17  1  0.29033681  0.71335237  0.90767640  1
  Si  Si18  1  0.81887722  0.00333593  0.76467371  1
  Si  Si19  1  0.67140729  0.17856999  0.35934969  1
  Si  Si20  1  0.11897158  0.63779682  0.58018620  1
  Si  Si21  1  0.35934969  0.67140729  0.17856999  1
  Si  Si22  1  0.70966319  0.28664763  0.09232360  1
  Si  Si23  1  0.28664763  0.09232360  0.70966319  1
  O  O24  1  0.05345027  0.10047835  0.26358777  1
  O  O25  1  0.73641223  0.94654973  0.89952165  1
  O  O26  1  0.23738994  0.22093924  0.61289238  1
  O  O27  1  0.55437969  0.93612306  0.29387298  1
  O  O28  1  0.77346333  0.87838408  0.14215740  1
  O  O29  1  0.24671428  0.70993435  0.59828613  1
  O  O30  1  0.43892726  0.84694205  0.51775345  1
  O  O31  1  0.01928395  0.65447790  0.71331238  1
  O  O32  1  0.76109183  0.03991441  0.33613586  1
  O  O33  1  0.66386414  0.23890817  0.96008559  1
  O  O34  1  0.87838408  0.14215740  0.77346333  1
  O  O35  1  0.03991441  0.33613586  0.76109183  1
  O  O36  1  0.28668762  0.98071605  0.34552210  1
  O  O37  1  0.85784260  0.22653667  0.12161592  1
  O  O38  1  0.77906076  0.38710762  0.76261006  1
  O  O39  1  0.06387694  0.70612702  0.44562031  1
  O  O40  1  0.65447790  0.71331238  0.01928395  1
  O  O41  1  0.29387298  0.55437969  0.93612306  1
  O  O42  1  0.23890817  0.96008559  0.66386414  1
  O  O43  1  0.76261006  0.77906076  0.38710762  1
  O  O44  1  0.38710762  0.76261006  0.77906076  1
  O  O45  1  0.61289238  0.23738994  0.22093924  1
  O  O46  1  0.75328572  0.29006565  0.40171387  1
  O  O47  1  0.48224655  0.56107274  0.15305795  1
  O  O48  1  0.70612702  0.44562031  0.06387694  1
  O  O49  1  0.22093924  0.61289238  0.23738994  1
  O  O50  1  0.22653667  0.12161592  0.85784260  1
  O  O51  1  0.44562031  0.06387694  0.70612702  1
  O  O52  1  0.59828613  0.24671428  0.70993435  1
  O  O53  1  0.89952165  0.73641223  0.94654973  1
  O  O54  1  0.94654973  0.89952165  0.73641223  1
  O  O55  1  0.71331238  0.01928395  0.65447790  1
  O  O56  1  0.51775345  0.43892726  0.84694205  1
  O  O57  1  0.26358777  0.05345027  0.10047835  1
  O  O58  1  0.14215740  0.77346333  0.87838408  1
  O  O59  1  0.70993435  0.59828613  0.24671428  1
  O  O60  1  0.96008559  0.66386414  0.23890817  1
  O  O61  1  0.93612306  0.29387298  0.55437969  1
  O  O62  1  0.12161592  0.85784260  0.22653667  1
  O  O63  1  0.10047835  0.26358777  0.05345027  1
  O  O64  1  0.34552210  0.28668762  0.98071605  1
  O  O65  1  0.98071605  0.34552210  0.28668762  1
  O  O66  1  0.33613586  0.76109183  0.03991441  1
  O  O67  1  0.40171387  0.75328572  0.29006565  1
  O  O68  1  0.29006565  0.40171387  0.75328572  1
  O  O69  1  0.15305795  0.48224655  0.56107274  1
  O  O70  1  0.84694205  0.51775345  0.43892726  1
  O  O71  1  0.56107274  0.15305795  0.48224655  1
