# generated using pymatgen
data_Sr4GaN3O
_symmetry_space_group_name_H-M   'P 1'
_cell_length_a   7.44376341
_cell_length_b   7.42017386
_cell_length_c   23.86221398
_cell_angle_alpha   90.00000000
_cell_angle_beta   90.00000000
_cell_angle_gamma   90.00000000
_symmetry_Int_Tables_number   1
_chemical_formula_structural   Sr4GaN3O
_chemical_formula_sum   'Sr32 Ga8 N24 O8'
_cell_volume   1318.00597260
_cell_formula_units_Z   8
loop_
 _symmetry_equiv_pos_site_id
 _symmetry_equiv_pos_as_xyz
  1  'x, y, z'
loop_
 _atom_site_type_symbol
 _atom_site_label
 _atom_site_symmetry_multiplicity
 _atom_site_fract_x
 _atom_site_fract_y
 _atom_site_fract_z
 _atom_site_occupancy
  Sr  Sr0  1  0.03977470  0.23980314  0.75422856  1
  Sr  Sr1  1  0.46746203  0.64245928  0.93842887  1
  Sr  Sr2  1  0.36376555  0.34045965  0.43878046  1
  Sr  Sr3  1  0.46022530  0.23980314  0.25422856  1
  Sr  Sr4  1  0.53253797  0.85754072  0.43842887  1
  Sr  Sr5  1  0.63623445  0.15954035  0.93878046  1
  Sr  Sr6  1  0.96022530  0.26019686  0.25422856  1
  Sr  Sr7  1  0.79597256  0.50881396  0.85463134  1
  Sr  Sr8  1  0.20402744  0.49118604  0.14536866  1
  Sr  Sr9  1  0.86376555  0.15954035  0.43878046  1
  Sr  Sr10  1  0.29597256  0.49118604  0.64536866  1
  Sr  Sr11  1  0.03977470  0.73980314  0.74577144  1
  Sr  Sr12  1  0.70402744  0.50881396  0.35463134  1
  Sr  Sr13  1  0.79597256  0.00881396  0.64536866  1
  Sr  Sr14  1  0.53977470  0.26019686  0.75422856  1
  Sr  Sr15  1  0.96746203  0.35754072  0.56157113  1
  Sr  Sr16  1  0.13623445  0.34045965  0.93878046  1
  Sr  Sr17  1  0.96746203  0.85754072  0.93842887  1
  Sr  Sr18  1  0.96022530  0.76019686  0.24577144  1
  Sr  Sr19  1  0.20402744  0.99118604  0.35463134  1
  Sr  Sr20  1  0.36376555  0.84045965  0.06121954  1
  Sr  Sr21  1  0.29597256  0.99118604  0.85463134  1
  Sr  Sr22  1  0.46746203  0.14245928  0.56157113  1
  Sr  Sr23  1  0.13623445  0.84045965  0.56121954  1
  Sr  Sr24  1  0.03253797  0.64245928  0.43842887  1
  Sr  Sr25  1  0.03253797  0.14245928  0.06157113  1
  Sr  Sr26  1  0.70402744  0.00881396  0.14536866  1
  Sr  Sr27  1  0.63623445  0.65954035  0.56121954  1
  Sr  Sr28  1  0.53977470  0.76019686  0.74577144  1
  Sr  Sr29  1  0.86376555  0.65954035  0.06121954  1
  Sr  Sr30  1  0.53253797  0.35754072  0.06157113  1
  Sr  Sr31  1  0.46022530  0.73980314  0.24577144  1
  Ga  Ga32  1  0.78779541  0.99490481  0.82857221  1
  Ga  Ga33  1  0.21220459  0.00509519  0.17142779  1
  Ga  Ga34  1  0.71220459  0.99490481  0.32857221  1
  Ga  Ga35  1  0.28779541  0.00509519  0.67142779  1
  Ga  Ga36  1  0.71220459  0.49490481  0.17142779  1
  Ga  Ga37  1  0.21220459  0.50509519  0.32857221  1
  Ga  Ga38  1  0.28779541  0.50509519  0.82857221  1
  Ga  Ga39  1  0.78779541  0.49490481  0.67142779  1
  N  N40  1  0.43565227  0.34666404  0.87307930  1
  N  N41  1  0.70772322  0.49825878  0.25085580  1
  N  N42  1  0.13050909  0.65378150  0.87205987  1
  N  N43  1  0.86949091  0.84621850  0.37205987  1
  N  N44  1  0.20772322  0.00174122  0.25085580  1
  N  N45  1  0.29227678  0.50174122  0.74914420  1
  N  N46  1  0.63050909  0.34621850  0.62794013  1
  N  N47  1  0.79227678  0.99825878  0.74914420  1
  N  N48  1  0.70772322  0.99825878  0.24914420  1
  N  N49  1  0.36949091  0.65378150  0.37205987  1
  N  N50  1  0.20772322  0.50174122  0.24914420  1
  N  N51  1  0.93565227  0.65333596  0.62692070  1
  N  N52  1  0.79227678  0.49825878  0.75085580  1
  N  N53  1  0.06434773  0.34666404  0.37307930  1
  N  N54  1  0.29227678  0.00174122  0.75085580  1
  N  N55  1  0.63050909  0.84621850  0.87205987  1
  N  N56  1  0.56434773  0.65333596  0.12692070  1
  N  N57  1  0.93565227  0.15333596  0.87307930  1
  N  N58  1  0.86949091  0.34621850  0.12794013  1
  N  N59  1  0.56434773  0.15333596  0.37307930  1
  N  N60  1  0.13050909  0.15378150  0.62794013  1
  N  N61  1  0.06434773  0.84666404  0.12692070  1
  N  N62  1  0.36949091  0.15378150  0.12794013  1
  N  N63  1  0.43565227  0.84666404  0.62692070  1
  O  O64  1  0.76244015  0.97726502  0.02444357  1
  O  O65  1  0.26244015  0.52273498  0.02444357  1
  O  O66  1  0.23755985  0.02273498  0.97555643  1
  O  O67  1  0.73755985  0.47726502  0.97555643  1
  O  O68  1  0.73755985  0.97726502  0.52444357  1
  O  O69  1  0.76244015  0.47726502  0.47555643  1
  O  O70  1  0.23755985  0.52273498  0.52444357  1
  O  O71  1  0.26244015  0.02273498  0.47555643  1
