# generated using pymatgen
data_ZnGaNO
_symmetry_space_group_name_H-M   'P 1'
_cell_length_a   6.52985930
_cell_length_b   6.53030097
_cell_length_c   10.57084073
_cell_angle_alpha   89.87203718
_cell_angle_beta   90.01401821
_cell_angle_gamma   119.84910442
_symmetry_Int_Tables_number   1
_chemical_formula_structural   ZnGaNO
_chemical_formula_sum   'Zn8 Ga8 N8 O8'
_cell_volume   390.96171515
_cell_formula_units_Z   8
loop_
 _symmetry_equiv_pos_site_id
 _symmetry_equiv_pos_as_xyz
  1  'x, y, z'
loop_
 _atom_site_type_symbol
 _atom_site_label
 _atom_site_symmetry_multiplicity
 _atom_site_fract_x
 _atom_site_fract_y
 _atom_site_fract_z
 _atom_site_occupancy
  Zn  Zn0  1  0.84370688  0.67111672  0.73830790  1
  Zn  Zn1  1  0.83311754  0.16719473  0.73791428  1
  Zn  Zn2  1  0.66113187  0.83852313  0.48963314  1
  Zn  Zn3  1  0.32850216  0.15671239  0.73544229  1
  Zn  Zn4  1  0.65461562  0.82721646  0.00117388  1
  Zn  Zn5  1  0.16817090  0.33360969  0.48903746  1
  Zn  Zn6  1  0.83980928  0.66135226  0.25315551  1
  Zn  Zn7  1  0.66061236  0.32210216  0.49366531  1
  Ga  Ga8  1  0.66960268  0.33415918  0.00794954  1
  Ga  Ga9  1  0.32614359  0.67023113  0.74744265  1
  Ga  Ga10  1  0.17142045  0.34611235  0.00508598  1
  Ga  Ga11  1  0.32372824  0.66516711  0.25606334  1
  Ga  Ga12  1  0.33252495  0.16302762  0.25470430  1
  Ga  Ga13  1  0.83578814  0.17501605  0.25850845  1
  Ga  Ga14  1  0.17174605  0.82522064  0.00604995  1
  Ga  Ga15  1  0.17746760  0.83838976  0.49684354  1
  N  N16  1  0.17151835  0.82809319  0.68304913  1
  N  N17  1  0.83588481  0.16769544  0.43638891  1
  N  N18  1  0.32766478  0.66878437  0.43494205  1
  N  N19  1  0.66029650  0.32329521  0.18613786  1
  N  N20  1  0.17541597  0.83907147  0.18452600  1
  N  N21  1  0.32738340  0.15744315  0.43550800  1
  N  N22  1  0.32365781  0.66157194  0.93365342  1
  N  N23  1  0.16707240  0.33297301  0.18598752  1
  O  O24  1  0.66543396  0.33522004  0.69654872  1
  O  O25  1  0.84079660  0.17973323  0.94330162  1
  O  O26  1  0.84600818  0.67333124  0.44439762  1
  O  O27  1  0.17482144  0.34640736  0.69873324  1
  O  O28  1  0.33370636  0.16821025  0.94555274  1
  O  O29  1  0.66071752  0.83912199  0.19164157  1
  O  O30  1  0.83920482  0.65952608  0.94580392  1
  O  O31  1  0.65232878  0.82437065  0.69883415  1
