# generated using pymatgen
data_K2Cd(NO2)4
_symmetry_space_group_name_H-M   'P 1'
_cell_length_a   6.69441872
_cell_length_b   12.02671147
_cell_length_c   12.44201309
_cell_angle_alpha   90.00000000
_cell_angle_beta   90.00000000
_cell_angle_gamma   90.00000000
_symmetry_Int_Tables_number   1
_chemical_formula_structural   K2Cd(NO2)4
_chemical_formula_sum   'K8 Cd4 N16 O32'
_cell_volume   1001.72939710
_cell_formula_units_Z   4
loop_
 _symmetry_equiv_pos_site_id
 _symmetry_equiv_pos_as_xyz
  1  'x, y, z'
loop_
 _atom_site_type_symbol
 _atom_site_label
 _atom_site_symmetry_multiplicity
 _atom_site_fract_x
 _atom_site_fract_y
 _atom_site_fract_z
 _atom_site_occupancy
  K  K0  1  0.09107774  -0.00018172  0.64754342  1
  K  K1  1  0.09107774  0.50018172  0.64754342  1
  K  K2  1  0.90892226  0.49981828  0.35245658  1
  K  K3  1  0.40892226  0.50018172  0.14754342  1
  K  K4  1  0.59107774  0.49981828  0.85245658  1
  K  K5  1  0.59107774  1.00018172  0.85245658  1
  K  K6  1  0.90892226  1.00018172  0.35245658  1
  K  K7  1  0.40892226  -0.00018172  0.14754342  1
  Cd  Cd8  1  0.48870275  0.75000000  0.48384687  1
  Cd  Cd9  1  0.98870275  0.25000000  0.01615313  1
  Cd  Cd10  1  0.51129725  0.25000000  0.51615313  1
  Cd  Cd11  1  0.01129725  0.75000000  0.98384687  1
  N  N12  1  0.07790835  0.25000000  0.24904566  1
  N  N13  1  0.13218616  0.06862551  0.87562568  1
  N  N14  1  0.57790835  0.75000000  0.25095434  1
  N  N15  1  0.63218616  0.56862551  0.62437432  1
  N  N16  1  0.42209165  0.25000000  0.74904566  1
  N  N17  1  0.92209165  0.75000000  0.75095434  1
  N  N18  1  0.05907421  0.75000000  0.43874903  1
  N  N19  1  0.86781384  0.56862551  0.12437432  1
  N  N20  1  0.36781384  0.06862551  0.37562568  1
  N  N21  1  0.44092579  0.75000000  0.93874903  1
  N  N22  1  0.86781384  0.93137449  0.12437432  1
  N  N23  1  0.36781384  0.43137449  0.37562568  1
  N  N24  1  0.63218616  0.93137449  0.62437432  1
  N  N25  1  0.94092579  0.25000000  0.56125097  1
  N  N26  1  0.55907421  0.25000000  0.06125097  1
  N  N27  1  0.13218616  0.43137449  0.87562568  1
  O  O28  1  0.03113874  0.61635568  0.14668413  1
  O  O29  1  0.15878231  0.83867553  0.45268242  1
  O  O30  1  0.53113874  0.38364432  0.35331587  1
  O  O31  1  0.78392496  0.89761452  0.03877790  1
  O  O32  1  0.15878231  0.66132447  0.45268242  1
  O  O33  1  0.93818931  0.66128138  0.80564934  1
  O  O34  1  0.71607504  0.89761452  0.53877790  1
  O  O35  1  0.34121769  0.83867553  0.95268242  1
  O  O36  1  0.84121769  0.33867553  0.54731758  1
  O  O37  1  0.96886126  0.11635568  0.85331587  1
  O  O38  1  0.21607504  0.10238548  0.96122210  1
  O  O39  1  0.06181069  0.16128138  0.19435066  1
  O  O40  1  0.06181069  0.33871862  0.19435066  1
  O  O41  1  0.78392496  0.60238548  0.03877790  1
  O  O42  1  0.46886126  0.88364432  0.64668413  1
  O  O43  1  0.53113874  0.11635568  0.35331587  1
  O  O44  1  0.21607504  0.39761452  0.96122210  1
  O  O45  1  0.65878231  0.16132447  0.04731758  1
  O  O46  1  0.34121769  0.66132447  0.95268242  1
  O  O47  1  0.43818931  0.33871862  0.69435066  1
  O  O48  1  0.93818931  0.83871862  0.80564934  1
  O  O49  1  0.28392496  0.10238548  0.46122210  1
  O  O50  1  0.71607504  0.60238548  0.53877790  1
  O  O51  1  0.28392496  0.39761452  0.46122210  1
  O  O52  1  0.65878231  0.33867553  0.04731758  1
  O  O53  1  0.84121769  0.16132447  0.54731758  1
  O  O54  1  0.46886126  0.61635568  0.64668413  1
  O  O55  1  0.96886126  0.38364432  0.85331587  1
  O  O56  1  0.56181069  0.83871862  0.30564934  1
  O  O57  1  0.56181069  0.66128138  0.30564934  1
  O  O58  1  0.43818931  0.16128138  0.69435066  1
  O  O59  1  0.03113874  0.88364432  0.14668413  1
