# generated using pymatgen
data_ZnBi6P2(O7F)2
_symmetry_space_group_name_H-M   'P 1'
_cell_length_a   5.70229620
_cell_length_b   8.96786549
_cell_length_c   16.52172340
_cell_angle_alpha   76.81248566
_cell_angle_beta   80.06498183
_cell_angle_gamma   71.46056651
_symmetry_Int_Tables_number   1
_chemical_formula_structural   ZnBi6P2(O7F)2
_chemical_formula_sum   'Zn2 Bi12 P4 O28 F4'
_cell_volume   775.31998914
_cell_formula_units_Z   2
loop_
 _symmetry_equiv_pos_site_id
 _symmetry_equiv_pos_as_xyz
  1  'x, y, z'
loop_
 _atom_site_type_symbol
 _atom_site_label
 _atom_site_symmetry_multiplicity
 _atom_site_fract_x
 _atom_site_fract_y
 _atom_site_fract_z
 _atom_site_occupancy
  Zn  Zn0  1  0.00000000  -0.00000000  0.00000000  1
  Zn  Zn1  1  0.00000000  0.50000000  0.50000000  1
  Bi  Bi2  1  0.26974394  0.76218949  0.82853180  1
  Bi  Bi3  1  0.86038448  0.73778259  0.67143022  1
  Bi  Bi4  1  0.45516035  0.54230174  0.33032249  1
  Bi  Bi5  1  0.73025606  0.23781051  0.17146820  1
  Bi  Bi6  1  0.13961552  0.26221741  0.32856978  1
  Bi  Bi7  1  0.97335723  0.38020082  0.82504092  1
  Bi  Bi8  1  0.67240205  0.04229251  0.83035552  1
  Bi  Bi9  1  0.32759795  0.95770749  0.16964448  1
  Bi  Bi10  1  0.54483965  0.45769826  0.66967751  1
  Bi  Bi11  1  0.17858340  0.11984274  0.67493598  1
  Bi  Bi12  1  0.02664277  0.61979918  0.17495908  1
  Bi  Bi13  1  0.82141660  0.88015726  0.32506402  1
  P  P14  1  0.38873838  0.26398275  0.99071004  1
  P  P15  1  0.61126162  0.73601725  0.00928996  1
  P  P16  1  0.64336410  0.23603655  0.50931677  1
  P  P17  1  0.35663590  0.76396345  0.49068323  1
  O  O18  1  0.34342808  0.77240873  0.05117123  1
  O  O19  1  0.86893905  0.41552848  0.24270969  1
  O  O20  1  0.62421118  0.69311780  0.45463059  1
  O  O21  1  0.63556251  0.76281690  0.91341621  1
  O  O22  1  0.96792004  0.02660461  0.11190057  1
  O  O23  1  0.13106095  0.58447152  0.75729031  1
  O  O24  1  0.81577272  0.25000978  0.75000882  1
  O  O25  1  0.22806328  0.19321710  0.95461648  1
  O  O26  1  0.36443749  0.23718310  0.08658379  1
  O  O27  1  0.64160958  0.57727631  0.75936647  1
  O  O28  1  0.03207996  0.97339539  0.88809943  1
  O  O29  1  0.37578882  0.30688220  0.54536941  1
  O  O30  1  0.47275346  0.91553712  0.74266764  1
  O  O31  1  0.68819372  0.26277220  0.41344954  1
  O  O32  1  0.52724654  0.08446288  0.25733236  1
  O  O33  1  0.16713595  0.72759582  0.44876810  1
  O  O34  1  0.97821395  0.92274314  0.74063755  1
  O  O35  1  0.77193672  0.80678290  0.04538352  1
  O  O36  1  0.89340501  0.52664454  0.61188842  1
  O  O37  1  0.83286405  0.27240418  0.55123190  1
  O  O38  1  0.65657092  0.22759127  0.94882877  1
  O  O39  1  0.02178605  0.07725686  0.25936245  1
  O  O40  1  0.10659499  0.47335546  0.38811158  1
  O  O41  1  0.35839042  0.42272369  0.24063353  1
  O  O42  1  0.18422728  0.74999022  0.24999118  1
  O  O43  1  0.29875350  0.25002960  0.74998644  1
  O  O44  1  0.31180628  0.73722780  0.58655046  1
  O  O45  1  0.70124650  0.74997040  0.25001356  1
  F  F46  1  0.69127518  0.04413992  0.53736696  1
  F  F47  1  0.72720374  0.54410807  0.03729915  1
  F  F48  1  0.27279626  0.45589193  0.96270085  1
  F  F49  1  0.30872482  0.95586008  0.46263304  1
