# generated using pymatgen
data_BaHgO2
_symmetry_space_group_name_H-M   'P 1'
_cell_length_a   6.98173192
_cell_length_b   6.98173176
_cell_length_c   12.67976011
_cell_angle_alpha   90.00000000
_cell_angle_beta   90.00000000
_cell_angle_gamma   120.00000076
_symmetry_Int_Tables_number   1
_chemical_formula_structural   BaHgO2
_chemical_formula_sum   'Ba6 Hg6 O12'
_cell_volume   535.26394874
_cell_formula_units_Z   6
loop_
 _symmetry_equiv_pos_site_id
 _symmetry_equiv_pos_as_xyz
  1  'x, y, z'
loop_
 _atom_site_type_symbol
 _atom_site_label
 _atom_site_symmetry_multiplicity
 _atom_site_fract_x
 _atom_site_fract_y
 _atom_site_fract_z
 _atom_site_occupancy
  Ba  Ba0  1  0.33333300  0.66666700  0.96747035  1
  Ba  Ba1  1  0.66666700  0.33333300  0.46747035  1
  Ba  Ba2  1  0.00000000  0.00000000  0.50000000  1
  Ba  Ba3  1  0.33333300  0.66666700  0.53252965  1
  Ba  Ba4  1  0.66666700  0.33333300  0.03252965  1
  Ba  Ba5  1  0.00000000  0.00000000  0.00000000  1
  Hg  Hg6  1  0.17484132  0.82515868  0.25000000  1
  Hg  Hg7  1  0.65031735  0.82515868  0.25000000  1
  Hg  Hg8  1  0.82515868  0.17484132  0.75000000  1
  Hg  Hg9  1  0.34968265  0.17484132  0.75000000  1
  Hg  Hg10  1  0.82515868  0.65031735  0.75000000  1
  Hg  Hg11  1  0.17484132  0.34968265  0.25000000  1
  O  O12  1  0.65010789  0.68736336  0.10978925  1
  O  O13  1  0.68736336  0.65010789  0.89021075  1
  O  O14  1  0.03725547  0.34989211  0.10978925  1
  O  O15  1  0.34989211  0.03725547  0.89021075  1
  O  O16  1  0.68736336  0.03725547  0.60978925  1
  O  O17  1  0.31263664  0.96274453  0.10978925  1
  O  O18  1  0.03725547  0.68736336  0.39021075  1
  O  O19  1  0.65010789  0.96274453  0.39021075  1
  O  O20  1  0.96274453  0.65010789  0.60978925  1
  O  O21  1  0.96274453  0.31263664  0.89021075  1
  O  O22  1  0.34989211  0.31263664  0.60978925  1
  O  O23  1  0.31263664  0.34989211  0.39021075  1
