# generated using pymatgen
data_SiO2
_symmetry_space_group_name_H-M   'P 1'
_cell_length_a   7.13624292
_cell_length_b   6.92249944
_cell_length_c   6.92249944
_cell_angle_alpha   90.00000000
_cell_angle_beta   90.00000000
_cell_angle_gamma   90.00000000
_symmetry_Int_Tables_number   1
_chemical_formula_structural   SiO2
_chemical_formula_sum   'Si8 O16'
_cell_volume   341.97588624
_cell_formula_units_Z   8
loop_
 _symmetry_equiv_pos_site_id
 _symmetry_equiv_pos_as_xyz
  1  'x, y, z'
loop_
 _atom_site_type_symbol
 _atom_site_label
 _atom_site_symmetry_multiplicity
 _atom_site_fract_x
 _atom_site_fract_y
 _atom_site_fract_z
 _atom_site_occupancy
  Si  Si0  1  0.94867979  0.45193961  0.79507339  1
  Si  Si1  1  0.55132021  0.29507339  0.95193961  1
  Si  Si2  1  0.55132021  0.70492661  0.04806039  1
  Si  Si3  1  0.05132021  0.79507339  0.54806039  1
  Si  Si4  1  0.94867979  0.54806039  0.20492661  1
  Si  Si5  1  0.44867979  0.04806039  0.29507339  1
  Si  Si6  1  0.44867979  0.95193961  0.70492661  1
  Si  Si7  1  0.05132021  0.20492661  0.45193961  1
  O  O8  1  0.58077481  0.81690583  0.84148921  1
  O  O9  1  0.08077481  0.31690583  0.65851079  1
  O  O10  1  0.08077481  0.68309417  0.34148921  1
  O  O11  1  0.05124650  0.50000000  0.00000000  1
  O  O12  1  0.75000000  0.34200786  0.84200786  1
  O  O13  1  0.94875350  0.00000000  0.50000000  1
  O  O14  1  0.91922519  0.34148921  0.31690583  1
  O  O15  1  0.91922519  0.65851079  0.68309417  1
  O  O16  1  0.44875350  0.50000000  0.00000000  1
  O  O17  1  0.58077481  0.18309417  0.15851079  1
  O  O18  1  0.55124650  0.00000000  0.50000000  1
  O  O19  1  0.41922519  0.15851079  0.81690583  1
  O  O20  1  0.41922519  0.84148921  0.18309417  1
  O  O21  1  0.25000000  0.15799214  0.34200786  1
  O  O22  1  0.25000000  0.84200786  0.65799214  1
  O  O23  1  0.75000000  0.65799214  0.15799214  1
