# generated using pymatgen
data_CdSO3
_symmetry_space_group_name_H-M   'P 1'
_cell_length_a   5.65376875
_cell_length_b   8.75328908
_cell_length_c   12.82371036
_cell_angle_alpha   90.00000000
_cell_angle_beta   90.00000000
_cell_angle_gamma   100.21986305
_symmetry_Int_Tables_number   1
_chemical_formula_structural   CdSO3
_chemical_formula_sum   'Cd8 S8 O24'
_cell_volume   624.56453376
_cell_formula_units_Z   8
loop_
 _symmetry_equiv_pos_site_id
 _symmetry_equiv_pos_as_xyz
  1  'x, y, z'
loop_
 _atom_site_type_symbol
 _atom_site_label
 _atom_site_symmetry_multiplicity
 _atom_site_fract_x
 _atom_site_fract_y
 _atom_site_fract_z
 _atom_site_occupancy
  Cd  Cd0  1  0.67949717  0.88487693  0.41965414  1
  Cd  Cd1  1  0.13299812  0.65355859  0.25406182  1
  Cd  Cd2  1  0.32050283  0.61512307  0.91965414  1
  Cd  Cd3  1  0.86700188  0.34644141  0.74593818  1
  Cd  Cd4  1  0.86700188  0.84644141  0.75406182  1
  Cd  Cd5  1  0.32050283  0.11512307  0.58034586  1
  Cd  Cd6  1  0.67949717  0.38487693  0.08034586  1
  Cd  Cd7  1  0.13299812  0.15355859  0.24593818  1
  S  S8  1  0.53851445  0.48395176  0.32567357  1
  S  S9  1  0.53851445  0.98395176  0.17432643  1
  S  S10  1  0.46148555  0.01604824  0.82567357  1
  S  S11  1  0.46148555  0.51604824  0.67432643  1
  S  S12  1  0.09679959  0.24724671  0.97893964  1
  S  S13  1  0.09679959  0.74724671  0.52106036  1
  S  S14  1  0.90320041  0.75275329  0.02106036  1
  S  S15  1  0.90320041  0.25275329  0.47893964  1
  O  O16  1  0.99540830  0.24557254  0.09166878  1
  O  O17  1  0.31188234  0.91942478  0.24089240  1
  O  O18  1  0.91776368  0.83791205  0.57671193  1
  O  O19  1  0.68811766  0.08057522  0.75910760  1
  O  O20  1  0.31188234  0.41942478  0.25910760  1
  O  O21  1  0.50812657  0.34831367  0.65674049  1
  O  O22  1  0.33639207  0.36585753  0.97817467  1
  O  O23  1  0.24936922  0.00400196  0.74565470  1
  O  O24  1  0.49187343  0.65168633  0.34325951  1
  O  O25  1  0.00459170  0.75442746  0.90833122  1
  O  O26  1  0.66360793  0.63414247  0.02182533  1
  O  O27  1  0.24936922  0.50400196  0.75434530  1
  O  O28  1  0.99540830  0.74557254  0.40833122  1
  O  O29  1  0.49187343  0.15168633  0.15674049  1
  O  O30  1  0.50812657  0.84831367  0.84325951  1
  O  O31  1  0.75063078  0.49599804  0.24565470  1
  O  O32  1  0.68811766  0.58057522  0.74089240  1
  O  O33  1  0.08223632  0.66208795  0.07671193  1
  O  O34  1  0.91776368  0.33791205  0.92328807  1
  O  O35  1  0.00459170  0.25442746  0.59166878  1
  O  O36  1  0.33639207  0.86585753  0.52182533  1
  O  O37  1  0.75063078  0.99599804  0.25434530  1
  O  O38  1  0.66360793  0.13414247  0.47817467  1
  O  O39  1  0.08223632  0.16208795  0.42328807  1
