# generated using pymatgen
data_BaCrO3
_symmetry_space_group_name_H-M   'P 1'
_cell_length_a   5.72824468
_cell_length_b   5.72824468
_cell_length_c   13.95203721
_cell_angle_alpha   90.00000000
_cell_angle_beta   90.00000000
_cell_angle_gamma   120.00000001
_symmetry_Int_Tables_number   1
_chemical_formula_structural   BaCrO3
_chemical_formula_sum   'Ba6 Cr6 O18'
_cell_volume   396.47095622
_cell_formula_units_Z   6
loop_
 _symmetry_equiv_pos_site_id
 _symmetry_equiv_pos_as_xyz
  1  'x, y, z'
loop_
 _atom_site_type_symbol
 _atom_site_label
 _atom_site_symmetry_multiplicity
 _atom_site_fract_x
 _atom_site_fract_y
 _atom_site_fract_z
 _atom_site_occupancy
  Ba  Ba0  1  0.00000000  0.00000000  0.25000000  1
  Ba  Ba1  1  0.00000000  0.00000000  0.75000000  1
  Ba  Ba2  1  0.33333300  0.66666700  0.09198617  1
  Ba  Ba3  1  0.66666700  0.33333300  0.59198617  1
  Ba  Ba4  1  0.66666700  0.33333300  0.90801383  1
  Ba  Ba5  1  0.33333300  0.66666700  0.40801383  1
  Cr  Cr6  1  0.00000000  0.00000000  0.00000000  1
  Cr  Cr7  1  0.00000000  0.00000000  0.50000000  1
  Cr  Cr8  1  0.33333300  0.66666700  0.84568058  1
  Cr  Cr9  1  0.66666700  0.33333300  0.34568058  1
  Cr  Cr10  1  0.66666700  0.33333300  0.15431942  1
  Cr  Cr11  1  0.33333300  0.66666700  0.65431942  1
  O  O12  1  0.52065000  0.47935000  0.25000000  1
  O  O13  1  0.04130001  0.52065000  0.75000000  1
  O  O14  1  0.47935000  0.95869999  0.75000000  1
  O  O15  1  0.52065000  0.04130001  0.25000000  1
  O  O16  1  0.95869999  0.47935000  0.25000000  1
  O  O17  1  0.47935000  0.52065000  0.75000000  1
  O  O18  1  0.83024437  0.16975563  0.08170826  1
  O  O19  1  0.66048874  0.83024437  0.58170826  1
  O  O20  1  0.16975563  0.33951126  0.58170826  1
  O  O21  1  0.83024437  0.66048874  0.08170826  1
  O  O22  1  0.33951126  0.16975563  0.08170826  1
  O  O23  1  0.66048874  0.83024437  0.91829174  1
  O  O24  1  0.16975563  0.33951126  0.91829174  1
  O  O25  1  0.16975563  0.83024437  0.58170826  1
  O  O26  1  0.16975563  0.83024437  0.91829174  1
  O  O27  1  0.83024437  0.16975563  0.41829174  1
  O  O28  1  0.33951126  0.16975563  0.41829174  1
  O  O29  1  0.83024437  0.66048874  0.41829174  1
