# generated using pymatgen
data_CsTmCoS3
_symmetry_space_group_name_H-M   'P 1'
_cell_length_a   3.92703128
_cell_length_b   8.03124170
_cell_length_c   10.40269680
_cell_angle_alpha   90.00000000
_cell_angle_beta   90.00000000
_cell_angle_gamma   104.15138259
_symmetry_Int_Tables_number   1
_chemical_formula_structural   CsTmCoS3
_chemical_formula_sum   'Cs2 Tm2 Co2 S6'
_cell_volume   318.13350548
_cell_formula_units_Z   2
loop_
 _symmetry_equiv_pos_site_id
 _symmetry_equiv_pos_as_xyz
  1  'x, y, z'
loop_
 _atom_site_type_symbol
 _atom_site_label
 _atom_site_symmetry_multiplicity
 _atom_site_fract_x
 _atom_site_fract_y
 _atom_site_fract_z
 _atom_site_occupancy
  Cs  Cs0  1  0.73775979  0.47551959  0.75000000  1
  Cs  Cs1  1  0.26224021  0.52448041  0.25000000  1
  Tm  Tm2  1  0.00000000  0.00000000  0.50000000  1
  Tm  Tm3  1  0.00000000  0.00000000  0.00000000  1
  Co  Co4  1  0.46363317  0.92726634  0.75000000  1
  Co  Co5  1  0.53636683  0.07273366  0.25000000  1
  S  S6  1  0.61178912  0.22357823  0.06434118  1
  S  S7  1  0.38821088  0.77642177  0.56434118  1
  S  S8  1  0.61178912  0.22357823  0.43565882  1
  S  S9  1  0.38821088  0.77642177  0.93565882  1
  S  S10  1  0.04622075  0.09244150  0.75000000  1
  S  S11  1  0.95377925  0.90755850  0.25000000  1
