# generated using pymatgen
data_MnH10S2(NO2)4
_symmetry_space_group_name_H-M   'P 1'
_cell_length_a   5.48241070
_cell_length_b   5.92536714
_cell_length_c   7.52687549
_cell_angle_alpha   92.24098814
_cell_angle_beta   104.47521188
_cell_angle_gamma   99.52513944
_symmetry_Int_Tables_number   1
_chemical_formula_structural   MnH10S2(NO2)4
_chemical_formula_sum   'Mn1 H10 S2 N4 O8'
_cell_volume   232.65642413
_cell_formula_units_Z   1
loop_
 _symmetry_equiv_pos_site_id
 _symmetry_equiv_pos_as_xyz
  1  'x, y, z'
loop_
 _atom_site_type_symbol
 _atom_site_label
 _atom_site_symmetry_multiplicity
 _atom_site_fract_x
 _atom_site_fract_y
 _atom_site_fract_z
 _atom_site_occupancy
  Mn  Mn0  1  0.00000000  0.00000000  0.00000000  1
  H  H1  1  0.78442098  0.45287403  0.81749321  1
  H  H2  1  0.56684754  0.21762675  0.71046958  1
  H  H3  1  0.21557902  0.54712597  0.18250679  1
  H  H4  1  0.90193567  0.70876572  0.27721131  1
  H  H5  1  0.87635249  0.07129090  0.61922249  1
  H  H6  1  0.09806433  0.29123428  0.72278869  1
  H  H7  1  0.71669629  0.39979418  0.58335536  1
  H  H8  1  0.28330371  0.60020582  0.41664464  1
  H  H9  1  0.43315246  0.78237325  0.28953042  1
  H  H10  1  0.12364751  0.92870910  0.38077751  1
  S  S11  1  0.36211210  0.75343341  0.77683418  1
  S  S12  1  0.63788790  0.24656659  0.22316582  1
  N  N13  1  0.06611394  0.81512730  0.26499616  1
  N  N14  1  0.26176440  0.67352570  0.28969190  1
  N  N15  1  0.93388606  0.18487270  0.73500384  1
  N  N16  1  0.73823560  0.32647430  0.71030810  1
  O  O17  1  0.83034744  0.26858006  0.11075873  1
  O  O18  1  0.37511664  0.23029967  0.09918376  1
  O  O19  1  0.65641988  0.04070105  0.32986185  1
  O  O20  1  0.34358012  0.95929895  0.67013815  1
  O  O21  1  0.62488336  0.76970033  0.90081624  1
  O  O22  1  0.16965256  0.73141994  0.88924127  1
  O  O23  1  0.69673108  0.45767145  0.35299850  1
  O  O24  1  0.30326892  0.54232855  0.64700150  1
