# generated using pymatgen
data_VCu2BiO6
_symmetry_space_group_name_H-M   'P 1'
_cell_length_a   7.85239438
_cell_length_b   9.21280047
_cell_length_c   12.93120089
_cell_angle_alpha   74.67344231
_cell_angle_beta   72.35718198
_cell_angle_gamma   64.75912997
_symmetry_Int_Tables_number   1
_chemical_formula_structural   VCu2BiO6
_chemical_formula_sum   'V6 Cu12 Bi6 O36'
_cell_volume   796.39749407
_cell_formula_units_Z   6
loop_
 _symmetry_equiv_pos_site_id
 _symmetry_equiv_pos_as_xyz
  1  'x, y, z'
loop_
 _atom_site_type_symbol
 _atom_site_label
 _atom_site_symmetry_multiplicity
 _atom_site_fract_x
 _atom_site_fract_y
 _atom_site_fract_z
 _atom_site_occupancy
  V  V0  1  0.65351644  0.15493145  0.53842058  1
  V  V1  1  0.95701312  0.85257557  0.23285937  1
  V  V2  1  0.04298688  0.14742443  0.76714063  1
  V  V3  1  0.34648356  0.84506855  0.46157942  1
  V  V4  1  0.31498116  0.49261800  0.87694766  1
  V  V5  1  0.68501884  0.50738200  0.12305234  1
  Cu  Cu6  1  0.73862196  0.52841275  0.36417403  1
  Cu  Cu7  1  0.07805933  0.18285477  0.02096437  1
  Cu  Cu8  1  0.43872722  0.82261478  0.70212923  1
  Cu  Cu9  1  0.36723774  0.53005020  0.36364038  1
  Cu  Cu10  1  0.28198512  0.81702518  0.97946406  1
  Cu  Cu11  1  0.03811107  0.82160826  0.70245595  1
  Cu  Cu12  1  0.56127278  0.17738522  0.29787077  1
  Cu  Cu13  1  0.63276226  0.46994980  0.63635962  1
  Cu  Cu14  1  0.92194067  0.81714523  0.97903563  1
  Cu  Cu15  1  0.96188893  0.17839174  0.29754405  1
  Cu  Cu16  1  0.26137804  0.47158725  0.63582597  1
  Cu  Cu17  1  0.71801488  0.18297482  0.02053594  1
  Bi  Bi18  1  0.56298236  0.02978968  0.84342262  1
  Bi  Bi19  1  0.21534645  0.40763019  0.16192770  1
  Bi  Bi20  1  0.78465355  0.59236981  0.83807230  1
  Bi  Bi21  1  0.87913183  0.70957032  0.53226847  1
  Bi  Bi22  1  0.43701764  0.97021032  0.15657738  1
  Bi  Bi23  1  0.12086817  0.29042968  0.46773153  1
  O  O24  1  0.80625603  0.32460483  0.06299007  1
  O  O25  1  0.50778564  0.18658445  0.15591529  1
  O  O26  1  0.51914099  0.15085460  0.45599129  1
  O  O27  1  0.16831824  0.38556844  0.91974535  1
  O  O28  1  0.47437685  0.61515963  0.07990962  1
  O  O29  1  0.36600046  0.53878656  0.72924308  1
  O  O30  1  0.32649478  0.99973026  0.99990234  1
  O  O31  1  0.68329925  0.98798606  0.64555716  1
  O  O32  1  0.49221436  0.81341555  0.84408471  1
  O  O33  1  0.31670075  0.01201394  0.35444284  1
  O  O34  1  0.17236183  0.50019943  0.49948831  1
  O  O35  1  0.46606418  0.65759634  0.41021787  1
  O  O36  1  0.00387927  0.63015741  0.68621418  1
  O  O37  1  0.67350522  0.00026974  0.00009766  1
  O  O38  1  0.02746329  0.85821172  0.08648307  1
  O  O39  1  0.82763817  0.49980057  0.50051169  1
  O  O40  1  0.87402115  0.15229736  0.45609855  1
  O  O41  1  0.84718820  0.81290865  0.84453989  1
  O  O42  1  0.83612128  0.05548938  0.27134829  1
  O  O43  1  0.15281180  0.18709135  0.15546011  1
  O  O44  1  0.63399954  0.46121344  0.27075692  1
  O  O45  1  0.97253671  0.14178828  0.91351693  1
  O  O46  1  0.84322513  0.24516666  0.71305492  1
  O  O47  1  0.67599176  0.63186779  0.68630520  1
  O  O48  1  0.48085901  0.84914540  0.54400871  1
  O  O49  1  0.12597885  0.84770264  0.54390145  1
  O  O50  1  0.19374397  0.67539517  0.93700993  1
  O  O51  1  0.80093059  0.75516742  0.28697682  1
  O  O52  1  0.16387872  0.94451062  0.72865171  1
  O  O53  1  0.52562315  0.38484037  0.92009038  1
  O  O54  1  0.32400824  0.36813221  0.31369480  1
  O  O55  1  0.15677487  0.75483334  0.28694508  1
  O  O56  1  0.53393582  0.34240366  0.58978213  1
  O  O57  1  0.99612073  0.36984259  0.31378582  1
  O  O58  1  0.19906941  0.24483258  0.71302318  1
  O  O59  1  0.83168176  0.61443156  0.08025465  1
