# generated using pymatgen
data_WCl3O
_symmetry_space_group_name_H-M   'P 1'
_cell_length_a   3.82752553
_cell_length_b   12.24912656
_cell_length_c   12.24912656
_cell_angle_alpha   90.00000000
_cell_angle_beta   90.00000000
_cell_angle_gamma   90.00000000
_symmetry_Int_Tables_number   1
_chemical_formula_structural   WCl3O
_chemical_formula_sum   'W4 Cl12 O4'
_cell_volume   574.28614648
_cell_formula_units_Z   4
loop_
 _symmetry_equiv_pos_site_id
 _symmetry_equiv_pos_as_xyz
  1  'x, y, z'
loop_
 _atom_site_type_symbol
 _atom_site_label
 _atom_site_symmetry_multiplicity
 _atom_site_fract_x
 _atom_site_fract_y
 _atom_site_fract_z
 _atom_site_occupancy
  W  W0  1  0.00000000  0.10893461  0.10893461  1
  W  W1  1  0.50000000  0.39106539  0.60893461  1
  W  W2  1  0.00000000  0.89106539  0.89106539  1
  W  W3  1  0.50000000  0.60893461  0.39106539  1
  Cl  Cl4  1  0.00000000  0.70230532  0.90000431  1
  Cl  Cl5  1  0.50000000  0.59821150  0.59821150  1
  Cl  Cl6  1  0.50000000  0.40000431  0.79769468  1
  Cl  Cl7  1  0.00000000  0.90178850  0.09821150  1
  Cl  Cl8  1  0.50000000  0.40178850  0.40178850  1
  Cl  Cl9  1  0.00000000  0.09999569  0.29769468  1
  Cl  Cl10  1  0.00000000  0.29769468  0.09999569  1
  Cl  Cl11  1  0.50000000  0.79769468  0.40000431  1
  Cl  Cl12  1  0.50000000  0.59999569  0.20230532  1
  Cl  Cl13  1  0.50000000  0.20230532  0.59999569  1
  Cl  Cl14  1  0.00000000  0.90000431  0.70230532  1
  Cl  Cl15  1  0.00000000  0.09821150  0.90178850  1
  O  O16  1  0.00000000  0.40100279  0.59899721  1
  O  O17  1  0.50000000  0.09899721  0.09899721  1
  O  O18  1  0.50000000  0.90100279  0.90100279  1
  O  O19  1  0.00000000  0.59899721  0.40100279  1
