# generated using pymatgen
data_Na3Fe2Mo5O16
_symmetry_space_group_name_H-M   'P 1'
_cell_length_a   6.12318209
_cell_length_b   6.12318216
_cell_length_c   21.48574222
_cell_angle_alpha   90.00000000
_cell_angle_beta   90.00000000
_cell_angle_gamma   119.99999959
_symmetry_Int_Tables_number   1
_chemical_formula_structural   Na3Fe2Mo5O16
_chemical_formula_sum   'Na6 Fe4 Mo10 O32'
_cell_volume   697.64638495
_cell_formula_units_Z   2
loop_
 _symmetry_equiv_pos_site_id
 _symmetry_equiv_pos_as_xyz
  1  'x, y, z'
loop_
 _atom_site_type_symbol
 _atom_site_label
 _atom_site_symmetry_multiplicity
 _atom_site_fract_x
 _atom_site_fract_y
 _atom_site_fract_z
 _atom_site_occupancy
  Na  Na0  1  0.33333300  0.66666700  0.61543131  1
  Na  Na1  1  0.66666700  0.33333300  0.38456869  1
  Na  Na2  1  -0.00000000  -0.00000000  -0.00000000  1
  Na  Na3  1  0.66666700  0.33333300  0.88878335  1
  Na  Na4  1  0.33333300  0.66666700  0.11121665  1
  Na  Na5  1  -0.00000000  -0.00000000  0.50000000  1
  Fe  Fe6  1  -0.00000000  -0.00000000  0.35249915  1
  Fe  Fe7  1  -0.00000000  -0.00000000  0.84930819  1
  Fe  Fe8  1  -0.00000000  -0.00000000  0.64750085  1
  Fe  Fe9  1  -0.00000000  -0.00000000  0.15069181  1
  Mo  Mo10  1  0.66666700  0.33333300  0.56896950  1
  Mo  Mo11  1  0.99754215  0.49877108  0.24765363  1
  Mo  Mo12  1  0.33333300  0.66666700  0.43103050  1
  Mo  Mo13  1  0.49877108  0.50122892  0.75234637  1
  Mo  Mo14  1  0.50122892  0.49877108  0.24765363  1
  Mo  Mo15  1  0.49877108  0.99754215  0.75234637  1
  Mo  Mo16  1  0.66666700  0.33333300  0.07604063  1
  Mo  Mo17  1  0.00245785  0.50122892  0.75234637  1
  Mo  Mo18  1  0.50122892  0.00245785  0.24765363  1
  Mo  Mo19  1  0.33333300  0.66666700  0.92395937  1
  O  O20  1  0.33360123  0.16680011  0.59007037  1
  O  O21  1  0.66639877  0.83319989  0.40992963  1
  O  O22  1  0.32356404  0.16178252  0.09072531  1
  O  O23  1  0.16178252  0.32356404  0.90927469  1
  O  O24  1  0.65996577  0.82998339  0.19465871  1
  O  O25  1  0.17707179  0.82292821  0.70183726  1
  O  O26  1  0.83319989  0.66639877  0.59007037  1
  O  O27  1  0.33333300  0.66666700  0.51292864  1
  O  O28  1  0.83821748  0.16178252  0.09072531  1
  O  O29  1  0.16680011  0.33360123  0.40992963  1
  O  O30  1  0.17001661  0.34003423  0.19465871  1
  O  O31  1  0.67643596  0.83821748  0.90927469  1
  O  O32  1  0.66666700  0.33333300  0.19179003  1
  O  O33  1  0.82292821  0.17707179  0.29816274  1
  O  O34  1  0.82998339  0.17001661  0.80534129  1
  O  O35  1  0.66666700  0.33333300  0.48707136  1
  O  O36  1  0.33333300  0.66666700  0.80820997  1
  O  O37  1  0.17707179  0.35414458  0.70183726  1
  O  O38  1  0.83319989  0.16680011  0.59007037  1
  O  O39  1  0.33333300  0.66666700  0.29839807  1
  O  O40  1  0.17001661  0.82998339  0.19465871  1
  O  O41  1  0.33333300  0.66666700  0.00574783  1
  O  O42  1  0.82998339  0.65996577  0.80534129  1
  O  O43  1  0.66666700  0.33333300  0.70160193  1
  O  O44  1  0.35414458  0.17707179  0.29816274  1
  O  O45  1  0.64585542  0.82292821  0.70183726  1
  O  O46  1  0.82292821  0.64585542  0.29816274  1
  O  O47  1  0.16680011  0.83319989  0.40992963  1
  O  O48  1  0.16178252  0.83821748  0.90927469  1
  O  O49  1  0.34003423  0.17001661  0.80534129  1
  O  O50  1  0.66666700  0.33333300  0.99425217  1
  O  O51  1  0.83821748  0.67643596  0.09072531  1
