# generated using pymatgen
data_Ba2La2Mn(WO6)2
_symmetry_space_group_name_H-M   'P 1'
_cell_length_a   9.83887826
_cell_length_b   9.83887814
_cell_length_c   9.83887878
_cell_angle_alpha   34.28352616
_cell_angle_beta   34.28352731
_cell_angle_gamma   34.28352674
_symmetry_Int_Tables_number   1
_chemical_formula_structural   Ba2La2Mn(WO6)2
_chemical_formula_sum   'Ba2 La2 Mn1 W2 O12'
_cell_volume   269.50403515
_cell_formula_units_Z   1
loop_
 _symmetry_equiv_pos_site_id
 _symmetry_equiv_pos_as_xyz
  1  'x, y, z'
loop_
 _atom_site_type_symbol
 _atom_site_label
 _atom_site_symmetry_multiplicity
 _atom_site_fract_x
 _atom_site_fract_y
 _atom_site_fract_z
 _atom_site_occupancy
  Ba  Ba0  1  0.13475995  0.13475995  0.13475995  1
  Ba  Ba1  1  0.86524005  0.86524005  0.86524005  1
  La  La2  1  0.29313062  0.29313062  0.29313062  1
  La  La3  1  0.70686938  0.70686938  0.70686938  1
  Mn  Mn4  1  0.00000000  0.00000000  0.00000000  1
  W  W5  1  0.41848616  0.41848616  0.41848616  1
  W  W6  1  0.58151384  0.58151384  0.58151384  1
  O  O7  1  0.88224020  0.38280056  0.38280056  1
  O  O8  1  0.78016067  0.32515569  0.78016067  1
  O  O9  1  0.11775980  0.61719944  0.61719944  1
  O  O10  1  0.32515569  0.78016067  0.78016067  1
  O  O11  1  0.21983933  0.21983933  0.67484431  1
  O  O12  1  0.67484431  0.21983933  0.21983933  1
  O  O13  1  0.38280056  0.38280056  0.88224020  1
  O  O14  1  0.21983933  0.67484431  0.21983933  1
  O  O15  1  0.38280056  0.88224020  0.38280056  1
  O  O16  1  0.78016067  0.78016067  0.32515569  1
  O  O17  1  0.61719944  0.61719944  0.11775980  1
  O  O18  1  0.61719944  0.11775980  0.61719944  1
