# generated using pymatgen
data_Mn2H30C9N3Cl7
_symmetry_space_group_name_H-M   'P 1'
_cell_length_a   14.65218178
_cell_length_b   14.65218215
_cell_length_c   6.43755501
_cell_angle_alpha   90.00000000
_cell_angle_beta   90.00000000
_cell_angle_gamma   119.99999916
_symmetry_Int_Tables_number   1
_chemical_formula_structural   Mn2H30C9N3Cl7
_chemical_formula_sum   'Mn4 H60 C18 N6 Cl14'
_cell_volume   1196.89539370
_cell_formula_units_Z   2
loop_
 _symmetry_equiv_pos_site_id
 _symmetry_equiv_pos_as_xyz
  1  'x, y, z'
loop_
 _atom_site_type_symbol
 _atom_site_label
 _atom_site_symmetry_multiplicity
 _atom_site_fract_x
 _atom_site_fract_y
 _atom_site_fract_z
 _atom_site_occupancy
  Mn  Mn0  1  0.66666700  0.33333300  0.64303333  1
  Mn  Mn1  1  0.00000000  0.00000000  0.50259359  1
  Mn  Mn2  1  0.33333300  0.66666700  0.14303333  1
  Mn  Mn3  1  0.00000000  0.00000000  0.00259359  1
  H  H4  1  0.75561168  0.67904585  0.99330016  1
  H  H5  1  0.14422428  0.68610505  0.41910320  1
  H  H6  1  0.32095415  0.07656582  0.99330016  1
  H  H7  1  0.58271761  0.93506576  0.64919851  1
  H  H8  1  0.68610505  0.54188077  0.91910320  1
  H  H9  1  0.32095415  0.24438832  0.99330016  1
  H  H10  1  0.93506576  0.35234815  0.14919851  1
  H  H11  1  0.36957504  0.12390727  0.45563563  1
  H  H12  1  0.24566777  0.87609273  0.95563563  1
  H  H13  1  0.41728239  0.06493424  0.14919851  1
  H  H14  1  0.26839037  0.13419518  0.31557463  1
  H  H15  1  0.73160963  0.86580482  0.81557463  1
  H  H16  1  0.50213646  0.75106823  0.72189983  1
  H  H17  1  0.35234815  0.41728239  0.64919851  1
  H  H18  1  0.75561168  0.07656582  0.99330016  1
  H  H19  1  0.86580482  0.13419518  0.31557463  1
  H  H20  1  0.93506576  0.58271761  0.14919851  1
  H  H21  1  0.86580482  0.73160963  0.31557463  1
  H  H22  1  0.06493424  0.41728239  0.64919851  1
  H  H23  1  0.36957504  0.24566777  0.45563563  1
  H  H24  1  0.12390727  0.75433223  0.95563563  1
  H  H25  1  0.13419518  0.86580482  0.81557463  1
  H  H26  1  0.87609273  0.63042496  0.45563563  1
  H  H27  1  0.45811923  0.31389495  0.91910320  1
  H  H28  1  0.75433223  0.12390727  0.45563563  1
  H  H29  1  0.14422428  0.45811923  0.41910320  1
  H  H30  1  0.07656582  0.32095415  0.49330016  1
  H  H31  1  0.67904585  0.75561168  0.49330016  1
  H  H32  1  0.64765185  0.06493424  0.14919851  1
  H  H33  1  0.54188077  0.68610505  0.41910320  1
  H  H34  1  0.31389495  0.85577572  0.41910320  1
  H  H35  1  0.24893177  0.49786354  0.72189983  1
  H  H36  1  0.35234815  0.93506576  0.64919851  1
  H  H37  1  0.75106823  0.50213646  0.22189983  1
  H  H38  1  0.58271761  0.64765185  0.64919851  1
  H  H39  1  0.07656582  0.75561168  0.49330016  1
  H  H40  1  0.24438832  0.92343418  0.49330016  1
  H  H41  1  0.67904585  0.92343418  0.49330016  1
  H  H42  1  0.54188077  0.85577572  0.41910320  1
  H  H43  1  0.31389495  0.45811923  0.41910320  1
  H  H44  1  0.24438832  0.32095415  0.49330016  1
  H  H45  1  0.41728239  0.35234815  0.14919851  1
  H  H46  1  0.24893177  0.75106823  0.72189983  1
  H  H47  1  0.92343418  0.67904585  0.99330016  1
  H  H48  1  0.85577572  0.31389495  0.91910320  1
  H  H49  1  0.49786354  0.24893177  0.22189983  1
  H  H50  1  0.12390727  0.36957504  0.95563563  1
  H  H51  1  0.45811923  0.14422428  0.91910320  1
  H  H52  1  0.68610505  0.14422428  0.91910320  1
  H  H53  1  0.13419518  0.26839037  0.81557463  1
  H  H54  1  0.63042496  0.75433223  0.95563563  1
  H  H55  1  0.24566777  0.36957504  0.95563563  1
  H  H56  1  0.92343418  0.24438832  0.99330016  1
  H  H57  1  0.75433223  0.63042496  0.45563563  1
  H  H58  1  0.87609273  0.24566777  0.45563563  1
  H  H59  1  0.63042496  0.87609273  0.95563563  1
  H  H60  1  0.85577572  0.54188077  0.91910320  1
  H  H61  1  0.06493424  0.64765185  0.64919851  1
  H  H62  1  0.64765185  0.58271761  0.14919851  1
  H  H63  1  0.75106823  0.24893177  0.22189983  1
  C  C64  1  0.35110365  0.17555182  0.36441805  1
  C  C65  1  0.28577027  0.88321624  0.54939567  1
  C  C66  1  0.17555182  0.82444818  0.86441805  1
  C  C67  1  0.28577027  0.40255403  0.54939567  1
  C  C68  1  0.82444818  0.64889635  0.36441805  1
  C  C69  1  0.71422973  0.11678376  0.04939567  1
  C  C70  1  0.88321624  0.59744597  0.04939567  1
  C  C71  1  0.71422973  0.59744597  0.04939567  1
  C  C72  1  0.59744597  0.71422973  0.54939567  1
  C  C73  1  0.40255403  0.11678376  0.04939567  1
  C  C74  1  0.17555182  0.35110365  0.86441805  1
  C  C75  1  0.11678376  0.40255403  0.54939567  1
  C  C76  1  0.59744597  0.88321624  0.54939567  1
  C  C77  1  0.82444818  0.17555182  0.36441805  1
  C  C78  1  0.11678376  0.71422973  0.54939567  1
  C  C79  1  0.40255403  0.28577027  0.04939567  1
  C  C80  1  0.88321624  0.28577027  0.04939567  1
  C  C81  1  0.64889635  0.82444818  0.86441805  1
  N  N82  1  0.58046548  0.79023274  0.67528079  1
  N  N83  1  0.41953452  0.20976726  0.17528079  1
  N  N84  1  0.79023274  0.20976726  0.17528079  1
  N  N85  1  0.20976726  0.41953452  0.67528079  1
  N  N86  1  0.79023274  0.58046548  0.17528079  1
  N  N87  1  0.20976726  0.79023274  0.67528079  1
  Cl  Cl88  1  0.07843810  0.15687621  0.25366553  1
  Cl  Cl89  1  0.33333300  0.66666700  0.51506812  1
  Cl  Cl90  1  0.92156190  0.07843810  0.75366553  1
  Cl  Cl91  1  0.92156190  0.84312379  0.75366553  1
  Cl  Cl92  1  0.84297758  0.42148879  0.53008981  1
  Cl  Cl93  1  0.15702242  0.57851121  0.03008981  1
  Cl  Cl94  1  0.42148879  0.57851121  0.03008981  1
  Cl  Cl95  1  0.15687621  0.07843810  0.75366553  1
  Cl  Cl96  1  0.57851121  0.42148879  0.53008981  1
  Cl  Cl97  1  0.42148879  0.84297758  0.03008981  1
  Cl  Cl98  1  0.66666700  0.33333300  0.01506812  1
  Cl  Cl99  1  0.07843810  0.92156190  0.25366553  1
  Cl  Cl100  1  0.84312379  0.92156190  0.25366553  1
  Cl  Cl101  1  0.57851121  0.15702242  0.53008981  1
