# generated using pymatgen
data_Tb3(MnGe)4
_symmetry_space_group_name_H-M   'P 1'
_cell_length_a   4.15059854
_cell_length_b   7.04117698
_cell_length_c   8.01295658
_cell_angle_alpha   116.06318230
_cell_angle_beta   105.01031905
_cell_angle_gamma   89.99999704
_symmetry_Int_Tables_number   1
_chemical_formula_structural   Tb3(MnGe)4
_chemical_formula_sum   'Tb3 Mn4 Ge4'
_cell_volume   201.43294201
_cell_formula_units_Z   1
loop_
 _symmetry_equiv_pos_site_id
 _symmetry_equiv_pos_as_xyz
  1  'x, y, z'
loop_
 _atom_site_type_symbol
 _atom_site_label
 _atom_site_symmetry_multiplicity
 _atom_site_fract_x
 _atom_site_fract_y
 _atom_site_fract_z
 _atom_site_occupancy
  Tb  Tb0  1  0.12439781  0.12439781  0.24879563  1
  Tb  Tb1  1  -0.00000000  0.50000000  0.00000000  1
  Tb  Tb2  1  0.87560219  0.87560219  0.75120437  1
  Mn  Mn3  1  0.67642039  0.48736210  0.35284078  1
  Mn  Mn4  1  0.32357961  0.13452132  0.64715922  1
  Mn  Mn5  1  0.67642039  0.86547868  0.35284078  1
  Mn  Mn6  1  0.32357961  0.51263790  0.64715922  1
  Ge  Ge7  1  0.77979118  0.27979118  0.55958237  1
  Ge  Ge8  1  0.50000000  0.19758822  0.00000000  1
  Ge  Ge9  1  0.50000000  0.80241178  1.00000000  1
  Ge  Ge10  1  0.22020882  0.72020882  0.44041763  1
