# generated using pymatgen
data_InSi2As(H3C)8
_symmetry_space_group_name_H-M   'P 1'
_cell_length_a   9.54553158
_cell_length_b   9.81395641
_cell_length_c   10.09703358
_cell_angle_alpha   77.86617556
_cell_angle_beta   81.41934079
_cell_angle_gamma   65.52804087
_symmetry_Int_Tables_number   1
_chemical_formula_structural   InSi2As(H3C)8
_chemical_formula_sum   'In2 Si4 As2 H48 C16'
_cell_volume   839.62263161
_cell_formula_units_Z   2
loop_
 _symmetry_equiv_pos_site_id
 _symmetry_equiv_pos_as_xyz
  1  'x, y, z'
loop_
 _atom_site_type_symbol
 _atom_site_label
 _atom_site_symmetry_multiplicity
 _atom_site_fract_x
 _atom_site_fract_y
 _atom_site_fract_z
 _atom_site_occupancy
  In  In0  1  0.54584241  0.65470798  0.57200203  1
  In  In1  1  0.45415759  0.34529202  0.42799797  1
  Si  Si2  1  0.68733339  0.62105650  0.15672299  1
  Si  Si3  1  0.25063559  0.81832526  0.25360510  1
  Si  Si4  1  0.74936441  0.18167474  0.74639490  1
  Si  Si5  1  0.31266661  0.37894350  0.84327701  1
  As  As6  1  0.51429186  0.38314694  0.67368916  1
  As  As7  1  0.48570814  0.61685306  0.32631084  1
  H  H8  1  0.86750627  0.52357907  0.53135317  1
  H  H9  1  0.83955187  0.90076289  0.80394906  1
  H  H10  1  0.36932515  0.95718302  0.58586415  1
  H  H11  1  0.27827573  0.35008405  0.09503814  1
  H  H12  1  0.81408112  0.61359742  0.67800343  1
  H  H13  1  0.35788560  0.01148952  0.13963139  1
  H  H14  1  0.15745383  0.22140495  0.90745580  1
  H  H15  1  0.69476173  0.97468678  0.68564831  1
  H  H16  1  0.72172427  0.64991595  0.90496186  1
  H  H17  1  0.62045647  0.14878512  0.24683591  1
  H  H18  1  0.16044813  0.09923711  0.19605094  1
  H  H19  1  0.78629424  0.76490995  0.26928344  1
  H  H20  1  0.84254617  0.77859505  0.09254420  1
  H  H21  1  0.21370576  0.23509005  0.73071656  1
  H  H22  1  0.34836561  0.10930993  0.84984415  1
  H  H23  1  0.63067485  0.04281698  0.41413585  1
  H  H24  1  0.17409842  0.66179651  0.81779139  1
  H  H25  1  0.80352272  0.72441074  0.51292247  1
  H  H26  1  0.82199297  0.31841487  0.89004824  1
  H  H27  1  0.40888459  0.43969197  0.03335693  1
  H  H28  1  0.18591888  0.38640258  0.32199657  1
  H  H29  1  0.08277735  0.70924282  0.41335322  1
  H  H30  1  0.01351817  0.09121602  0.63295811  1
  H  H31  1  0.07775700  0.88157962  0.06951514  1
  H  H32  1  0.98648183  0.90878398  0.36704189  1
  H  H33  1  0.65163439  0.89069007  0.15015585  1
  H  H34  1  0.75291476  0.14344284  0.35705961  1
  H  H35  1  0.27271181  0.79316508  0.00673538  1
  H  H36  1  0.12656769  0.83294393  0.48997480  1
  H  H37  1  0.64211440  0.98851048  0.86036861  1
  H  H38  1  0.82590158  0.33820349  0.18220861  1
  H  H39  1  0.52855349  0.75972989  0.95613875  1
  H  H40  1  0.89652198  0.41226337  0.29184847  1
  H  H41  1  0.91722265  0.29075718  0.58664678  1
  H  H42  1  0.37954353  0.85121488  0.75316409  1
  H  H43  1  0.17800703  0.68158513  0.10995176  1
  H  H44  1  0.13249373  0.47642093  0.46864683  1
  H  H45  1  0.47144651  0.24027011  0.04386125  1
  H  H46  1  0.24708524  0.85655716  0.64294039  1
  H  H47  1  0.10347802  0.58773663  0.70815153  1
  H  H48  1  0.87343231  0.16705607  0.51002520  1
  H  H49  1  0.04714905  0.56896950  0.88460187  1
  H  H50  1  0.92224300  0.11842038  0.93048486  1
  H  H51  1  0.30523827  0.02531322  0.31435169  1
  H  H52  1  0.59111541  0.56030803  0.96664307  1
  H  H53  1  0.19647728  0.27558926  0.48707753  1
  H  H54  1  0.72728819  0.20683492  0.99326462  1
  H  H55  1  0.95285095  0.43103050  0.11539813  1
  C  C56  1  0.78698569  0.62450208  0.57334272  1
  C  C57  1  0.27132345  0.00559797  0.22307222  1
  C  C58  1  0.09800112  0.81675992  0.39464368  1
  C  C59  1  0.80940125  0.20974795  0.90521041  1
  C  C60  1  0.63750991  0.14679934  0.35252150  1
  C  C61  1  0.36249009  0.85320066  0.64747850  1
  C  C62  1  0.14414824  0.56731880  0.80957914  1
  C  C63  1  0.72867655  0.99440203  0.77692778  1
  C  C64  1  0.25304980  0.22138434  0.83135332  1
  C  C65  1  0.37447763  0.34997245  0.01963652  1
  C  C66  1  0.74695020  0.77861566  0.16864668  1
  C  C67  1  0.85585176  0.43268120  0.19042086  1
  C  C68  1  0.62552237  0.65002755  0.98036348  1
  C  C69  1  0.19059875  0.79025205  0.09478959  1
  C  C70  1  0.90199888  0.18324008  0.60535632  1
  C  C71  1  0.21301431  0.37549792  0.42665728  1
