# generated using pymatgen
data_GaH12C4NCl3
_symmetry_space_group_name_H-M   'P 1'
_cell_length_a   13.32733599
_cell_length_b   13.32733599
_cell_length_c   13.32733599
_cell_angle_alpha   90.00000000
_cell_angle_beta   90.00000000
_cell_angle_gamma   90.00000000
_symmetry_Int_Tables_number   1
_chemical_formula_structural   GaH12C4NCl3
_chemical_formula_sum   'Ga8 H96 C32 N8 Cl24'
_cell_volume   2367.17322577
_cell_formula_units_Z   8
loop_
 _symmetry_equiv_pos_site_id
 _symmetry_equiv_pos_as_xyz
  1  'x, y, z'
loop_
 _atom_site_type_symbol
 _atom_site_label
 _atom_site_symmetry_multiplicity
 _atom_site_fract_x
 _atom_site_fract_y
 _atom_site_fract_z
 _atom_site_occupancy
  Ga  Ga0  1  0.05290607  0.05290607  0.05290607  1
  Ga  Ga1  1  0.05290607  0.44709393  0.55290607  1
  Ga  Ga2  1  0.44709393  0.94709393  0.55290607  1
  Ga  Ga3  1  0.94709393  0.94709393  0.94709393  1
  Ga  Ga4  1  0.55290607  0.05290607  0.44709393  1
  Ga  Ga5  1  0.55290607  0.44709393  0.94709393  1
  Ga  Ga6  1  0.94709393  0.55290607  0.44709393  1
  Ga  Ga7  1  0.44709393  0.55290607  0.05290607  1
  H  H8  1  0.92128289  0.23629056  0.28192447  1
  H  H9  1  0.63864770  0.73008907  0.57989814  1
  H  H10  1  0.36135230  0.26991093  0.42010186  1
  H  H11  1  0.07871711  0.73629056  0.21807553  1
  H  H12  1  0.75618289  0.86073331  0.78020842  1
  H  H13  1  0.07871711  0.76370944  0.71807553  1
  H  H14  1  0.63926669  0.21979158  0.25618289  1
  H  H15  1  0.86135230  0.26991093  0.07989814  1
  H  H16  1  0.13926669  0.28020842  0.74381711  1
  H  H17  1  0.14184246  0.66276107  0.65371129  1
  H  H18  1  0.23008907  0.92010186  0.36135230  1
  H  H19  1  0.76370944  0.71807553  0.07871711  1
  H  H20  1  0.34628871  0.64184246  0.83723893  1
  H  H21  1  0.85815754  0.33723893  0.34628871  1
  H  H22  1  0.07989814  0.63864770  0.76991093  1
  H  H23  1  0.28020842  0.74381711  0.13926669  1
  H  H24  1  0.25618289  0.63926669  0.21979158  1
  H  H25  1  0.84628871  0.85815754  0.16276107  1
  H  H26  1  0.86073331  0.71979158  0.25618289  1
  H  H27  1  0.66276107  0.84628871  0.64184246  1
  H  H28  1  0.24381711  0.36073331  0.71979158  1
  H  H29  1  0.28192447  0.92128289  0.23629056  1
  H  H30  1  0.57871711  0.73629056  0.28192447  1
  H  H31  1  0.74381711  0.13926669  0.28020842  1
  H  H32  1  0.71979158  0.25618289  0.86073331  1
  H  H33  1  0.86135230  0.23008907  0.57989814  1
  H  H34  1  0.71807553  0.42128289  0.26370944  1
  H  H35  1  0.23008907  0.57989814  0.86135230  1
  H  H36  1  0.65371129  0.35815754  0.16276107  1
  H  H37  1  0.73008907  0.92010186  0.13864770  1
  H  H38  1  0.42010186  0.13864770  0.76991093  1
  H  H39  1  0.57871711  0.76370944  0.78192447  1
  H  H40  1  0.92010186  0.13864770  0.73008907  1
  H  H41  1  0.78020842  0.74381711  0.36073331  1
  H  H42  1  0.57989814  0.63864770  0.73008907  1
  H  H43  1  0.42128289  0.26370944  0.71807553  1
  H  H44  1  0.26370944  0.78192447  0.92128289  1
  H  H45  1  0.78192447  0.57871711  0.76370944  1
  H  H46  1  0.42010186  0.36135230  0.26991093  1
  H  H47  1  0.34628871  0.85815754  0.33723893  1
  H  H48  1  0.83723893  0.34628871  0.64184246  1
  H  H49  1  0.73008907  0.57989814  0.63864770  1
  H  H50  1  0.24381711  0.13926669  0.21979158  1
  H  H51  1  0.13926669  0.21979158  0.24381711  1
  H  H52  1  0.57989814  0.86135230  0.23008907  1
  H  H53  1  0.36073331  0.78020842  0.74381711  1
  H  H54  1  0.36073331  0.71979158  0.24381711  1
  H  H55  1  0.92128289  0.26370944  0.78192447  1
  H  H56  1  0.71807553  0.07871711  0.76370944  1
  H  H57  1  0.66276107  0.65371129  0.14184246  1
  H  H58  1  0.78192447  0.92128289  0.26370944  1
  H  H59  1  0.33723893  0.15371129  0.35815754  1
  H  H60  1  0.78020842  0.75618289  0.86073331  1
  H  H61  1  0.21979158  0.24381711  0.13926669  1
  H  H62  1  0.21807553  0.07871711  0.73629056  1
  H  H63  1  0.16276107  0.84628871  0.85815754  1
  H  H64  1  0.65371129  0.14184246  0.66276107  1
  H  H65  1  0.75618289  0.63926669  0.28020842  1
  H  H66  1  0.73629056  0.21807553  0.07871711  1
  H  H67  1  0.21979158  0.25618289  0.63926669  1
  H  H68  1  0.21807553  0.42128289  0.23629056  1
  H  H69  1  0.76991093  0.07989814  0.63864770  1
  H  H70  1  0.35815754  0.16276107  0.65371129  1
  H  H71  1  0.73629056  0.28192447  0.57871711  1
  H  H72  1  0.83723893  0.15371129  0.14184246  1
  H  H73  1  0.63864770  0.76991093  0.07989814  1
  H  H74  1  0.14184246  0.83723893  0.15371129  1
  H  H75  1  0.76991093  0.42010186  0.13864770  1
  H  H76  1  0.16276107  0.65371129  0.35815754  1
  H  H77  1  0.26991093  0.07989814  0.86135230  1
  H  H78  1  0.23629056  0.28192447  0.92128289  1
  H  H79  1  0.15371129  0.35815754  0.33723893  1
  H  H80  1  0.42128289  0.23629056  0.21807553  1
  H  H81  1  0.33723893  0.34628871  0.85815754  1
  H  H82  1  0.76370944  0.78192447  0.57871711  1
  H  H83  1  0.84628871  0.64184246  0.66276107  1
  H  H84  1  0.23629056  0.21807553  0.42128289  1
  H  H85  1  0.36135230  0.23008907  0.92010186  1
  H  H86  1  0.25618289  0.86073331  0.71979158  1
  H  H87  1  0.74381711  0.36073331  0.78020842  1
  H  H88  1  0.86073331  0.78020842  0.75618289  1
  H  H89  1  0.13864770  0.73008907  0.92010186  1
  H  H90  1  0.64184246  0.83723893  0.34628871  1
  H  H91  1  0.13864770  0.76991093  0.42010186  1
  H  H92  1  0.07989814  0.86135230  0.26991093  1
  H  H93  1  0.28192447  0.57871711  0.73629056  1
  H  H94  1  0.63926669  0.28020842  0.75618289  1
  H  H95  1  0.28020842  0.75618289  0.63926669  1
  H  H96  1  0.64184246  0.66276107  0.84628871  1
  H  H97  1  0.92010186  0.36135230  0.23008907  1
  H  H98  1  0.26991093  0.42010186  0.36135230  1
  H  H99  1  0.85815754  0.16276107  0.84628871  1
  H  H100  1  0.15371129  0.14184246  0.83723893  1
  H  H101  1  0.26370944  0.71807553  0.42128289  1
  H  H102  1  0.71979158  0.24381711  0.36073331  1
  H  H103  1  0.35815754  0.33723893  0.15371129  1
  C  C104  1  0.71675335  0.28324665  0.78324665  1
  C  C105  1  0.19440011  0.77295766  0.87769720  1
  C  C106  1  0.77295766  0.62230280  0.69440011  1
  C  C107  1  0.22704234  0.12230280  0.80559989  1
  C  C108  1  0.30559989  0.22704234  0.37769720  1
  C  C109  1  0.87769720  0.30559989  0.27295766  1
  C  C110  1  0.22704234  0.37769720  0.30559989  1
  C  C111  1  0.71675335  0.21675335  0.28324665  1
  C  C112  1  0.69440011  0.77295766  0.62230280  1
  C  C113  1  0.69440011  0.72704234  0.12230280  1
  C  C114  1  0.21675335  0.28324665  0.71675335  1
  C  C115  1  0.27295766  0.62230280  0.80559989  1
  C  C116  1  0.78324665  0.71675335  0.28324665  1
  C  C117  1  0.37769720  0.19440011  0.72704234  1
  C  C118  1  0.72704234  0.37769720  0.19440011  1
  C  C119  1  0.12230280  0.80559989  0.22704234  1
  C  C120  1  0.62230280  0.69440011  0.77295766  1
  C  C121  1  0.19440011  0.72704234  0.37769720  1
  C  C122  1  0.30559989  0.27295766  0.87769720  1
  C  C123  1  0.28324665  0.71675335  0.21675335  1
  C  C124  1  0.78324665  0.78324665  0.78324665  1
  C  C125  1  0.28324665  0.78324665  0.71675335  1
  C  C126  1  0.37769720  0.30559989  0.22704234  1
  C  C127  1  0.77295766  0.87769720  0.19440011  1
  C  C128  1  0.27295766  0.87769720  0.30559989  1
  C  C129  1  0.87769720  0.19440011  0.77295766  1
  C  C130  1  0.80559989  0.27295766  0.62230280  1
  C  C131  1  0.80559989  0.22704234  0.12230280  1
  C  C132  1  0.72704234  0.12230280  0.69440011  1
  C  C133  1  0.12230280  0.69440011  0.72704234  1
  C  C134  1  0.21675335  0.21675335  0.21675335  1
  C  C135  1  0.62230280  0.80559989  0.27295766  1
  N  N136  1  0.21815100  0.71815100  0.78184900  1
  N  N137  1  0.28184900  0.28184900  0.28184900  1
  N  N138  1  0.71815100  0.78184900  0.21815100  1
  N  N139  1  0.28184900  0.21815100  0.78184900  1
  N  N140  1  0.71815100  0.71815100  0.71815100  1
  N  N141  1  0.78184900  0.28184900  0.21815100  1
  N  N142  1  0.78184900  0.21815100  0.71815100  1
  N  N143  1  0.21815100  0.78184900  0.28184900  1
  Cl  Cl144  1  0.78254559  0.99219334  0.94723536  1
  Cl  Cl145  1  0.50780666  0.05276464  0.28254559  1
  Cl  Cl146  1  0.99219334  0.94723536  0.78254559  1
  Cl  Cl147  1  0.49219334  0.94723536  0.71745441  1
  Cl  Cl148  1  0.21745441  0.49219334  0.55276464  1
  Cl  Cl149  1  0.78254559  0.50780666  0.44723536  1
  Cl  Cl150  1  0.50780666  0.44723536  0.78254559  1
  Cl  Cl151  1  0.55276464  0.28254559  0.99219334  1
  Cl  Cl152  1  0.94723536  0.71745441  0.49219334  1
  Cl  Cl153  1  0.44723536  0.71745441  0.00780666  1
  Cl  Cl154  1  0.00780666  0.44723536  0.71745441  1
  Cl  Cl155  1  0.99219334  0.55276464  0.28254559  1
  Cl  Cl156  1  0.28254559  0.50780666  0.05276464  1
  Cl  Cl157  1  0.71745441  0.00780666  0.44723536  1
  Cl  Cl158  1  0.49219334  0.55276464  0.21745441  1
  Cl  Cl159  1  0.94723536  0.78254559  0.99219334  1
  Cl  Cl160  1  0.55276464  0.21745441  0.49219334  1
  Cl  Cl161  1  0.00780666  0.05276464  0.21745441  1
  Cl  Cl162  1  0.21745441  0.00780666  0.05276464  1
  Cl  Cl163  1  0.71745441  0.49219334  0.94723536  1
  Cl  Cl164  1  0.05276464  0.21745441  0.00780666  1
  Cl  Cl165  1  0.05276464  0.28254559  0.50780666  1
  Cl  Cl166  1  0.28254559  0.99219334  0.55276464  1
  Cl  Cl167  1  0.44723536  0.78254559  0.50780666  1
