# generated using pymatgen
data_P7Rh12
_symmetry_space_group_name_H-M   'P 1'
_cell_length_a   3.53478607
_cell_length_b   9.16033833
_cell_length_c   9.16033879
_cell_angle_alpha   60.00000170
_cell_angle_beta   90.00000000
_cell_angle_gamma   90.00000000
_symmetry_Int_Tables_number   1
_chemical_formula_structural   P7Rh12
_chemical_formula_sum   'P7 Rh12'
_cell_volume   256.87203384
_cell_formula_units_Z   1
loop_
 _symmetry_equiv_pos_site_id
 _symmetry_equiv_pos_as_xyz
  1  'x, y, z'
loop_
 _atom_site_type_symbol
 _atom_site_label
 _atom_site_symmetry_multiplicity
 _atom_site_fract_x
 _atom_site_fract_y
 _atom_site_fract_z
 _atom_site_occupancy
  P  P0  1  0.75000000  -0.00000000  -0.00000000  1
  P  P1  1  0.75000000  0.84150378  0.71621266  1
  P  P2  1  0.75000000  0.44228356  0.84150377  1
  P  P3  1  0.75000000  0.71621266  0.44228356  1
  P  P4  1  0.25000000  0.16237812  0.28135757  1
  P  P5  1  0.25000000  0.55626431  0.16237812  1
  P  P6  1  0.25000000  0.28135757  0.55626431  1
  Rh  Rh7  1  0.75000000  0.23808527  0.74683570  1
  Rh  Rh8  1  0.75000000  0.01507903  0.23808527  1
  Rh  Rh9  1  0.75000000  0.74683570  0.01507903  1
  Rh  Rh10  1  0.25000000  0.77210806  0.24173718  1
  Rh  Rh11  1  0.25000000  0.98615476  0.77210806  1
  Rh  Rh12  1  0.25000000  0.24173718  0.98615476  1
  Rh  Rh13  1  0.75000000  0.13247492  0.48418091  1
  Rh  Rh14  1  0.75000000  0.38334417  0.13247492  1
  Rh  Rh15  1  0.75000000  0.48418091  0.38334417  1
  Rh  Rh16  1  0.25000000  0.86287394  0.51346066  1
  Rh  Rh17  1  0.25000000  0.62366540  0.86287394  1
  Rh  Rh18  1  0.25000000  0.51346066  0.62366540  1
