# generated using pymatgen
data_Sn3(HO2)2
_symmetry_space_group_name_H-M   'P 1'
_cell_length_a   8.38189484
_cell_length_b   8.38189484
_cell_length_c   9.63485347
_cell_angle_alpha   93.42962593
_cell_angle_beta   86.57037407
_cell_angle_gamma   88.91473591
_symmetry_Int_Tables_number   1
_chemical_formula_structural   Sn3(HO2)2
_chemical_formula_sum   'Sn12 H8 O16'
_cell_volume   674.31307402
_cell_formula_units_Z   4
loop_
 _symmetry_equiv_pos_site_id
 _symmetry_equiv_pos_as_xyz
  1  'x, y, z'
loop_
 _atom_site_type_symbol
 _atom_site_label
 _atom_site_symmetry_multiplicity
 _atom_site_fract_x
 _atom_site_fract_y
 _atom_site_fract_z
 _atom_site_occupancy
  Sn  Sn0  1  0.79397054  0.61130684  0.48697957  1
  Sn  Sn1  1  0.27406810  0.86652713  0.96709422  1
  Sn  Sn2  1  0.25010608  0.35217259  0.54940673  1
  Sn  Sn3  1  0.71417193  0.11570730  0.00439612  1
  Sn  Sn4  1  0.63347287  0.22593190  0.46709422  1
  Sn  Sn5  1  0.88869316  0.70602946  0.98697957  1
  Sn  Sn6  1  0.38429270  0.78582807  0.50439612  1
  Sn  Sn7  1  0.14782741  0.24989392  0.04940673  1
  Sn  Sn8  1  0.52841233  0.54659970  0.76836259  1
  Sn  Sn9  1  0.99365539  0.99545829  0.73415907  1
  Sn  Sn10  1  0.50454171  0.50634461  0.23415907  1
  Sn  Sn11  1  0.95340030  0.97158767  0.26836259  1
  H  H12  1  0.67731976  0.82283004  0.74450450  1
  H  H13  1  0.15971722  0.67274040  0.75126246  1
  H  H14  1  0.47481934  0.24671963  0.72410131  1
  H  H15  1  0.93062921  0.29345801  0.86280497  1
  H  H16  1  0.82725960  0.34028278  0.25126246  1
  H  H17  1  0.67716996  0.82268024  0.24450450  1
  H  H18  1  0.20654199  0.56937079  0.36280497  1
  H  H19  1  0.25328037  0.02518066  0.22410131  1
  O  O20  1  0.62634695  0.75064693  0.67504435  1
  O  O21  1  0.09700107  0.74790790  0.81849354  1
  O  O22  1  0.42403551  0.20505399  0.64053966  1
  O  O23  1  0.85335509  0.21740377  0.83001234  1
  O  O24  1  0.75209210  0.40299893  0.31849354  1
  O  O25  1  0.74935307  0.87365305  0.17504435  1
  O  O26  1  0.28259623  0.64664491  0.33001234  1
  O  O27  1  0.29494601  0.07596449  0.14053966  1
  O  O28  1  0.67155634  0.43541664  0.59711351  1
  O  O29  1  0.15937376  0.07007623  0.88609701  1
  O  O30  1  0.33187153  0.57941519  0.63427195  1
  O  O31  1  0.80868875  0.90873433  0.88136113  1
  O  O32  1  0.42992377  0.34062624  0.38609701  1
  O  O33  1  0.06458336  0.82844366  0.09711351  1
  O  O34  1  0.59126567  0.69131125  0.38136113  1
  O  O35  1  0.92058481  0.16812847  0.13427195  1
