# generated using pymatgen
data_ZrCl2
_symmetry_space_group_name_H-M   'P 1'
_cell_length_a   8.19791955
_cell_length_b   8.19791947
_cell_length_c   8.19791991
_cell_angle_alpha   107.40022347
_cell_angle_beta   107.40022323
_cell_angle_gamma   107.40022510
_symmetry_Int_Tables_number   1
_chemical_formula_structural   ZrCl2
_chemical_formula_sum   'Zr6 Cl12'
_cell_volume   453.73254333
_cell_formula_units_Z   6
loop_
 _symmetry_equiv_pos_site_id
 _symmetry_equiv_pos_as_xyz
  1  'x, y, z'
loop_
 _atom_site_type_symbol
 _atom_site_label
 _atom_site_symmetry_multiplicity
 _atom_site_fract_x
 _atom_site_fract_y
 _atom_site_fract_z
 _atom_site_occupancy
  Zr  Zr0  1  0.03194610  0.10238010  0.29909553  1
  Zr  Zr1  1  0.70090447  0.96805390  0.89761990  1
  Zr  Zr2  1  0.29909553  0.03194610  0.10238010  1
  Zr  Zr3  1  0.10238010  0.29909553  0.03194610  1
  Zr  Zr4  1  0.89761990  0.70090447  0.96805390  1
  Zr  Zr5  1  0.96805390  0.89761990  0.70090447  1
  Cl  Cl6  1  0.44979028  0.37091439  0.14789718  1
  Cl  Cl7  1  0.22233011  0.68738814  0.07844606  1
  Cl  Cl8  1  0.77766989  0.31261186  0.92155394  1
  Cl  Cl9  1  0.92155394  0.77766989  0.31261186  1
  Cl  Cl10  1  0.07844606  0.22233011  0.68738814  1
  Cl  Cl11  1  0.31261186  0.92155394  0.77766989  1
  Cl  Cl12  1  0.14789718  0.44979028  0.37091439  1
  Cl  Cl13  1  0.55020972  0.62908561  0.85210282  1
  Cl  Cl14  1  0.62908561  0.85210282  0.55020972  1
  Cl  Cl15  1  0.37091439  0.14789718  0.44979028  1
  Cl  Cl16  1  0.85210282  0.55020972  0.62908561  1
  Cl  Cl17  1  0.68738814  0.07844606  0.22233011  1
