# generated using pymatgen
data_NbHO3
_symmetry_space_group_name_H-M   'P 1'
_cell_length_a   6.75610416
_cell_length_b   6.79088319
_cell_length_c   6.76769443
_cell_angle_alpha   109.85035107
_cell_angle_beta   109.30557460
_cell_angle_gamma   108.82538112
_symmetry_Int_Tables_number   1
_chemical_formula_structural   NbHO3
_chemical_formula_sum   'Nb4 H4 O12'
_cell_volume   240.27643010
_cell_formula_units_Z   4
loop_
 _symmetry_equiv_pos_site_id
 _symmetry_equiv_pos_as_xyz
  1  'x, y, z'
loop_
 _atom_site_type_symbol
 _atom_site_label
 _atom_site_symmetry_multiplicity
 _atom_site_fract_x
 _atom_site_fract_y
 _atom_site_fract_z
 _atom_site_occupancy
  Nb  Nb0  1  0.45911345  0.96847743  0.98290379  1
  Nb  Nb1  1  0.98512018  0.96838755  0.47641897  1
  Nb  Nb2  1  0.98001381  0.45526505  0.97496152  1
  Nb  Nb3  1  0.53584435  0.52962825  0.53644763  1
  H  H4  1  0.82169796  0.26210216  0.44140500  1
  H  H5  1  0.17950083  0.62923715  0.43819330  1
  H  H6  1  0.44254721  0.18213460  0.62717931  1
  H  H7  1  0.51713477  0.39816051  0.11354809  1
  O  O8  1  0.20430944  0.90454370  0.69163947  1
  O  O9  1  0.79824909  0.11585040  0.31542381  1
  O  O10  1  0.20187293  0.51851684  0.31964476  1
  O  O11  1  0.79685225  0.49445684  0.69653137  1
  O  O12  1  0.69838277  0.21841975  0.91512123  1
  O  O13  1  0.27846776  0.79216210  0.07086020  1
  O  O14  1  0.32445298  0.20964639  0.52283200  1
  O  O15  1  0.71577460  0.78576894  0.50121867  1
  O  O16  1  0.91407553  0.72394647  0.19611256  1
  O  O17  1  0.08164601  0.27984550  0.80085089  1
  O  O18  1  0.47847916  0.30017203  0.18755092  1
  O  O19  1  0.52349492  0.72798135  0.80469850  1
