# generated using pymatgen
data_Tl8(CdN14)3
_symmetry_space_group_name_H-M   'P 1'
_cell_length_a   8.71037388
_cell_length_b   10.67920371
_cell_length_c   11.85925762
_cell_angle_alpha   100.27349013
_cell_angle_beta   107.49532710
_cell_angle_gamma   113.43165010
_symmetry_Int_Tables_number   1
_chemical_formula_structural   Tl8(CdN14)3
_chemical_formula_sum   'Tl8 Cd3 N42'
_cell_volume   907.69878506
_cell_formula_units_Z   1
loop_
 _symmetry_equiv_pos_site_id
 _symmetry_equiv_pos_as_xyz
  1  'x, y, z'
loop_
 _atom_site_type_symbol
 _atom_site_label
 _atom_site_symmetry_multiplicity
 _atom_site_fract_x
 _atom_site_fract_y
 _atom_site_fract_z
 _atom_site_occupancy
  Tl  Tl0  1  0.49511449  0.76277936  0.81943766  1
  Tl  Tl1  1  0.24049209  0.49806038  0.48915673  1
  Tl  Tl2  1  0.02966467  0.79732525  0.84793487  1
  Tl  Tl3  1  0.75950791  0.50193962  0.51084327  1
  Tl  Tl4  1  0.15033976  0.14433781  0.68402605  1
  Tl  Tl5  1  0.50488551  0.23722064  0.18056234  1
  Tl  Tl6  1  0.84966024  0.85566219  0.31597395  1
  Tl  Tl7  1  0.97033533  0.20267475  0.15206513  1
  Cd  Cd8  1  0.19784134  0.64027501  0.13604100  1
  Cd  Cd9  1  0.80215866  0.35972499  0.86395900  1
  Cd  Cd10  1  0.50000000  0.00000000  0.50000000  1
  N  N11  1  0.32934606  0.19442085  0.45129986  1
  N  N12  1  0.89789074  0.59875594  0.99963930  1
  N  N13  1  0.93009544  0.53098383  0.26146334  1
  N  N14  1  0.52927339  0.12778394  0.92195150  1
  N  N15  1  0.05579103  0.51463586  0.25422211  1
  N  N16  1  0.52117729  0.34895406  0.74761187  1
  N  N17  1  0.79406787  0.64203802  0.01375798  1
  N  N18  1  0.20593213  0.35796198  0.98624202  1
  N  N19  1  0.15306553  0.72566427  0.61816813  1
  N  N20  1  0.40451064  0.43656898  0.30553422  1
  N  N21  1  0.27317304  0.86695879  0.27616861  1
  N  N22  1  0.46986995  0.19760735  0.45577240  1
  N  N23  1  0.55840107  0.45723544  0.72209850  1
  N  N24  1  0.30440245  0.31258341  0.97407215  1
  N  N25  1  0.10210926  0.40124406  0.00036070  1
  N  N26  1  0.32096141  0.76967067  0.01438902  1
  N  N27  1  0.47072661  0.87221606  0.07804850  1
  N  N28  1  0.06990456  0.46901617  0.73853666  1
  N  N29  1  0.80974699  0.80855974  0.55459577  1
  N  N30  1  0.75533325  0.06636464  0.44384445  1
  N  N31  1  0.94420897  0.48536414  0.74577789  1
  N  N32  1  0.61688794  0.97334812  0.13688948  1
  N  N33  1  0.19025301  0.19144026  0.44540423  1
  N  N34  1  0.19358539  0.45521633  0.72955068  1
  N  N35  1  0.19959663  0.82893036  0.58671111  1
  N  N36  1  0.15329999  0.98549895  0.15179664  1
  N  N37  1  0.24466675  0.93363536  0.55615555  1
  N  N38  1  0.44159893  0.54276456  0.27790150  1
  N  N39  1  0.59548936  0.56343102  0.69446578  1
  N  N40  1  0.53013005  0.80239265  0.54422760  1
  N  N41  1  0.47882271  0.65104594  0.25238813  1
  N  N42  1  0.72682696  0.13304121  0.72383139  1
  N  N43  1  0.80641461  0.54478367  0.27044932  1
  N  N44  1  0.38311206  0.02665188  0.86311052  1
  N  N45  1  0.84670001  0.01450105  0.84820336  1
  N  N46  1  0.67903859  0.23032933  0.98561098  1
  N  N47  1  0.67065394  0.80557915  0.54870014  1
  N  N48  1  0.80040337  0.17106964  0.41328889  1
  N  N49  1  0.84693447  0.27433573  0.38183187  1
  N  N50  1  0.69559755  0.68741659  0.02592785  1
  N  N51  1  0.78637230  0.07133924  0.78548511  1
  N  N52  1  0.21362770  0.92866076  0.21451489  1
