# generated using pymatgen
data_Rb5HfFe(MoO4)6
_symmetry_space_group_name_H-M   'P 1'
_cell_length_a   10.23347774
_cell_length_b   10.23347758
_cell_length_c   15.29367330
_cell_angle_alpha   90.00000000
_cell_angle_beta   90.00000000
_cell_angle_gamma   120.00000055
_symmetry_Int_Tables_number   1
_chemical_formula_structural   Rb5HfFe(MoO4)6
_chemical_formula_sum   'Rb10 Hf2 Fe2 Mo12 O48'
_cell_volume   1387.03982042
_cell_formula_units_Z   2
loop_
 _symmetry_equiv_pos_site_id
 _symmetry_equiv_pos_as_xyz
  1  'x, y, z'
loop_
 _atom_site_type_symbol
 _atom_site_label
 _atom_site_symmetry_multiplicity
 _atom_site_fract_x
 _atom_site_fract_y
 _atom_site_fract_z
 _atom_site_occupancy
  Rb  Rb0  1  0.07058390  0.31527945  0.25748330  1
  Rb  Rb1  1  0.00000000  0.00000000  0.51006682  1
  Rb  Rb2  1  0.66666700  0.33333300  0.57276327  1
  Rb  Rb3  1  0.00000000  0.00000000  0.01006682  1
  Rb  Rb4  1  0.75530445  0.07058390  0.75748330  1
  Rb  Rb5  1  0.31527945  0.24469555  0.75748330  1
  Rb  Rb6  1  0.33333300  0.66666700  0.07276327  1
  Rb  Rb7  1  0.68472055  0.75530445  0.25748330  1
  Rb  Rb8  1  0.92941610  0.68472055  0.75748330  1
  Rb  Rb9  1  0.24469555  0.92941610  0.25748330  1
  Hf  Hf10  1  0.66666700  0.33333300  0.97319557  1
  Hf  Hf11  1  0.33333300  0.66666700  0.47319557  1
  Fe  Fe12  1  0.66666700  0.33333300  0.30987317  1
  Fe  Fe13  1  0.33333300  0.66666700  0.80987317  1
  Mo  Mo14  1  0.63049953  0.65720867  0.92077017  1
  Mo  Mo15  1  0.41035778  0.31341201  0.15588718  1
  Mo  Mo16  1  0.34279133  0.97329086  0.92077017  1
  Mo  Mo17  1  0.09694577  0.41035778  0.65588718  1
  Mo  Mo18  1  0.58964222  0.68658799  0.65588718  1
  Mo  Mo19  1  0.02670914  0.36950047  0.92077017  1
  Mo  Mo20  1  0.68658799  0.09694577  0.15588718  1
  Mo  Mo21  1  0.36950047  0.34279133  0.42077017  1
  Mo  Mo22  1  0.65720867  0.02670914  0.42077017  1
  Mo  Mo23  1  0.90305423  0.58964222  0.15588718  1
  Mo  Mo24  1  0.97329086  0.63049953  0.42077017  1
  Mo  Mo25  1  0.31341201  0.90305423  0.65588718  1
  O  O26  1  0.56230275  0.40644512  0.38508924  1
  O  O27  1  0.50902367  0.76330591  0.73367668  1
  O  O28  1  0.95289954  0.77924353  0.14084349  1
  O  O29  1  0.43769725  0.59355488  0.88508924  1
  O  O30  1  0.23669409  0.74571777  0.73367668  1
  O  O31  1  0.25428223  0.49097633  0.73367668  1
  O  O32  1  0.82619074  0.31445018  0.90015406  1
  O  O33  1  0.17999409  0.94445343  0.86443054  1
  O  O34  1  0.35529670  0.84412627  0.55089613  1
  O  O35  1  0.29448606  0.94046014  0.03219898  1
  O  O36  1  0.49097633  0.23669409  0.23367668  1
  O  O37  1  0.22075647  0.17365601  0.14084349  1
  O  O38  1  0.82000591  0.05554657  0.36443054  1
  O  O39  1  0.40882673  0.47533282  0.19533729  1
  O  O40  1  0.15585763  0.56230275  0.88508924  1
  O  O41  1  0.40644512  0.84414237  0.88508924  1
  O  O42  1  0.05554657  0.23554066  0.86443054  1
  O  O43  1  0.52466718  0.93349391  0.19533729  1
  O  O44  1  0.76445934  0.82000591  0.86443054  1
  O  O45  1  0.82634399  0.04710046  0.14084349  1
  O  O46  1  0.48825944  0.17380926  0.90015406  1
  O  O47  1  0.04710046  0.22075647  0.64084349  1
  O  O48  1  0.64470330  0.15587373  0.05089613  1
  O  O49  1  0.06650609  0.59117327  0.19533729  1
  O  O50  1  0.48882957  0.64470330  0.55089613  1
  O  O51  1  0.23554066  0.17999409  0.36443054  1
  O  O52  1  0.59117327  0.52466718  0.69533729  1
  O  O53  1  0.51117043  0.35529670  0.05089613  1
  O  O54  1  0.59355488  0.15585763  0.38508924  1
  O  O55  1  0.68554982  0.51174056  0.90015406  1
  O  O56  1  0.05953986  0.35402592  0.03219898  1
  O  O57  1  0.77924353  0.82634399  0.64084349  1
  O  O58  1  0.47533282  0.06650609  0.69533729  1
  O  O59  1  0.35402592  0.29448606  0.53219898  1
  O  O60  1  0.31445018  0.48825944  0.40015406  1
  O  O61  1  0.94046014  0.64597408  0.53219898  1
  O  O62  1  0.74571777  0.50902367  0.23367668  1
  O  O63  1  0.76330591  0.25428223  0.23367668  1
  O  O64  1  0.64597408  0.70551394  0.03219898  1
  O  O65  1  0.84412627  0.48882957  0.05089613  1
  O  O66  1  0.51174056  0.82619074  0.40015406  1
  O  O67  1  0.15587373  0.51117043  0.55089613  1
  O  O68  1  0.70551394  0.05953986  0.53219898  1
  O  O69  1  0.93349391  0.40882673  0.69533729  1
  O  O70  1  0.84414237  0.43769725  0.38508924  1
  O  O71  1  0.17380926  0.68554982  0.40015406  1
  O  O72  1  0.17365601  0.95289954  0.64084349  1
  O  O73  1  0.94445343  0.76445934  0.36443054  1
