# generated using pymatgen
data_H8C2IN
_symmetry_space_group_name_H-M   'P 1'
_cell_length_a   7.48798799
_cell_length_b   7.48798799
_cell_length_c   5.54765676
_cell_angle_alpha   75.24881187
_cell_angle_beta   104.75118813
_cell_angle_gamma   95.58022682
_symmetry_Int_Tables_number   1
_chemical_formula_structural   H8C2IN
_chemical_formula_sum   'H16 C4 I2 N2'
_cell_volume   290.71564563
_cell_formula_units_Z   2
loop_
 _symmetry_equiv_pos_site_id
 _symmetry_equiv_pos_as_xyz
  1  'x, y, z'
loop_
 _atom_site_type_symbol
 _atom_site_label
 _atom_site_symmetry_multiplicity
 _atom_site_fract_x
 _atom_site_fract_y
 _atom_site_fract_z
 _atom_site_occupancy
  H  H0  1  0.21789193  0.08468031  0.63379751  1
  H  H1  1  0.91531969  0.78210807  0.63379751  1
  H  H2  1  0.78210807  0.91531969  0.36620249  1
  H  H3  1  0.08468031  0.21789193  0.36620249  1
  H  H4  1  0.35553777  0.35827357  0.22114553  1
  H  H5  1  0.64172643  0.64446223  0.22114553  1
  H  H6  1  0.64446223  0.64172643  0.77885447  1
  H  H7  1  0.35827357  0.35553777  0.77885447  1
  H  H8  1  0.49691020  0.21888087  0.50543390  1
  H  H9  1  0.78111913  0.50308980  0.50543390  1
  H  H10  1  0.50308980  0.78111913  0.49456610  1
  H  H11  1  0.21888087  0.49691020  0.49456610  1
  H  H12  1  0.34622275  0.11128466  0.26981689  1
  H  H13  1  0.88871534  0.65377725  0.26981689  1
  H  H14  1  0.65377725  0.88871534  0.73018311  1
  H  H15  1  0.11128466  0.34622275  0.73018311  1
  C  C16  1  0.36376279  0.22589155  0.36409196  1
  C  C17  1  0.77410845  0.63623721  0.36409196  1
  C  C18  1  0.63623721  0.77410845  0.63590804  1
  C  C19  1  0.22589155  0.36376279  0.63590804  1
  I  I20  1  0.21712130  0.78287870  0.95754666  1
  I  I21  1  0.78287870  0.21712130  0.04245334  1
  N  N22  1  0.21332838  0.21332838  0.50000000  1
  N  N23  1  0.78667162  0.78667162  0.50000000  1
