# generated using pymatgen
data_Cu3Sn4PbO12
_symmetry_space_group_name_H-M   'P 1'
_cell_length_a   6.76423157
_cell_length_b   6.76614339
_cell_length_c   6.76306737
_cell_angle_alpha   109.52542444
_cell_angle_beta   109.44305379
_cell_angle_gamma   109.45979508
_symmetry_Int_Tables_number   1
_chemical_formula_structural   Cu3Sn4PbO12
_chemical_formula_sum   'Cu3 Sn4 Pb1 O12'
_cell_volume   238.23357092
_cell_formula_units_Z   1
loop_
 _symmetry_equiv_pos_site_id
 _symmetry_equiv_pos_as_xyz
  1  'x, y, z'
loop_
 _atom_site_type_symbol
 _atom_site_label
 _atom_site_symmetry_multiplicity
 _atom_site_fract_x
 _atom_site_fract_y
 _atom_site_fract_z
 _atom_site_occupancy
  Cu  Cu0  1  0.49989776  0.00005771  0.49999746  1
  Cu  Cu1  1  0.49989508  0.49975838  0.99987883  1
  Cu  Cu2  1  0.99996273  0.49996922  0.49998559  1
  Sn  Sn3  1  0.99988788  0.99994259  0.49978376  1
  Sn  Sn4  1  0.49991593  0.99981372  0.99997704  1
  Sn  Sn5  1  0.50038610  0.50031296  0.50037892  1
  Sn  Sn6  1  0.99998480  0.50014253  0.00004549  1
  Pb  Pb7  1  0.00064172  0.00123798  0.00025765  1
  O  O8  1  0.17310058  0.68680535  0.86009730  1
  O  O9  1  0.17317888  0.31307072  0.48618665  1
  O  O10  1  0.31310505  0.48608470  0.17303510  1
  O  O11  1  0.31313713  0.13995799  0.82692181  1
  O  O12  1  0.51383412  0.82684666  0.68692681  1
  O  O13  1  0.68670233  0.51336571  0.82691240  1
  O  O14  1  0.82696647  0.68702901  0.51376015  1
  O  O15  1  0.13975517  0.82670518  0.31310688  1
  O  O16  1  0.86016448  0.17321651  0.68690408  1
  O  O17  1  0.82684772  0.31282089  0.13981597  1
  O  O18  1  0.68641992  0.85954919  0.17291561  1
  O  O19  1  0.48621614  0.17331300  0.31311249  1
