# generated using pymatgen
data_Ti3H2O7
_symmetry_space_group_name_H-M   'P 1'
_cell_length_a   8.43057958
_cell_length_b   8.40999338
_cell_length_c   9.40244553
_cell_angle_alpha   80.24135887
_cell_angle_beta   99.72768677
_cell_angle_gamma   153.94166997
_symmetry_Int_Tables_number   1
_chemical_formula_structural   Ti3H2O7
_chemical_formula_sum   'Ti6 H4 O14'
_cell_volume   288.39520243
_cell_formula_units_Z   2
loop_
 _symmetry_equiv_pos_site_id
 _symmetry_equiv_pos_as_xyz
  1  'x, y, z'
loop_
 _atom_site_type_symbol
 _atom_site_label
 _atom_site_symmetry_multiplicity
 _atom_site_fract_x
 _atom_site_fract_y
 _atom_site_fract_z
 _atom_site_occupancy
  Ti  Ti0  1  0.77812261  0.21997866  0.79292769  1
  Ti  Ti1  1  0.21776953  0.78056454  0.20594577  1
  Ti  Ti2  1  0.82719244  0.17150615  0.48774703  1
  Ti  Ti3  1  0.17788834  0.82678127  0.51623679  1
  Ti  Ti4  1  0.84895280  0.12627082  0.18135854  1
  Ti  Ti5  1  0.13283999  0.86951156  0.81528325  1
  H  H6  1  0.83339876  0.77751313  0.16135033  1
  H  H7  1  0.19977215  0.13961288  0.21291962  1
  H  H8  1  0.03287468  0.03834137  0.94391451  1
  H  H9  1  0.95680852  0.04383234  0.77332850  1
  O  O10  1  0.83667356  0.16118679  0.96638183  1
  O  O11  1  0.15831847  0.83980655  0.03397273  1
  O  O12  1  0.86616010  0.12938029  0.68102645  1
  O  O13  1  0.14309588  0.87496007  0.32122469  1
  O  O14  1  0.90600519  0.08776274  0.37649088  1
  O  O15  1  0.09206234  0.91119806  0.61804650  1
  O  O16  1  0.01162507  0.02467414  0.14345497  1
  O  O17  1  0.01495998  0.99388095  0.84715834  1
  O  O18  1  0.65941884  0.34193796  0.82697086  1
  O  O19  1  0.33790063  0.65515476  0.17077920  1
  O  O20  1  0.71050209  0.29211436  0.54319616  1
  O  O21  1  0.29277444  0.70550544  0.45730097  1
  O  O22  1  0.75068503  0.24603693  0.23951545  1
  O  O23  1  0.24555158  0.75368823  0.75656295  1
