# generated using pymatgen
data_CeCu
_symmetry_space_group_name_H-M   'P 1'
_cell_length_a   4.19966164
_cell_length_b   6.14862588
_cell_length_c   7.04431744
_cell_angle_alpha   90.00348231
_cell_angle_beta   89.99965400
_cell_angle_gamma   89.99931946
_symmetry_Int_Tables_number   1
_chemical_formula_structural   CeCu
_chemical_formula_sum   'Ce4 Cu4'
_cell_volume   181.89940906
_cell_formula_units_Z   4
loop_
 _symmetry_equiv_pos_site_id
 _symmetry_equiv_pos_as_xyz
  1  'x, y, z'
loop_
 _atom_site_type_symbol
 _atom_site_label
 _atom_site_symmetry_multiplicity
 _atom_site_fract_x
 _atom_site_fract_y
 _atom_site_fract_z
 _atom_site_occupancy
  Ce  Ce0  1  0.75000415  0.85369551  0.83247441  1
  Ce  Ce1  1  0.24999870  0.35370328  0.66751610  1
  Ce  Ce2  1  0.24999770  0.14630490  0.16752027  1
  Ce  Ce3  1  0.75000516  0.64629806  0.33248566  1
  Cu  Cu4  1  0.25000022  0.60504802  0.04065096  1
  Cu  Cu5  1  0.74999850  0.39494680  0.95935263  1
  Cu  Cu6  1  0.24999955  0.89495175  0.54064909  1
  Cu  Cu7  1  0.74999602  0.10505168  0.45935087  1
