# generated using pymatgen
data_V3H5O8
_symmetry_space_group_name_H-M   'P 1'
_cell_length_a   10.13930848
_cell_length_b   10.15314359
_cell_length_c   4.92958654
_cell_angle_alpha   77.34854489
_cell_angle_beta   102.76741508
_cell_angle_gamma   162.59562701
_symmetry_Int_Tables_number   1
_chemical_formula_structural   V3H5O8
_chemical_formula_sum   'V3 H5 O8'
_cell_volume   147.98355318
_cell_formula_units_Z   1
loop_
 _symmetry_equiv_pos_site_id
 _symmetry_equiv_pos_as_xyz
  1  'x, y, z'
loop_
 _atom_site_type_symbol
 _atom_site_label
 _atom_site_symmetry_multiplicity
 _atom_site_fract_x
 _atom_site_fract_y
 _atom_site_fract_z
 _atom_site_occupancy
  V  V0  1  0.04997101  0.03060603  0.52075466  1
  V  V1  1  0.81910598  0.19050907  0.64570587  1
  V  V2  1  0.18203570  0.82242448  0.35896554  1
  H  H3  1  0.49814697  0.51015101  0.07067938  1
  H  H4  1  0.54837229  0.72965176  0.54392671  1
  H  H5  1  0.31383477  0.69040437  0.07967860  1
  H  H6  1  0.61144173  0.38832960  0.96962452  1
  H  H7  1  0.69824755  0.31148148  0.81848258  1
  O  O8  1  0.50886927  0.44738231  0.76415142  1
  O  O9  1  0.49456323  0.53378594  0.25177810  1
  O  O10  1  0.86754414  0.04335764  0.57644448  1
  O  O11  1  0.10474105  0.90934647  0.42727672  1
  O  O12  1  0.33753724  0.67415629  0.90959259  1
  O  O13  1  0.66189907  0.34091078  0.07757057  1
  O  O14  1  0.71674386  0.29562682  0.63895254  1
  O  O15  1  0.27579514  0.72413095  0.36120671  1
