# generated using pymatgen
data_Te2S4(NCl3)3
_symmetry_space_group_name_H-M   'P 1'
_cell_length_a   9.51350087
_cell_length_b   10.26073806
_cell_length_c   11.50778954
_cell_angle_alpha   83.09249981
_cell_angle_beta   69.93849960
_cell_angle_gamma   75.64042780
_symmetry_Int_Tables_number   1
_chemical_formula_structural   Te2S4(NCl3)3
_chemical_formula_sum   'Te4 S8 N6 Cl18'
_cell_volume   1021.45014005
_cell_formula_units_Z   2
loop_
 _symmetry_equiv_pos_site_id
 _symmetry_equiv_pos_as_xyz
  1  'x, y, z'
loop_
 _atom_site_type_symbol
 _atom_site_label
 _atom_site_symmetry_multiplicity
 _atom_site_fract_x
 _atom_site_fract_y
 _atom_site_fract_z
 _atom_site_occupancy
  Te  Te0  1  0.37119436  0.83864267  0.05592766  1
  Te  Te1  1  0.51757266  0.70329738  0.42595234  1
  Te  Te2  1  0.62880564  0.16135733  0.94407234  1
  Te  Te3  1  0.48242734  0.29670262  0.57404766  1
  S  S4  1  0.05029357  0.75813727  0.81127335  1
  S  S5  1  0.05616568  0.20565778  0.40702601  1
  S  S6  1  0.85634304  0.53156931  0.69019446  1
  S  S7  1  0.06385442  0.49567954  0.15568750  1
  S  S8  1  0.93614558  0.50432046  0.84431250  1
  S  S9  1  0.14365696  0.46843069  0.30980554  1
  S  S10  1  0.94970643  0.24186273  0.18872665  1
  S  S11  1  0.94383432  0.79434222  0.59297399  1
  N  N12  1  0.11783506  0.33652693  0.38798493  1
  N  N13  1  0.98635480  0.17788128  0.30918284  1
  N  N14  1  0.99399324  0.37924247  0.13810598  1
  N  N15  1  0.88216494  0.66347307  0.61201507  1
  N  N16  1  0.01364520  0.82211872  0.69081716  1
  N  N17  1  0.00600676  0.62075753  0.86189402  1
  Cl  Cl18  1  0.56473869  0.65351386  0.17581663  1
  Cl  Cl19  1  0.33185913  0.90479418  0.40279450  1
  Cl  Cl20  1  0.71464813  0.46348022  0.46246977  1
  Cl  Cl21  1  0.38812281  0.64718162  0.95288783  1
  Cl  Cl22  1  0.28535187  0.53651978  0.53753023  1
  Cl  Cl23  1  0.87181994  0.20441172  0.78312476  1
  Cl  Cl24  1  0.62006294  0.87295736  0.87982067  1
  Cl  Cl25  1  0.43526131  0.34648614  0.82418337  1
  Cl  Cl26  1  0.26626195  0.19605219  0.65390885  1
  Cl  Cl27  1  0.37993706  0.12704264  0.12017933  1
  Cl  Cl28  1  0.12818006  0.79558828  0.21687524  1
  Cl  Cl29  1  0.73373805  0.80394781  0.34609115  1
  Cl  Cl30  1  0.61187719  0.35281838  0.04711217  1
  Cl  Cl31  1  0.22126420  0.98271241  0.94083620  1
  Cl  Cl32  1  0.52728279  0.24206181  0.36522977  1
  Cl  Cl33  1  0.47271721  0.75793819  0.63477023  1
  Cl  Cl34  1  0.66814087  0.09520582  0.59720550  1
  Cl  Cl35  1  0.77873580  0.01728759  0.05916380  1
