# generated using pymatgen
data_Na8Ga42O67
_symmetry_space_group_name_H-M   'P 1'
_cell_length_a   12.28370967
_cell_length_b   12.27585364
_cell_length_c   49.19226610
_cell_angle_alpha   28.17923572
_cell_angle_beta   28.13496930
_cell_angle_gamma   28.18494010
_symmetry_Int_Tables_number   1
_chemical_formula_structural   Na8Ga42O67
_chemical_formula_sum   'Na8 Ga42 O67'
_cell_volume   1460.16963784
_cell_formula_units_Z   1
loop_
 _symmetry_equiv_pos_site_id
 _symmetry_equiv_pos_as_xyz
  1  'x, y, z'
loop_
 _atom_site_type_symbol
 _atom_site_label
 _atom_site_symmetry_multiplicity
 _atom_site_fract_x
 _atom_site_fract_y
 _atom_site_fract_z
 _atom_site_occupancy
  Na  Na0  1  0.67333635  0.64715647  0.15996908  1
  Na  Na1  1  0.88330288  0.73262935  0.21662539  1
  Na  Na2  1  0.79102789  0.72956562  0.48806176  1
  Na  Na3  1  0.35127545  0.33641678  0.84051269  1
  Na  Na4  1  0.29165609  0.88851369  0.30847420  1
  Na  Na5  1  0.35468891  0.12317752  0.00549290  1
  Na  Na6  1  0.09205120  0.97355497  0.60774797  1
  Na  Na7  1  0.20276810  0.14291853  0.31040960  1
  Ga  Ga8  1  0.00889223  0.99100154  0.99839192  1
  Ga  Ga9  1  0.10125295  0.07391557  0.15084139  1
  Ga  Ga10  1  0.11025287  0.60039333  0.01803989  1
  Ga  Ga11  1  0.61640002  0.10199744  0.01735716  1
  Ga  Ga12  1  0.34864396  0.33552439  0.08890420  1
  Ga  Ga13  1  0.44504389  0.42808336  0.10615197  1
  Ga  Ga14  1  0.57649714  0.55419800  0.14386750  1
  Ga  Ga15  1  0.10658644  0.07523100  0.40374059  1
  Ga  Ga16  1  0.09855953  0.57945918  0.27663164  1
  Ga  Ga17  1  0.61652582  0.06339703  0.27660212  1
  Ga  Ga18  1  0.00997904  0.98538710  0.24847977  1
  Ga  Ga19  1  0.35421124  0.33864099  0.33845503  1
  Ga  Ga20  1  0.40782182  0.89851653  0.22486860  1
  Ga  Ga21  1  0.89402287  0.40646608  0.22866727  1
  Ga  Ga22  1  0.91073501  0.89906622  0.10227277  1
  Ga  Ga23  1  0.46608480  0.40431243  0.36958409  1
  Ga  Ga24  1  0.56052322  0.52496767  0.39194689  1
  Ga  Ga25  1  0.09925967  0.08440305  0.65176935  1
  Ga  Ga26  1  0.10019603  0.56979156  0.52789109  1
  Ga  Ga27  1  0.59767985  0.07170016  0.52826703  1
  Ga  Ga28  1  0.00287032  0.98299467  0.50362679  1
  Ga  Ga29  1  0.65538888  0.63207379  0.41524470  1
  Ga  Ga30  1  0.36081473  0.34036136  0.58701992  1
  Ga  Ga31  1  0.41380236  0.88163005  0.47939753  1
  Ga  Ga32  1  0.91735544  0.38808636  0.47694240  1
  Ga  Ga33  1  0.90482372  0.88594205  0.35264288  1
  Ga  Ga34  1  0.45753710  0.43583267  0.61397129  1
  Ga  Ga35  1  0.55689869  0.53807661  0.63794469  1
  Ga  Ga36  1  0.10494348  0.09296017  0.89143213  1
  Ga  Ga37  1  0.09925120  0.57926855  0.77518092  1
  Ga  Ga38  1  0.59135855  0.08360144  0.77541607  1
  Ga  Ga39  1  0.65179596  0.63830147  0.66617606  1
  Ga  Ga40  1  0.41318694  0.89790487  0.72774588  1
  Ga  Ga41  1  0.90981958  0.89156685  0.60353500  1
  Ga  Ga42  1  0.91584012  0.39728046  0.72774413  1
  Ga  Ga43  1  0.46216028  0.44855087  0.85938566  1
  Ga  Ga44  1  0.54949005  0.53569820  0.88779115  1
  Ga  Ga45  1  0.66287068  0.64899346  0.90997358  1
  Ga  Ga46  1  0.00986117  0.99834164  0.74994325  1
  Ga  Ga47  1  0.41430538  0.90868525  0.97225805  1
  Ga  Ga48  1  0.92270482  0.40581524  0.97234121  1
  Ga  Ga49  1  0.92828435  0.91526832  0.84401627  1
  O  O50  1  0.09938839  0.08442474  0.02899781  1
  O  O51  1  0.29729912  0.27254537  0.07780892  1
  O  O52  1  0.19022961  0.17450237  0.18335235  1
  O  O53  1  0.18417593  0.68633431  0.05934243  1
  O  O54  1  0.69295384  0.17834834  0.06070532  1
  O  O55  1  0.08616837  0.09079482  0.27563220  1
  O  O56  1  0.09873967  0.58977517  0.15694026  1
  O  O57  1  0.59526802  0.08426961  0.15900706  1
  O  O58  1  0.61201332  0.61002895  0.02037861  1
  O  O59  1  0.40136129  0.36341608  0.23178678  1
  O  O60  1  0.39476861  0.89319510  0.10036093  1
  O  O61  1  0.91952851  0.37550207  0.10077995  1
  O  O62  1  0.30220225  0.27937312  0.32582309  1
  O  O63  1  0.25891795  0.78972235  0.20741073  1
  O  O64  1  0.81746667  0.22897190  0.20843420  1
  O  O65  1  0.83024346  0.81660271  0.05932561  1
  O  O66  1  0.20409157  0.18381690  0.42920211  1
  O  O67  1  0.19655060  0.70910615  0.29805779  1
  O  O68  1  0.72149173  0.17982139  0.29937993  1
  O  O69  1  0.71886004  0.70054807  0.18004808  1
  O  O70  1  0.11098115  0.08621110  0.52340057  1
  O  O71  1  0.10243564  0.59589925  0.40036498  1
  O  O72  1  0.62938989  0.05409633  0.40490096  1
  O  O73  1  0.59904403  0.59283119  0.27817254  1
  O  O74  1  0.50069568  0.54530695  0.36390978  1
  O  O75  1  0.40889633  0.37500275  0.47947899  1
  O  O76  1  0.41039404  0.88245972  0.35515387  1
  O  O77  1  0.92211529  0.36634862  0.35373635  1
  O  O78  1  0.89742385  0.86077386  0.23287041  1
  O  O79  1  0.30983240  0.29182828  0.57083171  1
  O  O80  1  0.28859903  0.79681718  0.45383965  1
  O  O81  1  0.82168178  0.26561670  0.45289479  1
  O  O82  1  0.81675193  0.78003822  0.32494585  1
  O  O83  1  0.21705874  0.19822778  0.67280294  1
  O  O84  1  0.20831227  0.71496308  0.54457599  1
  O  O85  1  0.73600641  0.18974972  0.54392167  1
  O  O86  1  0.71512349  0.69380154  0.42559965  1
  O  O87  1  0.12303465  0.10770051  0.76860545  1
  O  O88  1  0.10274890  0.60928810  0.64729877  1
  O  O89  1  0.62715649  0.08337884  0.64815905  1
  O  O90  1  0.61836467  0.58656449  0.52176023  1
  O  O91  1  0.52733779  0.56975951  0.60015848  1
  O  O92  1  0.40687019  0.39008981  0.72475593  1
  O  O93  1  0.39469101  0.90320276  0.60095442  1
  O  O94  1  0.92260561  0.37599509  0.59983122  1
  O  O95  1  0.91655398  0.88498784  0.47719186  1
  O  O96  1  0.29479680  0.27865172  0.82172541  1
  O  O97  1  0.29010875  0.80970759  0.69992490  1
  O  O98  1  0.82522405  0.27825576  0.69903318  1
  O  O99  1  0.81690817  0.79815899  0.57014128  1
  O  O100  1  0.16318243  0.15717549  0.94741486  1
  O  O101  1  0.20247716  0.75334514  0.78930604  1
  O  O102  1  0.76710489  0.19342918  0.78833576  1
  O  O103  1  0.72165559  0.70920691  0.67126691  1
  O  O104  1  0.10199292  0.60057342  0.89694133  1
  O  O105  1  0.60688625  0.09019906  0.89702305  1
  O  O106  1  0.61876748  0.60809816  0.76947696  1
  O  O107  1  0.48459442  0.40937050  0.89958538  1
  O  O108  1  0.39920932  0.37973671  0.98032834  1
  O  O109  1  0.40915356  0.88768925  0.84858047  1
  O  O110  1  0.89764944  0.40202358  0.84957116  1
  O  O111  1  0.91269714  0.89615960  0.72604746  1
  O  O112  1  0.29695984  0.79203236  0.95256153  1
  O  O113  1  0.80663678  0.28328624  0.95297999  1
  O  O114  1  0.81798986  0.80802005  0.81866485  1
  O  O115  1  0.70217523  0.68746088  0.93091318  1
  O  O116  1  0.91286660  0.90266080  0.97203327  1
