# generated using pymatgen
data_K2Fe(PS3)2
_symmetry_space_group_name_H-M   'P 1'
_cell_length_a   6.05077390
_cell_length_b   7.69850345
_cell_length_c   12.49479303
_cell_angle_alpha   90.00000000
_cell_angle_beta   90.00000000
_cell_angle_gamma   102.45083566
_symmetry_Int_Tables_number   1
_chemical_formula_structural   K2Fe(PS3)2
_chemical_formula_sum   'K4 Fe2 P4 S12'
_cell_volume   568.34266932
_cell_formula_units_Z   2
loop_
 _symmetry_equiv_pos_site_id
 _symmetry_equiv_pos_as_xyz
  1  'x, y, z'
loop_
 _atom_site_type_symbol
 _atom_site_label
 _atom_site_symmetry_multiplicity
 _atom_site_fract_x
 _atom_site_fract_y
 _atom_site_fract_z
 _atom_site_occupancy
  P  P0  1  0.01855328  0.36545214  0.97358032  1
  P  P1  1  0.98144672  0.63454786  0.02641968  1
  P  P2  1  0.51855328  0.86545214  0.52641968  1
  P  P3  1  0.48144672  0.13454786  0.47358032  1
  S  S4  1  0.18905550  0.27368886  0.09374916  1
  S  S5  1  0.31094450  0.22631114  0.59374916  1
  S  S6  1  0.72606881  0.90814234  0.65614438  1
  S  S7  1  0.22606881  0.40814234  0.84385562  1
  S  S8  1  0.77393119  0.59185766  0.15614438  1
  S  S9  1  0.27393119  0.09185766  0.34385562  1
  S  S10  1  0.81255099  0.25578326  0.44974991  1
  S  S11  1  0.68744901  0.24421674  0.94974991  1
  S  S12  1  0.18744901  0.74421674  0.55025009  1
  S  S13  1  0.31255099  0.75578326  0.05025009  1
  S  S14  1  0.68905550  0.77368886  0.40625084  1
  S  S15  1  0.81094450  0.72631114  0.90625084  1
  K  K16  1  0.29650906  0.95757463  0.81034164  1
  K  K17  1  0.20349094  0.54242537  0.31034164  1
  K  K18  1  0.70349094  0.04242537  0.18965836  1
  K  K19  1  0.79650906  0.45757463  0.68965836  1
  Fe  Fe20  1  0.00000000  0.00000000  0.50000000  1
  Fe  Fe21  1  0.50000000  0.50000000  0.00000000  1
