# generated using pymatgen
data_Ag8GeTe6
_symmetry_space_group_name_H-M   'P 1'
_cell_length_a   8.21363992
_cell_length_b   8.59112942
_cell_length_c   8.29632491
_cell_angle_alpha   62.03687955
_cell_angle_beta   62.81640255
_cell_angle_gamma   61.68459535
_symmetry_Int_Tables_number   1
_chemical_formula_structural   Ag8GeTe6
_chemical_formula_sum   'Ag8 Ge1 Te6'
_cell_volume   434.02709345
_cell_formula_units_Z   1
loop_
 _symmetry_equiv_pos_site_id
 _symmetry_equiv_pos_as_xyz
  1  'x, y, z'
loop_
 _atom_site_type_symbol
 _atom_site_label
 _atom_site_symmetry_multiplicity
 _atom_site_fract_x
 _atom_site_fract_y
 _atom_site_fract_z
 _atom_site_occupancy
  Ag  Ag0  1  0.60660074  0.15969763  0.58368993  1
  Ag  Ag1  1  0.55916343  0.63237311  0.62552569  1
  Ag  Ag2  1  0.97409841  0.66892467  0.35825090  1
  Ag  Ag3  1  0.62616319  0.01556168  0.96351662  1
  Ag  Ag4  1  0.99073905  0.99552860  0.33370759  1
  Ag  Ag5  1  0.97205699  0.33779800  0.97409729  1
  Ag  Ag6  1  0.95161990  0.66933318  0.98486829  1
  Ag  Ag7  1  0.03323669  0.98445641  0.65672428  1
  Ge  Ge8  1  0.27888811  0.27384264  0.24943283  1
  Te  Te9  1  0.94739730  0.01082047  0.00626920  1
  Te  Te10  1  0.38108515  0.44715657  0.35156839  1
  Te  Te11  1  0.37097239  0.90141627  0.34671464  1
  Te  Te12  1  0.34787272  0.38321288  0.86464985  1
  Te  Te13  1  0.88478882  0.38581207  0.35577392  1
  Te  Te14  1  0.75831711  0.76906582  0.71021058  1
