# generated using pymatgen
data_NbOs3
_symmetry_space_group_name_H-M   'P 1'
_cell_length_a   2.78095769
_cell_length_b   2.78095769
_cell_length_c   9.12290508
_cell_angle_alpha   90.00000000
_cell_angle_beta   90.00000000
_cell_angle_gamma   119.95698113
_symmetry_Int_Tables_number   1
_chemical_formula_structural   NbOs3
_chemical_formula_sum   'Nb1 Os3'
_cell_volume   61.12806519
_cell_formula_units_Z   1
loop_
 _symmetry_equiv_pos_site_id
 _symmetry_equiv_pos_as_xyz
  1  'x, y, z'
loop_
 _atom_site_type_symbol
 _atom_site_label
 _atom_site_symmetry_multiplicity
 _atom_site_fract_x
 _atom_site_fract_y
 _atom_site_fract_z
 _atom_site_occupancy
  Nb  Nb0  1  0.66667107  0.33332893  0.37500000  1
  Os  Os1  1  0.66668577  0.33331423  0.87500000  1
  Os  Os2  1  0.33332158  0.66667842  0.10920796  1
  Os  Os3  1  0.33332158  0.66667842  0.64079204  1
