# generated using pymatgen
data_Ag3SI
_symmetry_space_group_name_H-M   'P 1'
_cell_length_a   10.15182099
_cell_length_b   7.09353374
_cell_length_c   7.01098586
_cell_angle_alpha   58.88259927
_cell_angle_beta   43.45931930
_cell_angle_gamma   44.64430502
_symmetry_Int_Tables_number   1
_chemical_formula_structural   Ag3SI
_chemical_formula_sum   'Ag6 S2 I2'
_cell_volume   244.03081644
_cell_formula_units_Z   2
loop_
 _symmetry_equiv_pos_site_id
 _symmetry_equiv_pos_as_xyz
  1  'x, y, z'
loop_
 _atom_site_type_symbol
 _atom_site_label
 _atom_site_symmetry_multiplicity
 _atom_site_fract_x
 _atom_site_fract_y
 _atom_site_fract_z
 _atom_site_occupancy
  Ag  Ag0  1  0.06686063  0.49908416  0.00307041  1
  Ag  Ag1  1  0.05184142  0.38399276  0.49311548  1
  Ag  Ag2  1  0.54375913  0.00937383  0.49753648  1
  Ag  Ag3  1  0.57621641  0.48956012  0.00498512  1
  Ag  Ag4  1  0.43584764  0.61612053  0.49528587  1
  Ag  Ag5  1  0.93874970  0.00766696  0.49240562  1
  S  S6  1  0.23427162  0.50387618  0.50348857  1
  S  S7  1  0.73146266  0.51107017  0.50529083  1
  I  I8  1  0.00877601  0.99971373  0.99778354  1
  I  I9  1  0.50947578  0.00055357  0.99741708  1
