# generated using pymatgen
data_Na2MoC3SeN3
_symmetry_space_group_name_H-M   'P 1'
_cell_length_a   11.11277816
_cell_length_b   12.25005912
_cell_length_c   12.25005976
_cell_angle_alpha   78.12720449
_cell_angle_beta   63.02271505
_cell_angle_gamma   63.02271585
_symmetry_Int_Tables_number   1
_chemical_formula_structural   Na2MoC3SeN3
_chemical_formula_sum   'Na16 Mo8 C24 Se8 N24'
_cell_volume   1324.45186163
_cell_formula_units_Z   8
loop_
 _symmetry_equiv_pos_site_id
 _symmetry_equiv_pos_as_xyz
  1  'x, y, z'
loop_
 _atom_site_type_symbol
 _atom_site_label
 _atom_site_symmetry_multiplicity
 _atom_site_fract_x
 _atom_site_fract_y
 _atom_site_fract_z
 _atom_site_occupancy
  Na  Na0  1  1.00000000  0.14093924  0.35906076  1
  Na  Na1  1  0.23281362  0.61631289  0.38368728  1
  Na  Na2  1  0.15088018  0.61631571  0.11631571  1
  Na  Na3  1  0.85905674  0.14094936  0.14094999  1
  Na  Na4  1  0.88349839  0.88368603  0.38368603  1
  Na  Na5  1  0.11650161  0.11631397  0.61631397  1
  Na  Na6  1  0.76718638  0.38368711  0.61631272  1
  Na  Na7  1  0.00000000  0.85906076  0.64093924  1
  Na  Na8  1  0.23281362  0.88368728  0.11631289  1
  Na  Na9  1  0.50000000  0.64094113  0.85905887  1
  Na  Na10  1  0.84911982  0.38368429  0.88368429  1
  Na  Na11  1  0.50000000  0.35905887  0.14094113  1
  Na  Na12  1  0.14094326  0.35905001  0.35905064  1
  Na  Na13  1  0.76718638  0.11631272  0.88368711  1
  Na  Na14  1  0.85905674  0.64094999  0.64094936  1
  Na  Na15  1  0.14094326  0.85905064  0.85905001  1
  Mo  Mo16  1  0.27980190  0.15459122  0.84540138  1
  Mo  Mo17  1  0.62520299  0.65459587  0.15459587  1
  Mo  Mo18  1  0.72019810  0.65459862  0.34540878  1
  Mo  Mo19  1  0.27980190  0.34540138  0.65459122  1
  Mo  Mo20  1  0.37479701  0.34540413  0.84540413  1
  Mo  Mo21  1  0.43436798  0.84540945  0.34540945  1
  Mo  Mo22  1  0.56563202  0.15459055  0.65459055  1
  Mo  Mo23  1  0.72019810  0.84540878  0.15459862  1
  C  C24  1  0.30651197  0.03942934  0.36283975  1
  C  C25  1  0.65404377  0.63716191  0.53943487  1
  C  C26  1  0.08807434  0.35782110  0.64219647  1
  C  C27  1  0.83065419  0.86284327  0.96057142  1
  C  C28  1  0.70877296  0.63715746  0.96056624  1
  C  C29  1  0.65404377  0.03943487  0.13716191  1
  C  C30  1  0.23030846  0.85778719  0.35778719  1
  C  C31  1  0.91192566  0.64217890  0.35780353  1
  C  C32  1  0.30651197  0.86283975  0.53942934  1
  C  C33  1  0.83065419  0.46057142  0.36284327  1
  C  C34  1  0.76969154  0.14221281  0.64221281  1
  C  C35  1  0.69348803  0.13716025  0.46057066  1
  C  C36  1  0.70877296  0.46056624  0.13715746  1
  C  C37  1  0.16934581  0.53942858  0.63715673  1
  C  C38  1  0.29122704  0.53943376  0.86284254  1
  C  C39  1  0.91192566  0.85780353  0.14217890  1
  C  C40  1  0.69348803  0.96057066  0.63716025  1
  C  C41  1  0.34595623  0.36283809  0.46056513  1
  C  C42  1  0.44590210  0.64217961  0.14217961  1
  C  C43  1  0.55409790  0.35782039  0.85782039  1
  C  C44  1  0.16934581  0.13715673  0.03942858  1
  C  C45  1  0.34595623  0.96056513  0.86283809  1
  C  C46  1  0.08807434  0.14219647  0.85782110  1
  C  C47  1  0.29122704  0.36284254  0.03943376  1
  Se  Se48  1  0.50011336  0.11756739  0.88243230  1
  Se  Se49  1  0.49988664  0.61756770  0.38243261  1
  Se  Se50  1  0.61762857  0.88244403  0.38244403  1
  Se  Se51  1  0.50011336  0.38243230  0.61756739  1
  Se  Se52  1  0.38237143  0.11755597  0.61755597  1
  Se  Se53  1  0.49988664  0.88243261  0.11756770  1
  Se  Se54  1  0.88257974  0.61755856  0.11755856  1
  Se  Se55  1  0.11742026  0.38244144  0.88244144  1
  N  N56  1  0.63731420  0.61469677  0.64262456  1
  N  N57  1  0.25200561  0.64263755  0.88530734  1
  N  N58  1  0.22005979  0.14262713  0.38530479  1
  N  N59  1  0.98284055  0.37029297  0.62970535  1
  N  N60  1  0.74799439  0.35736245  0.11469266  1
  N  N61  1  0.10536317  0.11469579  0.14262715  1
  N  N62  1  0.89463683  0.35737285  0.38530421  1
  N  N63  1  0.01715945  0.87029465  0.12970703  1
  N  N64  1  0.88745121  0.12970801  0.62970801  1
  N  N65  1  0.98284055  0.12970535  0.87029297  1
  N  N66  1  0.35311922  0.62969948  0.12969948  1
  N  N67  1  0.22005979  0.88530479  0.64262713  1
  N  N68  1  0.89463683  0.88530421  0.85737285  1
  N  N69  1  0.36268580  0.85737544  0.88530323  1
  N  N70  1  0.64688078  0.37030052  0.87030052  1
  N  N71  1  0.77994021  0.11469521  0.35737287  1
  N  N72  1  0.11254879  0.87029199  0.37029199  1
  N  N73  1  0.10536317  0.64262715  0.61469579  1
  N  N74  1  0.25200561  0.38530734  0.14263755  1
  N  N75  1  0.74799439  0.61469266  0.85736245  1
  N  N76  1  0.63731420  0.14262456  0.11469677  1
  N  N77  1  0.01715945  0.62970703  0.37029465  1
  N  N78  1  0.36268580  0.38530323  0.35737544  1
  N  N79  1  0.77994021  0.85737287  0.61469521  1
