# generated using pymatgen
data_Li17(MnAs2)4
_symmetry_space_group_name_H-M   'P 1'
_cell_length_a   12.19292275
_cell_length_b   8.66594972
_cell_length_c   6.13803799
_cell_angle_alpha   89.97867256
_cell_angle_beta   90.02788188
_cell_angle_gamma   45.11864882
_symmetry_Int_Tables_number   1
_chemical_formula_structural   Li17(MnAs2)4
_chemical_formula_sum   'Li17 Mn4 As8'
_cell_volume   459.55317485
_cell_formula_units_Z   1
loop_
 _symmetry_equiv_pos_site_id
 _symmetry_equiv_pos_as_xyz
  1  'x, y, z'
loop_
 _atom_site_type_symbol
 _atom_site_label
 _atom_site_symmetry_multiplicity
 _atom_site_fract_x
 _atom_site_fract_y
 _atom_site_fract_z
 _atom_site_occupancy
  Li  Li0  1  0.11505664  0.02269172  0.00345541  1
  Li  Li1  1  0.11542301  0.01810567  0.50271601  1
  Li  Li2  1  0.37709589  0.99650015  0.03323384  1
  Li  Li3  1  0.37440997  0.99876443  0.47296669  1
  Li  Li4  1  0.12637386  0.48701166  0.01133418  1
  Li  Li5  1  0.38090493  0.24327981  0.75392343  1
  Li  Li6  1  0.12795793  0.75231513  0.24641303  1
  Li  Li7  1  0.37368161  0.49955560  0.99688566  1
  Li  Li8  1  0.62476313  0.98285026  0.01717926  1
  Li  Li9  1  0.62450552  0.98536529  0.48317362  1
  Li  Li10  1  0.37442002  0.49914716  0.50250591  1
  Li  Li11  1  0.61867898  0.25273194  0.24348655  1
  Li  Li12  1  0.36950394  0.75581176  0.75642315  1
  Li  Li13  1  0.87429128  0.01871475  0.97937245  1
  Li  Li14  1  0.87459217  0.01488996  0.51588432  1
  Li  Li15  1  0.63347436  0.49991443  0.99857346  1
  Li  Li16  1  0.87229609  0.76195633  0.75368513  1
  Mn  Mn17  1  0.12637458  0.48931804  0.48952829  1
  Mn  Mn18  1  0.62923547  0.50119933  0.50065478  1
  Mn  Mn19  1  0.87507694  0.49340836  0.01035324  1
  Mn  Mn20  1  0.87705893  0.49325720  0.49448408  1
  As  As21  1  0.12658526  0.25316941  0.74955912  1
  As  As22  1  0.12828762  0.73545554  0.74646929  1
  As  As23  1  0.37276137  0.26117783  0.25155664  1
  As  As24  1  0.37841520  0.73474640  0.25308019  1
  As  As25  1  0.62056781  0.25059558  0.74656404  1
  As  As26  1  0.87271031  0.24802990  0.25157422  1
  As  As27  1  0.62537383  0.75037826  0.74834909  1
  As  As28  1  0.87774634  0.75126214  0.24867692  1
