# generated using pymatgen
data_ZnH4(ClO3)2
_symmetry_space_group_name_H-M   'P 1'
_cell_length_a   6.43896939
_cell_length_b   7.08844059
_cell_length_c   6.46328089
_cell_angle_alpha   90.00000000
_cell_angle_beta   95.60153677
_cell_angle_gamma   90.00000000
_symmetry_Int_Tables_number   1
_chemical_formula_structural   ZnH4(ClO3)2
_chemical_formula_sum   'Zn2 H8 Cl4 O12'
_cell_volume   293.59001229
_cell_formula_units_Z   2
loop_
 _symmetry_equiv_pos_site_id
 _symmetry_equiv_pos_as_xyz
  1  'x, y, z'
loop_
 _atom_site_type_symbol
 _atom_site_label
 _atom_site_symmetry_multiplicity
 _atom_site_fract_x
 _atom_site_fract_y
 _atom_site_fract_z
 _atom_site_occupancy
  Zn  Zn0  1  0.50000000  0.50000000  0.50000000  1
  Zn  Zn1  1  0.00000000  0.00000000  0.00000000  1
  H  H2  1  0.39729948  0.93197180  0.19548059  1
  H  H3  1  0.89729948  0.56802820  0.69548059  1
  H  H4  1  0.60270052  0.06802820  0.80451941  1
  H  H5  1  0.10270052  0.43197180  0.30451941  1
  H  H6  1  0.11193168  0.65243418  0.35611160  1
  H  H7  1  0.61193168  0.84756582  0.85611160  1
  H  H8  1  0.88806832  0.34756582  0.64388840  1
  H  H9  1  0.38806832  0.15243418  0.14388840  1
  Cl  Cl10  1  0.27334035  0.62017854  0.91930168  1
  Cl  Cl11  1  0.77334035  0.87982146  0.41930168  1
  Cl  Cl12  1  0.72665965  0.37982146  0.08069832  1
  Cl  Cl13  1  0.22665965  0.12017854  0.58069832  1
  O  O14  1  0.06485508  0.73346546  0.84789810  1
  O  O15  1  0.56485508  0.76653454  0.34789810  1
  O  O16  1  0.93514492  0.26653454  0.15210190  1
  O  O17  1  0.43514492  0.23346546  0.65210190  1
  O  O18  1  0.45589980  0.66159054  0.77567191  1
  O  O19  1  0.95589980  0.83840946  0.27567191  1
  O  O20  1  0.54410020  0.33840946  0.22432809  1
  O  O21  1  0.04410020  0.16159054  0.72432809  1
  O  O22  1  0.18930990  0.53121341  0.38012582  1
  O  O23  1  0.68930990  0.96878659  0.88012582  1
  O  O24  1  0.81069010  0.46878659  0.61987418  1
  O  O25  1  0.31069010  0.03121341  0.11987418  1
