# generated using pymatgen
data_Ca2H2S2O7
_symmetry_space_group_name_H-M   'P 1'
_cell_length_a   6.91110405
_cell_length_b   9.51951018
_cell_length_c   10.72102048
_cell_angle_alpha   90.00000000
_cell_angle_beta   90.00000000
_cell_angle_gamma   90.00000000
_symmetry_Int_Tables_number   1
_chemical_formula_structural   Ca2H2S2O7
_chemical_formula_sum   'Ca8 H8 S8 O28'
_cell_volume   705.33942556
_cell_formula_units_Z   4
loop_
 _symmetry_equiv_pos_site_id
 _symmetry_equiv_pos_as_xyz
  1  'x, y, z'
loop_
 _atom_site_type_symbol
 _atom_site_label
 _atom_site_symmetry_multiplicity
 _atom_site_fract_x
 _atom_site_fract_y
 _atom_site_fract_z
 _atom_site_occupancy
  Ca  Ca0  1  0.49741268  0.63459916  0.14654297  1
  Ca  Ca1  1  0.00258732  0.13459916  0.35345703  1
  Ca  Ca2  1  0.00258732  0.36540084  0.64654297  1
  Ca  Ca3  1  0.49741268  0.86540084  0.85345703  1
  Ca  Ca4  1  0.50258732  0.36540084  0.85345703  1
  Ca  Ca5  1  0.99741268  0.86540084  0.64654297  1
  Ca  Ca6  1  0.99741268  0.63459916  0.35345703  1
  Ca  Ca7  1  0.50258732  0.13459916  0.14654297  1
  H  H8  1  0.63906732  0.77371226  0.56821433  1
  H  H9  1  0.86093268  0.27371226  0.93178567  1
  H  H10  1  0.86093268  0.22628774  0.06821433  1
  H  H11  1  0.63906732  0.72628774  0.43178567  1
  H  H12  1  0.36093268  0.22628774  0.43178567  1
  H  H13  1  0.13906732  0.72628774  0.06821433  1
  H  H14  1  0.13906732  0.77371226  0.93178567  1
  H  H15  1  0.36093268  0.27371226  0.56821433  1
  S  S16  1  0.81851096  0.88740647  0.11693785  1
  S  S17  1  0.68148904  0.38740647  0.38306215  1
  S  S18  1  0.68148904  0.11259353  0.61693785  1
  S  S19  1  0.81851096  0.61259353  0.88306215  1
  S  S20  1  0.18148904  0.11259353  0.88306215  1
  S  S21  1  0.31851096  0.61259353  0.61693785  1
  S  S22  1  0.31851096  0.88740647  0.38306215  1
  S  S23  1  0.18148904  0.38740647  0.11693785  1
  O  O24  1  0.61011276  0.89294758  0.06150162  1
  O  O25  1  0.88988724  0.39294758  0.43849838  1
  O  O26  1  0.88988724  0.10705242  0.56150162  1
  O  O27  1  0.61011276  0.60705242  0.93849838  1
  O  O28  1  0.38988724  0.10705242  0.93849838  1
  O  O29  1  0.11011276  0.60705242  0.56150162  1
  O  O30  1  0.11011276  0.89294758  0.43849838  1
  O  O31  1  0.38988724  0.39294758  0.06150162  1
  O  O32  1  0.80551740  0.76131320  0.20673361  1
  O  O33  1  0.69448260  0.26131320  0.29326639  1
  O  O34  1  0.69448260  0.23868680  0.70673361  1
  O  O35  1  0.80551740  0.73868680  0.79326639  1
  O  O36  1  0.19448260  0.23868680  0.79326639  1
  O  O37  1  0.30551740  0.73868680  0.70673361  1
  O  O38  1  0.30551740  0.76131320  0.29326639  1
  O  O39  1  0.19448260  0.26131320  0.20673361  1
  O  O40  1  0.82114534  0.02077826  0.19832787  1
  O  O41  1  0.67885466  0.52077826  0.30167213  1
  O  O42  1  0.67885466  0.97922174  0.69832787  1
  O  O43  1  0.82114534  0.47922174  0.80167213  1
  O  O44  1  0.17885466  0.97922174  0.80167213  1
  O  O45  1  0.32114534  0.47922174  0.69832787  1
  O  O46  1  0.32114534  0.02077826  0.30167213  1
  O  O47  1  0.17885466  0.52077826  0.19832787  1
  O  O48  1  0.72711753  0.75000000  0.50000000  1
  O  O49  1  0.77288247  0.25000000  0.00000000  1
  O  O50  1  0.27288247  0.25000000  0.50000000  1
  O  O51  1  0.22711753  0.75000000  0.00000000  1
