# generated using pymatgen
data_Ca2VFe4BiO12
_symmetry_space_group_name_H-M   'P 1'
_cell_length_a   10.94159353
_cell_length_b   10.96047217
_cell_length_c   10.92554307
_cell_angle_alpha   109.56931744
_cell_angle_beta   109.33630496
_cell_angle_gamma   109.41723838
_symmetry_Int_Tables_number   1
_chemical_formula_structural   Ca2VFe4BiO12
_chemical_formula_sum   'Ca8 V4 Fe16 Bi4 O48'
_cell_volume   1009.75337804
_cell_formula_units_Z   4
loop_
 _symmetry_equiv_pos_site_id
 _symmetry_equiv_pos_as_xyz
  1  'x, y, z'
loop_
 _atom_site_type_symbol
 _atom_site_label
 _atom_site_symmetry_multiplicity
 _atom_site_fract_x
 _atom_site_fract_y
 _atom_site_fract_z
 _atom_site_occupancy
  Ca  Ca0  1  0.25127706  0.87576201  0.62476966  1
  Ca  Ca1  1  0.12847709  0.37406030  0.75239953  1
  Ca  Ca2  1  0.12289539  0.24739581  0.37175148  1
  Ca  Ca3  1  0.24820942  0.37264400  0.12255042  1
  Ca  Ca4  1  0.75179058  0.62735600  0.87744958  1
  Ca  Ca5  1  0.87710461  0.75260419  0.62824852  1
  Ca  Ca6  1  0.87152291  0.62593970  0.24760047  1
  Ca  Ca7  1  0.74872294  0.12423799  0.37523034  1
  V  V8  1  0.00000000  0.00000000  0.50000000  1
  V  V9  1  0.00000000  0.50000000  0.50000000  1
  V  V10  1  0.00000000  0.50000000  0.00000000  1
  V  V11  1  0.50000000  0.50000000  0.50000000  1
  Fe  Fe12  1  0.11955224  0.74780736  0.87296886  1
  Fe  Fe13  1  0.12170461  0.87195056  0.24903589  1
  Fe  Fe14  1  0.25082609  0.62499395  0.37615980  1
  Fe  Fe15  1  0.37186631  0.62304344  0.74801759  1
  Fe  Fe16  1  0.25165336  0.12861526  0.87477736  1
  Fe  Fe17  1  0.50000000  0.00000000  0.50000000  1
  Fe  Fe18  1  0.00000000  0.00000000  0.00000000  1
  Fe  Fe19  1  0.37144133  0.24919871  0.62155286  1
  Fe  Fe20  1  0.62855867  0.75080129  0.37844714  1
  Fe  Fe21  1  0.50000000  0.50000000  0.00000000  1
  Fe  Fe22  1  0.74917391  0.37500605  0.62384020  1
  Fe  Fe23  1  0.62813369  0.37695656  0.25198241  1
  Fe  Fe24  1  0.74834664  0.87138474  0.12522264  1
  Fe  Fe25  1  0.50000000  0.00000000  0.00000000  1
  Fe  Fe26  1  0.87829539  0.12804944  0.75096411  1
  Fe  Fe27  1  0.88044776  0.25219264  0.12703114  1
  Bi  Bi28  1  0.63087397  0.88183433  0.75939273  1
  Bi  Bi29  1  0.38716515  0.75246088  0.12506507  1
  Bi  Bi30  1  0.61283485  0.24753912  0.87493493  1
  Bi  Bi31  1  0.36912603  0.11816567  0.24060727  1
  O  O32  1  0.09508336  0.98411957  0.67087884  1
  O  O33  1  0.10943043  0.59352263  0.92138347  1
  O  O34  1  0.01778967  0.33017837  0.90455094  1
  O  O35  1  0.07707323  0.68913911  0.67089847  1
  O  O36  1  0.07589045  0.88561220  0.40505356  1
  O  O37  1  0.09413365  0.61019155  0.42217557  1
  O  O38  1  0.16999347  0.48054000  0.59366032  1
  O  O39  1  0.41954107  0.82104838  0.79955719  1
  O  O40  1  0.29611400  0.32350598  0.91865592  1
  O  O41  1  0.37643118  0.58283997  0.90359179  1
  O  O42  1  0.02808913  0.20514737  0.12501539  1
  O  O43  1  0.32079646  0.92031784  0.29785216  1
  O  O44  1  0.16978050  0.18937768  0.57400242  1
  O  O45  1  0.18842318  0.57644402  0.17264364  1
  O  O46  1  0.40029308  0.82096209  0.52237832  1
  O  O47  1  0.31369815  0.48527487  0.38928399  1
  O  O48  1  0.31863343  0.90542394  0.02371974  1
  O  O49  1  0.12059914  0.02276605  0.20319557  1
  O  O50  1  0.40719855  0.08466704  0.87682880  1
  O  O51  1  0.51533250  0.60917373  0.68846575  1
  O  O52  1  0.52225246  0.40139601  0.81917688  1
  O  O53  1  0.38489024  0.31076624  0.48045708  1
  O  O54  1  0.20658240  0.12066619  0.02656634  1
  O  O55  1  0.58050679  0.90072119  0.37743119  1
  O  O56  1  0.41949321  0.09927881  0.62256881  1
  O  O57  1  0.79341760  0.87933381  0.97343366  1
  O  O58  1  0.61510976  0.68923376  0.51954292  1
  O  O59  1  0.47774754  0.59860399  0.18082312  1
  O  O60  1  0.48466750  0.39082627  0.31153425  1
  O  O61  1  0.59280145  0.91533296  0.12317120  1
  O  O62  1  0.87940086  0.97723395  0.79680443  1
  O  O63  1  0.68136657  0.09457606  0.97628026  1
  O  O64  1  0.68630185  0.51472513  0.61071601  1
  O  O65  1  0.59970692  0.17903791  0.47762168  1
  O  O66  1  0.81157682  0.42355598  0.82735636  1
  O  O67  1  0.83021950  0.81062232  0.42599758  1
  O  O68  1  0.67920354  0.07968216  0.70214784  1
  O  O69  1  0.97191087  0.79485263  0.87498461  1
  O  O70  1  0.62356882  0.41716003  0.09640821  1
  O  O71  1  0.70388600  0.67649402  0.08134408  1
  O  O72  1  0.58045893  0.17895162  0.20044281  1
  O  O73  1  0.83000653  0.51946000  0.40633968  1
  O  O74  1  0.90586635  0.38980845  0.57782443  1
  O  O75  1  0.92410955  0.11438780  0.59494644  1
  O  O76  1  0.92292677  0.31086089  0.32910153  1
  O  O77  1  0.98221033  0.66982163  0.09544906  1
  O  O78  1  0.89056957  0.40647737  0.07861653  1
  O  O79  1  0.90491664  0.01588043  0.32912116  1
