# generated using pymatgen
data_LiCr2P3O13
_symmetry_space_group_name_H-M   'P 1'
_cell_length_a   6.18040218
_cell_length_b   21.63939985
_cell_length_c   6.97321413
_cell_angle_alpha   90.00000000
_cell_angle_beta   80.72081902
_cell_angle_gamma   90.00000000
_symmetry_Int_Tables_number   1
_chemical_formula_structural   LiCr2P3O13
_chemical_formula_sum   'Li4 Cr8 P12 O52'
_cell_volume   920.39536617
_cell_formula_units_Z   4
loop_
 _symmetry_equiv_pos_site_id
 _symmetry_equiv_pos_as_xyz
  1  'x, y, z'
loop_
 _atom_site_type_symbol
 _atom_site_label
 _atom_site_symmetry_multiplicity
 _atom_site_fract_x
 _atom_site_fract_y
 _atom_site_fract_z
 _atom_site_occupancy
  Li  Li0  1  0.17969649  0.36567305  0.80524524  1
  Li  Li1  1  0.82030351  0.63432695  0.19475476  1
  Li  Li2  1  0.67969649  0.13432695  0.30524524  1
  Li  Li3  1  0.32030351  0.86567305  0.69475476  1
  Cr  Cr4  1  0.77313043  0.06345246  0.78282805  1
  Cr  Cr5  1  0.72686957  0.56345246  0.71717195  1
  Cr  Cr6  1  0.78520334  0.79280000  0.95491948  1
  Cr  Cr7  1  0.71479666  0.29280000  0.54508052  1
  Cr  Cr8  1  0.21479666  0.20720000  0.04508052  1
  Cr  Cr9  1  0.22686957  0.93654754  0.21717195  1
  Cr  Cr10  1  0.27313043  0.43654754  0.28282805  1
  Cr  Cr11  1  0.28520334  0.70720000  0.45491948  1
  P  P12  1  0.72294179  0.89982395  0.29410559  1
  P  P13  1  0.77450880  0.70312275  0.58272873  1
  P  P14  1  0.22294179  0.60017605  0.79410559  1
  P  P15  1  0.11459204  0.08268128  0.34205077  1
  P  P16  1  0.61459204  0.41731872  0.84205077  1
  P  P17  1  0.38540796  0.58268128  0.15794923  1
  P  P18  1  0.77705821  0.39982395  0.20589441  1
  P  P19  1  0.27705821  0.10017605  0.70589441  1
  P  P20  1  0.88540796  0.91731872  0.65794923  1
  P  P21  1  0.22549120  0.29687725  0.41727127  1
  P  P22  1  0.27450880  0.79687725  0.08272873  1
  P  P23  1  0.72549120  0.20312275  0.91727127  1
  O  O24  1  0.26464949  0.16422842  0.79648590  1
  O  O25  1  0.61872606  0.58050750  0.04789872  1
  O  O26  1  0.10291214  0.79153405  0.94599900  1
  O  O27  1  0.23535051  0.66422842  0.70351410  1
  O  O28  1  0.63608613  0.37611214  0.66413261  1
  O  O29  1  0.98787862  0.43581500  0.20968249  1
  O  O30  1  0.77816311  0.38590760  0.97792480  1
  O  O31  1  0.38127394  0.41949250  0.95210128  1
  O  O32  1  0.98398162  0.68676709  0.43303278  1
  O  O33  1  0.51601838  0.18676709  0.06696722  1
  O  O34  1  0.11872606  0.91949250  0.54789872  1
  O  O35  1  0.68928626  0.26340166  0.81095664  1
  O  O36  1  0.41616797  0.55677304  0.72511950  1
  O  O37  1  0.01212138  0.56418500  0.79031751  1
  O  O38  1  0.08383203  0.05677304  0.77488050  1
  O  O39  1  0.89708786  0.20846595  0.05400100  1
  O  O40  1  0.22183689  0.61409240  0.02207520  1
  O  O41  1  0.60291214  0.70846595  0.44599900  1
  O  O42  1  0.21398909  0.84830576  0.23671148  1
  O  O43  1  0.78601091  0.15169424  0.76328852  1
  O  O44  1  0.27298920  0.52056484  0.21181097  1
  O  O45  1  0.28601091  0.34830576  0.26328852  1
  O  O46  1  0.20334524  0.43863521  0.51305088  1
  O  O47  1  0.48787862  0.06418500  0.70968249  1
  O  O48  1  0.72701080  0.47943516  0.78818903  1
  O  O49  1  0.36391387  0.62388786  0.33586739  1
  O  O50  1  0.74501823  0.22498069  0.44884519  1
  O  O51  1  0.22701080  0.02056484  0.28818903  1
  O  O52  1  0.77298920  0.97943516  0.71181097  1
  O  O53  1  0.13608613  0.12388786  0.16413261  1
  O  O54  1  0.31071374  0.73659834  0.18904336  1
  O  O55  1  0.91616797  0.94322696  0.22511950  1
  O  O56  1  0.88127394  0.08050750  0.45210128  1
  O  O57  1  0.70334524  0.06136479  0.01305088  1
  O  O58  1  0.86391387  0.87611214  0.83586739  1
  O  O59  1  0.51212138  0.93581500  0.29031751  1
  O  O60  1  0.81071374  0.76340166  0.68904336  1
  O  O61  1  0.01601838  0.31323291  0.56696722  1
  O  O62  1  0.25498177  0.77501931  0.55115481  1
  O  O63  1  0.48398162  0.81323291  0.93303278  1
  O  O64  1  0.29665476  0.93863521  0.98694912  1
  O  O65  1  0.75498177  0.72498069  0.05115481  1
  O  O66  1  0.72183689  0.88590760  0.52207520  1
  O  O67  1  0.18928626  0.23659834  0.31095664  1
  O  O68  1  0.79665476  0.56136479  0.48694912  1
  O  O69  1  0.58383203  0.44322696  0.27488050  1
  O  O70  1  0.76464949  0.33577158  0.29648590  1
  O  O71  1  0.73535051  0.83577158  0.20351410  1
  O  O72  1  0.24501823  0.27501931  0.94884519  1
  O  O73  1  0.71398909  0.65169424  0.73671148  1
  O  O74  1  0.27816311  0.11409240  0.47792480  1
  O  O75  1  0.39708786  0.29153405  0.55400100  1
