# generated using pymatgen
data_Mn(FeO2)2
_symmetry_space_group_name_H-M   'P 1'
_cell_length_a   6.15049370
_cell_length_b   6.10071649
_cell_length_c   30.39600554
_cell_angle_alpha   60.27972475
_cell_angle_beta   59.99808182
_cell_angle_gamma   59.83729374
_symmetry_Int_Tables_number   1
_chemical_formula_structural   Mn(FeO2)2
_chemical_formula_sum   'Mn10 Fe20 O40'
_cell_volume   807.15435148
_cell_formula_units_Z   10
loop_
 _symmetry_equiv_pos_site_id
 _symmetry_equiv_pos_as_xyz
  1  'x, y, z'
loop_
 _atom_site_type_symbol
 _atom_site_label
 _atom_site_symmetry_multiplicity
 _atom_site_fract_x
 _atom_site_fract_y
 _atom_site_fract_z
 _atom_site_occupancy
  Mn  Mn0  1  0.12558506  0.12846988  0.02481049  1
  Mn  Mn1  1  0.00238132  0.50014282  0.09951405  1
  Mn  Mn2  1  0.12866909  0.12728362  0.22431153  1
  Mn  Mn3  1  0.12835152  0.12243585  0.42541534  1
  Mn  Mn4  1  0.00068215  0.49755312  0.50056019  1
  Mn  Mn5  1  0.12061967  0.12434897  0.62715831  1
  Mn  Mn6  1  0.00258770  0.50143859  0.29968282  1
  Mn  Mn7  1  0.12223739  0.12715212  0.82525293  1
  Mn  Mn8  1  -0.00165439  0.50235876  0.70017675  1
  Mn  Mn9  1  0.87881492  0.87443849  0.97380005  1
  Fe  Fe10  1  0.50229913  0.00146632  0.09934090  1
  Fe  Fe11  1  0.50002861  0.50354149  -0.00056628  1
  Fe  Fe12  1  0.50088157  0.49962646  0.09937139  1
  Fe  Fe13  1  0.49712235  0.00526738  0.29920285  1
  Fe  Fe14  1  0.50183666  0.49867842  0.19932575  1
  Fe  Fe15  1  0.49896240  0.50055240  0.29878863  1
  Fe  Fe16  1  0.87756866  0.87531762  0.17502531  1
  Fe  Fe17  1  0.49889950  0.00119488  0.50052379  1
  Fe  Fe18  1  0.49735008  0.49688985  0.40120788  1
  Fe  Fe19  1  0.49902873  0.49570658  0.50069025  1
  Fe  Fe20  1  0.86926944  0.87680108  0.37478367  1
  Fe  Fe21  1  0.49978859  0.50258531  0.60043309  1
  Fe  Fe22  1  0.49763861  0.50121496  0.69998972  1
  Fe  Fe23  1  0.87527303  0.87254287  0.57548214  1
  Fe  Fe24  1  0.50028264  0.49708436  0.80010146  1
  Fe  Fe25  1  0.49727739  0.00128302  0.70033734  1
  Fe  Fe26  1  0.50053207  0.49956536  0.90013450  1
  Fe  Fe27  1  0.86771188  0.87819247  0.77595096  1
  Fe  Fe28  1  0.49961317  -0.00047923  0.90044254  1
  Fe  Fe29  1  -0.00106326  0.50057002  0.89993664  1
  O  O30  1  0.26187046  0.27476418  0.05188763  1
  O  O31  1  0.26124110  0.26658042  0.14138113  1
  O  O32  1  0.28436709  0.71653047  0.04898096  1
  O  O33  1  0.70942465  0.26392029  0.05069369  1
  O  O34  1  0.27217517  0.25795806  0.25175946  1
  O  O35  1  0.28493000  0.74158372  0.14749203  1
  O  O36  1  0.73997570  0.73396751  0.05784222  1
  O  O37  1  0.27088215  0.25871888  0.34289886  1
  O  O38  1  0.28372622  0.71621284  0.25010275  1
  O  O39  1  0.72135738  0.27818096  0.14944238  1
  O  O40  1  0.71343754  0.25691077  0.25276228  1
  O  O41  1  0.74838590  0.73030932  0.14620751  1
  O  O42  1  0.26000656  0.26600712  0.45350704  1
  O  O43  1  0.26513999  0.74414274  0.34997789  1
  O  O44  1  0.72450165  0.73957437  0.25875860  1
  O  O45  1  0.72286178  0.26474886  0.35143937  1
  O  O46  1  0.28233728  0.25084977  0.54403017  1
  O  O47  1  0.26246583  0.70738898  0.45322405  1
  O  O48  1  0.71194456  0.26172462  0.45176866  1
  O  O49  1  0.72982258  0.74603982  0.35079343  1
  O  O50  1  0.28807616  0.74096787  0.54675773  1
  O  O51  1  0.25918208  0.26864824  0.65304043  1
  O  O52  1  0.72748321  0.75456432  0.45177090  1
  O  O53  1  0.73758728  0.28932729  0.54689145  1
  O  O54  1  0.28028781  0.71773030  0.65048935  1
  O  O55  1  0.26186862  0.26268873  0.74264224  1
  O  O56  1  0.71316197  0.25892328  0.65228582  1
  O  O57  1  0.74394093  0.73704883  0.54580968  1
  O  O58  1  0.28473678  0.73970602  0.74840568  1
  O  O59  1  0.26382706  0.26019010  0.85328071  1
  O  O60  1  0.72326954  0.27827737  0.74915646  1
  O  O61  1  0.73648021  0.74139775  0.65675133  1
  O  O62  1  0.26777332  0.26853953  0.94179473  1
  O  O63  1  0.26683579  0.70703214  0.85420379  1
  O  O64  1  0.70830818  0.26321505  0.85370442  1
  O  O65  1  0.74154768  0.73212360  0.74756949  1
  O  O66  1  0.29574437  0.73267652  0.94723030  1
  O  O67  1  0.72810786  0.29509021  0.94725446  1
  O  O68  1  0.73896252  0.72850455  0.85695473  1
  O  O69  1  0.73338933  0.73401077  0.94787121  1
