# generated using pymatgen
data_Ni(PO3)3
_symmetry_space_group_name_H-M   'P 1'
_cell_length_a   6.59495945
_cell_length_b   7.50947070
_cell_length_c   6.93682241
_cell_angle_alpha   101.93108056
_cell_angle_beta   83.99450518
_cell_angle_gamma   86.16163140
_symmetry_Int_Tables_number   1
_chemical_formula_structural   Ni(PO3)3
_chemical_formula_sum   'Ni2 P6 O18'
_cell_volume   332.88970189
_cell_formula_units_Z   2
loop_
 _symmetry_equiv_pos_site_id
 _symmetry_equiv_pos_as_xyz
  1  'x, y, z'
loop_
 _atom_site_type_symbol
 _atom_site_label
 _atom_site_symmetry_multiplicity
 _atom_site_fract_x
 _atom_site_fract_y
 _atom_site_fract_z
 _atom_site_occupancy
  Ni  Ni0  1  0.15381270  0.13904010  0.91219085  1
  Ni  Ni1  1  0.84618730  0.86095990  0.08780915  1
  O  O2  1  0.04809358  0.34075698  0.15608455  1
  O  O3  1  0.15273282  0.34170218  0.74237247  1
  O  O4  1  0.15737431  0.92924413  0.08475707  1
  O  O5  1  0.20629469  0.94185256  0.65747907  1
  O  O6  1  0.30900330  0.60166039  0.95143816  1
  O  O7  1  0.28176867  0.73135669  0.30919448  1
  O  O8  1  0.27361221  0.59272733  0.59047398  1
  O  O9  1  0.44072683  0.19436436  0.45684777  1
  O  O10  1  0.45409417  0.16133663  0.92869724  1
  O  O11  1  0.54590583  0.83866337  0.07130276  1
  O  O12  1  0.55927317  0.80563564  0.54315223  1
  O  O13  1  0.72638779  0.40727267  0.40952602  1
  O  O14  1  0.71823133  0.26864331  0.69080552  1
  O  O15  1  0.69099670  0.39833961  0.04856184  1
  O  O16  1  0.79370531  0.05814744  0.34252093  1
  O  O17  1  0.84262569  0.07075587  0.91524293  1
  O  O18  1  0.84726718  0.65829782  0.25762753  1
  O  O19  1  0.95190642  0.65924302  0.84391545  1
  P  P20  1  0.15383296  0.54687490  0.78733459  1
  P  P21  1  0.33261331  0.79284415  0.10052101  1
  P  P22  1  0.33418833  0.77841899  0.53039826  1
  P  P23  1  0.66581167  0.22158101  0.46960174  1
  P  P24  1  0.66738669  0.20715585  0.89947899  1
  P  P25  1  0.84616704  0.45312510  0.21266541  1
