# generated using pymatgen
data_Fe2CuO4
_symmetry_space_group_name_H-M   'P 1'
_cell_length_a   6.06659272
_cell_length_b   6.06659266
_cell_length_c   23.59771898
_cell_angle_alpha   61.00514895
_cell_angle_beta   61.00514929
_cell_angle_gamma   58.81937561
_symmetry_Int_Tables_number   1
_chemical_formula_structural   Fe2CuO4
_chemical_formula_sum   'Fe16 Cu8 O32'
_cell_volume   617.36569387
_cell_formula_units_Z   8
loop_
 _symmetry_equiv_pos_site_id
 _symmetry_equiv_pos_as_xyz
  1  'x, y, z'
loop_
 _atom_site_type_symbol
 _atom_site_label
 _atom_site_symmetry_multiplicity
 _atom_site_fract_x
 _atom_site_fract_y
 _atom_site_fract_z
 _atom_site_occupancy
  Fe  Fe0  1  0.99948256  0.99948256  0.00080362  1
  Fe  Fe1  1  0.00819651  0.00819651  0.24791167  1
  Fe  Fe2  1  0.13000982  0.62113785  0.15682627  1
  Fe  Fe3  1  0.61912036  0.61912036  0.03475410  1
  Fe  Fe4  1  0.01966964  0.01966964  0.49419409  1
  Fe  Fe5  1  0.62113785  0.13000982  0.15682627  1
  Fe  Fe6  1  0.13166133  0.63411062  0.40504035  1
  Fe  Fe7  1  0.01174081  0.01174081  0.74742669  1
  Fe  Fe8  1  0.62721412  0.62721412  0.28140192  1
  Fe  Fe9  1  0.23597413  0.23597413  0.56616984  1
  Fe  Fe10  1  0.63411062  0.13166133  0.40504035  1
  Fe  Fe11  1  0.12746761  0.62651812  0.65505143  1
  Fe  Fe12  1  0.23274462  0.23274462  0.81517318  1
  Fe  Fe13  1  0.62651812  0.12746761  0.65505143  1
  Fe  Fe14  1  0.12291638  0.61406971  0.90670170  1
  Fe  Fe15  1  0.61406971  0.12291638  0.90670170  1
  Cu  Cu16  1  0.24377097  0.24377097  0.06401953  1
  Cu  Cu17  1  0.24633813  0.24633813  0.31502009  1
  Cu  Cu18  1  0.62022571  0.62022571  0.15745164  1
  Cu  Cu19  1  0.62999796  0.62999796  0.40408263  1
  Cu  Cu20  1  0.62757492  0.62757492  0.52961907  1
  Cu  Cu21  1  0.62519879  0.62519879  0.65684699  1
  Cu  Cu22  1  0.62255175  0.62255175  0.78181173  1
  Cu  Cu23  1  0.61715365  0.61715365  0.90749470  1
  O  O24  1  0.38637964  0.38637964  0.09525184  1
  O  O25  1  0.38031559  0.38031559  0.21334744  1
  O  O26  1  0.37286904  0.84168860  0.09848183  1
  O  O27  1  0.84168860  0.37286904  0.09848183  1
  O  O28  1  0.39856344  0.87636724  0.21656065  1
  O  O29  1  0.39535448  0.39535448  0.34355026  1
  O  O30  1  0.36264982  0.36264982  0.46865897  1
  O  O31  1  0.39125401  0.84672247  0.34734711  1
  O  O32  1  0.87084668  0.87084668  0.09854633  1
  O  O33  1  0.87636724  0.39856344  0.21656065  1
  O  O34  1  0.84672247  0.39125401  0.34734711  1
  O  O35  1  0.86531633  0.86531633  0.21946875  1
  O  O36  1  0.41711587  0.87696686  0.46157050  1
  O  O37  1  0.35889368  0.35889368  0.60165519  1
  O  O38  1  0.36267617  0.36267617  0.71729696  1
  O  O39  1  0.38226979  0.83965028  0.59642821  1
  O  O40  1  0.89483436  0.89483436  0.34397053  1
  O  O41  1  0.87696686  0.41711587  0.46157050  1
  O  O42  1  0.83965028  0.38226979  0.59642821  1
  O  O43  1  0.89577146  0.89577146  0.45984521  1
  O  O44  1  0.40670976  0.86744437  0.71606473  1
  O  O45  1  0.35754363  0.35754363  0.85071943  1
  O  O46  1  0.37229411  0.37229411  0.96300185  1
  O  O47  1  0.37121113  0.84038899  0.84753643  1
  O  O48  1  0.88944537  0.88944537  0.59333725  1
  O  O49  1  0.86744437  0.40670976  0.71606473  1
  O  O50  1  0.88761392  0.88761392  0.71131352  1
  O  O51  1  0.84038899  0.37121113  0.84753643  1
  O  O52  1  0.39477292  0.86457502  0.96737603  1
  O  O53  1  0.86457502  0.39477292  0.96737603  1
  O  O54  1  0.87632835  0.87632835  0.84668058  1
  O  O55  1  0.86032053  0.86032053  0.96920395  1
