# generated using pymatgen
data_Cr(PO3)4
_symmetry_space_group_name_H-M   'P 1'
_cell_length_a   7.33081988
_cell_length_b   7.33173011
_cell_length_c   9.79990072
_cell_angle_alpha   83.53047212
_cell_angle_beta   67.85308998
_cell_angle_gamma   110.21624673
_symmetry_Int_Tables_number   1
_chemical_formula_structural   Cr(PO3)4
_chemical_formula_sum   'Cr2 P8 O24'
_cell_volume   439.55719501
_cell_formula_units_Z   2
loop_
 _symmetry_equiv_pos_site_id
 _symmetry_equiv_pos_as_xyz
  1  'x, y, z'
loop_
 _atom_site_type_symbol
 _atom_site_label
 _atom_site_symmetry_multiplicity
 _atom_site_fract_x
 _atom_site_fract_y
 _atom_site_fract_z
 _atom_site_occupancy
  Cr  Cr0  1  0.00000000  0.50000000  0.00000000  1
  Cr  Cr1  1  0.00000000  0.00000000  0.50000000  1
  P  P2  1  0.73638063  0.27176298  0.53015783  1
  P  P3  1  0.48528758  0.30567220  0.19658553  1
  P  P4  1  0.30189740  0.26651412  0.96984174  1
  P  P5  1  0.00222861  0.68189783  0.30341546  1
  P  P6  1  0.51471242  0.69432780  0.80341447  1
  P  P7  1  0.69810260  0.73348588  0.03015826  1
  P  P8  1  0.99777139  0.31810217  0.69658454  1
  P  P9  1  0.26361937  0.72823702  0.46984217  1
  O  O10  1  0.29548146  0.68926325  0.83505930  1
  O  O11  1  0.19871926  0.66757037  0.33457948  1
  O  O12  1  0.58177334  0.78141138  0.92966861  1
  O  O13  1  0.30697288  0.18941505  0.35451383  1
  O  O14  1  0.04394315  0.66153472  0.14545025  1
  O  O15  1  0.80128074  0.33242963  0.66542052  1
  O  O16  1  0.76309883  0.90573868  0.09563705  1
  O  O17  1  0.21108424  0.51138582  0.57033767  1
  O  O18  1  0.50114169  0.85841564  0.40435862  1
  O  O19  1  0.78891576  0.48861418  0.42966233  1
  O  O20  1  0.50224736  0.53338006  0.16540425  1
  O  O21  1  0.70451854  0.31073675  0.16494070  1
  O  O22  1  0.41822666  0.21858862  0.07033139  1
  O  O23  1  0.49885831  0.14158436  0.59564138  1
  O  O24  1  0.12902332  0.33160456  0.06541290  1
  O  O25  1  0.95605685  0.33846528  0.85454975  1
  O  O26  1  0.97563021  0.86943785  0.33505071  1
  O  O27  1  0.10292279  0.80538676  0.56535799  1
  O  O28  1  0.23690117  0.09426132  0.90436295  1
  O  O29  1  0.02436979  0.13056215  0.66494929  1
  O  O30  1  0.49775264  0.46661994  0.83459575  1
  O  O31  1  0.69302712  0.81058495  0.64548617  1
  O  O32  1  0.87097668  0.66839544  0.93458710  1
  O  O33  1  0.89707721  0.19461324  0.43464201  1
