# generated using pymatgen
data_BaLaMnRuO6
_symmetry_space_group_name_H-M   'P 1'
_cell_length_a   5.77729715
_cell_length_b   5.78197619
_cell_length_c   8.11191810
_cell_angle_alpha   90.63588299
_cell_angle_beta   90.00000000
_cell_angle_gamma   90.00000000
_symmetry_Int_Tables_number   1
_chemical_formula_structural   BaLaMnRuO6
_chemical_formula_sum   'Ba2 La2 Mn2 Ru2 O12'
_cell_volume   270.95540268
_cell_formula_units_Z   2
loop_
 _symmetry_equiv_pos_site_id
 _symmetry_equiv_pos_as_xyz
  1  'x, y, z'
loop_
 _atom_site_type_symbol
 _atom_site_label
 _atom_site_symmetry_multiplicity
 _atom_site_fract_x
 _atom_site_fract_y
 _atom_site_fract_z
 _atom_site_occupancy
  Ba  Ba0  1  0.50146112  0.50033870  0.75089780  1
  Ba  Ba1  1  0.99853888  0.00033870  0.25089780  1
  La  La2  1  0.01079968  0.01815500  0.75086047  1
  La  La3  1  0.48920032  0.51815500  0.25086047  1
  Mn  Mn4  1  0.99742540  0.50452378  0.50295652  1
  Mn  Mn5  1  0.50257460  0.00452378  0.00295652  1
  Ru  Ru6  1  0.99955410  0.49938272  0.00098069  1
  Ru  Ru7  1  0.50044590  -0.00061728  0.50098069  1
  O  O8  1  0.00960860  0.45323471  0.24041858  1
  O  O9  1  0.26941022  0.74599378  0.45834047  1
  O  O10  1  0.25795666  0.72483819  0.03733278  1
  O  O11  1  0.24204334  0.22483819  0.53733278  1
  O  O12  1  0.23058978  0.24599378  0.95834047  1
  O  O13  1  0.49039140  0.95323471  0.74041858  1
  O  O14  1  0.50100846  0.09726903  0.26097623  1
  O  O15  1  0.73607560  0.71655378  0.04087027  1
  O  O16  1  0.72379981  0.73971031  0.45636620  1
  O  O17  1  0.77620019  0.23971031  0.95636620  1
  O  O18  1  0.76392440  0.21655378  0.54087027  1
  O  O19  1  0.99899154  0.59726903  0.76097623  1
