# generated using pymatgen
data_Ga2P2H9NO11
_symmetry_space_group_name_H-M   'P 1'
_cell_length_a   9.94554284
_cell_length_b   9.87877033
_cell_length_c   10.05749273
_cell_angle_alpha   90.00000000
_cell_angle_beta   99.79193071
_cell_angle_gamma   90.00000000
_symmetry_Int_Tables_number   1
_chemical_formula_structural   Ga2P2H9NO11
_chemical_formula_sum   'Ga8 P8 H36 N4 O44'
_cell_volume   973.75053168
_cell_formula_units_Z   4
loop_
 _symmetry_equiv_pos_site_id
 _symmetry_equiv_pos_as_xyz
  1  'x, y, z'
loop_
 _atom_site_type_symbol
 _atom_site_label
 _atom_site_symmetry_multiplicity
 _atom_site_fract_x
 _atom_site_fract_y
 _atom_site_fract_z
 _atom_site_occupancy
  Ga  Ga0  1  0.11805869  0.76277406  0.82817508  1
  Ga  Ga1  1  0.11630399  0.52656948  0.13105728  1
  Ga  Ga2  1  0.38194131  0.26277406  0.67182492  1
  Ga  Ga3  1  0.38369601  0.02656948  0.36894272  1
  Ga  Ga4  1  0.61630399  0.97343052  0.63105728  1
  Ga  Ga5  1  0.61805869  0.73722594  0.32817508  1
  Ga  Ga6  1  0.88369601  0.47343052  0.86894272  1
  Ga  Ga7  1  0.88194131  0.23722594  0.17182492  1
  P  P8  1  0.19097850  0.45967648  0.84476739  1
  P  P9  1  0.20679728  0.30534488  0.36930025  1
  P  P10  1  0.30902150  0.95967648  0.65523261  1
  P  P11  1  0.29320272  0.80534488  0.13069975  1
  P  P12  1  0.70679728  0.19465512  0.86930025  1
  P  P13  1  0.69097850  0.04032352  0.34476739  1
  P  P14  1  0.79320272  0.69465512  0.63069975  1
  P  P15  1  0.80902150  0.54032352  0.15523261  1
  H  H16  1  0.07306878  0.17541414  0.83371759  1
  H  H17  1  0.06375559  0.00405748  0.89449700  1
  H  H18  1  0.98582935  0.75945326  0.56329127  1
  H  H19  1  0.07091485  0.13380530  0.62227829  1
  H  H20  1  0.03509416  0.74137022  0.34459319  1
  H  H21  1  0.10215239  0.88902503  0.41345425  1
  H  H22  1  0.21969847  0.12726952  0.87851713  1
  H  H23  1  0.07872127  0.05571407  0.19153435  1
  H  H24  1  0.05759178  0.29001134  0.02611203  1
  H  H25  1  0.28030153  0.62726952  0.62148287  1
  H  H26  1  0.42908515  0.63380530  0.87772171  1
  H  H27  1  0.48582935  0.74054674  0.06329127  1
  H  H28  1  0.43624441  0.50405748  0.60550300  1
  H  H29  1  0.44240822  0.79001134  0.47388797  1
  H  H30  1  0.42693122  0.67541414  0.66628241  1
  H  H31  1  0.42127873  0.55571407  0.30846565  1
  H  H32  1  0.53509416  0.75862978  0.84459319  1
  H  H33  1  0.60215139  0.61097497  0.91345425  1
  H  H34  1  0.39784861  0.38902503  0.08654575  1
  H  H35  1  0.46490584  0.24137022  0.15540681  1
  H  H36  1  0.57872127  0.44428593  0.69153435  1
  H  H37  1  0.57306878  0.32458586  0.33371759  1
  H  H38  1  0.55759178  0.20998866  0.52611203  1
  H  H39  1  0.56375559  0.49594252  0.39449700  1
  H  H40  1  0.51417065  0.25945326  0.93670873  1
  H  H41  1  0.57091485  0.36619470  0.12227829  1
  H  H42  1  0.71969847  0.37273048  0.37851713  1
  H  H43  1  0.94240822  0.70998866  0.97388797  1
  H  H44  1  0.92127873  0.94428593  0.80846565  1
  H  H45  1  0.78030153  0.87273048  0.12148287  1
  H  H46  1  0.89784861  0.11097497  0.58654575  1
  H  H47  1  0.96490584  0.25862978  0.65540681  1
  H  H48  1  0.92908515  0.86619470  0.37772171  1
  H  H49  1  0.01417065  0.24054674  0.43670873  1
  H  H50  1  0.93624441  0.99594252  0.10550300  1
  H  H51  1  0.92693122  0.82458586  0.16628241  1
  N  N52  1  0.02137456  0.84271576  0.35417527  1
  N  N53  1  0.52137456  0.65728424  0.85417527  1
  N  N54  1  0.47862544  0.34271576  0.14582473  1
  N  N55  1  0.97862544  0.15728424  0.64582473  1
  O  O56  1  0.00229216  0.64650467  0.93551514  1
  O  O57  1  0.04170677  0.40754943  0.80294753  1
  O  O58  1  0.13410772  0.13915464  0.91476743  1
  O  O59  1  0.99336527  0.08278932  0.13368258  1
  O  O60  1  0.04250264  0.27050439  0.35168813  1
  O  O61  1  0.25128573  0.82528249  0.97930136  1
  O  O62  1  0.20613677  0.86232988  0.69879170  1
  O  O63  1  0.20387487  0.60127650  0.77833630  1
  O  O64  1  0.29612513  0.10127650  0.72166370  1
  O  O65  1  0.29386323  0.36232988  0.80120830  1
  O  O66  1  0.24871427  0.32528249  0.52069864  1
  O  O67  1  0.27178927  0.97486052  0.49868719  1
  O  O68  1  0.21467864  0.43519971  0.28854494  1
  O  O69  1  0.22416633  0.68737825  0.19032845  1
  O  O70  1  0.36589228  0.63915464  0.58523257  1
  O  O71  1  0.27583367  0.18737825  0.30967155  1
  O  O72  1  0.28532136  0.93519971  0.21145506  1
  O  O73  1  0.22821073  0.47486052  0.00131281  1
  O  O74  1  0.45829323  0.90754943  0.69705247  1
  O  O75  1  0.49336527  0.41721068  0.63368258  1
  O  O76  1  0.54250264  0.22949561  0.85168813  1
  O  O77  1  0.49770784  0.14650467  0.56448486  1
  O  O78  1  0.50229216  0.85349533  0.43551514  1
  O  O79  1  0.45749736  0.77050439  0.14831187  1
  O  O80  1  0.50663473  0.58278932  0.36631742  1
  O  O81  1  0.54170677  0.09245057  0.30294753  1
  O  O82  1  0.77178927  0.52513948  0.99868719  1
  O  O83  1  0.71467864  0.06480029  0.78854494  1
  O  O84  1  0.72416633  0.81262175  0.69032845  1
  O  O85  1  0.63410772  0.36084536  0.41476743  1
  O  O86  1  0.77583367  0.31262175  0.80967155  1
  O  O87  1  0.78532136  0.56480029  0.71145506  1
  O  O88  1  0.72821073  0.02513948  0.50131281  1
  O  O89  1  0.75128573  0.67471751  0.47930136  1
  O  O90  1  0.70613677  0.63767012  0.19879170  1
  O  O91  1  0.70387487  0.89872350  0.27833630  1
  O  O92  1  0.79612513  0.39872350  0.22166370  1
  O  O93  1  0.79386323  0.13767012  0.30120830  1
  O  O94  1  0.74871427  0.17471751  0.02069864  1
  O  O95  1  0.95749736  0.72949561  0.64831187  1
  O  O96  1  0.00663473  0.91721068  0.86631742  1
  O  O97  1  0.86589228  0.86084536  0.08523257  1
  O  O98  1  0.95829323  0.59245057  0.19705247  1
  O  O99  1  0.99770784  0.35349533  0.06448486  1
