# generated using pymatgen
data_K4In9Si14
_symmetry_space_group_name_H-M   'P 1'
_cell_length_a   11.24536710
_cell_length_b   11.24536710
_cell_length_c   10.99094979
_cell_angle_alpha   90.00000000
_cell_angle_beta   90.00000000
_cell_angle_gamma   90.10770808
_symmetry_Int_Tables_number   1
_chemical_formula_structural   K4In9Si14
_chemical_formula_sum   'K8 In18 Si28'
_cell_volume   1389.89416286
_cell_formula_units_Z   2
loop_
 _symmetry_equiv_pos_site_id
 _symmetry_equiv_pos_as_xyz
  1  'x, y, z'
loop_
 _atom_site_type_symbol
 _atom_site_label
 _atom_site_symmetry_multiplicity
 _atom_site_fract_x
 _atom_site_fract_y
 _atom_site_fract_z
 _atom_site_occupancy
  K  K0  1  0.99937764  0.75066768  0.50000000  1
  K  K1  1  0.25066768  0.49937764  0.00000000  1
  K  K2  1  0.50052961  0.00052961  0.75000000  1
  K  K3  1  0.99908076  0.24897723  0.50000000  1
  K  K4  1  0.74897723  0.49908076  0.00000000  1
  K  K5  1  0.50052961  0.00052961  0.25000000  1
  K  K6  1  0.50104958  0.49855522  0.50000000  1
  K  K7  1  0.99855522  0.00104958  0.00000000  1
  In  In8  1  0.32333374  0.67432891  0.67573902  1
  In  In9  1  0.67998817  0.32286433  0.32339613  1
  In  In10  1  0.67998817  0.32286433  0.67660387  1
  In  In11  1  0.32333374  0.67432891  0.32426098  1
  In  In12  1  0.67969109  0.67444489  0.32381173  1
  In  In13  1  0.32237178  0.32354755  0.67602671  1
  In  In14  1  0.32237178  0.32354755  0.32397329  1
  In  In15  1  0.67969109  0.67444489  0.67618827  1
  In  In16  1  0.17432891  0.82333374  0.17573902  1
  In  In17  1  0.82286433  0.17998817  0.82339613  1
  In  In18  1  0.82286433  0.17998817  0.17660387  1
  In  In19  1  0.17432891  0.82333374  0.82426098  1
  In  In20  1  0.17444489  0.17969109  0.82381173  1
  In  In21  1  0.82354755  0.82237178  0.17602671  1
  In  In22  1  0.82354755  0.82237178  0.82397329  1
  In  In23  1  0.17444489  0.17969109  0.17618827  1
  In  In24  1  0.49925455  0.75131749  0.00000000  1
  In  In25  1  0.25131749  0.99925455  0.50000000  1
  Si  Si26  1  0.17069350  0.49993627  0.61010763  1
  Si  Si27  1  0.50100267  0.59710864  0.81512342  1
  Si  Si28  1  0.40322365  0.81661223  0.50000000  1
  Si  Si29  1  0.82901010  0.49921984  0.38953208  1
  Si  Si30  1  0.50132517  0.38426534  0.17688614  1
  Si  Si31  1  0.61546273  0.17503066  0.50000000  1
  Si  Si32  1  0.82901010  0.49921984  0.61046792  1
  Si  Si33  1  0.50132517  0.38426534  0.82311386  1
  Si  Si34  1  0.17069350  0.49993627  0.38989237  1
  Si  Si35  1  0.50100267  0.59710864  0.18487658  1
  Si  Si36  1  0.61637650  0.82473378  0.50000000  1
  Si  Si37  1  0.40159641  0.18283903  0.50000000  1
  Si  Si38  1  -0.00006373  0.67069350  0.11010763  1
  Si  Si39  1  0.09710864  0.00100267  0.31512342  1
  Si  Si40  1  0.31661223  0.90322365  0.00000000  1
  Si  Si41  1  0.99921984  0.32901010  0.88953208  1
  Si  Si42  1  0.88426534  0.00132517  0.67688614  1
  Si  Si43  1  0.67503066  0.11546273  0.00000000  1
  Si  Si44  1  0.99921984  0.32901010  0.11046792  1
  Si  Si45  1  0.88426534  0.00132517  0.32311386  1
  Si  Si46  1  -0.00006373  0.67069350  0.88989237  1
  Si  Si47  1  0.09710864  0.00100267  0.68487658  1
  Si  Si48  1  0.32473378  0.11637650  0.00000000  1
  Si  Si49  1  0.68283903  0.90159641  0.00000000  1
  Si  Si50  1  0.99970262  0.49970262  0.75000000  1
  Si  Si51  1  0.50073458  0.24838186  0.00000000  1
  Si  Si52  1  0.74838186  0.00073458  0.50000000  1
  Si  Si53  1  0.99970262  0.49970262  0.25000000  1
