# generated using pymatgen
data_CrH10SNO10
_symmetry_space_group_name_H-M   'P 1'
_cell_length_a   12.23891188
_cell_length_b   6.97357865
_cell_length_c   11.51933969
_cell_angle_alpha   90.00000000
_cell_angle_beta   110.18022775
_cell_angle_gamma   90.00000000
_symmetry_Int_Tables_number   1
_chemical_formula_structural   CrH10SNO10
_chemical_formula_sum   'Cr4 H40 S4 N4 O40'
_cell_volume   922.80992592
_cell_formula_units_Z   4
loop_
 _symmetry_equiv_pos_site_id
 _symmetry_equiv_pos_as_xyz
  1  'x, y, z'
loop_
 _atom_site_type_symbol
 _atom_site_label
 _atom_site_symmetry_multiplicity
 _atom_site_fract_x
 _atom_site_fract_y
 _atom_site_fract_z
 _atom_site_occupancy
  Cr  Cr0  1  0.01324978  0.75925175  0.28558302  1
  Cr  Cr1  1  0.51324978  0.74074825  0.78558302  1
  Cr  Cr2  1  0.98675022  0.24074825  0.71441698  1
  Cr  Cr3  1  0.48675022  0.25925175  0.21441698  1
  H  H4  1  0.99890741  0.74797404  0.04993961  1
  H  H5  1  0.49890741  0.75202596  0.54993961  1
  H  H6  1  0.00109259  0.25202596  0.95006039  1
  H  H7  1  0.50109259  0.24797404  0.45006039  1
  H  H8  1  0.89056192  0.61943815  0.06403759  1
  H  H9  1  0.39056192  0.88056185  0.56403759  1
  H  H10  1  0.10943808  0.38056185  0.93596241  1
  H  H11  1  0.60943808  0.11943815  0.43596241  1
  H  H12  1  0.21116073  0.71756145  0.23821078  1
  H  H13  1  0.71116073  0.78243855  0.73821078  1
  H  H14  1  0.78883927  0.28243855  0.76178922  1
  H  H15  1  0.28883927  0.21756145  0.26178922  1
  H  H16  1  0.20120141  0.53812583  0.32638612  1
  H  H17  1  0.70120141  0.96187417  0.82638612  1
  H  H18  1  0.79879859  0.46187417  0.67361388  1
  H  H19  1  0.29879859  0.03812583  0.17361388  1
  H  H20  1  0.00822486  0.08894107  0.16577997  1
  H  H21  1  0.50822486  0.41105893  0.66577997  1
  H  H22  1  0.99177514  0.91105893  0.83422003  1
  H  H23  1  0.49177514  0.58894107  0.33422003  1
  H  H24  1  0.11206982  0.11408626  0.29733741  1
  H  H25  1  0.61206982  0.38591374  0.79733741  1
  H  H26  1  0.88793018  0.88591374  0.70266259  1
  H  H27  1  0.38793018  0.61408626  0.20266259  1
  H  H28  1  0.15286832  0.92632567  0.48844330  1
  H  H29  1  0.65286832  0.57367433  0.98844330  1
  H  H30  1  0.84713168  0.07367433  0.51155670  1
  H  H31  1  0.34713168  0.42632567  0.01155670  1
  H  H32  1  0.07303396  0.77796196  0.53282412  1
  H  H33  1  0.57303396  0.72203804  0.03282412  1
  H  H34  1  0.92696604  0.22203804  0.46717588  1
  H  H35  1  0.42696604  0.27796196  0.96717588  1
  H  H36  1  0.80761728  0.81308242  0.30985554  1
  H  H37  1  0.30761728  0.68691758  0.80985554  1
  H  H38  1  0.19238272  0.18691758  0.69014446  1
  H  H39  1  0.69238272  0.31308242  0.19014446  1
  H  H40  1  0.81651900  0.97255436  0.20803679  1
  H  H41  1  0.31651900  0.52744564  0.70803679  1
  H  H42  1  0.18348100  0.02744564  0.79196321  1
  H  H43  1  0.68348100  0.47255436  0.29196321  1
  S  S44  1  0.20568130  0.74940786  0.99030525  1
  S  S45  1  0.70568130  0.75059214  0.49030525  1
  S  S46  1  0.79431870  0.25059214  0.00969475  1
  S  S47  1  0.29431870  0.24940786  0.50969475  1
  N  N48  1  0.97038538  0.52669217  0.32119916  1
  N  N49  1  0.47038538  0.97330783  0.82119916  1
  N  N50  1  0.02961462  0.47330783  0.67880084  1
  N  N51  1  0.52961462  0.02669217  0.17880084  1
  O  O52  1  0.94696193  0.72586145  0.09920699  1
  O  O53  1  0.44696193  0.77413855  0.59920699  1
  O  O54  1  0.05303807  0.27413855  0.90079301  1
  O  O55  1  0.55303807  0.22586145  0.40079301  1
  O  O56  1  0.17746855  0.67262650  0.30032502  1
  O  O57  1  0.67746855  0.82737350  0.80032502  1
  O  O58  1  0.82253145  0.32737350  0.69967498  1
  O  O59  1  0.32253145  0.17262650  0.19967498  1
  O  O60  1  0.06628897  0.01911684  0.23625813  1
  O  O61  1  0.56628897  0.48088316  0.73625813  1
  O  O62  1  0.93371103  0.98088316  0.76374187  1
  O  O63  1  0.43371103  0.51911684  0.26374187  1
  O  O64  1  0.07814847  0.85319808  0.46273547  1
  O  O65  1  0.57814847  0.64680192  0.96273547  1
  O  O66  1  0.92185153  0.14680192  0.53726453  1
  O  O67  1  0.42185153  0.35319808  0.03726453  1
  O  O68  1  0.86004531  0.88839006  0.27797977  1
  O  O69  1  0.36004531  0.61160994  0.77797977  1
  O  O70  1  0.13995469  0.11160994  0.72202023  1
  O  O71  1  0.63995469  0.38839006  0.22202023  1
  O  O72  1  0.94072823  0.36583410  0.33757436  1
  O  O73  1  0.44072823  0.13416590  0.83757436  1
  O  O74  1  0.05927177  0.63416590  0.66242564  1
  O  O75  1  0.55927177  0.86583410  0.16242564  1
  O  O76  1  0.07978417  0.79537385  0.96079276  1
  O  O77  1  0.57978417  0.70462615  0.46079276  1
  O  O78  1  0.92021583  0.20462615  0.03920724  1
  O  O79  1  0.42021583  0.29537385  0.53920724  1
  O  O80  1  0.21992548  0.53781681  0.97808160  1
  O  O81  1  0.71992548  0.96218319  0.47808160  1
  O  O82  1  0.78007452  0.46218319  0.02191840  1
  O  O83  1  0.28007452  0.03781681  0.52191840  1
  O  O84  1  0.27199460  0.80130153  0.12368308  1
  O  O85  1  0.77199460  0.69869847  0.62368308  1
  O  O86  1  0.72800540  0.19869847  0.87631692  1
  O  O87  1  0.22800540  0.30130153  0.37631692  1
  O  O88  1  0.25290228  0.85409023  0.90609992  1
  O  O89  1  0.75290228  0.64590977  0.40609992  1
  O  O90  1  0.74709772  0.14590977  0.09390008  1
  O  O91  1  0.24709772  0.35409023  0.59390008  1
