# generated using pymatgen
data_Li3Nb4O12
_symmetry_space_group_name_H-M   'P 1'
_cell_length_a   11.17914665
_cell_length_b   9.85224676
_cell_length_c   9.85224652
_cell_angle_alpha   31.10181440
_cell_angle_beta   28.19971823
_cell_angle_gamma   28.19971549
_symmetry_Int_Tables_number   1
_chemical_formula_structural   Li3Nb4O12
_chemical_formula_sum   'Li3 Nb4 O12'
_cell_volume   226.41046658
_cell_formula_units_Z   1
loop_
 _symmetry_equiv_pos_site_id
 _symmetry_equiv_pos_as_xyz
  1  'x, y, z'
loop_
 _atom_site_type_symbol
 _atom_site_label
 _atom_site_symmetry_multiplicity
 _atom_site_fract_x
 _atom_site_fract_y
 _atom_site_fract_z
 _atom_site_occupancy
  Li  Li0  1  0.85891177  0.28217646  0.28217646  1
  Li  Li1  1  0.10882152  0.78235695  0.78235695  1
  Li  Li2  1  0.63872073  0.72255854  0.72255854  1
  Nb  Nb3  1  0.99218183  0.01563635  0.01563635  1
  Nb  Nb4  1  0.49674942  0.00650116  0.00650116  1
  Nb  Nb5  1  0.24502234  0.50995533  0.50995533  1
  Nb  Nb6  1  0.74811982  0.50376036  0.50376036  1
  O  O7  1  0.12333865  0.12389234  0.36694296  1
  O  O8  1  0.99962360  0.37582121  0.74830275  1
  O  O9  1  0.25207365  0.74830275  0.12337116  1
  O  O10  1  0.62455519  0.12337116  0.37582121  1
  O  O11  1  0.25592149  0.24777449  0.86765052  1
  O  O12  1  0.49630402  0.62726798  0.24777449  1
  O  O13  1  0.50971839  0.36694296  0.73751260  1
  O  O14  1  0.75276901  0.73751260  0.12389234  1
  O  O15  1  0.37185640  0.82369462  0.67435840  1
  O  O16  1  0.80444898  0.24176581  0.82369462  1
  O  O17  1  0.95378521  0.67435840  0.24176581  1
  O  O18  1  0.87642800  0.86765052  0.62726798  1
