# generated using pymatgen
data_BaSrI4
_symmetry_space_group_name_H-M   'P 1'
_cell_length_a   8.80656990
_cell_length_b   8.23986226
_cell_length_c   18.03913310
_cell_angle_alpha   90.00000000
_cell_angle_beta   108.14572496
_cell_angle_gamma   90.00000000
_symmetry_Int_Tables_number   1
_chemical_formula_structural   BaSrI4
_chemical_formula_sum   'Ba4 Sr4 I16'
_cell_volume   1243.90803867
_cell_formula_units_Z   4
loop_
 _symmetry_equiv_pos_site_id
 _symmetry_equiv_pos_as_xyz
  1  'x, y, z'
loop_
 _atom_site_type_symbol
 _atom_site_label
 _atom_site_symmetry_multiplicity
 _atom_site_fract_x
 _atom_site_fract_y
 _atom_site_fract_z
 _atom_site_occupancy
  Ba  Ba0  1  0.28063750  0.94934093  0.84536619  1
  Ba  Ba1  1  0.28063750  0.55065907  0.34536619  1
  Ba  Ba2  1  0.71936250  0.44934093  0.65463381  1
  Ba  Ba3  1  0.71936250  0.05065907  0.15463381  1
  Sr  Sr4  1  0.19734558  0.65735207  0.60253279  1
  Sr  Sr5  1  0.19734558  0.84264793  0.10253279  1
  Sr  Sr6  1  0.80265442  0.15735207  0.89746721  1
  Sr  Sr7  1  0.80265442  0.34264793  0.39746721  1
  I  I8  1  0.95735645  0.81543031  0.68264344  1
  I  I9  1  0.95735645  0.68456969  0.18264344  1
  I  I10  1  0.02961350  0.30226874  0.58030664  1
  I  I11  1  0.02961350  0.19773126  0.08030664  1
  I  I12  1  0.48117982  0.65111609  0.76821372  1
  I  I13  1  0.47526838  0.74034358  0.52633885  1
  I  I14  1  0.48117982  0.84888391  0.26821372  1
  I  I15  1  0.52473162  0.24034358  0.97366115  1
  I  I16  1  0.47526838  0.75965642  0.02633885  1
  I  I17  1  0.51882018  0.15111609  0.73178628  1
  I  I18  1  0.52473162  0.25965642  0.47366115  1
  I  I19  1  0.51882018  0.34888391  0.23178628  1
  I  I20  1  0.97038650  0.80226874  0.91969336  1
  I  I21  1  0.97038650  0.69773126  0.41969336  1
  I  I22  1  0.04264355  0.31543031  0.81735656  1
  I  I23  1  0.04264355  0.18456969  0.31735656  1
