# generated using pymatgen
data_BeH4NF3
_symmetry_space_group_name_H-M   'P 1'
_cell_length_a   6.02142314
_cell_length_b   4.35371039
_cell_length_c   14.76826483
_cell_angle_alpha   90.00000000
_cell_angle_beta   90.00000000
_cell_angle_gamma   90.00000000
_symmetry_Int_Tables_number   1
_chemical_formula_structural   BeH4NF3
_chemical_formula_sum   'Be4 H16 N4 F12'
_cell_volume   387.15792643
_cell_formula_units_Z   4
loop_
 _symmetry_equiv_pos_site_id
 _symmetry_equiv_pos_as_xyz
  1  'x, y, z'
loop_
 _atom_site_type_symbol
 _atom_site_label
 _atom_site_symmetry_multiplicity
 _atom_site_fract_x
 _atom_site_fract_y
 _atom_site_fract_z
 _atom_site_occupancy
  Be  Be0  1  0.77885736  0.66097768  0.36925827  1
  Be  Be1  1  0.72114264  0.33902232  0.86925827  1
  Be  Be2  1  0.27885736  0.83902232  0.63074173  1
  Be  Be3  1  0.22114264  0.16097768  0.13074173  1
  H  H4  1  0.30502050  0.24815074  0.46108052  1
  H  H5  1  0.19497950  0.75184926  0.96108052  1
  H  H6  1  0.80502050  0.25184926  0.53891948  1
  H  H7  1  0.69497950  0.74815074  0.03891948  1
  H  H8  1  0.20201772  0.04064726  0.37487734  1
  H  H9  1  0.29798228  0.95935274  0.87487734  1
  H  H10  1  0.70201772  0.45935274  0.62512266  1
  H  H11  1  0.79798228  0.54064726  0.12512266  1
  H  H12  1  0.19407829  0.43110993  0.37306071  1
  H  H13  1  0.30592171  0.56889007  0.87306071  1
  H  H14  1  0.69407829  0.06889007  0.62693929  1
  H  H15  1  0.80592171  0.93110993  0.12693929  1
  H  H16  1  0.44461891  0.25033109  0.36260000  1
  H  H17  1  0.05538109  0.74966891  0.86260000  1
  H  H18  1  0.94461891  0.24966891  0.63740000  1
  H  H19  1  0.55538109  0.75033109  0.13740000  1
  N  N20  1  0.28647286  0.23994858  0.39221375  1
  N  N21  1  0.21352714  0.76005142  0.89221375  1
  N  N22  1  0.78647286  0.26005142  0.60778625  1
  N  N23  1  0.71352714  0.73994858  0.10778625  1
  F  F24  1  0.68963543  0.39411802  0.31906447  1
  F  F25  1  0.81036457  0.60588198  0.81906447  1
  F  F26  1  0.18963543  0.10588198  0.68093553  1
  F  F27  1  0.31036457  0.89411802  0.18093553  1
  F  F28  1  0.63971590  0.82346876  0.43508554  1
  F  F29  1  0.86028410  0.17653124  0.93508554  1
  F  F30  1  0.13971590  0.67653124  0.56491446  1
  F  F31  1  0.36028410  0.32346876  0.06491446  1
  F  F32  1  0.02075971  0.73292900  0.35919217  1
  F  F33  1  0.47924029  0.26707100  0.85919217  1
  F  F34  1  0.52075971  0.76707100  0.64080783  1
  F  F35  1  0.97924029  0.23292900  0.14080783  1
