# generated using pymatgen
data_Nd2NiGe3
_symmetry_space_group_name_H-M   'P 1'
_cell_length_a   4.25305199
_cell_length_b   4.24860862
_cell_length_c   8.26430991
_cell_angle_alpha   90.00000000
_cell_angle_beta   90.00000000
_cell_angle_gamma   120.02337459
_symmetry_Int_Tables_number   1
_chemical_formula_structural   Nd2NiGe3
_chemical_formula_sum   'Nd2 Ni1 Ge3'
_cell_volume   129.29517061
_cell_formula_units_Z   1
loop_
 _symmetry_equiv_pos_site_id
 _symmetry_equiv_pos_as_xyz
  1  'x, y, z'
loop_
 _atom_site_type_symbol
 _atom_site_label
 _atom_site_symmetry_multiplicity
 _atom_site_fract_x
 _atom_site_fract_y
 _atom_site_fract_z
 _atom_site_occupancy
  Nd  Nd0  1  0.99994243  0.99994722  0.01748006  1
  Nd  Nd1  1  0.99994243  0.99994722  0.48251994  1
  Ni  Ni2  1  0.33319237  0.66646549  0.25000000  1
  Ge  Ge3  1  0.33342320  0.66690098  0.75000000  1
  Ge  Ge4  1  0.66675343  0.33357943  0.25000000  1
  Ge  Ge5  1  0.66654614  0.33315966  0.75000000  1
