# generated using pymatgen
data_Mg3Te4O11
_symmetry_space_group_name_H-M   'P 1'
_cell_length_a   8.29885905
_cell_length_b   8.20094439
_cell_length_c   9.31280689
_cell_angle_alpha   96.06417496
_cell_angle_beta   119.46173874
_cell_angle_gamma   104.20259521
_symmetry_Int_Tables_number   1
_chemical_formula_structural   Mg3Te4O11
_chemical_formula_sum   'Mg6 Te8 O22'
_cell_volume   515.39647780
_cell_formula_units_Z   2
loop_
 _symmetry_equiv_pos_site_id
 _symmetry_equiv_pos_as_xyz
  1  'x, y, z'
loop_
 _atom_site_type_symbol
 _atom_site_label
 _atom_site_symmetry_multiplicity
 _atom_site_fract_x
 _atom_site_fract_y
 _atom_site_fract_z
 _atom_site_occupancy
  Mg  Mg0  1  0.04793363  0.38484639  0.56215891  1
  Mg  Mg1  1  0.31233052  0.20567118  0.85454823  1
  Mg  Mg2  1  0.51783857  0.81836987  0.85991788  1
  Mg  Mg3  1  0.48491042  0.34752621  0.31493066  1
  Mg  Mg4  1  0.84525402  0.77212052  0.55790565  1
  Mg  Mg5  1  0.87648467  0.24257246  0.10355265  1
  Te  Te6  1  0.18059792  0.55437927  0.98159335  1
  Te  Te7  1  0.08871018  0.97847458  0.98870038  1
  Te  Te8  1  0.27316078  0.61333860  0.42916194  1
  Te  Te9  1  0.18231490  0.03637451  0.43540573  1
  Te  Te10  1  0.68864216  0.49789496  0.75668037  1
  Te  Te11  1  0.63214377  0.99196775  0.26148441  1
  Te  Te12  1  0.67489603  0.09379407  0.66108162  1
  Te  Te13  1  0.73051115  0.59594543  0.15656530  1
  O  O14  1  0.08752632  0.95725194  0.77776051  1
  O  O15  1  0.02585546  0.42892478  0.32997194  1
  O  O16  1  0.27285677  0.63378862  0.63928957  1
  O  O17  1  0.14400745  0.36978431  0.81506238  1
  O  O18  1  0.21595597  0.21979882  0.60132346  1
  O  O19  1  0.07689376  0.11128949  0.23404428  1
  O  O20  1  0.46064130  0.49383660  0.49958858  1
  O  O21  1  0.28564646  0.48034002  0.18360682  1
  O  O22  1  0.63862382  0.87263054  0.54344859  1
  O  O23  1  0.49418739  0.01030044  0.72861149  1
  O  O24  1  0.72515192  0.72053238  0.87164781  1
  O  O25  1  0.43959637  0.13277240  0.45129043  1
  O  O26  1  0.33501279  0.16352820  0.08681626  1
  O  O27  1  0.50589536  0.67296135  0.03796898  1
  O  O28  1  0.70534173  0.55693563  0.34293656  1
  O  O29  1  0.92358311  0.46045064  0.96707183  1
  O  O30  1  0.86756278  0.57810762  0.68690487  1
  O  O31  1  0.65583394  0.03276867  0.07455616  1
  O  O32  1  0.85707423  0.91508419  0.37779922  1
  O  O33  1  0.60742202  0.36374978  0.01064616  1
  O  O34  1  0.75407178  0.22393341  0.40673326  1
  O  O35  1  0.90059153  0.09759436  0.91832479  1
