# generated using pymatgen
data_Li2Cu2F5
_symmetry_space_group_name_H-M   'P 1'
_cell_length_a   5.56381525
_cell_length_b   5.56381531
_cell_length_c   7.25360087
_cell_angle_alpha   102.57123874
_cell_angle_beta   77.42875964
_cell_angle_gamma   88.91202983
_symmetry_Int_Tables_number   1
_chemical_formula_structural   Li2Cu2F5
_chemical_formula_sum   'Li4 Cu4 F10'
_cell_volume   213.38587442
_cell_formula_units_Z   2
loop_
 _symmetry_equiv_pos_site_id
 _symmetry_equiv_pos_as_xyz
  1  'x, y, z'
loop_
 _atom_site_type_symbol
 _atom_site_label
 _atom_site_symmetry_multiplicity
 _atom_site_fract_x
 _atom_site_fract_y
 _atom_site_fract_z
 _atom_site_occupancy
  Li  Li0  1  0.25367907  0.27519876  0.02065224  1
  Li  Li1  1  0.27519876  0.25367907  0.47934776  1
  Li  Li2  1  0.72480124  0.74632093  0.52065224  1
  Li  Li3  1  0.74632093  0.72480124  0.97934776  1
  Cu  Cu4  1  0.20194153  0.79058363  0.12076755  1
  Cu  Cu5  1  0.20941637  0.79805847  0.62076755  1
  Cu  Cu6  1  0.79058363  0.20194153  0.37923245  1
  Cu  Cu7  1  0.79805847  0.20941637  0.87923245  1
  F  F8  1  0.00000000  0.50000000  0.00000000  1
  F  F9  1  0.07339689  0.71500122  0.37968070  1
  F  F10  1  0.16018486  0.16018486  0.25000000  1
  F  F11  1  0.50000000  0.50000000  0.00000000  1
  F  F12  1  0.28499878  0.92660311  0.87968070  1
  F  F13  1  0.50000000  0.00000000  0.50000000  1
  F  F14  1  0.50000000  0.50000000  0.50000000  1
  F  F15  1  0.71500122  0.07339689  0.12031930  1
  F  F16  1  0.83981514  0.83981514  0.75000000  1
  F  F17  1  0.92660311  0.28499878  0.62031930  1
