# generated using pymatgen
data_Cu4OF6
_symmetry_space_group_name_H-M   'P 1'
_cell_length_a   6.86526375
_cell_length_b   6.86696749
_cell_length_c   5.14219259
_cell_angle_alpha   89.90796934
_cell_angle_beta   89.96257412
_cell_angle_gamma   89.99930806
_symmetry_Int_Tables_number   1
_chemical_formula_structural   Cu4OF6
_chemical_formula_sum   'Cu8 O2 F12'
_cell_volume   242.42081298
_cell_formula_units_Z   2
loop_
 _symmetry_equiv_pos_site_id
 _symmetry_equiv_pos_as_xyz
  1  'x, y, z'
loop_
 _atom_site_type_symbol
 _atom_site_label
 _atom_site_symmetry_multiplicity
 _atom_site_fract_x
 _atom_site_fract_y
 _atom_site_fract_z
 _atom_site_occupancy
  Cu  Cu0  1  0.99359417  0.25002087  0.56462731  1
  Cu  Cu1  1  0.25001933  0.99362684  0.06481593  1
  Cu  Cu2  1  0.25001113  0.50633610  0.06481675  1
  Cu  Cu3  1  0.50644949  0.25002143  0.56476716  1
  Cu  Cu4  1  0.49360526  0.74998859  0.43529473  1
  Cu  Cu5  1  0.75000975  0.49362968  0.93524379  1
  Cu  Cu6  1  0.75001234  0.00635288  0.93542007  1
  Cu  Cu7  1  0.00637395  0.75000812  0.43531248  1
  O  O8  1  0.25006696  0.74982080  0.25002078  1
  O  O9  1  0.74995551  0.25014202  0.75006132  1
  F  F10  1  0.03898461  0.96097274  0.74999715  1
  F  F11  1  0.03894997  0.53913453  0.75008923  1
  F  F12  1  0.25001528  0.25004081  0.92485174  1
  F  F13  1  0.25002481  0.25005389  0.42479901  1
  F  F14  1  0.46095679  0.53919570  0.75007909  1
  F  F15  1  0.46092531  0.96091134  0.74998319  1
  F  F16  1  0.53903580  0.03886046  0.24991386  1
  F  F17  1  0.53901652  0.46107482  0.24984528  1
  F  F18  1  0.74996732  0.74988252  0.07505694  1
  F  F19  1  0.74993536  0.74998709  0.57507750  1
  F  F20  1  0.96103285  0.03894313  0.24999919  1
  F  F21  1  0.96105750  0.46099563  0.24992750  1
