# generated using pymatgen
data_Al2O3
_symmetry_space_group_name_H-M   'P 1'
_cell_length_a   4.84649067
_cell_length_b   4.84648928
_cell_length_c   9.08588697
_cell_angle_alpha   90.00032933
_cell_angle_beta   89.99979375
_cell_angle_gamma   120.00012737
_symmetry_Int_Tables_number   1
_chemical_formula_structural   Al2O3
_chemical_formula_sum   'Al8 O12'
_cell_volume   184.82130895
_cell_formula_units_Z   4
loop_
 _symmetry_equiv_pos_site_id
 _symmetry_equiv_pos_as_xyz
  1  'x, y, z'
loop_
 _atom_site_type_symbol
 _atom_site_label
 _atom_site_symmetry_multiplicity
 _atom_site_fract_x
 _atom_site_fract_y
 _atom_site_fract_z
 _atom_site_occupancy
  Al  Al0  1  0.33332866  0.66666861  0.96284604  1
  Al  Al1  1  0.33331993  0.66666976  0.24999959  1
  Al  Al2  1  0.99998642  0.99999894  0.00000036  1
  Al  Al3  1  0.99999508  0.99999944  0.50000007  1
  Al  Al4  1  0.33332838  0.66666558  0.53715184  1
  Al  Al5  1  0.66666168  0.33333238  0.03715403  1
  Al  Al6  1  0.66664855  0.33332657  0.75000083  1
  Al  Al7  1  0.66666474  0.33333620  0.46284840  1
  O  O8  1  0.03182798  0.67660778  0.11190501  1
  O  O9  1  0.96814478  0.64475478  0.61190209  1
  O  O10  1  0.03184526  0.35524597  0.38809717  1
  O  O11  1  0.96813559  0.32339411  0.88809912  1
  O  O12  1  0.32338120  0.35524831  0.11189933  1
  O  O13  1  0.35523357  0.32339320  0.61190311  1
  O  O14  1  0.32339232  0.96815599  0.38809678  1
  O  O15  1  0.35522457  0.03184013  0.88809702  1
  O  O16  1  0.64475434  0.67660745  0.38809742  1
  O  O17  1  0.67658918  0.64475437  0.88809500  1
  O  O18  1  0.64473982  0.96815275  0.11190463  1
  O  O19  1  0.67659696  0.03184668  0.61190313  1
