# generated using pymatgen
data_YLuO3
_symmetry_space_group_name_H-M   'P 1'
_cell_length_a   3.66726604
_cell_length_b   3.66691743
_cell_length_c   12.75038937
_cell_angle_alpha   90.00208660
_cell_angle_beta   89.99881506
_cell_angle_gamma   119.99884649
_symmetry_Int_Tables_number   1
_chemical_formula_structural   YLuO3
_chemical_formula_sum   'Y2 Lu2 O6'
_cell_volume   148.49186937
_cell_formula_units_Z   2
loop_
 _symmetry_equiv_pos_site_id
 _symmetry_equiv_pos_as_xyz
  1  'x, y, z'
loop_
 _atom_site_type_symbol
 _atom_site_label
 _atom_site_symmetry_multiplicity
 _atom_site_fract_x
 _atom_site_fract_y
 _atom_site_fract_z
 _atom_site_occupancy
  Y  Y0  1  0.99998695  0.99998395  0.00003659  1
  Y  Y1  1  0.00010167  0.00004310  0.50000130  1
  Lu  Lu2  1  0.33330282  0.66670855  0.25003881  1
  Lu  Lu3  1  0.66661938  0.33341270  0.74996419  1
  O  O4  1  0.33331791  0.66668834  0.07903594  1
  O  O5  1  0.33334048  0.66668665  0.42095004  1
  O  O6  1  0.99994858  0.00002945  0.24999096  1
  O  O7  1  0.00000173  0.00003011  0.74996632  1
  O  O8  1  0.66666274  0.33330718  0.92099098  1
  O  O9  1  0.66671772  0.33330997  0.57902486  1
