# generated using pymatgen
data_TbCeO4
_symmetry_space_group_name_H-M   'P 1'
_cell_length_a   5.59773807
_cell_length_b   6.55899808
_cell_length_c   6.55899808
_cell_angle_alpha   105.67298050
_cell_angle_beta   64.67881826
_cell_angle_gamma   64.67881826
_symmetry_Int_Tables_number   1
_chemical_formula_structural   TbCeO4
_chemical_formula_sum   'Tb2 Ce2 O8'
_cell_volume   163.74674027
_cell_formula_units_Z   2
loop_
 _symmetry_equiv_pos_site_id
 _symmetry_equiv_pos_as_xyz
  1  'x, y, z'
loop_
 _atom_site_type_symbol
 _atom_site_label
 _atom_site_symmetry_multiplicity
 _atom_site_fract_x
 _atom_site_fract_y
 _atom_site_fract_z
 _atom_site_occupancy
  Tb  Tb0  1  0.25000000  0.37497233  0.12502767  1
  Tb  Tb1  1  0.75000000  0.62502767  0.87497233  1
  Ce  Ce2  1  0.75000000  0.12503204  0.37496796  1
  Ce  Ce3  1  0.25000000  0.87496796  0.62503204  1
  O  O4  1  0.24752219  0.99872359  0.99896578  1
  O  O5  1  0.25247781  0.50103422  0.50127641  1
  O  O6  1  0.74361525  0.75389127  0.25305812  1
  O  O7  1  0.75638475  0.24694188  0.74610873  1
  O  O8  1  0.24361525  0.75305812  0.25389127  1
  O  O9  1  0.25638475  0.24610873  0.74694188  1
  O  O10  1  0.74752219  0.49896578  0.49872359  1
  O  O11  1  0.75247781  0.00127641  0.00103422  1
