# generated using pymatgen
data_Hf2N2O
_symmetry_space_group_name_H-M   'P 1'
_cell_length_a   10.19378889
_cell_length_b   5.43663384
_cell_length_c   5.47590760
_cell_angle_alpha   60.60288368
_cell_angle_beta   104.49645337
_cell_angle_gamma   104.98433299
_symmetry_Int_Tables_number   1
_chemical_formula_structural   Hf2N2O
_chemical_formula_sum   'Hf8 N8 O4'
_cell_volume   252.64738643
_cell_formula_units_Z   4
loop_
 _symmetry_equiv_pos_site_id
 _symmetry_equiv_pos_as_xyz
  1  'x, y, z'
loop_
 _atom_site_type_symbol
 _atom_site_label
 _atom_site_symmetry_multiplicity
 _atom_site_fract_x
 _atom_site_fract_y
 _atom_site_fract_z
 _atom_site_occupancy
  Hf  Hf0  1  0.96358800  0.30778310  0.31328047  1
  Hf  Hf1  1  0.53565830  0.16971226  0.18211685  1
  Hf  Hf2  1  0.71449262  0.58875441  0.55938051  1
  Hf  Hf3  1  0.21429786  0.08009436  0.04760915  1
  Hf  Hf4  1  0.78595197  0.91257871  0.93306454  1
  Hf  Hf5  1  0.28491600  0.43293298  0.41981057  1
  Hf  Hf6  1  0.46530112  0.79957863  0.83212641  1
  Hf  Hf7  1  0.03565258  0.68077622  0.68945627  1
  N  N8  1  0.87396968  0.91584124  0.32463766  1
  N  N9  1  0.62180976  0.58167923  0.17165237  1
  N  N10  1  0.87452524  0.61608011  0.92542680  1
  N  N11  1  0.62781715  0.88792275  0.57562951  1
  N  N12  1  0.37686019  0.83016943  0.13213971  1
  N  N13  1  0.12537214  0.37832422  0.08009923  1
  N  N14  1  0.37005899  0.42219968  0.82685715  1
  N  N15  1  0.12132420  0.07923977  0.67238865  1
  O  O16  1  0.87572605  0.31929487  0.62648535  1
  O  O17  1  0.62592403  0.18845084  0.87119230  1
  O  O18  1  0.37906132  0.12724065  0.43687800  1
  O  O19  1  0.12769283  0.68134954  0.37976648  1
