# generated using pymatgen
data_BaY2F8
_symmetry_space_group_name_H-M   'P 1'
_cell_length_a   5.45543793
_cell_length_b   5.45541971
_cell_length_c   6.36952315
_cell_angle_alpha   90.00000000
_cell_angle_beta   90.00000000
_cell_angle_gamma   90.00000000
_symmetry_Int_Tables_number   1
_chemical_formula_structural   BaY2F8
_chemical_formula_sum   'Ba1 Y2 F8'
_cell_volume   189.56786013
_cell_formula_units_Z   1
loop_
 _symmetry_equiv_pos_site_id
 _symmetry_equiv_pos_as_xyz
  1  'x, y, z'
loop_
 _atom_site_type_symbol
 _atom_site_label
 _atom_site_symmetry_multiplicity
 _atom_site_fract_x
 _atom_site_fract_y
 _atom_site_fract_z
 _atom_site_occupancy
  Ba  Ba0  1  0.99987499  0.00000000  0.50000000  1
  Y  Y1  1  0.99930974  0.50000000  0.00000000  1
  Y  Y2  1  0.49943716  0.00000000  0.00000000  1
  F  F3  1  0.24625524  0.24639611  0.20060813  1
  F  F4  1  0.24625524  0.75360389  0.79939187  1
  F  F5  1  0.24625524  0.24639611  0.79939187  1
  F  F6  1  0.24625524  0.75360389  0.20060813  1
  F  F7  1  0.75318029  0.24665965  0.20063437  1
  F  F8  1  0.75318029  0.24665965  0.79936563  1
  F  F9  1  0.75318029  0.75334035  0.20063437  1
  F  F10  1  0.75318029  0.75334035  0.79936563  1
