# generated using pymatgen
data_Ca2Ti6N2O11
_symmetry_space_group_name_H-M   'P 1'
_cell_length_a   3.75552094
_cell_length_b   7.73643691
_cell_length_c   9.59897788
_cell_angle_alpha   79.06281057
_cell_angle_beta   89.85705988
_cell_angle_gamma   75.68156242
_symmetry_Int_Tables_number   1
_chemical_formula_structural   Ca2Ti6N2O11
_chemical_formula_sum   'Ca2 Ti6 N2 O11'
_cell_volume   265.03064197
_cell_formula_units_Z   1
loop_
 _symmetry_equiv_pos_site_id
 _symmetry_equiv_pos_as_xyz
  1  'x, y, z'
loop_
 _atom_site_type_symbol
 _atom_site_label
 _atom_site_symmetry_multiplicity
 _atom_site_fract_x
 _atom_site_fract_y
 _atom_site_fract_z
 _atom_site_occupancy
  Ca  Ca0  1  0.55948807  0.89623292  0.73077880  1
  Ca  Ca1  1  0.45586856  0.06463329  0.19916803  1
  Ti  Ti2  1  0.12601646  0.74801187  0.06558170  1
  Ti  Ti3  1  0.15963673  0.67972150  0.43467189  1
  Ti  Ti4  1  0.23792113  0.52350086  0.74749994  1
  Ti  Ti5  1  0.77757359  0.44806825  0.24297931  1
  Ti  Ti6  1  0.83877693  0.32680856  0.56998029  1
  Ti  Ti7  1  0.89077361  0.21951295  0.89289831  1
  N  N8  1  0.29633416  0.40980289  0.58754789  1
  N  N9  1  0.93970467  0.12390615  0.72785818  1
  O  O10  1  0.05071165  0.88918991  0.30897907  1
  O  O11  1  0.11707796  0.76034986  0.61010515  1
  O  O12  1  0.14229344  0.71511295  0.88663330  1
  O  O13  1  0.64059091  0.71980086  0.11168195  1
  O  O14  1  0.69832326  0.60363419  0.42522776  1
  O  O15  1  0.75249895  0.49426301  0.77261754  1
  O  O16  1  0.23856787  0.52601387  0.24110221  1
  O  O17  1  0.35734605  0.28609491  0.89918760  1
  O  O18  1  0.84940647  0.30742944  0.11650358  1
  O  O19  1  0.88445832  0.24857927  0.39934679  1
  O  O20  1  0.00377320  0.00025949  0.02953274  1
