# generated using pymatgen
data_Li2Ti7O15
_symmetry_space_group_name_H-M   'P 1'
_cell_length_a   9.24380004
_cell_length_b   9.24380004
_cell_length_c   9.55414279
_cell_angle_alpha   81.37627308
_cell_angle_beta   98.62372692
_cell_angle_gamma   161.38810809
_symmetry_Int_Tables_number   1
_chemical_formula_structural   Li2Ti7O15
_chemical_formula_sum   'Li2 Ti7 O15'
_cell_volume   257.52758689
_cell_formula_units_Z   1
loop_
 _symmetry_equiv_pos_site_id
 _symmetry_equiv_pos_as_xyz
  1  'x, y, z'
loop_
 _atom_site_type_symbol
 _atom_site_label
 _atom_site_symmetry_multiplicity
 _atom_site_fract_x
 _atom_site_fract_y
 _atom_site_fract_z
 _atom_site_occupancy
  Li  Li0  1  0.15890290  0.84109710  0.72354392  1
  Li  Li1  1  0.84109710  0.15890290  0.27645608  1
  Ti  Ti2  1  0.18938266  0.81061734  0.39897691  1
  Ti  Ti3  1  0.31777653  0.68222347  0.94886050  1
  Ti  Ti4  1  0.50384757  0.49615243  0.66059609  1
  Ti  Ti5  1  0.49615243  0.50384757  0.33940391  1
  Ti  Ti6  1  0.00000000  0.00000000  0.00000000  1
  Ti  Ti7  1  0.68222347  0.31777653  0.05113950  1
  Ti  Ti8  1  0.81061734  0.18938266  0.60102309  1
  O  O9  1  0.01258921  0.98741079  0.21099817  1
  O  O10  1  0.20059544  0.79940456  0.92473702  1
  O  O11  1  0.18744892  0.81255108  0.18421132  1
  O  O12  1  0.23059411  0.76940589  0.59713041  1
  O  O13  1  0.37467007  0.62532993  0.60751897  1
  O  O14  1  0.42679902  0.57320098  0.99173915  1
  O  O15  1  0.40211726  0.59788274  0.30246366  1
  O  O16  1  0.00000000  0.00000000  0.50000000  1
  O  O17  1  0.59788274  0.40211726  0.69753634  1
  O  O18  1  0.57320098  0.42679902  0.00826085  1
  O  O19  1  0.62532993  0.37467007  0.39248103  1
  O  O20  1  0.76940589  0.23059411  0.40286959  1
  O  O21  1  0.81255108  0.18744892  0.81578868  1
  O  O22  1  0.79940456  0.20059544  0.07526298  1
  O  O23  1  0.98741079  0.01258921  0.78900183  1
