# generated using pymatgen
data_TiO2
_symmetry_space_group_name_H-M   'P 1'
_cell_length_a   2.98860366
_cell_length_b   9.48540620
_cell_length_c   10.77790782
_cell_angle_alpha   90.01344840
_cell_angle_beta   89.99778760
_cell_angle_gamma   108.37057080
_symmetry_Int_Tables_number   1
_chemical_formula_structural   TiO2
_chemical_formula_sum   'Ti8 O16'
_cell_volume   289.96282317
_cell_formula_units_Z   8
loop_
 _symmetry_equiv_pos_site_id
 _symmetry_equiv_pos_as_xyz
  1  'x, y, z'
loop_
 _atom_site_type_symbol
 _atom_site_label
 _atom_site_symmetry_multiplicity
 _atom_site_fract_x
 _atom_site_fract_y
 _atom_site_fract_z
 _atom_site_occupancy
  Ti  Ti0  1  0.20096502  0.95084957  0.88162185  1
  Ti  Ti1  1  0.70062283  0.45062613  0.61820558  1
  Ti  Ti2  1  0.80109129  0.05128913  0.11822542  1
  Ti  Ti3  1  0.30089778  0.55104186  0.38170427  1
  Ti  Ti4  1  0.16048968  0.91057325  0.39923269  1
  Ti  Ti5  1  0.34123416  0.59131391  0.89926672  1
  Ti  Ti6  1  0.66075780  0.41084542  0.10048101  1
  Ti  Ti7  1  0.84106267  0.09110317  0.60048897  1
  O  O8  1  0.36340743  0.11345275  0.48805116  1
  O  O9  1  0.32478983  0.57481016  0.57215138  1
  O  O10  1  0.45231506  0.20234639  0.13986816  1
  O  O11  1  0.04964402  0.29964048  0.63990107  1
  O  O12  1  0.63835192  0.88828003  0.51170755  1
  O  O13  1  0.22198444  0.47199395  0.21646554  1
  O  O14  1  0.54977464  0.79977455  0.85993362  1
  O  O15  1  0.17708019  0.92711516  0.07217394  1
  O  O16  1  0.86364493  0.61374129  0.01174540  1
  O  O17  1  0.77997965  0.53008562  0.78333458  1
  O  O18  1  0.72199199  0.97190323  0.28332302  1
  O  O19  1  0.13840563  0.38842882  0.98804794  1
  O  O20  1  0.27991731  0.02995563  0.71646199  1
  O  O21  1  0.67686735  0.42686046  0.42773434  1
  O  O22  1  0.82506669  0.07508809  0.92763913  1
  O  O23  1  0.95203669  0.70206596  0.36000865  1
