# generated using pymatgen
data_LiAgF3
_symmetry_space_group_name_H-M   'P 1'
_cell_length_a   5.27094257
_cell_length_b   5.61996360
_cell_length_c   8.21218017
_cell_angle_alpha   89.99722585
_cell_angle_beta   89.48838284
_cell_angle_gamma   89.90673062
_symmetry_Int_Tables_number   1
_chemical_formula_structural   LiAgF3
_chemical_formula_sum   'Li4 Ag4 F12'
_cell_volume   243.25533081
_cell_formula_units_Z   4
loop_
 _symmetry_equiv_pos_site_id
 _symmetry_equiv_pos_as_xyz
  1  'x, y, z'
loop_
 _atom_site_type_symbol
 _atom_site_label
 _atom_site_symmetry_multiplicity
 _atom_site_fract_x
 _atom_site_fract_y
 _atom_site_fract_z
 _atom_site_occupancy
  Li  Li0  1  0.00000000  0.50000000  0.00000000  1
  Li  Li1  1  0.00000000  0.50000000  0.50000000  1
  Li  Li2  1  0.50000000  0.00000000  0.00000000  1
  Li  Li3  1  0.50000000  0.00000000  0.50000000  1
  Ag  Ag4  1  0.02003007  0.91826255  0.70779092  1
  Ag  Ag5  1  0.48145239  0.41876483  0.79196284  1
  Ag  Ag6  1  0.51854761  0.58123517  0.20803716  1
  Ag  Ag7  1  0.97996993  0.08173745  0.29220908  1
  F  F8  1  0.13926263  0.43785413  0.24935619  1
  F  F9  1  0.19635673  0.20342428  0.57157112  1
  F  F10  1  0.20437419  0.21232528  0.92366465  1
  F  F11  1  0.29786067  0.71139321  0.57581248  1
  F  F12  1  0.30287937  0.70399017  0.92802727  1
  F  F13  1  0.35940492  0.93784128  0.25062695  1
  F  F14  1  0.64059508  0.06215872  0.74937305  1
  F  F15  1  0.69712063  0.29600983  0.07197273  1
  F  F16  1  0.70213933  0.28860679  0.42418752  1
  F  F17  1  0.79562581  0.78767472  0.07633535  1
  F  F18  1  0.80364327  0.79657572  0.42842888  1
  F  F19  1  0.86073737  0.56214587  0.75064381  1
