# generated using pymatgen
data_Ca2Ti6N2O11
_symmetry_space_group_name_H-M   'P 1'
_cell_length_a   3.78534104
_cell_length_b   7.70335473
_cell_length_c   9.31610737
_cell_angle_alpha   81.63785071
_cell_angle_beta   89.89843635
_cell_angle_gamma   75.58164125
_symmetry_Int_Tables_number   1
_chemical_formula_structural   Ca2Ti6N2O11
_chemical_formula_sum   'Ca2 Ti6 N2 O11'
_cell_volume   260.13452765
_cell_formula_units_Z   1
loop_
 _symmetry_equiv_pos_site_id
 _symmetry_equiv_pos_as_xyz
  1  'x, y, z'
loop_
 _atom_site_type_symbol
 _atom_site_label
 _atom_site_symmetry_multiplicity
 _atom_site_fract_x
 _atom_site_fract_y
 _atom_site_fract_z
 _atom_site_occupancy
  Ca  Ca0  1  0.54984158  0.91163976  0.75619640  1
  Ca  Ca1  1  0.46146712  0.09086810  0.24641851  1
  Ti  Ti2  1  0.12684074  0.75019098  0.09445865  1
  Ti  Ti3  1  0.16781588  0.66964170  0.42354228  1
  Ti  Ti4  1  0.23171619  0.53990315  0.75900648  1
  Ti  Ti5  1  0.77675124  0.45560197  0.24282762  1
  Ti  Ti6  1  0.84423882  0.32067724  0.55904453  1
  Ti  Ti7  1  0.88528200  0.23191701  0.91078757  1
  N  N8  1  0.23745212  0.53215300  0.24786124  1
  N  N9  1  0.88854058  0.24017280  0.38369820  1
  O  O10  1  0.06057462  0.88037884  0.29440832  1
  O  O11  1  0.12504344  0.75140330  0.61638032  1
  O  O12  1  0.15938460  0.68809321  0.90011314  1
  O  O13  1  0.63275966  0.73541818  0.10774923  1
  O  O14  1  0.70281081  0.60171111  0.43435991  1
  O  O15  1  0.75950210  0.48568584  0.76076686  1
  O  O16  1  0.30399487  0.40127432  0.57458753  1
  O  O17  1  0.36398318  0.27650553  0.87680981  1
  O  O18  1  0.84195855  0.32260236  0.08877368  1
  O  O19  1  0.94747210  0.11862347  0.70842346  1
  O  O20  1  0.99263179  0.00285213  0.00351425  1
