# generated using pymatgen
data_Hf2N2O
_symmetry_space_group_name_H-M   'P 1'
_cell_length_a   3.25723394
_cell_length_b   7.04210979
_cell_length_c   8.17680178
_cell_angle_alpha   79.83057868
_cell_angle_beta   90.00000000
_cell_angle_gamma   76.62824488
_symmetry_Int_Tables_number   1
_chemical_formula_structural   Hf2N2O
_chemical_formula_sum   'Hf6 N6 O3'
_cell_volume   179.44313233
_cell_formula_units_Z   3
loop_
 _symmetry_equiv_pos_site_id
 _symmetry_equiv_pos_as_xyz
  1  'x, y, z'
loop_
 _atom_site_type_symbol
 _atom_site_label
 _atom_site_symmetry_multiplicity
 _atom_site_fract_x
 _atom_site_fract_y
 _atom_site_fract_z
 _atom_site_occupancy
  Hf  Hf0  1  0.03025720  0.93948460  0.80893065  1
  Hf  Hf1  1  0.62920350  0.74159301  0.47464735  1
  Hf  Hf2  1  0.69614328  0.60771445  0.13227567  1
  Hf  Hf3  1  0.30385672  0.39228555  0.86772433  1
  Hf  Hf4  1  0.37079650  0.25840699  0.52535265  1
  Hf  Hf5  1  0.96974280  0.06051540  0.19106935  1
  N  N6  1  0.53515738  0.92968424  0.65664925  1
  N  N7  1  0.17177133  0.65645834  0.96433145  1
  N  N8  1  0.12661932  0.74676136  0.28545171  1
  N  N9  1  0.87338068  0.25323864  0.71454829  1
  N  N10  1  0.82822867  0.34354166  0.03566855  1
  N  N11  1  0.46484262  0.07031576  0.34335075  1
  O  O12  1  0.20982931  0.58034238  0.61741273  1
  O  O13  1  0.79017069  0.41965762  0.38258727  1
  O  O14  1  0.50000000  0.00000000  0.00000000  1
