# generated using pymatgen
data_LiTi(PO3)4
_symmetry_space_group_name_H-M   'P 1'
_cell_length_a   7.29512272
_cell_length_b   8.59914448
_cell_length_c   9.10066588
_cell_angle_alpha   115.00347429
_cell_angle_beta   113.62830277
_cell_angle_gamma   64.90139991
_symmetry_Int_Tables_number   1
_chemical_formula_structural   LiTi(PO3)4
_chemical_formula_sum   'Li2 Ti2 P8 O24'
_cell_volume   451.15549944
_cell_formula_units_Z   2
loop_
 _symmetry_equiv_pos_site_id
 _symmetry_equiv_pos_as_xyz
  1  'x, y, z'
loop_
 _atom_site_type_symbol
 _atom_site_label
 _atom_site_symmetry_multiplicity
 _atom_site_fract_x
 _atom_site_fract_y
 _atom_site_fract_z
 _atom_site_occupancy
  Li  Li0  1  0.30511632  0.75000000  0.75000000  1
  Li  Li1  1  0.69488368  0.25000000  0.25000000  1
  Ti  Ti2  1  0.84754799  0.75000000  0.75000000  1
  Ti  Ti3  1  0.15245201  0.25000000  0.25000000  1
  P  P4  1  0.98291708  0.89391506  0.17445045  1
  P  P5  1  0.56959680  0.86652688  0.13021095  1
  P  P6  1  0.30591272  0.63347312  0.36978905  1
  P  P7  1  0.70238169  0.60608494  0.32554955  1
  P  P8  1  0.29761831  0.39391506  0.67445045  1
  P  P9  1  0.69408728  0.36652688  0.63021095  1
  P  P10  1  0.43040320  0.13347312  0.86978905  1
  P  P11  1  0.01708292  0.10608494  0.82554955  1
  O  O12  1  0.39964506  0.00481133  0.21413943  1
  O  O13  1  0.77618370  0.93361591  0.22487381  1
  O  O14  1  0.98404756  0.76248122  0.00117066  1
  O  O15  1  0.16335163  0.81705168  0.31836219  1
  O  O16  1  0.01194857  0.92020519  0.79182903  1
  O  O17  1  0.66204111  0.68294832  0.18163781  1
  O  O18  1  0.74535712  0.73751878  0.49882934  1
  O  O19  1  0.38839776  0.69431172  0.55604403  1
  O  O20  1  0.52666545  0.80568828  0.94395597  1
  O  O21  1  0.48492680  0.56638409  0.27512619  1
  O  O22  1  0.19031696  0.49518867  0.28586057  1
  O  O23  1  0.14032473  0.57979481  0.70817097  1
  O  O24  1  0.85967527  0.42020519  0.29182903  1
  O  O25  1  0.80968304  0.50481133  0.71413943  1
  O  O26  1  0.51507320  0.43361591  0.72487381  1
  O  O27  1  0.47333455  0.19431172  0.05604403  1
  O  O28  1  0.61160224  0.30568828  0.44395597  1
  O  O29  1  0.25464288  0.26248122  0.50117066  1
  O  O30  1  0.33795889  0.31705168  0.81836219  1
  O  O31  1  0.98805143  0.07979481  0.20817097  1
  O  O32  1  0.83664837  0.18294832  0.68163781  1
  O  O33  1  0.01595244  0.23751878  0.99882934  1
  O  O34  1  0.22381630  0.06638409  0.77512619  1
  O  O35  1  0.60035494  0.99518867  0.78586057  1
