# generated using pymatgen
data_LiSnPO4
_symmetry_space_group_name_H-M   'P 1'
_cell_length_a   9.51006409
_cell_length_b   7.38777125
_cell_length_c   16.79267222
_cell_angle_alpha   90.00000000
_cell_angle_beta   90.36638822
_cell_angle_gamma   90.00000000
_symmetry_Int_Tables_number   1
_chemical_formula_structural   LiSnPO4
_chemical_formula_sum   'Li12 Sn12 P12 O48'
_cell_volume   1179.79843296
_cell_formula_units_Z   12
loop_
 _symmetry_equiv_pos_site_id
 _symmetry_equiv_pos_as_xyz
  1  'x, y, z'
loop_
 _atom_site_type_symbol
 _atom_site_label
 _atom_site_symmetry_multiplicity
 _atom_site_fract_x
 _atom_site_fract_y
 _atom_site_fract_z
 _atom_site_occupancy
  Li  Li0  1  0.28067123  0.06523894  0.57502574  1
  Li  Li1  1  0.25314643  0.93806153  0.91376838  1
  Li  Li2  1  0.24861755  0.22461865  0.24849637  1
  Li  Li3  1  0.25138245  0.72461865  0.25150363  1
  Li  Li4  1  0.24685357  0.43806153  0.58623162  1
  Li  Li5  1  0.21932877  0.56523894  0.92497426  1
  Li  Li6  1  0.78067123  0.43476106  0.07502574  1
  Li  Li7  1  0.75314643  0.56193847  0.41376838  1
  Li  Li8  1  0.74861755  0.27538135  0.74849637  1
  Li  Li9  1  0.75138245  0.77538135  0.75150363  1
  Li  Li10  1  0.74685357  0.06193847  0.08623162  1
  Li  Li11  1  0.71932877  0.93476106  0.42497426  1
  Sn  Sn12  1  0.03698504  0.78077439  0.10570841  1
  Sn  Sn13  1  0.08918948  0.71840006  0.71237856  1
  Sn  Sn14  1  0.13560054  0.76292387  0.43836536  1
  Sn  Sn15  1  0.36439946  0.26292387  0.06163464  1
  Sn  Sn16  1  0.41081052  0.21840006  0.78762144  1
  Sn  Sn17  1  0.46301496  0.28077439  0.39429159  1
  Sn  Sn18  1  0.53698504  0.71922561  0.60570841  1
  Sn  Sn19  1  0.58918948  0.78159994  0.21237856  1
  Sn  Sn20  1  0.63560054  0.73707613  0.93836536  1
  Sn  Sn21  1  0.86439946  0.23707613  0.56163464  1
  Sn  Sn22  1  0.91081052  0.28159994  0.28762144  1
  Sn  Sn23  1  0.96301496  0.21922561  0.89429159  1
  P  P24  1  0.05292713  0.30310345  0.08889684  1
  P  P25  1  0.09903670  0.18558423  0.73006418  1
  P  P26  1  0.11954071  0.28711198  0.43386008  1
  P  P27  1  0.38045929  0.78711198  0.06613992  1
  P  P28  1  0.40096330  0.68558423  0.76993582  1
  P  P29  1  0.44707287  0.80310345  0.41110316  1
  P  P30  1  0.55292713  0.19689655  0.58889684  1
  P  P31  1  0.59903670  0.31441577  0.23006418  1
  P  P32  1  0.61954071  0.21288802  0.93386008  1
  P  P33  1  0.88045929  0.71288802  0.56613992  1
  P  P34  1  0.90096330  0.81441577  0.26993582  1
  P  P35  1  0.94707287  0.69689655  0.91110316  1
  O  O36  1  0.00929007  0.50977096  0.88519762  1
  O  O37  1  0.04548916  0.69409378  0.58170113  1
  O  O38  1  0.07548173  0.81642799  0.92947861  1
  O  O39  1  0.05775707  0.78505211  0.24723500  1
  O  O40  1  0.14545631  0.14581380  0.49876641  1
  O  O41  1  0.12423002  0.00523973  0.68444853  1
  O  O42  1  0.17679072  0.17834119  0.81520958  1
  O  O43  1  0.15379077  0.22565808  0.15276410  1
  O  O44  1  0.17836848  0.47246648  0.46494913  1
  O  O45  1  0.14837568  0.32478651  0.01204212  1
  O  O46  1  0.18786342  0.23504230  0.35358586  1
  O  O47  1  0.15942974  0.33926960  0.67979669  1
  O  O48  1  0.31213658  0.73504230  0.14641414  1
  O  O49  1  0.34057026  0.83926960  0.82020331  1
  O  O50  1  0.35162432  0.82478651  0.48795788  1
  O  O51  1  0.32163152  0.97246648  0.03505087  1
  O  O52  1  0.34620923  0.72565808  0.34723590  1
  O  O53  1  0.32320928  0.67834119  0.68479042  1
  O  O54  1  0.37576998  0.50523973  0.81555147  1
  O  O55  1  0.44224293  0.28505211  0.25276500  1
  O  O56  1  0.35454369  0.64581380  0.00123359  1
  O  O57  1  0.42451827  0.31642799  0.57052139  1
  O  O58  1  0.45451084  0.19409378  0.91829887  1
  O  O59  1  0.49070993  0.00977096  0.61480238  1
  O  O60  1  0.50929007  0.99022904  0.38519762  1
  O  O61  1  0.54548916  0.80590622  0.08170113  1
  O  O62  1  0.57548173  0.68357201  0.42947861  1
  O  O63  1  0.64545631  0.35418620  0.99876641  1
  O  O64  1  0.55775707  0.71494789  0.74723500  1
  O  O65  1  0.62423002  0.49476027  0.18444853  1
  O  O66  1  0.67679072  0.32165881  0.31520958  1
  O  O67  1  0.65379077  0.27434192  0.65276410  1
  O  O68  1  0.67836848  0.02753352  0.96494913  1
  O  O69  1  0.64837568  0.17521349  0.51204212  1
  O  O70  1  0.65942974  0.16073040  0.17979669  1
  O  O71  1  0.68786342  0.26495770  0.85358586  1
  O  O72  1  0.84057026  0.66073040  0.32020331  1
  O  O73  1  0.81213658  0.76495770  0.64641414  1
  O  O74  1  0.85162432  0.67521349  0.98795788  1
  O  O75  1  0.82163152  0.52753352  0.53505087  1
  O  O76  1  0.84620923  0.77434192  0.84723590  1
  O  O77  1  0.82320928  0.82165881  0.18479042  1
  O  O78  1  0.87576998  0.99476027  0.31555147  1
  O  O79  1  0.85454369  0.85418620  0.50123359  1
  O  O80  1  0.94224293  0.21494789  0.75276500  1
  O  O81  1  0.92451827  0.18357201  0.07052139  1
  O  O82  1  0.95451084  0.30590622  0.41829887  1
  O  O83  1  0.99070993  0.49022904  0.11480238  1
