# generated using pymatgen
data_Li3Sn2(PO3)7
_symmetry_space_group_name_H-M   'P 1'
_cell_length_a   6.76164259
_cell_length_b   7.50299840
_cell_length_c   20.47271169
_cell_angle_alpha   91.85200829
_cell_angle_beta   93.29062842
_cell_angle_gamma   115.38250693
_symmetry_Int_Tables_number   1
_chemical_formula_structural   Li3Sn2(PO3)7
_chemical_formula_sum   'Li6 Sn4 P14 O42'
_cell_volume   934.95587902
_cell_formula_units_Z   2
loop_
 _symmetry_equiv_pos_site_id
 _symmetry_equiv_pos_as_xyz
  1  'x, y, z'
loop_
 _atom_site_type_symbol
 _atom_site_label
 _atom_site_symmetry_multiplicity
 _atom_site_fract_x
 _atom_site_fract_y
 _atom_site_fract_z
 _atom_site_occupancy
  Li  Li0  1  0.22999858  0.80986791  0.75071097  1
  Li  Li1  1  0.44489147  0.25572313  0.56589005  1
  Li  Li2  1  0.75430490  0.85349173  0.91324938  1
  Li  Li3  1  0.24569510  0.14650827  0.08675062  1
  Li  Li4  1  0.55510853  0.74427687  0.43410995  1
  Li  Li5  1  0.77000142  0.19013209  0.24928903  1
  Sn  Sn6  1  0.59695228  0.80423279  0.62129080  1
  Sn  Sn7  1  0.37280291  0.15383599  0.88082468  1
  Sn  Sn8  1  0.62719709  0.84616401  0.11917532  1
  Sn  Sn9  1  0.40304772  0.19576821  0.37870920  1
  P  P10  1  0.27057692  0.70202132  0.93937443  1
  P  P11  1  0.17605665  0.77366661  0.48494104  1
  P  P12  1  0.07244870  0.71167114  0.06677098  1
  P  P13  1  0.04979689  0.42731638  0.39592035  1
  P  P14  1  0.04917013  0.11619619  0.72306495  1
  P  P15  1  0.35032330  0.82430650  0.26144210  1
  P  P16  1  0.47057733  0.46291586  0.75627988  1
  P  P17  1  0.52942267  0.53708414  0.24372012  1
  P  P18  1  0.64967670  0.17569350  0.73855790  1
  P  P19  1  0.95082987  0.88380381  0.27693505  1
  P  P20  1  0.95020311  0.57268362  0.60407965  1
  P  P21  1  0.92755130  0.28832886  0.93322902  1
  P  P22  1  0.82394335  0.22633339  0.51505896  1
  P  P23  1  0.72942308  0.29797868  0.06062557  1
  O  O24  1  0.13178300  0.76026064  0.99164041  1
  O  O25  1  0.01143389  0.71121657  0.54229008  1
  O  O26  1  0.21081471  0.76254946  0.87479831  1
  O  O27  1  0.11832652  0.66559336  0.66051934  1
  O  O28  1  0.17312811  0.46407849  0.94336434  1
  O  O29  1  0.95404200  0.11118938  0.90649449  1
  O  O30  1  0.02666421  0.62448094  0.42288118  1
  O  O31  1  0.21738187  0.98126789  0.47195019  1
  O  O32  1  0.09447690  0.77485205  0.24938071  1
  O  O33  1  0.50933776  0.78234016  0.96324911  1
  O  O34  1  0.10237014  0.00656558  0.77634518  1
  O  O35  1  0.26915392  0.30627402  0.70608926  1
  O  O36  1  0.36643608  0.72409589  0.50049962  1
  O  O37  1  0.22639402  0.64208121  0.10088913  1
  O  O38  1  0.28917314  0.47593001  0.38830136  1
  O  O39  1  0.40661334  0.42568858  0.82582852  1
  O  O40  1  0.44016519  0.91228244  0.33011808  1
  O  O41  1  0.47680788  0.94660253  0.20736776  1
  O  O42  1  0.05362268  0.99673603  0.34111296  1
  O  O43  1  0.53675507  0.66559463  0.73345295  1
  O  O44  1  0.33289798  0.60367529  0.25420837  1
  O  O45  1  0.66710202  0.39632471  0.74579063  1
  O  O46  1  0.46324493  0.33440537  0.26654705  1
  O  O47  1  0.94637732  0.00326397  0.65888704  1
  O  O48  1  0.52319212  0.05339747  0.79263224  1
  O  O49  1  0.55983481  0.08771756  0.66988192  1
  O  O50  1  0.59338666  0.57431142  0.17417148  1
  O  O51  1  0.71082686  0.52406999  0.61169864  1
  O  O52  1  0.77360598  0.35791879  0.89911087  1
  O  O53  1  0.63356392  0.27590411  0.49950038  1
  O  O54  1  0.73084608  0.69372598  0.29391074  1
  O  O55  1  0.89762986  0.99343442  0.22365482  1
  O  O56  1  0.49066224  0.21765984  0.03675089  1
  O  O57  1  0.90552310  0.22514795  0.75061929  1
  O  O58  1  0.78261813  0.01873211  0.52804981  1
  O  O59  1  0.97333579  0.37551906  0.57711882  1
  O  O60  1  0.04595800  0.88881062  0.09350551  1
  O  O61  1  0.82687189  0.53592151  0.05663566  1
  O  O62  1  0.88167348  0.33440664  0.33948066  1
  O  O63  1  0.78918529  0.23745054  0.12520169  1
  O  O64  1  0.98856611  0.28878343  0.45770992  1
  O  O65  1  0.86821700  0.23973936  0.00835959  1
