# generated using pymatgen
data_LiSi3BiO8
_symmetry_space_group_name_H-M   'P 1'
_cell_length_a   7.67730352
_cell_length_b   7.67730352
_cell_length_c   14.82538048
_cell_angle_alpha   76.63479199
_cell_angle_beta   103.36520801
_cell_angle_gamma   64.52760567
_symmetry_Int_Tables_number   1
_chemical_formula_structural   LiSi3BiO8
_chemical_formula_sum   'Li4 Si12 Bi4 O32'
_cell_volume   711.08231351
_cell_formula_units_Z   4
loop_
 _symmetry_equiv_pos_site_id
 _symmetry_equiv_pos_as_xyz
  1  'x, y, z'
loop_
 _atom_site_type_symbol
 _atom_site_label
 _atom_site_symmetry_multiplicity
 _atom_site_fract_x
 _atom_site_fract_y
 _atom_site_fract_z
 _atom_site_occupancy
  Li  Li0  1  0.18708920  0.62927291  0.81713042  1
  Li  Li1  1  0.37072709  0.81291080  0.31713042  1
  Li  Li2  1  0.62927291  0.18708920  0.68286958  1
  Li  Li3  1  0.81291080  0.37072709  0.18286958  1
  Si  Si4  1  0.46539024  0.82773274  0.82269436  1
  Si  Si5  1  0.85647078  0.85025482  0.90459179  1
  Si  Si6  1  0.21229886  0.19621022  0.88580185  1
  Si  Si7  1  0.19621022  0.21229886  0.61419815  1
  Si  Si8  1  0.85025482  0.85647078  0.59540821  1
  Si  Si9  1  0.17226726  0.53460976  0.32269436  1
  Si  Si10  1  0.82773274  0.46539024  0.67730564  1
  Si  Si11  1  0.14974518  0.14352922  0.40459179  1
  Si  Si12  1  0.80378978  0.78770114  0.38580185  1
  Si  Si13  1  0.14352922  0.14974518  0.09540821  1
  Si  Si14  1  0.78770114  0.80378978  0.11419815  1
  Si  Si15  1  0.53460976  0.17226726  0.17730564  1
  Bi  Bi16  1  0.27878062  0.65853226  0.56684894  1
  Bi  Bi17  1  0.65853226  0.27878062  0.93315106  1
  Bi  Bi18  1  0.34146774  0.72121938  0.06684894  1
  Bi  Bi19  1  0.72121938  0.34146774  0.43315106  1
  O  O20  1  0.09459169  0.71204842  0.91966336  1
  O  O21  1  0.33967346  0.96142027  0.88279805  1
  O  O22  1  0.09848386  0.74004030  0.66642225  1
  O  O23  1  0.35049409  0.98457137  0.70537203  1
  O  O24  1  0.45327104  0.61781780  0.84057886  1
  O  O25  1  0.34578522  0.31081232  0.88810422  1
  O  O26  1  0.71154345  0.75559786  0.86454551  1
  O  O27  1  0.03857973  0.66032654  0.38279805  1
  O  O28  1  0.28795158  0.90540831  0.41966336  1
  O  O29  1  0.31081232  0.34578522  0.61189578  1
  O  O30  1  0.75559786  0.71154345  0.63545449  1
  O  O31  1  0.25995970  0.90151614  0.16642225  1
  O  O32  1  0.01542863  0.64950591  0.20537203  1
  O  O33  1  0.61781780  0.45327104  0.65942114  1
  O  O34  1  0.86479428  0.84211060  0.48546613  1
  O  O35  1  0.13520572  0.15788940  0.51453387  1
  O  O36  1  0.38218220  0.54672896  0.34057886  1
  O  O37  1  0.74004030  0.09848386  0.83357775  1
  O  O38  1  0.98457137  0.35049409  0.79462797  1
  O  O39  1  0.24440214  0.28845655  0.36454551  1
  O  O40  1  0.68918768  0.65421478  0.38810422  1
  O  O41  1  0.71204842  0.09459169  0.58033664  1
  O  O42  1  0.96142027  0.33967346  0.61720195  1
  O  O43  1  0.28845655  0.24440214  0.13545449  1
  O  O44  1  0.65421478  0.68918768  0.11189578  1
  O  O45  1  0.54672896  0.38218220  0.15942114  1
  O  O46  1  0.15788940  0.13520572  0.98546613  1
  O  O47  1  0.84211060  0.86479428  0.01453387  1
  O  O48  1  0.64950591  0.01542863  0.29462797  1
  O  O49  1  0.90151614  0.25995970  0.33357775  1
  O  O50  1  0.66032654  0.03857973  0.11720195  1
  O  O51  1  0.90540831  0.28795158  0.08033664  1
