# generated using pymatgen
data_Ba8In6O17
_symmetry_space_group_name_H-M   'P 1'
_cell_length_a   6.23747398
_cell_length_b   15.15484578
_cell_length_c   6.19972366
_cell_angle_alpha   90.04185145
_cell_angle_beta   89.95831086
_cell_angle_gamma   101.90812020
_symmetry_Int_Tables_number   1
_chemical_formula_structural   Ba8In6O17
_chemical_formula_sum   'Ba8 In6 O17'
_cell_volume   573.43507236
_cell_formula_units_Z   1
loop_
 _symmetry_equiv_pos_site_id
 _symmetry_equiv_pos_as_xyz
  1  'x, y, z'
loop_
 _atom_site_type_symbol
 _atom_site_label
 _atom_site_symmetry_multiplicity
 _atom_site_fract_x
 _atom_site_fract_y
 _atom_site_fract_z
 _atom_site_occupancy
  Ba  Ba0  1  0.57736456  0.13601647  0.99358897  1
  Ba  Ba1  1  0.69571451  0.41006773  0.01802910  1
  Ba  Ba2  1  0.80026116  0.58862222  0.48296806  1
  Ba  Ba3  1  0.92550999  0.86397282  0.51182870  1
  Ba  Ba4  1  0.28493611  0.58849037  0.01950662  1
  Ba  Ba5  1  0.44037578  0.86242310  0.99415673  1
  Ba  Ba6  1  0.06287586  0.13619251  0.51101790  1
  Ba  Ba7  1  0.21191325  0.41104914  0.48218474  1
  In  In8  1  0.83724082  0.71819652  0.97612942  1
  In  In9  1  0.01480530  0.99966272  0.01731385  1
  In  In10  1  0.48735800  0.00004252  0.48626993  1
  In  In11  1  0.66167695  0.28095158  0.52656494  1
  In  In12  1  0.11709158  0.28089466  0.97366243  1
  In  In13  1  0.38147085  0.71856071  0.52909434  1
  O  O14  1  0.75232011  0.99961838  0.25290114  1
  O  O15  1  0.86119346  0.58408619  0.05425100  1
  O  O16  1  0.88228065  0.27807233  0.24667852  1
  O  O17  1  0.86538699  0.86357917  0.94447642  1
  O  O18  1  0.63592809  0.13566774  0.55938411  1
  O  O19  1  0.91060473  0.31970482  0.74860963  1
  O  O20  1  0.63548961  0.41523165  0.44841785  1
  O  O21  1  0.00393668  0.13623758  0.94625346  1
  O  O22  1  0.61107387  0.72147520  0.25265683  1
  O  O23  1  0.25292034  0.00030119  0.24903464  1
  O  O24  1  0.27642695  0.41446524  0.05536149  1
  O  O25  1  0.38197152  0.26480627  0.74982583  1
  O  O26  1  0.24635443  0.00031107  0.74787460  1
  O  O27  1  0.58777214  0.67968433  0.75264196  1
  O  O28  1  0.21999083  0.58505040  0.44813134  1
  O  O29  1  0.49672675  0.86362005  0.55819305  1
  O  O30  1  0.11889310  0.73523031  0.75545141  1
