# generated using pymatgen
data_Li6CuS4
_symmetry_space_group_name_H-M   'P 1'
_cell_length_a   7.99077701
_cell_length_b   7.99117151
_cell_length_c   5.67824387
_cell_angle_alpha   90.00423786
_cell_angle_beta   89.99918961
_cell_angle_gamma   90.00079661
_symmetry_Int_Tables_number   1
_chemical_formula_structural   Li6CuS4
_chemical_formula_sum   'Li12 Cu2 S8'
_cell_volume   362.58806340
_cell_formula_units_Z   2
loop_
 _symmetry_equiv_pos_site_id
 _symmetry_equiv_pos_as_xyz
  1  'x, y, z'
loop_
 _atom_site_type_symbol
 _atom_site_label
 _atom_site_symmetry_multiplicity
 _atom_site_fract_x
 _atom_site_fract_y
 _atom_site_fract_z
 _atom_site_occupancy
  Li  Li0  1  0.02665024  0.52666277  0.75000624  1
  Li  Li1  1  0.02667191  0.97337663  0.75001624  1
  Li  Li2  1  0.25001214  0.25000824  0.70367027  1
  Li  Li3  1  0.25000256  0.25000573  0.20359305  1
  Li  Li4  1  0.47335697  0.52665925  0.75000032  1
  Li  Li5  1  0.47336097  0.97334284  0.74999433  1
  Li  Li6  1  0.52671688  0.02669675  0.24999635  1
  Li  Li7  1  0.52669936  0.47330549  0.24999325  1
  Li  Li8  1  0.75000665  0.75000491  0.29644143  1
  Li  Li9  1  0.75001865  0.75000761  0.79636143  1
  Li  Li10  1  0.97330622  0.02669467  0.24999735  1
  Li  Li11  1  0.97330269  0.47331640  0.24998825  1
  Cu  Cu12  1  0.24999060  0.75000038  0.24999141  1
  Cu  Cu13  1  0.75001710  0.25001937  0.74992401  1
  S  S14  1  0.00522247  0.25002554  0.95341197  1
  S  S15  1  0.25001654  0.00517190  0.45334259  1
  S  S16  1  0.25000793  0.49483180  0.45336182  1
  S  S17  1  0.49479669  0.25000668  0.95340106  1
  S  S18  1  0.50519133  0.74999133  0.04666958  1
  S  S19  1  0.75001467  0.99477588  0.54660229  1
  S  S20  1  0.74999226  0.50526482  0.54657613  1
  S  S21  1  0.99482317  0.75001099  0.04665761  1
