# generated using pymatgen
data_LiNb(PO3)4
_symmetry_space_group_name_H-M   'P 1'
_cell_length_a   7.45418706
_cell_length_b   7.42122705
_cell_length_c   10.06671788
_cell_angle_alpha   80.92282032
_cell_angle_beta   70.55412951
_cell_angle_gamma   110.04659094
_symmetry_Int_Tables_number   1
_chemical_formula_structural   LiNb(PO3)4
_chemical_formula_sum   'Li2 Nb2 P8 O24'
_cell_volume   469.49174482
_cell_formula_units_Z   2
loop_
 _symmetry_equiv_pos_site_id
 _symmetry_equiv_pos_as_xyz
  1  'x, y, z'
loop_
 _atom_site_type_symbol
 _atom_site_label
 _atom_site_symmetry_multiplicity
 _atom_site_fract_x
 _atom_site_fract_y
 _atom_site_fract_z
 _atom_site_occupancy
  Li  Li0  1  0.22679505  0.97062306  0.75176397  1
  Li  Li1  1  0.77253304  0.02860772  0.24841763  1
  Nb  Nb2  1  0.99935994  0.49968007  -0.00028549  1
  Nb  Nb3  1  0.99864365  0.99938359  0.49976927  1
  P  P4  1  0.99693174  0.68490426  0.30583450  1
  P  P5  1  0.26871599  0.72985126  0.47420826  1
  P  P6  1  0.70519646  0.74685767  0.02260223  1
  P  P7  1  0.50994601  0.69750959  0.80637696  1
  P  P8  1  0.49004476  0.30342306  0.19290602  1
  P  P9  1  0.29685320  0.25439459  0.97518511  1
  P  P10  1  0.73059110  0.27284051  0.52690757  1
  P  P11  1  0.00259824  0.31626032  0.69366774  1
  O  O12  1  0.03740159  0.64577825  0.15952818  1
  O  O13  1  0.12739073  0.80875810  0.57323998  1
  O  O14  1  0.18972287  0.68783381  0.34435292  1
  O  O15  1  0.49827405  0.84458582  0.40830717  1
  O  O16  1  0.30967317  0.71808854  0.82087281  1
  O  O17  1  0.20867959  0.50314726  0.56712706  1
  O  O18  1  0.11580434  0.29420018  0.07317938  1
  O  O19  1  0.75041674  0.91153614  0.08818476  1
  O  O20  1  0.57146864  0.77867543  0.93083102  1
  O  O21  1  0.69189745  0.79641374  0.65723187  1
  O  O22  1  0.53396641  0.53643198  0.15284499  1
  O  O23  1  0.03369903  0.12804313  0.67935005  1
  O  O24  1  0.96618614  0.87400795  0.31720577  1
  O  O25  1  0.46858832  0.46586267  0.84650621  1
  O  O26  1  0.30596741  0.20196686  0.34109793  1
  O  O27  1  0.42984683  0.22338826  0.06771566  1
  O  O28  1  0.25597184  0.09285974  0.90712535  1
  O  O29  1  0.88468627  0.70529489  0.92507670  1
  O  O30  1  0.79228074  0.50015381  0.43464965  1
  O  O31  1  0.68839515  0.28017911  0.17999219  1
  O  O32  1  0.50141250  0.15819312  0.59301338  1
  O  O33  1  0.80999402  0.31642008  0.65633425  1
  O  O34  1  0.87032997  0.19242468  0.42804300  1
  O  O35  1  0.95969604  0.35174076  0.84134193  1
