# generated using pymatgen
data_TiCu3O4
_symmetry_space_group_name_H-M   'P 1'
_cell_length_a   3.08972285
_cell_length_b   5.27209196
_cell_length_c   11.55185737
_cell_angle_alpha   89.98522850
_cell_angle_beta   90.00607562
_cell_angle_gamma   85.56018471
_symmetry_Int_Tables_number   1
_chemical_formula_structural   TiCu3O4
_chemical_formula_sum   'Ti2 Cu6 O8'
_cell_volume   187.60703107
_cell_formula_units_Z   2
loop_
 _symmetry_equiv_pos_site_id
 _symmetry_equiv_pos_as_xyz
  1  'x, y, z'
loop_
 _atom_site_type_symbol
 _atom_site_label
 _atom_site_symmetry_multiplicity
 _atom_site_fract_x
 _atom_site_fract_y
 _atom_site_fract_z
 _atom_site_occupancy
  Ti  Ti0  1  0.00004574  0.99999275  0.50000603  1
  Ti  Ti1  1  0.50002493  0.49997212  0.00000092  1
  Cu  Cu2  1  0.99998130  0.99996473  0.00000348  1
  Cu  Cu3  1  0.98017068  0.32685141  0.24881322  1
  Cu  Cu4  1  0.01986926  0.67314957  0.75118166  1
  Cu  Cu5  1  0.50000035  0.49998970  0.49999141  1
  Cu  Cu6  1  0.48115163  0.82704997  0.25118789  1
  Cu  Cu7  1  0.51886808  0.17295768  0.74881312  1
  O  O8  1  0.94214927  0.30250172  0.40572873  1
  O  O9  1  0.01326667  0.34180693  0.08921467  1
  O  O10  1  0.98673860  0.65814551  0.91078047  1
  O  O11  1  0.05789321  0.69747375  0.59427173  1
  O  O12  1  0.51325563  0.84199208  0.41079068  1
  O  O13  1  0.44213306  0.80230658  0.09431157  1
  O  O14  1  0.48679125  0.15799681  0.58921400  1
  O  O15  1  0.55785932  0.19764670  0.90569143  1
