# generated using pymatgen
data_Sb8Cl2O11
_symmetry_space_group_name_H-M   'P 1'
_cell_length_a   19.99683256
_cell_length_b   4.20587284
_cell_length_c   11.17833499
_cell_angle_alpha   90.00000000
_cell_angle_beta   63.59502225
_cell_angle_gamma   90.00000000
_symmetry_Int_Tables_number   1
_chemical_formula_structural   Sb8Cl2O11
_chemical_formula_sum   'Sb16 Cl4 O22'
_cell_volume   842.06189176
_cell_formula_units_Z   2
loop_
 _symmetry_equiv_pos_site_id
 _symmetry_equiv_pos_as_xyz
  1  'x, y, z'
loop_
 _atom_site_type_symbol
 _atom_site_label
 _atom_site_symmetry_multiplicity
 _atom_site_fract_x
 _atom_site_fract_y
 _atom_site_fract_z
 _atom_site_occupancy
  Sb  Sb0  1  0.98077742  0.69338901  0.70593908  1
  Sb  Sb1  1  0.07201741  0.18268224  0.87366174  1
  Sb  Sb2  1  0.25840430  0.97728618  0.87483978  1
  Sb  Sb3  1  0.24159570  0.47728618  0.62516022  1
  Sb  Sb4  1  0.21441442  0.45282993  0.13435530  1
  Sb  Sb5  1  0.28558558  0.95282993  0.36564470  1
  Sb  Sb6  1  0.42798259  0.68268224  0.62633826  1
  Sb  Sb7  1  0.51922258  0.19338901  0.79406092  1
  Sb  Sb8  1  0.48077742  0.80661099  0.20593908  1
  Sb  Sb9  1  0.57201741  0.31731776  0.37366174  1
  Sb  Sb10  1  0.71441442  0.04717007  0.63435530  1
  Sb  Sb11  1  0.78558558  0.54717007  0.86564470  1
  Sb  Sb12  1  0.75840430  0.52271382  0.37483978  1
  Sb  Sb13  1  0.74159570  0.02271382  0.12516022  1
  Sb  Sb14  1  0.92798259  0.81731776  0.12633826  1
  Sb  Sb15  1  0.01922258  0.30661099  0.29406092  1
  Cl  Cl16  1  0.09479358  0.99620532  0.39110299  1
  Cl  Cl17  1  0.40520642  0.49620532  0.10889701  1
  Cl  Cl18  1  0.59479358  0.50379468  0.89110299  1
  Cl  Cl19  1  0.90520642  0.00379468  0.60889701  1
  O  O20  1  0.00583004  0.07645186  0.78664524  1
  O  O21  1  0.12952809  0.50090808  0.73067801  1
  O  O22  1  0.26302529  0.46221654  0.92880119  1
  O  O23  1  0.00000000  0.50000000  0.00000000  1
  O  O24  1  0.11378174  0.41274660  0.13616602  1
  O  O25  1  0.26506993  0.45846298  0.43101463  1
  O  O26  1  0.23697471  0.96221654  0.57119881  1
  O  O27  1  0.37047191  0.00090808  0.76932199  1
  O  O28  1  0.49416996  0.57645186  0.71335476  1
  O  O29  1  0.23493007  0.95846298  0.06898537  1
  O  O30  1  0.38621826  0.91274660  0.36383398  1
  O  O31  1  0.50000000  0.00000000  0.50000000  1
  O  O32  1  0.61378174  0.08725240  0.63616602  1
  O  O33  1  0.76506993  0.04153702  0.93101463  1
  O  O34  1  0.50583004  0.42354814  0.28664524  1
  O  O35  1  0.62952809  0.99909192  0.23067801  1
  O  O36  1  0.76302529  0.03778346  0.42880119  1
  O  O37  1  0.73493007  0.54153702  0.56898537  1
  O  O38  1  0.88621826  0.58725340  0.86383398  1
  O  O39  1  0.73697471  0.53778346  0.07119881  1
  O  O40  1  0.87047191  0.49909192  0.26932199  1
  O  O41  1  0.99416996  0.92354814  0.21335476  1
