# generated using pymatgen
data_Li3Ti2(PO4)3
_symmetry_space_group_name_H-M   'P 1'
_cell_length_a   8.96726831
_cell_length_b   8.58302886
_cell_length_c   8.96726831
_cell_angle_alpha   120.57699089
_cell_angle_beta   120.82223011
_cell_angle_gamma   59.42300911
_symmetry_Int_Tables_number   1
_chemical_formula_structural   Li3Ti2(PO4)3
_chemical_formula_sum   'Li6 Ti4 P6 O24'
_cell_volume   480.70493733
_cell_formula_units_Z   2
loop_
 _symmetry_equiv_pos_site_id
 _symmetry_equiv_pos_as_xyz
  1  'x, y, z'
loop_
 _atom_site_type_symbol
 _atom_site_label
 _atom_site_symmetry_multiplicity
 _atom_site_fract_x
 _atom_site_fract_y
 _atom_site_fract_z
 _atom_site_occupancy
  Li  Li0  1  0.55710317  0.91968443  0.18509381  1
  Li  Li1  1  0.86787320  0.75000000  0.86787320  1
  Li  Li2  1  0.18509381  0.58031557  0.55710317  1
  Li  Li3  1  0.81490619  0.41968443  0.44289683  1
  Li  Li4  1  0.13212680  0.25000000  0.13212680  1
  Li  Li5  1  0.44289683  0.08031557  0.81490619  1
  Ti  Ti6  1  0.85757359  0.92986015  0.64661681  1
  Ti  Ti7  1  0.64661681  0.57013985  0.85757359  1
  Ti  Ti8  1  0.35338319  0.42986015  0.14242641  1
  Ti  Ti9  1  0.14242641  0.07013985  0.35338319  1
  P  P10  1  0.25303074  0.76542367  0.97261146  1
  P  P11  1  0.55055264  0.75000000  0.55055264  1
  P  P12  1  0.02738854  0.26542367  0.74696926  1
  P  P13  1  0.97261146  0.73457633  0.25303074  1
  P  P14  1  0.44944736  0.25000000  0.44944736  1
  P  P15  1  0.74696926  0.23457633  0.02738854  1
  O  O16  1  0.10449081  0.74983793  0.77732407  1
  O  O17  1  0.03108271  0.88144319  0.26243775  1
  O  O18  1  0.39535349  0.93684678  0.52088817  1
  O  O19  1  0.43788702  0.72666965  0.96614820  1
  O  O20  1  0.20526707  0.96819724  0.11638272  1
  O  O21  1  0.57164941  0.76915562  0.74421651  1
  O  O22  1  0.74421651  0.73084438  0.57164941  1
  O  O23  1  0.11638272  0.53180276  0.20526707  1
  O  O24  1  0.22267593  0.24983793  0.89550919  1
  O  O25  1  0.96614820  0.77333035  0.43788702  1
  O  O26  1  0.52088817  0.56315322  0.39535349  1
  O  O27  1  0.26243775  0.61855681  0.03108271  1
  O  O28  1  0.73756225  0.38144319  0.96891729  1
  O  O29  1  0.47911183  0.43684678  0.60464651  1
  O  O30  1  0.03385180  0.22666965  0.56211298  1
  O  O31  1  0.77732407  0.75016207  0.10449081  1
  O  O32  1  0.88361728  0.46819724  0.79473293  1
  O  O33  1  0.25578349  0.26915562  0.42835059  1
  O  O34  1  0.42835059  0.23084438  0.25578349  1
  O  O35  1  0.79473293  0.03180276  0.88361728  1
  O  O36  1  0.56211298  0.27333035  0.03385180  1
  O  O37  1  0.60464651  0.06315322  0.47911183  1
  O  O38  1  0.96891729  0.11855681  0.73756225  1
  O  O39  1  0.89550919  0.25016207  0.22267593  1
