# generated using pymatgen
data_Li2CuSiO4
_symmetry_space_group_name_H-M   'P 1'
_cell_length_a   5.04182841
_cell_length_b   5.04151195
_cell_length_c   11.42128475
_cell_angle_alpha   89.99960226
_cell_angle_beta   89.99752420
_cell_angle_gamma   120.00155249
_symmetry_Int_Tables_number   1
_chemical_formula_structural   Li2CuSiO4
_chemical_formula_sum   'Li6 Cu3 Si3 O12'
_cell_volume   251.41295837
_cell_formula_units_Z   3
loop_
 _symmetry_equiv_pos_site_id
 _symmetry_equiv_pos_as_xyz
  1  'x, y, z'
loop_
 _atom_site_type_symbol
 _atom_site_label
 _atom_site_symmetry_multiplicity
 _atom_site_fract_x
 _atom_site_fract_y
 _atom_site_fract_z
 _atom_site_occupancy
  Li  Li0  1  0.34116466  0.89640063  0.58608245  1
  Li  Li1  1  0.10353557  0.44467913  0.91945303  1
  Li  Li2  1  0.55526336  0.65901788  0.25275713  1
  Li  Li3  1  0.44472053  0.10372646  0.08050802  1
  Li  Li4  1  0.65888957  0.55524756  0.74723320  1
  Li  Li5  1  0.89639421  0.34099972  0.41395848  1
  Cu  Cu6  1  0.99994359  0.44985713  0.16670114  1
  Cu  Cu7  1  0.55022575  0.55018214  0.49996134  1
  Cu  Cu8  1  0.44976634  0.99991242  0.83332857  1
  Si  Si9  1  0.00004018  0.19046385  0.66667212  1
  Si  Si10  1  0.19051001  0.00003017  0.33330809  1
  Si  Si11  1  0.80946110  0.80952381  0.00001944  1
  O  O12  1  0.14112718  0.85394620  0.95661072  1
  O  O13  1  0.13404005  0.44319982  0.55910691  1
  O  O14  1  0.30928217  0.86620343  0.22570341  1
  O  O15  1  0.14600962  0.28730363  0.28999372  1
  O  O16  1  0.28724114  0.14594259  0.71004732  1
  O  O17  1  0.71283431  0.85877137  0.62326313  1
  O  O18  1  0.55674821  0.69072021  0.89245119  1
  O  O19  1  0.69070831  0.55683938  0.10760184  1
  O  O20  1  0.44318832  0.13387803  0.44089018  1
  O  O21  1  0.85883207  0.71270595  0.37666969  1
  O  O22  1  0.85400602  0.14127060  0.04340053  1
  O  O23  1  0.86606574  0.30917889  0.77424534  1
