# generated using pymatgen
data_Mn4Cu
_symmetry_space_group_name_H-M   'P 1'
_cell_length_a   2.49156169
_cell_length_b   2.49156169
_cell_length_c   10.45266287
_cell_angle_alpha   83.15504022
_cell_angle_beta   90.00000000
_cell_angle_gamma   120.00000000
_symmetry_Int_Tables_number   1
_chemical_formula_structural   Mn4Cu
_chemical_formula_sum   'Mn4 Cu1'
_cell_volume   55.66071286
_cell_formula_units_Z   1
loop_
 _symmetry_equiv_pos_site_id
 _symmetry_equiv_pos_as_xyz
  1  'x, y, z'
loop_
 _atom_site_type_symbol
 _atom_site_label
 _atom_site_symmetry_multiplicity
 _atom_site_fract_x
 _atom_site_fract_y
 _atom_site_fract_z
 _atom_site_occupancy
  Mn  Mn0  1  0.59634686  0.19269372  0.21095942  1
  Mn  Mn1  1  0.20097677  0.40195354  0.39706969  1
  Mn  Mn2  1  0.79902323  0.59804646  0.60293031  1
  Mn  Mn3  1  0.40365314  0.80730628  0.78904058  1
  Cu  Cu4  1  -0.00000000  -0.00000000  -0.00000000  1
