# generated using pymatgen
data_LiCuPO4
_symmetry_space_group_name_H-M   'P 1'
_cell_length_a   10.83288829
_cell_length_b   6.22966494
_cell_length_c   5.19733185
_cell_angle_alpha   90.00000000
_cell_angle_beta   90.00000000
_cell_angle_gamma   90.00000000
_symmetry_Int_Tables_number   1
_chemical_formula_structural   LiCuPO4
_chemical_formula_sum   'Li4 Cu4 P4 O16'
_cell_volume   350.74331396
_cell_formula_units_Z   4
loop_
 _symmetry_equiv_pos_site_id
 _symmetry_equiv_pos_as_xyz
  1  'x, y, z'
loop_
 _atom_site_type_symbol
 _atom_site_label
 _atom_site_symmetry_multiplicity
 _atom_site_fract_x
 _atom_site_fract_y
 _atom_site_fract_z
 _atom_site_occupancy
  Li  Li0  1  0.16667629  0.50983432  0.25070383  1
  Li  Li1  1  0.33332371  0.00983432  0.75070383  1
  Li  Li2  1  0.66667629  0.99016568  0.25070383  1
  Li  Li3  1  0.83332371  0.49016568  0.75070383  1
  Cu  Cu4  1  0.08708158  0.77120930  0.74388438  1
  Cu  Cu5  1  0.41291842  0.27120930  0.24388438  1
  Cu  Cu6  1  0.58708158  0.72879070  0.74388438  1
  Cu  Cu7  1  0.91291842  0.22879070  0.24388438  1
  P  P8  1  0.16965692  0.00551986  0.25004170  1
  P  P9  1  0.33034308  0.50551986  0.75004170  1
  P  P10  1  0.66965692  0.49448014  0.25004170  1
  P  P11  1  0.83034308  0.99448014  0.75004170  1
  O  O12  1  0.08797636  0.20481945  0.18968675  1
  O  O13  1  0.11594097  0.79849282  0.13086982  1
  O  O14  1  0.19905219  0.54564255  0.63606600  1
  O  O15  1  0.18096137  0.98171256  0.54459851  1
  O  O16  1  0.31903863  0.48171256  0.04459851  1
  O  O17  1  0.30094781  0.04564255  0.13606600  1
  O  O18  1  0.38405903  0.29849282  0.63086982  1
  O  O19  1  0.41202364  0.70481945  0.68968675  1
  O  O20  1  0.58797636  0.29518055  0.18968675  1
  O  O21  1  0.61594097  0.70150718  0.13086982  1
  O  O22  1  0.69905219  0.95435745  0.63606600  1
  O  O23  1  0.68096137  0.51828744  0.54459851  1
  O  O24  1  0.81903863  0.01828744  0.04459851  1
  O  O25  1  0.80094781  0.45435745  0.13606600  1
  O  O26  1  0.88405903  0.20150718  0.63086982  1
  O  O27  1  0.91202364  0.79518055  0.68968675  1
