# generated using pymatgen
data_LiBi(PO3)4
_symmetry_space_group_name_H-M   'P 1'
_cell_length_a   7.23838125
_cell_length_b   9.12199675
_cell_length_c   9.16317977
_cell_angle_alpha   113.49967530
_cell_angle_beta   113.26416781
_cell_angle_gamma   66.62457526
_symmetry_Int_Tables_number   1
_chemical_formula_structural   LiBi(PO3)4
_chemical_formula_sum   'Li2 Bi2 P8 O24'
_cell_volume   488.75068984
_cell_formula_units_Z   2
loop_
 _symmetry_equiv_pos_site_id
 _symmetry_equiv_pos_as_xyz
  1  'x, y, z'
loop_
 _atom_site_type_symbol
 _atom_site_label
 _atom_site_symmetry_multiplicity
 _atom_site_fract_x
 _atom_site_fract_y
 _atom_site_fract_z
 _atom_site_occupancy
  Li  Li0  1  0.00000000  0.50000000  0.50000000  1
  Li  Li1  1  0.00000000  0.00000000  0.00000000  1
  Bi  Bi2  1  0.75471775  0.75000000  0.75000000  1
  Bi  Bi3  1  0.24528225  0.25000000  0.25000000  1
  P  P4  1  0.68945631  0.88775124  0.16196416  1
  P  P5  1  0.31320530  0.79403370  0.09441560  1
  P  P6  1  0.01282241  0.70596630  0.40558440  1
  P  P7  1  0.41524439  0.61224876  0.33803584  1
  P  P8  1  0.58475561  0.38775124  0.66196416  1
  P  P9  1  0.98717759  0.29403370  0.59441560  1
  P  P10  1  0.68679470  0.20596630  0.90558440  1
  P  P11  1  0.31054369  0.11224876  0.83803584  1
  O  O12  1  0.24324285  0.96447492  0.21254099  1
  O  O13  1  0.82493993  0.82897030  0.04813354  1
  O  O14  1  0.83298688  0.85592568  0.33838237  1
  O  O15  1  0.54639505  0.76269582  0.08846111  1
  O  O16  1  0.43668508  0.93232254  0.79937915  1
  O  O17  1  0.22062875  0.73730418  0.41153889  1
  O  O18  1  0.35053020  0.64407432  0.16161763  1
  O  O19  1  0.01002111  0.72996751  0.57610260  1
  O  O20  1  0.60577669  0.67102970  0.45186646  1
  O  O21  1  0.16388702  0.77003249  0.92389740  1
  O  O22  1  0.99517677  0.53552508  0.28745901  1
  O  O23  1  0.56962747  0.56767746  0.70062085  1
  O  O24  1  0.43037253  0.43232254  0.29937915  1
  O  O25  1  0.00482323  0.46447492  0.71254099  1
  O  O26  1  0.83611298  0.22996751  0.07610260  1
  O  O27  1  0.39422331  0.32897030  0.54813354  1
  O  O28  1  0.98997889  0.27003249  0.42389740  1
  O  O29  1  0.64946980  0.35592568  0.83838237  1
  O  O30  1  0.77937125  0.26269582  0.58846111  1
  O  O31  1  0.56331492  0.06767746  0.20062085  1
  O  O32  1  0.45360495  0.23730418  0.91153889  1
  O  O33  1  0.16701312  0.14407432  0.66161763  1
  O  O34  1  0.17506007  0.17102970  0.95186646  1
  O  O35  1  0.75675715  0.03552508  0.78745901  1
