# generated using pymatgen
data_LiCuF4
_symmetry_space_group_name_H-M   'P 1'
_cell_length_a   10.19683958
_cell_length_b   7.27337855
_cell_length_c   7.43919323
_cell_angle_alpha   89.96465892
_cell_angle_beta   90.02586419
_cell_angle_gamma   90.21597411
_symmetry_Int_Tables_number   1
_chemical_formula_structural   LiCuF4
_chemical_formula_sum   'Li8 Cu8 F32'
_cell_volume   551.72721422
_cell_formula_units_Z   8
loop_
 _symmetry_equiv_pos_site_id
 _symmetry_equiv_pos_as_xyz
  1  'x, y, z'
loop_
 _atom_site_type_symbol
 _atom_site_label
 _atom_site_symmetry_multiplicity
 _atom_site_fract_x
 _atom_site_fract_y
 _atom_site_fract_z
 _atom_site_occupancy
  Li  Li0  1  0.02049483  0.75018719  0.37413751  1
  Li  Li1  1  0.02999159  0.74992845  0.90112424  1
  Li  Li2  1  0.47004428  0.24974937  0.40064688  1
  Li  Li3  1  0.47946661  0.25002713  0.87455544  1
  Li  Li4  1  0.52046432  0.75011722  0.12562834  1
  Li  Li5  1  0.53000943  0.75052130  0.59918967  1
  Li  Li6  1  0.97008471  0.24991208  0.09907750  1
  Li  Li7  1  0.97947443  0.24946522  0.62568998  1
  Cu  Cu8  1  0.24759847  0.00113129  0.12354613  1
  Cu  Cu9  1  0.24781413  0.49880235  0.12348741  1
  Cu  Cu10  1  0.25216362  0.99873562  0.62350282  1
  Cu  Cu11  1  0.25253280  0.50110642  0.62348859  1
  Cu  Cu12  1  0.74777641  0.00120834  0.37646551  1
  Cu  Cu13  1  0.74766647  0.49882226  0.37649210  1
  Cu  Cu14  1  0.75204171  0.50124572  0.87643418  1
  Cu  Cu15  1  0.75223152  0.99876263  0.87650059  1
  F  F16  1  0.07441475  0.57857892  0.14115183  1
  F  F17  1  0.07398368  0.92096285  0.14139873  1
  F  F18  1  0.08204309  0.57999010  0.60141680  1
  F  F19  1  0.08194275  0.91995331  0.60166696  1
  F  F20  1  0.17275624  0.25066097  0.09283588  1
  F  F21  1  0.18081260  0.25053250  0.65441536  1
  F  F22  1  0.23734490  0.95387188  0.87352224  1
  F  F23  1  0.23743253  0.54615832  0.87378109  1
  F  F24  1  0.26264534  0.04622353  0.37326494  1
  F  F25  1  0.26264757  0.45392353  0.37298080  1
  F  F26  1  0.31912013  0.74938691  0.15435755  1
  F  F27  1  0.32728157  0.74946198  0.59281999  1
  F  F28  1  0.41814219  0.08024276  0.10156889  1
  F  F29  1  0.41760154  0.42036020  0.10184676  1
  F  F30  1  0.42602886  0.07889222  0.64131802  1
  F  F31  1  0.42567765  0.42119984  0.64149507  1
  F  F32  1  0.57429199  0.57882343  0.35857550  1
  F  F33  1  0.57393575  0.92116295  0.35876667  1
  F  F34  1  0.58233522  0.57982137  0.89819556  1
  F  F35  1  0.58197453  0.92001199  0.89839786  1
  F  F36  1  0.67273403  0.25085964  0.40717964  1
  F  F37  1  0.68093535  0.25077981  0.84557258  1
  F  F38  1  0.73742580  0.54604264  0.62695264  1
  F  F39  1  0.73734816  0.95374306  0.62700420  1
  F  F40  1  0.76271177  0.04623523  0.12625666  1
  F  F41  1  0.76255874  0.45391958  0.12634147  1
  F  F42  1  0.81918271  0.74910425  0.34560152  1
  F  F43  1  0.82716257  0.74917280  0.90715643  1
  F  F44  1  0.91816871  0.08003784  0.39834823  1
  F  F45  1  0.91783536  0.42004451  0.39854480  1
  F  F46  1  0.92592797  0.07887323  0.85858581  1
  F  F47  1  0.92574064  0.42124524  0.85871263  1
