# generated using pymatgen
data_Li2SbP3O10
_symmetry_space_group_name_H-M   'P 1'
_cell_length_a   12.91996756
_cell_length_b   7.86768269
_cell_length_c   10.05672021
_cell_angle_alpha   90.00000000
_cell_angle_beta   102.66495473
_cell_angle_gamma   90.00000000
_symmetry_Int_Tables_number   1
_chemical_formula_structural   Li2SbP3O10
_chemical_formula_sum   'Li8 Sb4 P12 O40'
_cell_volume   997.39470548
_cell_formula_units_Z   4
loop_
 _symmetry_equiv_pos_site_id
 _symmetry_equiv_pos_as_xyz
  1  'x, y, z'
loop_
 _atom_site_type_symbol
 _atom_site_label
 _atom_site_symmetry_multiplicity
 _atom_site_fract_x
 _atom_site_fract_y
 _atom_site_fract_z
 _atom_site_occupancy
  Li  Li0  1  0.14384514  0.52249010  0.42973272  1
  Li  Li1  1  0.14384514  0.97750990  0.92973272  1
  Li  Li2  1  0.42870018  0.09214169  0.89091567  1
  Li  Li3  1  0.42870018  0.40785831  0.39091567  1
  Li  Li4  1  0.57129982  0.59214169  0.60908433  1
  Li  Li5  1  0.57129982  0.90785831  0.10908433  1
  Li  Li6  1  0.85615486  0.02249010  0.07026728  1
  Li  Li7  1  0.85615486  0.47750990  0.57026728  1
  Sb  Sb8  1  0.17974421  0.91083944  0.61954661  1
  Sb  Sb9  1  0.17974421  0.58916056  0.11954661  1
  Sb  Sb10  1  0.82025579  0.41083944  0.88045339  1
  Sb  Sb11  1  0.82025579  0.08916056  0.38045339  1
  P  P12  1  0.07890442  0.57091657  0.77020664  1
  P  P13  1  0.07890442  0.92908343  0.27020664  1
  P  P14  1  0.28282923  0.40905039  0.88033732  1
  P  P15  1  0.28282923  0.09094961  0.38033732  1
  P  P16  1  0.34031826  0.77474218  0.94514702  1
  P  P17  1  0.34031826  0.72525782  0.44514702  1
  P  P18  1  0.65968174  0.27474218  0.55485298  1
  P  P19  1  0.65968174  0.22525782  0.05485298  1
  P  P20  1  0.71717077  0.90905039  0.61966268  1
  P  P21  1  0.71717077  0.59094961  0.11966268  1
  P  P22  1  0.92109558  0.07091657  0.72979336  1
  P  P23  1  0.92109558  0.42908343  0.22979336  1
  O  O24  1  0.09917256  0.66425482  0.90902377  1
  O  O25  1  0.03273253  0.00401381  0.77530631  1
  O  O26  1  0.11159804  0.67175376  0.65340711  1
  O  O27  1  0.09917256  0.83574518  0.40902377  1
  O  O28  1  0.03273253  0.49598619  0.27530631  1
  O  O29  1  0.11159804  0.82824624  0.15340711  1
  O  O30  1  0.16109471  0.41044614  0.79098934  1
  O  O31  1  0.16109471  0.08955386  0.29098934  1
  O  O32  1  0.26612276  0.90447783  0.85571810  1
  O  O33  1  0.27568179  0.10947999  0.52872007  1
  O  O34  1  0.30222763  0.75770340  0.58030369  1
  O  O35  1  0.26612276  0.59552217  0.35571810  1
  O  O36  1  0.27568179  0.39052001  0.02872007  1
  O  O37  1  0.32864721  0.59750014  0.86000423  1
  O  O38  1  0.30222763  0.74229660  0.08030369  1
  O  O39  1  0.34246726  0.28074975  0.81907412  1
  O  O40  1  0.32864721  0.90249986  0.36000423  1
  O  O41  1  0.34246726  0.21925025  0.31907412  1
  O  O42  1  0.45316470  0.83652389  0.96925441  1
  O  O43  1  0.45316470  0.66347611  0.46925441  1
  O  O44  1  0.54683530  0.33652389  0.53074559  1
  O  O45  1  0.54683530  0.16347611  0.03074559  1
  O  O46  1  0.65753274  0.78074975  0.68092588  1
  O  O47  1  0.67135279  0.09750014  0.63999577  1
  O  O48  1  0.65753274  0.71925025  0.18092588  1
  O  O49  1  0.69777237  0.25770340  0.91969631  1
  O  O50  1  0.67135279  0.40249986  0.13999577  1
  O  O51  1  0.72431821  0.60947999  0.97127993  1
  O  O52  1  0.73387724  0.40447783  0.64428190  1
  O  O53  1  0.69777237  0.24229660  0.41969631  1
  O  O54  1  0.72431821  0.89052001  0.47127993  1
  O  O55  1  0.73387724  0.09552217  0.14428190  1
  O  O56  1  0.83890529  0.91044614  0.70901066  1
  O  O57  1  0.83890529  0.58955386  0.20901066  1
  O  O58  1  0.88840196  0.17175376  0.84659289  1
  O  O59  1  0.96726747  0.50401381  0.72469369  1
  O  O60  1  0.90082744  0.16425482  0.59097623  1
  O  O61  1  0.88840196  0.32824624  0.34659289  1
  O  O62  1  0.96726747  0.99598619  0.22469369  1
  O  O63  1  0.90082744  0.33574518  0.09097623  1
