# generated using pymatgen
data_LiCuPO4
_symmetry_space_group_name_H-M   'P 1'
_cell_length_a   5.79886931
_cell_length_b   10.30477026
_cell_length_c   9.95879281
_cell_angle_alpha   90.00000000
_cell_angle_beta   91.76659498
_cell_angle_gamma   90.00000000
_symmetry_Int_Tables_number   1
_chemical_formula_structural   LiCuPO4
_chemical_formula_sum   'Li8 Cu8 P8 O32'
_cell_volume   594.81493442
_cell_formula_units_Z   8
loop_
 _symmetry_equiv_pos_site_id
 _symmetry_equiv_pos_as_xyz
  1  'x, y, z'
loop_
 _atom_site_type_symbol
 _atom_site_label
 _atom_site_symmetry_multiplicity
 _atom_site_fract_x
 _atom_site_fract_y
 _atom_site_fract_z
 _atom_site_occupancy
  Li  Li0  1  0.13119585  0.14372415  0.88786678  1
  Li  Li1  1  0.13119585  0.35627585  0.38786678  1
  Li  Li2  1  0.38760992  0.66146386  0.63892297  1
  Li  Li3  1  0.38760992  0.83853614  0.13892297  1
  Li  Li4  1  0.61239008  0.16146386  0.86107703  1
  Li  Li5  1  0.61239008  0.33853614  0.36107703  1
  Li  Li6  1  0.86880415  0.64372415  0.61213322  1
  Li  Li7  1  0.86880415  0.85627585  0.11213322  1
  Cu  Cu8  1  0.12244785  0.90768682  0.72882056  1
  Cu  Cu9  1  0.12244785  0.59231318  0.22882056  1
  Cu  Cu10  1  0.34458677  0.37676708  0.98543388  1
  Cu  Cu11  1  0.34458677  0.12323292  0.48543388  1
  Cu  Cu12  1  0.65541323  0.87676708  0.51456612  1
  Cu  Cu13  1  0.65541323  0.62323292  0.01456612  1
  Cu  Cu14  1  0.87755215  0.40768682  0.77117944  1
  Cu  Cu15  1  0.87755215  0.09231318  0.27117944  1
  P  P16  1  0.12590596  0.64519728  0.90957786  1
  P  P17  1  0.12590596  0.85480272  0.40957786  1
  P  P18  1  0.37393033  0.38883296  0.66540844  1
  P  P19  1  0.37393033  0.11116704  0.16540844  1
  P  P20  1  0.62606967  0.88883296  0.83459156  1
  P  P21  1  0.62606967  0.61116704  0.33459156  1
  P  P22  1  0.87409404  0.14519728  0.59042214  1
  P  P23  1  0.87409404  0.35480272  0.09042214  1
  O  O24  1  0.09285798  0.78201978  0.54341140  1
  O  O25  1  0.10228338  0.06694356  0.62436087  1
  O  O26  1  0.09285798  0.71798022  0.04341140  1
  O  O27  1  0.10228338  0.43305644  0.12436087  1
  O  O28  1  0.17037949  0.73453180  0.78968623  1
  O  O29  1  0.14992836  0.47219890  0.65101186  1
  O  O30  1  0.17037949  0.76546820  0.28968623  1
  O  O31  1  0.14992836  0.02780110  0.15101186  1
  O  O32  1  0.33751849  0.55294396  0.92060207  1
  O  O33  1  0.36925875  0.29998908  0.79347617  1
  O  O34  1  0.33751849  0.94705604  0.42060207  1
  O  O35  1  0.38888887  0.30344620  0.53495576  1
  O  O36  1  0.41500368  0.98236968  0.82998152  1
  O  O37  1  0.36925875  0.20001092  0.29347617  1
  O  O38  1  0.38888887  0.19655380  0.03495576  1
  O  O39  1  0.41500368  0.51763032  0.32998152  1
  O  O40  1  0.58499632  0.48236968  0.67001848  1
  O  O41  1  0.61111113  0.80344620  0.96504424  1
  O  O42  1  0.63074125  0.79998908  0.70652383  1
  O  O43  1  0.58499632  0.01763032  0.17001848  1
  O  O44  1  0.61111113  0.69655380  0.46504424  1
  O  O45  1  0.66248151  0.05294396  0.57939793  1
  O  O46  1  0.63074125  0.70001092  0.20652383  1
  O  O47  1  0.66248151  0.44705604  0.07939793  1
  O  O48  1  0.85007164  0.97219890  0.84898814  1
  O  O49  1  0.82962051  0.23453180  0.71031377  1
  O  O50  1  0.85007164  0.52780110  0.34898814  1
  O  O51  1  0.82962051  0.26546820  0.21031377  1
  O  O52  1  0.89771662  0.56694356  0.87563913  1
  O  O53  1  0.90714302  0.28201978  0.95658860  1
  O  O54  1  0.89771662  0.93305644  0.37563913  1
  O  O55  1  0.90714302  0.21798022  0.45658860  1
