# generated using pymatgen
data_Nb5O12F
_symmetry_space_group_name_H-M   'P 1'
_cell_length_a   6.37889470
_cell_length_b   18.37823042
_cell_length_c   3.89218809
_cell_angle_alpha   90.00000000
_cell_angle_beta   90.00000000
_cell_angle_gamma   90.00000000
_symmetry_Int_Tables_number   1
_chemical_formula_structural   Nb5O12F
_chemical_formula_sum   'Nb10 O24 F2'
_cell_volume   456.29209477
_cell_formula_units_Z   2
loop_
 _symmetry_equiv_pos_site_id
 _symmetry_equiv_pos_as_xyz
  1  'x, y, z'
loop_
 _atom_site_type_symbol
 _atom_site_label
 _atom_site_symmetry_multiplicity
 _atom_site_fract_x
 _atom_site_fract_y
 _atom_site_fract_z
 _atom_site_occupancy
  Nb  Nb0  1  0.22742484  0.64518273  0.00000000  1
  Nb  Nb1  1  0.22742484  0.85481727  0.00000000  1
  Nb  Nb2  1  0.21812383  0.25000000  0.00000000  1
  Nb  Nb3  1  0.30899148  0.06341173  0.00000000  1
  Nb  Nb4  1  0.30899148  0.43658827  0.00000000  1
  Nb  Nb5  1  0.69100852  0.56341173  0.00000000  1
  Nb  Nb6  1  0.69100852  0.93658827  0.00000000  1
  Nb  Nb7  1  0.78187617  0.75000000  0.00000000  1
  Nb  Nb8  1  0.77257516  0.35481727  0.00000000  1
  Nb  Nb9  1  0.77257516  0.14518273  0.00000000  1
  O  O10  1  0.09390335  0.14390338  0.00000000  1
  O  O11  1  0.09390335  0.35609662  0.00000000  1
  O  O12  1  0.14529245  0.75000000  0.00000000  1
  O  O13  1  0.20762613  0.63371525  0.50000000  1
  O  O14  1  0.20762613  0.86628475  0.50000000  1
  O  O15  1  0.20435807  0.25000000  0.50000000  1
  O  O16  1  0.29296913  0.05964991  0.50000000  1
  O  O17  1  0.29296913  0.44035009  0.50000000  1
  O  O18  1  0.37611965  0.54769639  0.00000000  1
  O  O19  1  0.37611965  0.95230361  0.00000000  1
  O  O20  1  0.46551937  0.17402217  0.00000000  1
  O  O21  1  0.46551937  0.32597783  0.00000000  1
  O  O22  1  0.53448063  0.67402217  0.00000000  1
  O  O23  1  0.53448063  0.82597783  0.00000000  1
  O  O24  1  0.62388035  0.04769639  0.00000000  1
  O  O25  1  0.62388035  0.45230361  0.00000000  1
  O  O26  1  0.70703087  0.55964991  0.50000000  1
  O  O27  1  0.70703087  0.94035009  0.50000000  1
  O  O28  1  0.79564193  0.75000000  0.50000000  1
  O  O29  1  0.79237387  0.36628475  0.50000000  1
  O  O30  1  0.79237387  0.13371525  0.50000000  1
  O  O31  1  0.85470755  0.25000000  0.00000000  1
  O  O32  1  0.90609665  0.64390338  0.00000000  1
  O  O33  1  0.90609665  0.85609662  0.00000000  1
  F  F34  1  0.00000000  0.00000000  0.00000000  1
  F  F35  1  0.00000000  0.50000000  0.00000000  1
