# generated using pymatgen
data_LiBi3(P3O10)2
_symmetry_space_group_name_H-M   'P 1'
_cell_length_a   8.65019963
_cell_length_b   8.65019963
_cell_length_c   12.94974307
_cell_angle_alpha   90.00000000
_cell_angle_beta   90.00000000
_cell_angle_gamma   74.15830917
_symmetry_Int_Tables_number   1
_chemical_formula_structural   LiBi3(P3O10)2
_chemical_formula_sum   'Li2 Bi6 P12 O40'
_cell_volume   932.17476084
_cell_formula_units_Z   2
loop_
 _symmetry_equiv_pos_site_id
 _symmetry_equiv_pos_as_xyz
  1  'x, y, z'
loop_
 _atom_site_type_symbol
 _atom_site_label
 _atom_site_symmetry_multiplicity
 _atom_site_fract_x
 _atom_site_fract_y
 _atom_site_fract_z
 _atom_site_occupancy
  Li  Li0  1  0.56648064  0.43351936  0.00000000  1
  Li  Li1  1  0.43351936  0.56648064  0.50000000  1
  Bi  Bi2  1  0.12428501  0.87571499  0.50000000  1
  Bi  Bi3  1  0.28207131  0.28207131  0.25000000  1
  Bi  Bi4  1  0.71792869  0.71792869  0.75000000  1
  Bi  Bi5  1  0.24249944  0.24249944  0.75000000  1
  Bi  Bi6  1  0.75750056  0.75750056  0.25000000  1
  Bi  Bi7  1  0.87571499  0.12428501  0.00000000  1
  P  P8  1  0.39103597  0.87042898  0.16726213  1
  P  P9  1  0.12957102  0.60896403  0.83273787  1
  P  P10  1  0.30012842  0.79764229  0.71483126  1
  P  P11  1  0.20235771  0.69987158  0.28516874  1
  P  P12  1  0.71738617  0.86358867  0.51845286  1
  P  P13  1  0.13641133  0.28261383  0.48154714  1
  P  P14  1  0.28261383  0.13641133  0.01845286  1
  P  P15  1  0.86358867  0.71738617  0.98154714  1
  P  P16  1  0.69987158  0.20235771  0.21483126  1
  P  P17  1  0.79764229  0.30012842  0.78516874  1
  P  P18  1  0.60896403  0.12957102  0.66726213  1
  P  P19  1  0.87042898  0.39103597  0.33273787  1
  O  O20  1  0.22430202  0.83429416  0.20189118  1
  O  O21  1  0.16570584  0.77569798  0.79810882  1
  O  O22  1  0.34734954  0.94701683  0.05563066  1
  O  O23  1  0.05298317  0.65265046  0.94436934  1
  O  O24  1  0.28844487  0.69912580  0.61423401  1
  O  O25  1  0.30087420  0.71155513  0.38576599  1
  O  O26  1  0.57436552  0.00990191  0.74239844  1
  O  O27  1  0.99009809  0.42563448  0.25760156  1
  O  O28  1  0.26689645  0.54294760  0.22826501  1
  O  O29  1  0.45705240  0.73310355  0.77173499  1
  O  O30  1  0.97517514  0.23875845  0.81698408  1
  O  O31  1  0.76124155  0.02482486  0.18301592  1
  O  O32  1  0.52600378  0.71796135  0.15509674  1
  O  O33  1  0.28203865  0.47399622  0.84490326  1
  O  O34  1  0.68278072  0.88024704  0.40468896  1
  O  O35  1  0.11975296  0.31721928  0.59531104  1
  O  O36  1  0.81448546  0.89542173  0.94688748  1
  O  O37  1  0.10457827  0.18551454  0.05311252  1
  O  O38  1  0.62848123  0.75817738  0.57580839  1
  O  O39  1  0.24182262  0.37151877  0.42419161  1
  O  O40  1  0.37151877  0.24182262  0.07580839  1
  O  O41  1  0.75817738  0.62848123  0.92419161  1
  O  O42  1  0.18551454  0.10457827  0.44688748  1
  O  O43  1  0.89542173  0.81448546  0.55311252  1
  O  O44  1  0.31721928  0.11975296  0.90468896  1
  O  O45  1  0.88024704  0.68278072  0.09531104  1
  O  O46  1  0.47399622  0.28203865  0.65509674  1
  O  O47  1  0.71796135  0.52600378  0.34490326  1
  O  O48  1  0.23875845  0.97517514  0.68301592  1
  O  O49  1  0.02482486  0.76124155  0.31698408  1
  O  O50  1  0.73310355  0.45705240  0.72826501  1
  O  O51  1  0.54294760  0.26689645  0.27173499  1
  O  O52  1  0.42563448  0.99009809  0.24239844  1
  O  O53  1  0.00990191  0.57436552  0.75760156  1
  O  O54  1  0.71155513  0.30087420  0.11423401  1
  O  O55  1  0.69912580  0.28844487  0.88576599  1
  O  O56  1  0.65265046  0.05298317  0.55563066  1
  O  O57  1  0.94701683  0.34734954  0.44436934  1
  O  O58  1  0.77569798  0.16570584  0.70189118  1
  O  O59  1  0.83429416  0.22430202  0.29810882  1
