# generated using pymatgen
data_Li2Mn(SiO3)2
_symmetry_space_group_name_H-M   'P 1'
_cell_length_a   10.30425157
_cell_length_b   7.22742821
_cell_length_c   10.08134255
_cell_angle_alpha   90.00000000
_cell_angle_beta   90.00000000
_cell_angle_gamma   90.00000000
_symmetry_Int_Tables_number   1
_chemical_formula_structural   Li2Mn(SiO3)2
_chemical_formula_sum   'Li12 Mn6 Si12 O36'
_cell_volume   750.79022792
_cell_formula_units_Z   6
loop_
 _symmetry_equiv_pos_site_id
 _symmetry_equiv_pos_as_xyz
  1  'x, y, z'
loop_
 _atom_site_type_symbol
 _atom_site_label
 _atom_site_symmetry_multiplicity
 _atom_site_fract_x
 _atom_site_fract_y
 _atom_site_fract_z
 _atom_site_occupancy
  Li  Li0  1  0.00000000  0.78220190  0.24390140  1
  Li  Li1  1  0.00000000  0.76147968  0.76261652  1
  Li  Li2  1  0.23339567  0.28640048  0.45175240  1
  Li  Li3  1  0.23768941  0.22224831  0.04128946  1
  Li  Li4  1  0.26231059  0.77775169  0.54128946  1
  Li  Li5  1  0.26660433  0.71359952  0.95175240  1
  Li  Li6  1  0.50000000  0.23852032  0.26261652  1
  Li  Li7  1  0.50000000  0.21779810  0.74390140  1
  Li  Li8  1  0.73339567  0.71359952  0.95175240  1
  Li  Li9  1  0.73768941  0.77775169  0.54128946  1
  Li  Li10  1  0.76231059  0.22224831  0.04128946  1
  Li  Li11  1  0.76660433  0.28640048  0.45175240  1
  Mn  Mn12  1  0.00000000  0.25172442  0.24669818  1
  Mn  Mn13  1  0.00000000  0.98144936  0.01188308  1
  Mn  Mn14  1  0.00000000  0.52182949  0.48006388  1
  Mn  Mn15  1  0.50000000  0.01855064  0.51188308  1
  Mn  Mn16  1  0.50000000  0.47817051  0.98006388  1
  Mn  Mn17  1  0.50000000  0.74827558  0.74669818  1
  Si  Si18  1  0.00000000  0.98802111  0.52712137  1
  Si  Si19  1  0.00000000  0.51280710  0.96866723  1
  Si  Si20  1  0.22481015  0.02485371  0.74753928  1
  Si  Si21  1  0.22499221  0.47428206  0.74887073  1
  Si  Si22  1  0.27500779  0.52571794  0.24887073  1
  Si  Si23  1  0.27518985  0.97514629  0.24753928  1
  Si  Si24  1  0.50000000  0.48719290  0.46866723  1
  Si  Si25  1  0.50000000  0.01197889  0.02712137  1
  Si  Si26  1  0.72481015  0.97514629  0.24753928  1
  Si  Si27  1  0.72499221  0.52571794  0.24887073  1
  Si  Si28  1  0.77500779  0.47428206  0.74887073  1
  Si  Si29  1  0.77518985  0.02485371  0.74753928  1
  O  O30  1  0.00000000  0.30288117  0.02521598  1
  O  O31  1  0.00000000  0.68782007  0.06852169  1
  O  O32  1  0.00000000  0.19654940  0.46964121  1
  O  O33  1  0.00000000  0.81201401  0.42837227  1
  O  O34  1  0.13642524  0.04243138  0.18812472  1
  O  O35  1  0.12134400  0.55260109  0.86282186  1
  O  O36  1  0.12354597  0.94942358  0.63053776  1
  O  O37  1  0.13933776  0.44907559  0.30911222  1
  O  O38  1  0.17329676  0.94252422  0.88803910  1
  O  O39  1  0.17901881  0.54350343  0.60297353  1
  O  O40  1  0.27854486  0.75103076  0.25600004  1
  O  O41  1  0.22145514  0.24896924  0.75600004  1
  O  O42  1  0.32098119  0.45649657  0.10297353  1
  O  O43  1  0.32670324  0.05747578  0.38803910  1
  O  O44  1  0.36066224  0.55092441  0.80911222  1
  O  O45  1  0.37645403  0.05057642  0.13053776  1
  O  O46  1  0.37865600  0.44739891  0.36282186  1
  O  O47  1  0.36357476  0.95756862  0.68812472  1
  O  O48  1  0.50000000  0.69711883  0.52521598  1
  O  O49  1  0.50000000  0.31217993  0.56852169  1
  O  O50  1  0.50000000  0.18798599  0.92837227  1
  O  O51  1  0.50000000  0.80345060  0.96964121  1
  O  O52  1  0.63642524  0.95756862  0.68812472  1
  O  O53  1  0.62134400  0.44739891  0.36282186  1
  O  O54  1  0.62354597  0.05057642  0.13053776  1
  O  O55  1  0.63933776  0.55092441  0.80911222  1
  O  O56  1  0.67329676  0.05747578  0.38803910  1
  O  O57  1  0.67901881  0.45649657  0.10297353  1
  O  O58  1  0.77854486  0.24896924  0.75600004  1
  O  O59  1  0.72145514  0.75103076  0.25600004  1
  O  O60  1  0.82098119  0.54350343  0.60297353  1
  O  O61  1  0.82670324  0.94252422  0.88803910  1
  O  O62  1  0.86066224  0.44907559  0.30911222  1
  O  O63  1  0.87645403  0.94942358  0.63053776  1
  O  O64  1  0.87865600  0.55260109  0.86282186  1
  O  O65  1  0.86357476  0.04243138  0.18812472  1
