# generated using pymatgen
data_LiSbF4
_symmetry_space_group_name_H-M   'P 1'
_cell_length_a   10.21185025
_cell_length_b   12.63326772
_cell_length_c   12.96930228
_cell_angle_alpha   88.24621124
_cell_angle_beta   89.46065675
_cell_angle_gamma   72.77334906
_symmetry_Int_Tables_number   1
_chemical_formula_structural   LiSbF4
_chemical_formula_sum   'Li16 Sb16 F64'
_cell_volume   1597.35186282
_cell_formula_units_Z   16
loop_
 _symmetry_equiv_pos_site_id
 _symmetry_equiv_pos_as_xyz
  1  'x, y, z'
loop_
 _atom_site_type_symbol
 _atom_site_label
 _atom_site_symmetry_multiplicity
 _atom_site_fract_x
 _atom_site_fract_y
 _atom_site_fract_z
 _atom_site_occupancy
  Li  Li0  1  0.92746442  0.67673773  0.03522643  1
  Li  Li1  1  0.93851760  0.20816360  0.37663231  1
  Li  Li2  1  0.88051503  0.02473068  0.45398026  1
  Li  Li3  1  0.50459524  0.94140159  0.46688768  1
  Li  Li4  1  0.45981704  0.96641589  0.15231474  1
  Li  Li5  1  0.56884184  0.68666772  0.47131797  1
  Li  Li6  1  0.39982754  0.81643679  0.95115269  1
  Li  Li7  1  0.54636830  0.51315027  0.67124433  1
  Li  Li8  1  0.53959906  0.50369269  0.95382176  1
  Li  Li9  1  0.43501991  0.48273690  0.34808313  1
  Li  Li10  1  0.58308133  0.21200162  0.07409816  1
  Li  Li11  1  0.43284735  0.28441033  0.56153723  1
  Li  Li12  1  0.61540163  0.04522051  0.85965018  1
  Li  Li13  1  0.39442584  0.07368035  0.70560062  1
  Li  Li14  1  0.03641047  0.83781631  0.56055940  1
  Li  Li15  1  0.07694731  0.34450536  0.95469541  1
  Sb  Sb16  1  0.81303528  0.78000859  0.40676512  1
  Sb  Sb17  1  0.85401789  0.32272802  0.07853140  1
  Sb  Sb18  1  0.60182701  0.66041982  0.14968668  1
  Sb  Sb19  1  0.39146264  0.81882915  0.66495367  1
  Sb  Sb20  1  0.57616839  0.18911257  0.33267553  1
  Sb  Sb21  1  0.41723617  0.30644880  0.83027034  1
  Sb  Sb22  1  0.18585519  0.68169334  0.90350711  1
  Sb  Sb23  1  0.15575048  0.18384067  0.53892215  1
  Sb  Sb24  1  0.78406188  0.94407870  0.11515340  1
  Sb  Sb25  1  0.75739043  0.59528025  0.83735881  1
  Sb  Sb26  1  0.76451457  0.44049043  0.44646155  1
  Sb  Sb27  1  0.75403409  0.09535225  0.66968458  1
  Sb  Sb28  1  0.24102729  0.91305463  0.32953780  1
  Sb  Sb29  1  0.22606847  0.55284931  0.59213852  1
  Sb  Sb30  1  0.24867548  0.44117647  0.15380201  1
  Sb  Sb31  1  0.23411355  0.05698116  0.91382703  1
  F  F32  1  0.85713848  0.00876192  0.78326429  1
  F  F33  1  0.92922778  0.82546334  0.04319429  1
  F  F34  1  0.84005751  0.95714612  0.58375338  1
  F  F35  1  0.87901437  0.79536954  0.26143202  1
  F  F36  1  0.90527269  0.66761789  0.88401921  1
  F  F37  1  0.85337154  0.55472945  0.41869701  1
  F  F38  1  0.86925365  0.51390192  0.72904465  1
  F  F39  1  0.79831967  0.62992422  0.11561073  1
  F  F40  1  0.02352761  0.30464620  0.45147656  1
  F  F41  1  0.87910169  0.41935705  0.95769914  1
  F  F42  1  0.69502388  0.94110603  0.38932679  1
  F  F43  1  0.82597904  0.37141922  0.30621215  1
  F  F44  1  0.60742917  0.02162566  0.70709500  1
  F  F45  1  0.94449333  0.13495815  0.52304749  1
  F  F46  1  0.65056142  0.79846974  0.52121442  1
  F  F47  1  0.60203945  0.82291709  0.13060934  1
  F  F48  1  0.66201792  0.73544525  0.33480640  1
  F  F49  1  0.65514639  0.71615951  0.74084004  1
  F  F50  1  0.55332044  0.68729751  0.99869227  1
  F  F51  1  0.86600441  0.06420016  0.08737863  1
  F  F52  1  0.78696467  0.13926023  0.35187315  1
  F  F53  1  0.65176687  0.55175682  0.55877581  1
  F  F54  1  0.65127448  0.48782738  0.07975583  1
  F  F55  1  0.59568785  0.53939561  0.37010946  1
  F  F56  1  0.60118139  0.49893726  0.81116409  1
  F  F57  1  0.71688916  0.27858413  0.99708372  1
  F  F58  1  0.55992499  0.33785183  0.38870866  1
  F  F59  1  0.63521973  0.25793177  0.20307816  1
  F  F60  1  0.40187027  0.95392427  0.83894054  1
  F  F61  1  0.63880421  0.19281184  0.80395505  1
  F  F62  1  0.36100016  0.95326426  0.03122331  1
  F  F63  1  0.59022212  0.16319100  0.50478878  1
  F  F64  1  0.39817176  0.81538324  0.49460116  1
  F  F65  1  0.69659427  0.96934910  0.97557804  1
  F  F66  1  0.35299894  0.80996561  0.22694524  1
  F  F67  1  0.56108753  0.07607047  0.14155564  1
  F  F68  1  0.35449323  0.75203217  0.81194850  1
  F  F69  1  0.42166250  0.66104036  0.63404025  1
  F  F70  1  0.28021733  0.74192545  0.01464178  1
  F  F71  1  0.37229368  0.52873610  0.21475000  1
  F  F72  1  0.44406056  0.41717312  0.62816169  1
  F  F73  1  0.35057860  0.54932381  0.92889471  1
  F  F74  1  0.29267111  0.50997917  0.44427323  1
  F  F75  1  0.19202724  0.84750640  0.64043727  1
  F  F76  1  0.15009764  0.93977211  0.89726356  1
  F  F77  1  0.44450940  0.30932432  0.99112641  1
  F  F78  1  0.34946088  0.31595712  0.25414609  1
  F  F79  1  0.38481794  0.22695693  0.69189587  1
  F  F80  1  0.43136076  0.14698428  0.87875477  1
  F  F81  1  0.30185433  0.24176010  0.47605556  1
  F  F82  1  0.01336083  0.89631752  0.42326230  1
  F  F83  1  0.40409027  0.97599400  0.32429264  1
  F  F84  1  0.19124757  0.57559213  0.77055956  1
  F  F85  1  0.35712585  0.03020720  0.56830840  1
  F  F86  1  0.11533342  0.60023582  0.02540406  1
  F  F87  1  0.05064387  0.68371489  0.55168093  1
  F  F88  1  0.21697923  0.32636473  0.86334404  1
  F  F89  1  0.11419966  0.50784482  0.25430930  1
  F  F90  1  0.14118653  0.43371452  0.59866809  1
  F  F91  1  0.08241268  0.36709898  0.09815591  1
  F  F92  1  0.20133658  0.10091379  0.75916946  1
  F  F93  1  0.15808568  0.10209734  0.40752765  1
  F  F94  1  0.00018617  0.21725168  0.99367800  1
  F  F95  1  0.14996592  0.01366683  0.21860253  1
