# generated using pymatgen
data_LiCrPO4
_symmetry_space_group_name_H-M   'P 1'
_cell_length_a   7.27195600
_cell_length_b   10.13270672
_cell_length_c   4.78863311
_cell_angle_alpha   90.00000000
_cell_angle_beta   95.76621381
_cell_angle_gamma   90.00000000
_symmetry_Int_Tables_number   1
_chemical_formula_structural   LiCrPO4
_chemical_formula_sum   'Li4 Cr4 P4 O16'
_cell_volume   351.06313379
_cell_formula_units_Z   4
loop_
 _symmetry_equiv_pos_site_id
 _symmetry_equiv_pos_as_xyz
  1  'x, y, z'
loop_
 _atom_site_type_symbol
 _atom_site_label
 _atom_site_symmetry_multiplicity
 _atom_site_fract_x
 _atom_site_fract_y
 _atom_site_fract_z
 _atom_site_occupancy
  Li  Li0  1  0.24702826  0.30973506  0.26458434  1
  Li  Li1  1  0.25071024  0.73143399  0.65776358  1
  Li  Li2  1  0.74928976  0.23143399  0.34223642  1
  Li  Li3  1  0.75297174  0.80973506  0.73541566  1
  Cr  Cr4  1  0.06556706  0.00895394  0.17426366  1
  Cr  Cr5  1  0.44699343  0.08255091  0.73735940  1
  Cr  Cr6  1  0.55300657  0.58255091  0.26264060  1
  Cr  Cr7  1  0.93443294  0.50895394  0.82573634  1
  P  P8  1  0.05112254  0.20649403  0.79663720  1
  P  P9  1  0.48005622  0.90158639  0.27526899  1
  P  P10  1  0.51994378  0.40158639  0.72473101  1
  P  P11  1  0.94887746  0.70649403  0.20336280  1
  O  O12  1  0.08658975  0.34799394  0.90866227  1
  O  O13  1  0.03289089  0.20057696  0.47472744  1
  O  O14  1  0.11180626  0.63481330  0.08065119  1
  O  O15  1  0.22701927  0.13102065  0.94540817  1
  O  O16  1  0.28022942  0.90368093  0.37359517  1
  O  O17  1  0.43045117  0.27425580  0.59161281  1
  O  O18  1  0.47566326  0.90076940  0.95141535  1
  O  O19  1  0.41275444  0.52505471  0.59773384  1
  O  O20  1  0.58724556  0.02505471  0.40226616  1
  O  O21  1  0.52433674  0.40076940  0.04858465  1
  O  O22  1  0.56954883  0.77425580  0.40838719  1
  O  O23  1  0.71977058  0.40368093  0.62640483  1
  O  O24  1  0.77298073  0.63102065  0.05459183  1
  O  O25  1  0.88819374  0.13481330  0.91934881  1
  O  O26  1  0.96710911  0.70057696  0.52527256  1
  O  O27  1  0.91341025  0.84799394  0.09133773  1
