# generated using pymatgen
data_Li2FeBO4
_symmetry_space_group_name_H-M   'P 1'
_cell_length_a   6.28781749
_cell_length_b   5.59325606
_cell_length_c   10.00484114
_cell_angle_alpha   90.00000000
_cell_angle_beta   90.13239346
_cell_angle_gamma   90.00000000
_symmetry_Int_Tables_number   1
_chemical_formula_structural   Li2FeBO4
_chemical_formula_sum   'Li8 Fe4 B4 O16'
_cell_volume   351.86305329
_cell_formula_units_Z   4
loop_
 _symmetry_equiv_pos_site_id
 _symmetry_equiv_pos_as_xyz
  1  'x, y, z'
loop_
 _atom_site_type_symbol
 _atom_site_label
 _atom_site_symmetry_multiplicity
 _atom_site_fract_x
 _atom_site_fract_y
 _atom_site_fract_z
 _atom_site_occupancy
  Li  Li0  1  0.08924291  0.39593959  0.80149254  1
  Li  Li1  1  0.08924291  0.10406041  0.30149254  1
  Li  Li2  1  0.26310061  0.14797965  0.58580678  1
  Li  Li3  1  0.26310061  0.35202035  0.08580678  1
  Li  Li4  1  0.73689939  0.64797965  0.91419322  1
  Li  Li5  1  0.73689939  0.85202035  0.41419322  1
  Li  Li6  1  0.91075709  0.89593959  0.69850746  1
  Li  Li7  1  0.91075709  0.60406041  0.19850746  1
  Fe  Fe8  1  0.25941414  0.85144325  0.90983560  1
  Fe  Fe9  1  0.25941414  0.64855675  0.40983560  1
  Fe  Fe10  1  0.74058586  0.35144325  0.59016440  1
  Fe  Fe11  1  0.74058586  0.14855675  0.09016440  1
  B  B12  1  0.50258778  0.24916097  0.84103492  1
  B  B13  1  0.49741222  0.74916097  0.65896508  1
  B  B14  1  0.50258778  0.25083903  0.34103492  1
  B  B15  1  0.49741222  0.75083903  0.15896508  1
  O  O16  1  0.01439257  0.72270546  0.84810545  1
  O  O17  1  0.01439257  0.77729454  0.34810545  1
  O  O18  1  0.30747391  0.20033358  0.90545919  1
  O  O19  1  0.30747391  0.29966642  0.40545919  1
  O  O20  1  0.31633869  0.79069476  0.58328146  1
  O  O21  1  0.50310796  0.25993470  0.70292978  1
  O  O22  1  0.31633869  0.70930524  0.08328146  1
  O  O23  1  0.50310796  0.24006530  0.20292978  1
  O  O24  1  0.49689204  0.75993470  0.79707022  1
  O  O25  1  0.68366131  0.29069476  0.91671854  1
  O  O26  1  0.49689204  0.74006530  0.29707022  1
  O  O27  1  0.68366131  0.20930524  0.41671854  1
  O  O28  1  0.69252609  0.70033358  0.59454081  1
  O  O29  1  0.69252609  0.79966642  0.09454081  1
  O  O30  1  0.98560743  0.22270546  0.65189455  1
  O  O31  1  0.98560743  0.27729454  0.15189455  1
