# generated using pymatgen
data_ZnH20S2(NO7)2
_symmetry_space_group_name_H-M   'P 1'
_cell_length_a   9.34712626
_cell_length_b   13.34090440
_cell_length_c   6.21011274
_cell_angle_alpha   90.00000000
_cell_angle_beta   100.46540585
_cell_angle_gamma   90.00000000
_symmetry_Int_Tables_number   1
_chemical_formula_structural   ZnH20S2(NO7)2
_chemical_formula_sum   'Zn2 H40 S4 N4 O28'
_cell_volume   761.51332289
_cell_formula_units_Z   2
loop_
 _symmetry_equiv_pos_site_id
 _symmetry_equiv_pos_as_xyz
  1  'x, y, z'
loop_
 _atom_site_type_symbol
 _atom_site_label
 _atom_site_symmetry_multiplicity
 _atom_site_fract_x
 _atom_site_fract_y
 _atom_site_fract_z
 _atom_site_occupancy
  Zn  Zn0  1  0.00000000  0.00000000  0.00000000  1
  Zn  Zn1  1  0.50000000  0.50000000  0.00000000  1
  H  H2  1  0.14709745  0.86366300  0.94257604  1
  H  H3  1  0.03433183  0.84178949  0.33536815  1
  H  H4  1  0.05565213  0.06376766  0.61740017  1
  H  H5  1  0.11905354  0.33610307  0.49589591  1
  H  H6  1  0.09365997  0.34845350  0.22228897  1
  H  H7  1  0.22601308  0.63179679  0.88880983  1
  H  H8  1  0.22874936  0.51017038  0.22759801  1
  H  H9  1  0.18696306  0.24912841  0.33528744  1
  H  H10  1  0.26204049  0.36488351  0.37488111  1
  H  H11  1  0.27005368  0.58353511  0.68271810  1
  H  H12  1  0.22994632  0.08353511  0.31728190  1
  H  H13  1  0.23795951  0.86488351  0.62511889  1
  H  H14  1  0.31303694  0.74912841  0.66471256  1
  H  H15  1  0.27125064  0.01017038  0.77240199  1
  H  H16  1  0.27398692  0.13179679  0.11119017  1
  H  H17  1  0.40634003  0.84845350  0.77771103  1
  H  H18  1  0.38094646  0.83610307  0.50410409  1
  H  H19  1  0.44434787  0.56376766  0.38259983  1
  H  H20  1  0.46566817  0.34178949  0.66463285  1
  H  H21  1  0.35290255  0.36366300  0.05742396  1
  H  H22  1  0.64709745  0.63633700  0.94257604  1
  H  H23  1  0.53433183  0.65821051  0.33536815  1
  H  H24  1  0.55565213  0.43623234  0.61740017  1
  H  H25  1  0.61905354  0.16389693  0.49589591  1
  H  H26  1  0.59365997  0.15154650  0.22228897  1
  H  H27  1  0.72601308  0.86820321  0.88880983  1
  H  H28  1  0.72874936  0.98982962  0.22759801  1
  H  H29  1  0.68696306  0.25087159  0.33528744  1
  H  H30  1  0.76204049  0.13511649  0.37488111  1
  H  H31  1  0.77005368  0.91646489  0.68271810  1
  H  H32  1  0.72994632  0.41646489  0.31728190  1
  H  H33  1  0.73795951  0.63511649  0.62511889  1
  H  H34  1  0.81303694  0.75087159  0.66471256  1
  H  H35  1  0.77125064  0.48982962  0.77240199  1
  H  H36  1  0.77398692  0.36820321  0.11119017  1
  H  H37  1  0.90634003  0.65154650  0.77771103  1
  H  H38  1  0.88094646  0.66389693  0.50410409  1
  H  H39  1  0.94434787  0.93623234  0.38259983  1
  H  H40  1  0.96566817  0.15821051  0.66463285  1
  H  H41  1  0.85290255  0.13633700  0.05742396  1
  S  S42  1  0.06225303  0.62928606  0.23895572  1
  S  S43  1  0.43774697  0.12928606  0.76104428  1
  S  S44  1  0.56225303  0.87071394  0.23895572  1
  S  S45  1  0.93774697  0.37071394  0.76104428  1
  N  N46  1  0.16600124  0.32483201  0.35992971  1
  N  N47  1  0.33399876  0.82483201  0.64007029  1
  N  N48  1  0.66600124  0.17516799  0.35992971  1
  N  N49  1  0.83399876  0.67516799  0.64007029  1
  O  O50  1  0.06675580  0.42878924  0.74125493  1
  O  O51  1  0.03216789  0.91591669  0.32945127  1
  O  O52  1  0.14190432  0.92955166  0.87350773  1
  O  O53  1  0.08254362  0.71625579  0.38709629  1
  O  O54  1  0.07336359  0.65421205  0.01192526  1
  O  O55  1  0.19222299  0.12687700  0.19290254  1
  O  O56  1  0.20429178  0.56192779  0.33449219  1
  O  O57  1  0.29570822  0.06192779  0.66550781  1
  O  O58  1  0.30777701  0.62687700  0.80709746  1
  O  O59  1  0.42663641  0.15421205  0.98807474  1
  O  O60  1  0.41745638  0.21625579  0.61290371  1
  O  O61  1  0.35809568  0.42955166  0.12649227  1
  O  O62  1  0.46783211  0.41591669  0.67054873  1
  O  O63  1  0.56675580  0.07121076  0.74125493  1
  O  O64  1  0.43324420  0.92878924  0.25874507  1
  O  O65  1  0.53216789  0.58408331  0.32945127  1
  O  O66  1  0.64190432  0.57044834  0.87350773  1
  O  O67  1  0.58254362  0.78374421  0.38709629  1
  O  O68  1  0.57336359  0.84578795  0.01192526  1
  O  O69  1  0.69222299  0.37312300  0.19290254  1
  O  O70  1  0.70429178  0.93807221  0.33449219  1
  O  O71  1  0.79570822  0.43807221  0.66550781  1
  O  O72  1  0.80777701  0.87312300  0.80709746  1
  O  O73  1  0.92663641  0.34578795  0.98807474  1
  O  O74  1  0.91745638  0.28374421  0.61290371  1
  O  O75  1  0.85809568  0.07044834  0.12649227  1
  O  O76  1  0.96783211  0.08408331  0.67054873  1
  O  O77  1  0.93324420  0.57121076  0.25874507  1
