# generated using pymatgen
data_LiTeHO4
_symmetry_space_group_name_H-M   'P 1'
_cell_length_a   6.43343559
_cell_length_b   6.11882192
_cell_length_c   5.11623297
_cell_angle_alpha   90.00000000
_cell_angle_beta   129.56978393
_cell_angle_gamma   90.00000000
_symmetry_Int_Tables_number   1
_chemical_formula_structural   LiTeHO4
_chemical_formula_sum   'Li2 Te2 H2 O8'
_cell_volume   155.24962556
_cell_formula_units_Z   2
loop_
 _symmetry_equiv_pos_site_id
 _symmetry_equiv_pos_as_xyz
  1  'x, y, z'
loop_
 _atom_site_type_symbol
 _atom_site_label
 _atom_site_symmetry_multiplicity
 _atom_site_fract_x
 _atom_site_fract_y
 _atom_site_fract_z
 _atom_site_occupancy
  Li  Li0  1  0.39178370  0.00010681  0.77927800  1
  Li  Li1  1  0.60821630  0.50010681  0.22072200  1
  Te  Te2  1  0.00761106  0.24829694  0.01898983  1
  Te  Te3  1  0.99238894  0.74829694  0.98101017  1
  H  H4  1  0.02754809  0.74389315  0.48562628  1
  H  H5  1  0.97245191  0.24389315  0.51437372  1
  O  O6  1  0.17986387  0.75607656  0.46405618  1
  O  O7  1  0.18203956  0.24005786  0.48094965  1
  O  O8  1  0.22887988  0.99732907  0.05057536  1
  O  O9  1  0.23786133  0.49859061  0.07427078  1
  O  O10  1  0.77112012  0.49732907  0.94942464  1
  O  O11  1  0.76213867  0.99859061  0.92572922  1
  O  O12  1  0.81796044  0.74005786  0.51905035  1
  O  O13  1  0.82013613  0.25607656  0.53594382  1
