# generated using pymatgen
data_Mn2Cu3Ge
_symmetry_space_group_name_H-M   'P 1'
_cell_length_a   4.89746474
_cell_length_b   4.89746474
_cell_length_c   7.77119436
_cell_angle_alpha   90.00000000
_cell_angle_beta   90.00000000
_cell_angle_gamma   120.00859441
_symmetry_Int_Tables_number   1
_chemical_formula_structural   Mn2Cu3Ge
_chemical_formula_sum   'Mn4 Cu6 Ge2'
_cell_volume   161.40739194
_cell_formula_units_Z   2
loop_
 _symmetry_equiv_pos_site_id
 _symmetry_equiv_pos_as_xyz
  1  'x, y, z'
loop_
 _atom_site_type_symbol
 _atom_site_label
 _atom_site_symmetry_multiplicity
 _atom_site_fract_x
 _atom_site_fract_y
 _atom_site_fract_z
 _atom_site_occupancy
  Mn  Mn0  1  0.66665460  0.33334540  0.55973644  1
  Mn  Mn1  1  0.33334540  0.66665460  0.44026356  1
  Mn  Mn2  1  0.33334540  0.66665460  0.05973644  1
  Mn  Mn3  1  0.66665460  0.33334540  0.94026356  1
  Cu  Cu4  1  0.17206782  0.34414214  0.75000000  1
  Cu  Cu5  1  0.17209261  0.82790739  0.75000000  1
  Cu  Cu6  1  0.65585786  0.82793218  0.75000000  1
  Cu  Cu7  1  0.82793218  0.65585786  0.25000000  1
  Cu  Cu8  1  0.82790739  0.17209261  0.25000000  1
  Cu  Cu9  1  0.34414214  0.17206782  0.25000000  1
  Ge  Ge10  1  0.00000000  0.00000000  0.50000000  1
  Ge  Ge11  1  0.00000000  0.00000000  -0.00000000  1
