# generated using pymatgen
data_KLiSb(PO4)2
_symmetry_space_group_name_H-M   'P 1'
_cell_length_a   5.03997359
_cell_length_b   8.60573718
_cell_length_c   13.34352683
_cell_angle_alpha   109.69761800
_cell_angle_beta   100.77637479
_cell_angle_gamma   90.14577462
_symmetry_Int_Tables_number   1
_chemical_formula_structural   KLiSb(PO4)2
_chemical_formula_sum   'K3 Li3 Sb3 P6 O24'
_cell_volume   533.92317370
_cell_formula_units_Z   3
loop_
 _symmetry_equiv_pos_site_id
 _symmetry_equiv_pos_as_xyz
  1  'x, y, z'
loop_
 _atom_site_type_symbol
 _atom_site_label
 _atom_site_symmetry_multiplicity
 _atom_site_fract_x
 _atom_site_fract_y
 _atom_site_fract_z
 _atom_site_occupancy
  K  K0  1  0.82079562  0.44333186  0.65101629  1
  K  K1  1  0.49352880  0.50027609  0.99775337  1
  K  K2  1  0.18535546  0.50433390  0.34034881  1
  Li  Li3  1  0.97188118  0.65749758  0.91406469  1
  Li  Li4  1  0.02780605  0.35420873  0.09482281  1
  Li  Li5  1  0.29687687  0.64971303  0.59478701  1
  Sb  Sb6  1  0.66477909  0.99606662  0.33053902  1
  Sb  Sb7  1  0.33688512  0.02304355  0.67674083  1
  Sb  Sb8  1  0.00056259  0.00067940  0.99740333  1
  P  P9  1  0.91057579  0.25189292  0.83849802  1
  P  P10  1  0.74860572  0.78346006  0.50701051  1
  P  P11  1  0.58987075  0.23481875  0.17034704  1
  P  P12  1  0.41666896  0.74381824  0.82321578  1
  P  P13  1  0.24571510  0.21997058  0.48558932  1
  P  P14  1  0.08807938  0.76841388  0.17507564  1
  O  O15  1  0.93258547  0.80180266  0.07333871  1
  O  O16  1  0.94943887  0.84400575  0.27599046  1
  O  O17  1  0.94528284  0.14086938  0.45668705  1
  O  O18  1  0.70185205  0.17036268  0.06152171  1
  O  O19  1  0.73286741  0.13032444  0.24179031  1
  O  O20  1  0.90180936  0.43797043  0.87143161  1
  O  O21  1  0.70101027  0.59733737  0.46526082  1
  O  O22  1  0.67317660  0.41692393  0.22321479  1
  O  O23  1  0.59907474  0.86038336  0.41994385  1
  O  O24  1  0.61762766  0.85174911  0.61030042  1
  O  O25  1  0.72571713  0.79858779  0.85792958  1
  O  O26  1  0.38358330  0.85518446  0.20512976  1
  O  O27  1  0.61653574  0.16879434  0.81613404  1
  O  O28  1  0.27666348  0.20009315  0.14608454  1
  O  O29  1  0.37821945  0.14786673  0.38272499  1
  O  O30  1  0.40923909  0.17089919  0.58005202  1
  O  O31  1  0.36678468  0.55962011  0.75766828  1
  O  O32  1  0.24261587  0.40604629  0.51729818  1
  O  O33  1  0.10673030  0.58367993  0.14878597  1
  O  O34  1  0.27280515  0.83530471  0.74381665  1
  O  O35  1  0.29251833  0.78961035  0.92688498  1
  O  O36  1  0.05956178  0.83445953  0.53683967  1
  O  O37  1  0.02487883  0.18162024  0.73189021  1
  O  O38  1  0.08353309  0.21386387  0.93626493  1
