# generated using pymatgen
data_Li4V3SiO10
_symmetry_space_group_name_H-M   'P 1'
_cell_length_a   6.04902566
_cell_length_b   8.30870252
_cell_length_c   5.13032763
_cell_angle_alpha   71.97434227
_cell_angle_beta   89.87779617
_cell_angle_gamma   89.51059043
_symmetry_Int_Tables_number   1
_chemical_formula_structural   Li4V3SiO10
_chemical_formula_sum   'Li4 V3 Si1 O10'
_cell_volume   245.18331748
_cell_formula_units_Z   1
loop_
 _symmetry_equiv_pos_site_id
 _symmetry_equiv_pos_as_xyz
  1  'x, y, z'
loop_
 _atom_site_type_symbol
 _atom_site_label
 _atom_site_symmetry_multiplicity
 _atom_site_fract_x
 _atom_site_fract_y
 _atom_site_fract_z
 _atom_site_occupancy
  Li  Li0  1  0.34332474  0.11176679  0.86732396  1
  Li  Li1  1  0.35377940  0.87490218  0.49394455  1
  Li  Li2  1  0.66235571  0.88572834  0.97714702  1
  Li  Li3  1  0.65775529  0.09989445  0.37642512  1
  V  V4  1  0.16274990  0.27946464  0.28688430  1
  V  V5  1  0.16111873  0.71461255  0.07753526  1
  V  V6  1  0.82801560  0.29862088  0.77840099  1
  Si  Si7  1  0.84593001  0.72216648  0.56920295  1
  O  O8  1  0.10745511  0.25435073  0.94600401  1
  O  O9  1  0.09074027  0.74419260  0.70662881  1
  O  O10  1  0.24597409  0.49760188  0.23969641  1
  O  O11  1  0.33752925  0.12042335  0.48016876  1
  O  O12  1  0.34159364  0.86968012  0.10280753  1
  O  O13  1  0.66605301  0.85705388  0.60929675  1
  O  O14  1  0.65395996  0.13963521  0.96861368  1
  O  O15  1  0.76620527  0.52444085  0.70835300  1
  O  O16  1  0.88441100  0.24980680  0.45215608  1
  O  O17  1  0.89105002  0.75565728  0.23541083  1
