# generated using pymatgen
data_LiV2CoO6
_symmetry_space_group_name_H-M   'P 1'
_cell_length_a   5.13807097
_cell_length_b   5.02512415
_cell_length_c   5.32404817
_cell_angle_alpha   90.61176173
_cell_angle_beta   117.17855259
_cell_angle_gamma   59.81559408
_symmetry_Int_Tables_number   1
_chemical_formula_structural   LiV2CoO6
_chemical_formula_sum   'Li1 V2 Co1 O6'
_cell_volume   101.32906939
_cell_formula_units_Z   1
loop_
 _symmetry_equiv_pos_site_id
 _symmetry_equiv_pos_as_xyz
  1  'x, y, z'
loop_
 _atom_site_type_symbol
 _atom_site_label
 _atom_site_symmetry_multiplicity
 _atom_site_fract_x
 _atom_site_fract_y
 _atom_site_fract_z
 _atom_site_occupancy
  Li  Li0  1  0.42714926  0.29632973  0.14040308  1
  V  V1  1  0.97462415  0.52414909  0.48633926  1
  V  V2  1  0.96140381  0.01301551  0.98150491  1
  Co  Co3  1  0.41264073  0.78580718  0.61882903  1
  O  O4  1  0.89855604  0.35450361  0.79145875  1
  O  O5  1  0.16035686  0.73215529  0.80135702  1
  O  O6  1  0.54059823  0.85632315  0.30010548  1
  O  O7  1  0.52788926  0.10655038  0.79267415  1
  O  O8  1  0.93151146  0.20973585  0.29284095  1
  O  O9  1  0.16366920  0.62223121  0.29288635  1
