# generated using pymatgen
data_LiCu4(PO4)3
_symmetry_space_group_name_H-M   'P 1'
_cell_length_a   8.93328842
_cell_length_b   6.40294541
_cell_length_c   14.89811207
_cell_angle_alpha   90.00000000
_cell_angle_beta   89.89261415
_cell_angle_gamma   90.00000000
_symmetry_Int_Tables_number   1
_chemical_formula_structural   LiCu4(PO4)3
_chemical_formula_sum   'Li4 Cu16 P12 O48'
_cell_volume   852.16095087
_cell_formula_units_Z   4
loop_
 _symmetry_equiv_pos_site_id
 _symmetry_equiv_pos_as_xyz
  1  'x, y, z'
loop_
 _atom_site_type_symbol
 _atom_site_label
 _atom_site_symmetry_multiplicity
 _atom_site_fract_x
 _atom_site_fract_y
 _atom_site_fract_z
 _atom_site_occupancy
  Li  Li0  1  0.16058147  0.75000000  0.48360558  1
  Li  Li1  1  0.33895956  0.25000000  0.32061037  1
  Li  Li2  1  0.33337964  0.25000000  0.98711673  1
  Li  Li3  1  0.64339480  0.75000000  0.01604831  1
  Cu  Cu4  1  0.01797495  0.50092456  0.66391358  1
  Cu  Cu5  1  0.00816737  0.99204261  0.00220182  1
  Cu  Cu6  1  0.00332607  0.99382249  0.33133803  1
  Cu  Cu7  1  0.01797495  0.99907544  0.66391358  1
  Cu  Cu8  1  0.00816737  0.50795739  0.00220182  1
  Cu  Cu9  1  0.00332607  0.50617751  0.33133803  1
  Cu  Cu10  1  0.49131114  0.99355208  0.16432957  1
  Cu  Cu11  1  0.48103149  0.99473474  0.82955434  1
  Cu  Cu12  1  0.49131114  0.50644792  0.16432957  1
  Cu  Cu13  1  0.48103149  0.50526526  0.82955434  1
  Cu  Cu14  1  0.49015000  0.99492057  0.49321567  1
  Cu  Cu15  1  0.49015000  0.50507943  0.49321567  1
  Cu  Cu16  1  0.64061025  0.75000000  0.68181168  1
  Cu  Cu17  1  0.86287817  0.25000000  0.85413138  1
  Cu  Cu18  1  0.85094001  0.25000000  0.18544825  1
  Cu  Cu19  1  0.85938322  0.25000000  0.51717167  1
  P  P20  1  0.18001144  0.25000000  0.15250813  1
  P  P21  1  0.17764011  0.25000000  0.48556487  1
  P  P22  1  0.17949423  0.25000000  0.81641036  1
  P  P23  1  0.31915726  0.75000000  0.31814949  1
  P  P24  1  0.32680734  0.75000000  0.64781962  1
  P  P25  1  0.31707004  0.75000000  0.98711563  1
  P  P26  1  0.68350438  0.25000000  0.35384043  1
  P  P27  1  0.68462172  0.25000000  0.68229541  1
  P  P28  1  0.68526727  0.25000000  0.01744211  1
  P  P29  1  0.81278437  0.75000000  0.17515941  1
  P  P30  1  0.81204480  0.75000000  0.84695982  1
  P  P31  1  0.81884902  0.75000000  0.51047504  1
  O  O32  1  0.12192924  0.04989505  0.10825899  1
  O  O33  1  0.12056925  0.04881338  0.77315980  1
  O  O34  1  0.11772304  0.04837626  0.44076112  1
  O  O35  1  0.12056925  0.45118662  0.77315980  1
  O  O36  1  0.11772304  0.45162374  0.44076112  1
  O  O37  1  0.12192924  0.45010495  0.10825899  1
  O  O38  1  0.13994102  0.25000000  0.25386502  1
  O  O39  1  0.12603539  0.25000000  0.58414324  1
  O  O40  1  0.13076650  0.25000000  0.91728339  1
  O  O41  1  0.14189660  0.75000000  0.97415961  1
  O  O42  1  0.14202472  0.75000000  0.30660766  1
  O  O43  1  0.14919409  0.75000000  0.63275799  1
  O  O44  1  0.35828521  0.25000000  0.13675975  1
  O  O45  1  0.35222609  0.25000000  0.46591637  1
  O  O46  1  0.35664781  0.25000000  0.80940389  1
  O  O47  1  0.37196012  0.75000000  0.08452560  1
  O  O48  1  0.35592018  0.75000000  0.41964341  1
  O  O49  1  0.37770216  0.75000000  0.74651383  1
  O  O50  1  0.37930880  0.95208320  0.27482616  1
  O  O51  1  0.38246935  0.95035362  0.60183774  1
  O  O52  1  0.37648338  0.95195993  0.94172023  1
  O  O53  1  0.38246935  0.54964638  0.60183774  1
  O  O54  1  0.37648338  0.54804007  0.94172023  1
  O  O55  1  0.37930880  0.54791680  0.27482616  1
  O  O56  1  0.61602852  0.05169156  0.05773379  1
  O  O57  1  0.61938243  0.05068693  0.39451652  1
  O  O58  1  0.61602852  0.44830844  0.05773379  1
  O  O59  1  0.61938243  0.44931307  0.39451652  1
  O  O60  1  0.61376482  0.05146899  0.72428895  1
  O  O61  1  0.61376482  0.44853101  0.72428895  1
  O  O62  1  0.65972030  0.25000000  0.24995219  1
  O  O63  1  0.66522606  0.25000000  0.91409294  1
  O  O64  1  0.66344289  0.25000000  0.57971063  1
  O  O65  1  0.63843248  0.75000000  0.19000697  1
  O  O66  1  0.63932601  0.75000000  0.86957021  1
  O  O67  1  0.64523925  0.75000000  0.53426435  1
  O  O68  1  0.85751730  0.25000000  0.70699812  1
  O  O69  1  0.86142632  0.25000000  0.03936434  1
  O  O70  1  0.86206710  0.25000000  0.37114835  1
  O  O71  1  0.86244844  0.75000000  0.41243326  1
  O  O72  1  0.85040861  0.75000000  0.07447096  1
  O  O73  1  0.83684527  0.75000000  0.74403318  1
  O  O74  1  0.87915304  0.55138184  0.22158210  1
  O  O75  1  0.88387944  0.55311782  0.89027390  1
  O  O76  1  0.87915304  0.94861816  0.22158210  1
  O  O77  1  0.88387944  0.94688218  0.89027390  1
  O  O78  1  0.88467266  0.55223341  0.55928593  1
  O  O79  1  0.88467266  0.94776659  0.55928593  1
