# generated using pymatgen
data_Mg2MnAs2
_symmetry_space_group_name_H-M   'P 1'
_cell_length_a   4.22919705
_cell_length_b   4.22919671
_cell_length_c   6.72958486
_cell_angle_alpha   90.02768139
_cell_angle_beta   90.02768141
_cell_angle_gamma   60.05634678
_symmetry_Int_Tables_number   1
_chemical_formula_structural   Mg2MnAs2
_chemical_formula_sum   'Mg2 Mn1 As2'
_cell_volume   104.29919383
_cell_formula_units_Z   1
loop_
 _symmetry_equiv_pos_site_id
 _symmetry_equiv_pos_as_xyz
  1  'x, y, z'
loop_
 _atom_site_type_symbol
 _atom_site_label
 _atom_site_symmetry_multiplicity
 _atom_site_fract_x
 _atom_site_fract_y
 _atom_site_fract_z
 _atom_site_occupancy
  Mg  Mg0  1  0.00008083  0.00008083  0.00104979  1
  Mg  Mg1  1  0.66667034  0.66667034  0.63454151  1
  Mn  Mn2  1  0.33325786  0.33325786  0.36455333  1
  As  As3  1  0.66665135  0.66665135  0.23400647  1
  As  As4  1  0.33333961  0.33333961  0.76584891  1
