# generated using pymatgen
data_LiMnPO5
_symmetry_space_group_name_H-M   'P 1'
_cell_length_a   7.59338113
_cell_length_b   6.11954100
_cell_length_c   7.83013720
_cell_angle_alpha   90.00348127
_cell_angle_beta   90.02615831
_cell_angle_gamma   90.07968358
_symmetry_Int_Tables_number   1
_chemical_formula_structural   LiMnPO5
_chemical_formula_sum   'Li4 Mn4 P4 O20'
_cell_volume   363.85048103
_cell_formula_units_Z   4
loop_
 _symmetry_equiv_pos_site_id
 _symmetry_equiv_pos_as_xyz
  1  'x, y, z'
loop_
 _atom_site_type_symbol
 _atom_site_label
 _atom_site_symmetry_multiplicity
 _atom_site_fract_x
 _atom_site_fract_y
 _atom_site_fract_z
 _atom_site_occupancy
  Li  Li0  1  0.14028068  0.25004678  0.66995664  1
  Li  Li1  1  0.35997537  0.74990961  0.16992342  1
  Li  Li2  1  0.63998052  0.25007139  0.83002796  1
  Li  Li3  1  0.85962129  0.74992979  0.33013718  1
  Mn  Mn4  1  0.99998816  -0.00010619  -0.00013598  1
  Mn  Mn5  1  0.99995314  0.50008566  -0.00002147  1
  Mn  Mn6  1  0.49998129  0.00016573  0.49995220  1
  Mn  Mn7  1  0.49982609  0.50008932  0.50004673  1
  P  P8  1  0.13224489  0.75010683  0.66582186  1
  P  P9  1  0.36762240  0.24982265  0.16576971  1
  P  P10  1  0.63235772  0.75017305  0.83425987  1
  P  P11  1  0.86773548  0.24984303  0.33409627  1
  O  O12  1  0.01077909  0.24996197  0.46670639  1
  O  O13  1  0.10881994  0.75015065  0.08967352  1
  O  O14  1  0.12640240  0.95925780  0.77993895  1
  O  O15  1  0.12649195  0.54094284  0.77971126  1
  O  O16  1  0.17961949  0.24938263  0.07605557  1
  O  O17  1  0.32016845  0.75053830  0.57633024  1
  O  O18  1  0.37354221  0.04073283  0.27983664  1
  O  O19  1  0.37340796  0.45899384  0.27960198  1
  O  O20  1  0.39140064  0.24986737  0.58972186  1
  O  O21  1  0.48964544  0.75001994  0.96679287  1
  O  O22  1  0.51041439  0.24995642  0.03318405  1
  O  O23  1  0.60856395  0.75016091  0.41030860  1
  O  O24  1  0.62663685  0.54098747  0.72041682  1
  O  O25  1  0.62651483  0.95925424  0.72017966  1
  O  O26  1  0.67985876  0.24947223  0.42370745  1
  O  O27  1  0.82041344  0.75058589  0.92393049  1
  O  O28  1  0.87366867  0.04071235  0.22003683  1
  O  O29  1  0.87355850  0.45904267  0.22030317  1
  O  O30  1  0.89121555  0.24982202  0.91036264  1
  O  O31  1  0.98931046  0.75001998  0.53336661  1
