# generated using pymatgen
data_LiMnPO5
_symmetry_space_group_name_H-M   'P 1'
_cell_length_a   12.35290039
_cell_length_b   6.10792207
_cell_length_c   10.43138020
_cell_angle_alpha   90.00000000
_cell_angle_beta   90.00000000
_cell_angle_gamma   90.00000000
_symmetry_Int_Tables_number   1
_chemical_formula_structural   LiMnPO5
_chemical_formula_sum   'Li8 Mn8 P8 O40'
_cell_volume   787.05340381
_cell_formula_units_Z   8
loop_
 _symmetry_equiv_pos_site_id
 _symmetry_equiv_pos_as_xyz
  1  'x, y, z'
loop_
 _atom_site_type_symbol
 _atom_site_label
 _atom_site_symmetry_multiplicity
 _atom_site_fract_x
 _atom_site_fract_y
 _atom_site_fract_z
 _atom_site_occupancy
  Li  Li0  1  0.10974953  0.79869683  0.10313156  1
  Li  Li1  1  0.17283383  0.27464208  0.82682908  1
  Li  Li2  1  0.32716617  0.77464208  0.32682908  1
  Li  Li3  1  0.39025047  0.29869683  0.60313156  1
  Li  Li4  1  0.60974953  0.70130317  0.10313156  1
  Li  Li5  1  0.67283383  0.22535792  0.82682908  1
  Li  Li6  1  0.82716617  0.72535792  0.32682908  1
  Li  Li7  1  0.89025047  0.20130317  0.60313156  1
  Mn  Mn8  1  0.12696260  0.00670205  0.50940033  1
  Mn  Mn9  1  0.24754897  0.25704277  0.25602931  1
  Mn  Mn10  1  0.25245103  0.75704277  0.75602931  1
  Mn  Mn11  1  0.37303740  0.50670205  0.00940033  1
  Mn  Mn12  1  0.62696260  0.49329795  0.50940033  1
  Mn  Mn13  1  0.74754897  0.24295723  0.25602931  1
  Mn  Mn14  1  0.75245103  0.74295723  0.75602931  1
  Mn  Mn15  1  0.87303740  0.99329795  0.00940033  1
  P  P16  1  0.00121704  0.83870229  0.76106205  1
  P  P17  1  0.18717777  0.50664443  0.50834130  1
  P  P18  1  0.31282223  0.00664443  0.00834130  1
  P  P19  1  0.49878296  0.33870229  0.26106205  1
  P  P20  1  0.50121704  0.66129771  0.76106205  1
  P  P21  1  0.68717777  0.99335557  0.50834130  1
  P  P22  1  0.81282223  0.49335557  0.00834130  1
  P  P23  1  0.99878296  0.16129771  0.26106205  1
  O  O24  1  0.00455908  0.02398623  0.38497058  1
  O  O25  1  0.00868692  0.00160009  0.64682965  1
  O  O26  1  0.09605473  0.31959447  0.24507067  1
  O  O27  1  0.10063212  0.68294734  0.76492462  1
  O  O28  1  0.11252806  0.70201631  0.48832519  1
  O  O29  1  0.11046802  0.31426405  0.53116805  1
  O  O30  1  0.23095713  0.99165663  0.63879902  1
  O  O31  1  0.23096448  0.02651974  0.38041462  1
  O  O32  1  0.23241629  0.03022592  0.12353855  1
  O  O33  1  0.23513923  0.97717815  0.89132442  1
  O  O34  1  0.26486077  0.47717815  0.39132442  1
  O  O35  1  0.26758371  0.53022592  0.62353855  1
  O  O36  1  0.26903552  0.52651974  0.88041462  1
  O  O37  1  0.26904287  0.49165663  0.13879902  1
  O  O38  1  0.38953198  0.81426405  0.03116805  1
  O  O39  1  0.38747194  0.20201631  0.98832519  1
  O  O40  1  0.39936788  0.18294734  0.26492462  1
  O  O41  1  0.40394527  0.81959447  0.74507067  1
  O  O42  1  0.49131308  0.50160009  0.14682965  1
  O  O43  1  0.49544092  0.52398623  0.88497058  1
  O  O44  1  0.50455908  0.47601377  0.38497058  1
  O  O45  1  0.50868692  0.49839991  0.64682965  1
  O  O46  1  0.59605473  0.18040553  0.24507067  1
  O  O47  1  0.60063212  0.81705266  0.76492462  1
  O  O48  1  0.61252806  0.79798369  0.48832519  1
  O  O49  1  0.61046802  0.18573595  0.53116805  1
  O  O50  1  0.73095713  0.50834337  0.63879902  1
  O  O51  1  0.73096448  0.47348026  0.38041462  1
  O  O52  1  0.73241629  0.46977408  0.12353855  1
  O  O53  1  0.73513923  0.52282185  0.89132442  1
  O  O54  1  0.76486077  0.02282185  0.39132442  1
  O  O55  1  0.76758371  0.96977408  0.62353855  1
  O  O56  1  0.76903552  0.97348026  0.88041462  1
  O  O57  1  0.76904287  0.00834337  0.13879902  1
  O  O58  1  0.88953198  0.68573595  0.03116805  1
  O  O59  1  0.88747194  0.29798369  0.98832519  1
  O  O60  1  0.89936788  0.31705266  0.26492462  1
  O  O61  1  0.90394527  0.68040553  0.74507067  1
  O  O62  1  0.99131308  0.99839991  0.14682965  1
  O  O63  1  0.99544092  0.97601377  0.88497058  1
