# generated using pymatgen
data_LiCoPO4
_symmetry_space_group_name_H-M   'P 1'
_cell_length_a   5.03072156
_cell_length_b   5.03072156
_cell_length_c   15.94928729
_cell_angle_alpha   91.26290455
_cell_angle_beta   88.73709545
_cell_angle_gamma   108.38224642
_symmetry_Int_Tables_number   1
_chemical_formula_structural   LiCoPO4
_chemical_formula_sum   'Li4 Co4 P4 O16'
_cell_volume   382.90902870
_cell_formula_units_Z   4
loop_
 _symmetry_equiv_pos_site_id
 _symmetry_equiv_pos_as_xyz
  1  'x, y, z'
loop_
 _atom_site_type_symbol
 _atom_site_label
 _atom_site_symmetry_multiplicity
 _atom_site_fract_x
 _atom_site_fract_y
 _atom_site_fract_z
 _atom_site_occupancy
  Li  Li0  1  0.30826811  0.79701287  0.73307249  1
  Li  Li1  1  0.20298713  0.69173189  0.23307249  1
  Li  Li2  1  0.79701287  0.30826811  0.76692751  1
  Li  Li3  1  0.69173189  0.20298713  0.26692751  1
  Co  Co4  1  0.62478575  0.92866147  0.91771201  1
  Co  Co5  1  0.92866147  0.62478575  0.58228799  1
  Co  Co6  1  0.07133853  0.37521425  0.41771201  1
  Co  Co7  1  0.37521425  0.07133853  0.08228799  1
  P  P8  1  0.25978229  0.29682996  0.62663075  1
  P  P9  1  0.29682996  0.25978229  0.87336925  1
  P  P10  1  0.70317004  0.74021771  0.12663075  1
  P  P11  1  0.74021771  0.70317004  0.37336925  1
  O  O12  1  0.10101059  0.43090542  0.69116507  1
  O  O13  1  0.56909458  0.89898941  0.19116507  1
  O  O14  1  0.97569937  0.17787757  0.86415165  1
  O  O15  1  0.43289703  0.57608631  0.85920510  1
  O  O16  1  0.16417326  0.37226086  0.53988979  1
  O  O17  1  0.82212243  0.02430063  0.36415165  1
  O  O18  1  0.42391369  0.56710297  0.35920510  1
  O  O19  1  0.62773914  0.83582674  0.03988979  1
  O  O20  1  0.37226086  0.16417326  0.96011021  1
  O  O21  1  0.57608631  0.43289703  0.64079490  1
  O  O22  1  0.17787757  0.97569937  0.63584835  1
  O  O23  1  0.83582674  0.62773914  0.46011121  1
  O  O24  1  0.56710297  0.42391369  0.14079490  1
  O  O25  1  0.02430063  0.82212243  0.13584835  1
  O  O26  1  0.43090542  0.10101059  0.80883493  1
  O  O27  1  0.89898941  0.56909458  0.30883493  1
