# generated using pymatgen
data_LiB2SbO6
_symmetry_space_group_name_H-M   'P 1'
_cell_length_a   5.13288389
_cell_length_b   8.97975497
_cell_length_c   10.93916457
_cell_angle_alpha   90.00000000
_cell_angle_beta   99.41341759
_cell_angle_gamma   90.00000000
_symmetry_Int_Tables_number   1
_chemical_formula_structural   LiB2SbO6
_chemical_formula_sum   'Li4 B8 Sb4 O24'
_cell_volume   497.41867927
_cell_formula_units_Z   4
loop_
 _symmetry_equiv_pos_site_id
 _symmetry_equiv_pos_as_xyz
  1  'x, y, z'
loop_
 _atom_site_type_symbol
 _atom_site_label
 _atom_site_symmetry_multiplicity
 _atom_site_fract_x
 _atom_site_fract_y
 _atom_site_fract_z
 _atom_site_occupancy
  Li  Li0  1  0.17697384  0.96143262  0.10660897  1
  Li  Li1  1  0.32302616  0.46143262  0.39339103  1
  Li  Li2  1  0.67697384  0.53856738  0.60660897  1
  Li  Li3  1  0.82302616  0.03856738  0.89339103  1
  B  B4  1  0.16370179  0.30226690  0.61523665  1
  B  B5  1  0.14989574  0.63525350  0.13403481  1
  B  B6  1  0.33629821  0.80226690  0.88476335  1
  B  B7  1  0.35010426  0.13525350  0.36596519  1
  B  B8  1  0.64989574  0.86474650  0.63403481  1
  B  B9  1  0.66370179  0.19773310  0.11523665  1
  B  B10  1  0.85010426  0.36474650  0.86596519  1
  B  B11  1  0.83629821  0.69773310  0.38476335  1
  Sb  Sb12  1  0.11680041  0.30093550  0.13085890  1
  Sb  Sb13  1  0.38319959  0.80093550  0.36914110  1
  Sb  Sb14  1  0.61680041  0.19906450  0.63085890  1
  Sb  Sb15  1  0.88319959  0.69906450  0.86914110  1
  O  O16  1  0.07251813  0.35446549  0.95460000  1
  O  O17  1  0.09694359  0.65411661  0.39656979  1
  O  O18  1  0.12919367  0.88949929  0.91470831  1
  O  O19  1  0.24395531  0.00159549  0.31941088  1
  O  O20  1  0.24400136  0.16036191  0.65360112  1
  O  O21  1  0.23326559  0.26543948  0.31408243  1
  O  O22  1  0.25599864  0.66036191  0.84639888  1
  O  O23  1  0.26673441  0.76543948  0.18591757  1
  O  O24  1  0.25604569  0.50159549  0.18058912  1
  O  O25  1  0.37080633  0.38949929  0.58529169  1
  O  O26  1  0.42748187  0.85446549  0.54540000  1
  O  O27  1  0.40305641  0.15411661  0.10343021  1
  O  O28  1  0.59694359  0.84588339  0.89656979  1
  O  O29  1  0.57251813  0.14553451  0.45460000  1
  O  O30  1  0.62919367  0.61050071  0.41470831  1
  O  O31  1  0.74395431  0.49840451  0.81941088  1
  O  O32  1  0.73326559  0.23456052  0.81408243  1
  O  O33  1  0.74400136  0.33963809  0.15360112  1
  O  O34  1  0.76673441  0.73456052  0.68591757  1
  O  O35  1  0.75599864  0.83963809  0.34639888  1
  O  O36  1  0.75604569  0.99840451  0.68058912  1
  O  O37  1  0.87080633  0.11050071  0.08529169  1
  O  O38  1  0.90305641  0.34588339  0.60343021  1
  O  O39  1  0.92748187  0.64553451  0.04540000  1
