# generated using pymatgen
data_Li7Mn7(P4O17)2
_symmetry_space_group_name_H-M   'P 1'
_cell_length_a   8.18754763
_cell_length_b   20.04278474
_cell_length_c   10.02909553
_cell_angle_alpha   89.99989796
_cell_angle_beta   109.78055039
_cell_angle_gamma   90.00000569
_symmetry_Int_Tables_number   1
_chemical_formula_structural   Li7Mn7(P4O17)2
_chemical_formula_sum   'Li14 Mn14 P16 O68'
_cell_volume   1548.67864543
_cell_formula_units_Z   2
loop_
 _symmetry_equiv_pos_site_id
 _symmetry_equiv_pos_as_xyz
  1  'x, y, z'
loop_
 _atom_site_type_symbol
 _atom_site_label
 _atom_site_symmetry_multiplicity
 _atom_site_fract_x
 _atom_site_fract_y
 _atom_site_fract_z
 _atom_site_occupancy
  Li  Li0  1  0.00000000  0.00000000  0.50000000  1
  Li  Li1  1  0.24263653  0.62486556  0.89161014  1
  Li  Li2  1  0.00000000  0.50000000  0.00000000  1
  Li  Li3  1  0.24263656  0.87513454  0.39161001  1
  Li  Li4  1  0.51517551  0.06872030  0.82465437  1
  Li  Li5  1  0.45688513  0.75215065  0.69236094  1
  Li  Li6  1  0.54311496  0.25215057  0.80763904  1
  Li  Li7  1  0.51517578  0.43127968  0.32465448  1
  Li  Li8  1  0.48482422  0.56872032  0.67534552  1
  Li  Li9  1  0.45688504  0.74784943  0.19236096  1
  Li  Li10  1  0.54311487  0.24784935  0.30763906  1
  Li  Li11  1  0.48482449  0.93127970  0.17534563  1
  Li  Li12  1  0.75736344  0.12486546  0.60838999  1
  Li  Li13  1  0.75736347  0.37513444  0.10838986  1
  Mn  Mn14  1  0.99117128  0.33486631  0.92556141  1
  Mn  Mn15  1  0.11307128  0.91381853  0.90032759  1
  Mn  Mn16  1  0.99117017  0.16513296  0.42556082  1
  Mn  Mn17  1  0.11307149  0.58618183  0.40032648  1
  Mn  Mn18  1  0.27818506  0.36169574  0.77730885  1
  Mn  Mn19  1  0.27818622  0.13830390  0.27730988  1
  Mn  Mn20  1  0.50000000  0.00000000  0.50000000  1
  Mn  Mn21  1  0.72181378  0.86169610  0.72269012  1
  Mn  Mn22  1  0.50000000  0.50000000  0.00000000  1
  Mn  Mn23  1  0.72181494  0.63830426  0.22269115  1
  Mn  Mn24  1  0.88692851  0.41381817  0.59967352  1
  Mn  Mn25  1  0.00882983  0.83486704  0.57443918  1
  Mn  Mn26  1  0.88692872  0.08618147  0.09967241  1
  Mn  Mn27  1  0.00882872  0.66513369  0.07443859  1
  P  P28  1  0.95957525  0.26713181  0.64575556  1
  P  P29  1  0.16803806  0.50801524  0.68837369  1
  P  P30  1  0.95957580  0.23286826  0.14575498  1
  P  P31  1  0.36318485  0.92063881  0.71325954  1
  P  P32  1  0.36203582  0.14669916  0.57241103  1
  P  P33  1  0.16803785  0.99198460  0.18837350  1
  P  P34  1  0.36318447  0.57936126  0.21325905  1
  P  P35  1  0.63796446  0.64669940  0.92758898  1
  P  P36  1  0.36203554  0.35330060  0.07241102  1
  P  P37  1  0.63681553  0.42063874  0.78674095  1
  P  P38  1  0.83196215  0.00801540  0.81162650  1
  P  P39  1  0.63796418  0.85330084  0.42758897  1
  P  P40  1  0.63681515  0.07936119  0.28674046  1
  P  P41  1  0.04042420  0.76713174  0.85424502  1
  P  P42  1  0.83196194  0.49198476  0.31162631  1
  P  P43  1  0.04042475  0.73286819  0.35424444  1
  O  O44  1  0.10839967  0.69995284  0.93426929  1
  O  O45  1  0.15600373  0.82191833  0.95332007  1
  O  O46  1  0.05406942  0.38508844  0.78833245  1
  O  O47  1  0.08495778  0.76276554  0.71424096  1
  O  O48  1  0.96728133  0.50477694  0.64241759  1
  O  O49  1  0.10840014  0.80004738  0.43426931  1
  O  O50  1  0.15600272  0.67808220  0.45331926  1
  O  O51  1  0.33073729  0.29881556  0.95535665  1
  O  O52  1  0.05406979  0.11491155  0.28833253  1
  O  O53  1  0.18607827  0.12134395  0.57977393  1
  O  O54  1  0.08495816  0.73723467  0.21424081  1
  O  O55  1  0.96728113  0.99522304  0.14241709  1
  O  O56  1  0.15227942  0.27609115  0.66547850  1
  O  O57  1  0.18896994  0.91210228  0.58805368  1
  O  O58  1  0.34175188  0.93036260  0.85696468  1
  O  O59  1  0.23991059  0.52908343  0.84491639  1
  O  O60  1  0.23482391  0.43908244  0.65383320  1
  O  O61  1  0.22838363  0.56163262  0.60212783  1
  O  O62  1  0.44418810  0.40875556  0.00258980  1
  O  O63  1  0.33073772  0.20118439  0.45535664  1
  O  O64  1  0.44422423  0.98625226  0.67774028  1
  O  O65  1  0.18607936  0.37865596  0.07977365  1
  O  O66  1  0.15228038  0.22390915  0.16547879  1
  O  O67  1  0.18896934  0.58789773  0.08805336  1
  O  O68  1  0.34175156  0.56963738  0.35696436  1
  O  O69  1  0.23991044  0.97091659  0.34491504  1
  O  O70  1  0.23482462  0.06091755  0.15383331  1
  O  O71  1  0.22838365  0.93836765  0.10212879  1
  O  O72  1  0.44418843  0.09124436  0.50258942  1
  O  O73  1  0.50913969  0.66349531  0.78096451  1
  O  O74  1  0.52311912  0.35576110  0.78203424  1
  O  O75  1  0.47688142  0.85576083  0.71796592  1
  O  O76  1  0.49086052  0.16349530  0.71903548  1
  O  O77  1  0.55577582  0.48625226  0.82225971  1
  O  O78  1  0.44422418  0.51374774  0.17774029  1
  O  O79  1  0.50913948  0.83650470  0.28096452  1
  O  O80  1  0.52311858  0.14423917  0.28203408  1
  O  O81  1  0.47688088  0.64423890  0.21796576  1
  O  O82  1  0.49086031  0.33650469  0.21903549  1
  O  O83  1  0.55581157  0.90875564  0.49741058  1
  O  O84  1  0.77161635  0.06163235  0.89787121  1
  O  O85  1  0.76517538  0.93908245  0.84616669  1
  O  O86  1  0.76008956  0.02908341  0.65508496  1
  O  O87  1  0.65824844  0.43036262  0.64303564  1
  O  O88  1  0.81103066  0.41210227  0.91194664  1
  O  O89  1  0.84771962  0.77609085  0.83452121  1
  O  O90  1  0.81392064  0.62134404  0.92022635  1
  O  O91  1  0.55577577  0.01374774  0.32225972  1
  O  O92  1  0.66926228  0.79881561  0.54464336  1
  O  O93  1  0.55581190  0.59124444  0.99741020  1
  O  O94  1  0.77161637  0.43836738  0.39787217  1
  O  O95  1  0.76517609  0.56091756  0.34616680  1
  O  O96  1  0.76008941  0.47091657  0.15508361  1
  O  O97  1  0.65824812  0.06963740  0.14303532  1
  O  O98  1  0.81103006  0.08789772  0.41194632  1
  O  O99  1  0.84772058  0.72390885  0.33452150  1
  O  O100  1  0.03271887  0.00477696  0.85758291  1
  O  O101  1  0.91504184  0.26276433  0.78575919  1
  O  O102  1  0.81392173  0.87865605  0.42022607  1
  O  O103  1  0.94593021  0.88508845  0.71166747  1
  O  O104  1  0.66926271  0.70118444  0.04464335  1
  O  O105  1  0.84399728  0.32191780  0.54668074  1
  O  O106  1  0.89159986  0.19995262  0.56573069  1
  O  O107  1  0.03271867  0.49522306  0.35758241  1
  O  O108  1  0.91504222  0.23723446  0.28575904  1
  O  O109  1  0.94593058  0.61491156  0.21166755  1
  O  O110  1  0.84399627  0.17808167  0.04667993  1
  O  O111  1  0.89160033  0.30004716  0.06573071  1
