# generated using pymatgen
data_Mn2Ni3P6WO24
_symmetry_space_group_name_H-M   'P 1'
_cell_length_a   8.65326259
_cell_length_b   8.72301523
_cell_length_c   8.72301594
_cell_angle_alpha   60.00000202
_cell_angle_beta   59.73299137
_cell_angle_gamma   59.73298909
_symmetry_Int_Tables_number   1
_chemical_formula_structural   Mn2Ni3P6WO24
_chemical_formula_sum   'Mn2 Ni3 P6 W1 O24'
_cell_volume   463.69626742
_cell_formula_units_Z   1
loop_
 _symmetry_equiv_pos_site_id
 _symmetry_equiv_pos_as_xyz
  1  'x, y, z'
loop_
 _atom_site_type_symbol
 _atom_site_label
 _atom_site_symmetry_multiplicity
 _atom_site_fract_x
 _atom_site_fract_y
 _atom_site_fract_z
 _atom_site_occupancy
  Mn  Mn0  1  0.02601150  0.99132983  0.99132983  1
  Mn  Mn1  1  0.50276164  0.49907945  0.49907945  1
  Ni  Ni2  1  0.07249009  0.64250297  0.64250297  1
  Ni  Ni3  1  0.43627409  0.85457497  0.85457497  1
  Ni  Ni4  1  0.92954021  0.35682026  0.35682026  1
  P  P5  1  0.24336822  0.25538259  0.54750351  1
  P  P6  1  0.24336822  0.95374568  0.25538259  1
  P  P7  1  0.24336822  0.54750351  0.95374568  1
  P  P8  1  0.74820331  0.46333957  0.04482007  1
  P  P9  1  0.74820331  0.04482007  0.74363705  1
  P  P10  1  0.74820331  0.74363705  0.46333957  1
  W  W11  1  0.57229330  0.14256890  0.14256890  1
  O  O12  1  0.06710477  0.10646304  0.32092513  1
  O  O13  1  0.06710477  0.50550707  0.10646304  1
  O  O14  1  0.06710477  0.32092513  0.50550707  1
  O  O15  1  0.23596950  0.09153546  0.73488001  1
  O  O16  1  0.42547690  0.18147904  0.37981916  1
  O  O17  1  0.28530944  0.41057038  0.54222999  1
  O  O18  1  0.23596950  0.93761503  0.09153546  1
  O  O19  1  0.28530944  0.76188919  0.41057038  1
  O  O20  1  0.56557891  0.61067715  0.01099500  1
  O  O21  1  0.28530944  0.54222999  0.76188919  1
  O  O22  1  0.75492198  0.25891647  0.07360560  1
  O  O23  1  0.56557891  0.01099500  0.81274893  1
  O  O24  1  0.42547690  0.01322490  0.18147904  1
  O  O25  1  0.23596950  0.73488001  0.93761503  1
  O  O26  1  0.72823032  0.43853128  0.24287843  1
  O  O27  1  0.42547690  0.37981916  0.01322490  1
  O  O28  1  0.72823032  0.24287843  0.59035897  1
  O  O29  1  0.75492198  0.07360560  0.91255596  1
  O  O30  1  0.72823032  0.59035897  0.43853128  1
  O  O31  1  0.56557891  0.81274893  0.61067715  1
  O  O32  1  0.75492198  0.91255596  0.25891647  1
  O  O33  1  0.93271204  0.69655429  0.48198203  1
  O  O34  1  0.93271204  0.48198203  0.88875164  1
  O  O35  1  0.93271204  0.88875164  0.69655429  1
