# generated using pymatgen
data_Li7Sb2P7O24
_symmetry_space_group_name_H-M   'P 1'
_cell_length_a   15.86184343
_cell_length_b   5.27205672
_cell_length_c   12.07162230
_cell_angle_alpha   90.00000000
_cell_angle_beta   96.23951357
_cell_angle_gamma   90.00000000
_symmetry_Int_Tables_number   1
_chemical_formula_structural   Li7Sb2P7O24
_chemical_formula_sum   'Li14 Sb4 P14 O48'
_cell_volume   1003.50390743
_cell_formula_units_Z   2
loop_
 _symmetry_equiv_pos_site_id
 _symmetry_equiv_pos_as_xyz
  1  'x, y, z'
loop_
 _atom_site_type_symbol
 _atom_site_label
 _atom_site_symmetry_multiplicity
 _atom_site_fract_x
 _atom_site_fract_y
 _atom_site_fract_z
 _atom_site_occupancy
  Li  Li0  1  0.05401614  0.73530877  0.52007925  1
  Li  Li1  1  0.13603958  0.81161668  0.88876355  1
  Li  Li2  1  0.05401614  0.26469123  0.02007925  1
  Li  Li3  1  0.13603958  0.18838332  0.38876355  1
  Li  Li4  1  0.41761348  0.15586611  0.55464506  1
  Li  Li5  1  0.41761348  0.84413389  0.05464506  1
  Li  Li6  1  0.50000000  0.70737228  0.75000000  1
  Li  Li7  1  0.50000000  0.29262772  0.25000000  1
  Li  Li8  1  0.58238652  0.15586611  0.94535494  1
  Li  Li9  1  0.58238652  0.84413389  0.44535494  1
  Li  Li10  1  0.86396042  0.81161668  0.61123645  1
  Li  Li11  1  0.94598386  0.73530877  0.97992075  1
  Li  Li12  1  0.86396042  0.18838332  0.11123645  1
  Li  Li13  1  0.94598386  0.26469123  0.47992075  1
  Sb  Sb14  1  0.27525000  0.65175262  0.69302137  1
  Sb  Sb15  1  0.27525000  0.34824738  0.19302137  1
  Sb  Sb16  1  0.72475000  0.65175262  0.80697863  1
  Sb  Sb17  1  0.72475000  0.34824738  0.30697863  1
  P  P18  1  0.00000000  0.44310162  0.75000000  1
  P  P19  1  0.00000000  0.55689838  0.25000000  1
  P  P20  1  0.13115276  0.12713751  0.65639648  1
  P  P21  1  0.13115276  0.87286249  0.15639648  1
  P  P22  1  0.27629321  0.38308694  0.94573071  1
  P  P23  1  0.27629321  0.61691306  0.44572971  1
  P  P24  1  0.39920664  0.16838848  0.80728122  1
  P  P25  1  0.39920664  0.83161152  0.30728122  1
  P  P26  1  0.60079336  0.16838848  0.69271878  1
  P  P27  1  0.60079336  0.83161152  0.19271878  1
  P  P28  1  0.72370679  0.38308694  0.55426929  1
  P  P29  1  0.72370679  0.61691306  0.05426929  1
  P  P30  1  0.86884724  0.12713751  0.84360352  1
  P  P31  1  0.86884724  0.87286249  0.34360352  1
  O  O32  1  0.01452488  0.57984195  0.86060617  1
  O  O33  1  0.01452488  0.42015805  0.36060617  1
  O  O34  1  0.07809525  0.25044918  0.75158187  1
  O  O35  1  0.07536151  0.10019721  0.54662757  1
  O  O36  1  0.07809525  0.74955082  0.25158187  1
  O  O37  1  0.07536151  0.89980279  0.04662757  1
  O  O38  1  0.15489671  0.87313892  0.71563599  1
  O  O39  1  0.20494721  0.25405768  0.00069816  1
  O  O40  1  0.20691668  0.30109253  0.64651546  1
  O  O41  1  0.15489671  0.12686108  0.21563599  1
  O  O42  1  0.20494721  0.74594232  0.50069816  1
  O  O43  1  0.23924541  0.59081919  0.86391390  1
  O  O44  1  0.20691668  0.69890747  0.14651546  1
  O  O45  1  0.23924541  0.40918081  0.36391390  1
  O  O46  1  0.31398867  0.15801751  0.87411430  1
  O  O47  1  0.31398867  0.84198249  0.37411430  1
  O  O48  1  0.37586721  0.00141477  0.70363826  1
  O  O49  1  0.34745240  0.51331958  0.53038411  1
  O  O50  1  0.40890229  0.44996248  0.77658776  1
  O  O51  1  0.37586721  0.99858523  0.20363826  1
  O  O52  1  0.34745240  0.48668042  0.03038411  1
  O  O53  1  0.40890229  0.55003752  0.27658776  1
  O  O54  1  0.46985484  0.05264877  0.88612431  1
  O  O55  1  0.46985484  0.94735123  0.38612431  1
  O  O56  1  0.53014516  0.05264877  0.61387569  1
  O  O57  1  0.53014516  0.94735123  0.11387569  1
  O  O58  1  0.59109771  0.44996248  0.72341224  1
  O  O59  1  0.65254760  0.51331958  0.96961589  1
  O  O60  1  0.62413279  0.00141477  0.79636174  1
  O  O61  1  0.59109771  0.55003752  0.22341224  1
  O  O62  1  0.65254760  0.48668042  0.46961589  1
  O  O63  1  0.62413279  0.99858523  0.29636174  1
  O  O64  1  0.68601133  0.15801751  0.62588570  1
  O  O65  1  0.68601133  0.84198249  0.12588570  1
  O  O66  1  0.76075459  0.59081919  0.63608610  1
  O  O67  1  0.79308332  0.30109253  0.85348454  1
  O  O68  1  0.76075459  0.40918081  0.13608610  1
  O  O69  1  0.79505279  0.25405768  0.49930184  1
  O  O70  1  0.84510329  0.87313892  0.78436401  1
  O  O71  1  0.79308332  0.69890747  0.35348454  1
  O  O72  1  0.79505279  0.74594232  0.99930184  1
  O  O73  1  0.84510329  0.12686108  0.28436401  1
  O  O74  1  0.92463849  0.10019721  0.95337243  1
  O  O75  1  0.92190475  0.25044918  0.74841813  1
  O  O76  1  0.92463849  0.89980279  0.45337243  1
  O  O77  1  0.92190475  0.74955082  0.24841813  1
  O  O78  1  0.98547512  0.57984195  0.63939383  1
  O  O79  1  0.98547512  0.42015805  0.13939383  1
