# generated using pymatgen
data_LiFe(PO3)4
_symmetry_space_group_name_H-M   'P 1'
_cell_length_a   10.41400753
_cell_length_b   9.59254147
_cell_length_c   10.22211534
_cell_angle_alpha   90.00000000
_cell_angle_beta   67.07716440
_cell_angle_gamma   90.00000000
_symmetry_Int_Tables_number   1
_chemical_formula_structural   LiFe(PO3)4
_chemical_formula_sum   'Li4 Fe4 P16 O48'
_cell_volume   940.51611590
_cell_formula_units_Z   4
loop_
 _symmetry_equiv_pos_site_id
 _symmetry_equiv_pos_as_xyz
  1  'x, y, z'
loop_
 _atom_site_type_symbol
 _atom_site_label
 _atom_site_symmetry_multiplicity
 _atom_site_fract_x
 _atom_site_fract_y
 _atom_site_fract_z
 _atom_site_occupancy
  Li  Li0  1  0.97385402  0.45532090  0.88428611  1
  Li  Li1  1  0.47385402  0.04467910  0.38428611  1
  Li  Li2  1  0.52614598  0.95532090  0.61571389  1
  Li  Li3  1  0.02614598  0.54467910  0.11571389  1
  Fe  Fe4  1  0.21019584  0.16476657  0.98921565  1
  Fe  Fe5  1  0.28980416  0.66476657  0.51078435  1
  Fe  Fe6  1  0.71019584  0.33523343  0.48921565  1
  Fe  Fe7  1  0.78980416  0.83523343  0.01078435  1
  P  P8  1  0.15719153  0.82826521  0.04251533  1
  P  P9  1  0.02528336  0.88466936  0.69097028  1
  P  P10  1  0.24962667  0.99665437  0.23233246  1
  P  P11  1  0.25037333  0.49665437  0.26766754  1
  P  P12  1  0.23948649  0.10764728  0.66180361  1
  P  P13  1  0.26051351  0.60764728  0.83819639  1
  P  P14  1  0.34280847  0.32826521  0.45748467  1
  P  P15  1  0.52528336  0.61533064  0.19097028  1
  P  P16  1  0.47471664  0.38466936  0.80902972  1
  P  P17  1  0.65719153  0.67173479  0.54251533  1
  P  P18  1  0.73948649  0.39235272  0.16180361  1
  P  P19  1  0.76051351  0.89235272  0.33819639  1
  P  P20  1  0.74962667  0.50334563  0.73233246  1
  P  P21  1  0.75037333  0.00334563  0.76766754  1
  P  P22  1  0.97471664  0.11533064  0.30902972  1
  P  P23  1  0.84280847  0.17173479  0.95748467  1
  O  O24  1  0.02385379  0.74942263  0.08948014  1
  O  O25  1  0.03567974  0.18513131  0.16388198  1
  O  O26  1  0.10200324  0.05811051  0.34698681  1
  O  O27  1  0.20355512  0.85465236  0.17496725  1
  O  O28  1  0.15725694  0.46492862  0.19284913  1
  O  O29  1  0.12381169  0.80399538  0.56702596  1
  O  O30  1  0.09238339  0.03091078  0.70737110  1
  O  O31  1  0.19581582  0.59810350  0.39124539  1
  O  O32  1  0.30418418  0.09810350  0.10875461  1
  O  O33  1  0.21922482  0.22500029  0.55689529  1
  O  O34  1  0.34274306  0.96492862  0.30715087  1
  O  O35  1  0.14301236  0.50953777  0.91206363  1
  O  O36  1  0.29644488  0.35465236  0.32503275  1
  O  O37  1  0.16936425  0.96507214  0.96365591  1
  O  O38  1  0.39799676  0.55811051  0.15301319  1
  O  O39  1  0.25414828  0.68468522  0.71190691  1
  O  O40  1  0.24585172  0.18468522  0.78809309  1
  O  O41  1  0.33063575  0.46507214  0.53634409  1
  O  O42  1  0.35698764  0.00953777  0.58793637  1
  O  O43  1  0.28077518  0.72500029  0.94310471  1
  O  O44  1  0.46432026  0.68513131  0.33611802  1
  O  O45  1  0.47614621  0.24942263  0.41051986  1
  O  O46  1  0.62381169  0.69600462  0.06702596  1
  O  O47  1  0.40761661  0.53091078  0.79262890  1
  O  O48  1  0.59238339  0.46908922  0.20737110  1
  O  O49  1  0.37618831  0.30399538  0.93297404  1
  O  O50  1  0.52385379  0.75057737  0.58948014  1
  O  O51  1  0.53567974  0.31486869  0.66388198  1
  O  O52  1  0.71922482  0.27499971  0.05689529  1
  O  O53  1  0.64301236  0.99046223  0.41206363  1
  O  O54  1  0.66936425  0.53492786  0.46365591  1
  O  O55  1  0.75414828  0.81531478  0.21190691  1
  O  O56  1  0.74585172  0.31531478  0.28809309  1
  O  O57  1  0.60200324  0.44188949  0.84698681  1
  O  O58  1  0.83063575  0.03492786  0.03634409  1
  O  O59  1  0.70355512  0.64534764  0.67496725  1
  O  O60  1  0.85698764  0.49046223  0.08793637  1
  O  O61  1  0.65725694  0.03507138  0.69284913  1
  O  O62  1  0.78077518  0.77499971  0.44310471  1
  O  O63  1  0.69581582  0.90189650  0.89124539  1
  O  O64  1  0.80418418  0.40189650  0.60875461  1
  O  O65  1  0.90761661  0.96908922  0.29262890  1
  O  O66  1  0.87618831  0.19600462  0.43297404  1
  O  O67  1  0.84274306  0.53507138  0.80715087  1
  O  O68  1  0.79644488  0.14534764  0.82503275  1
  O  O69  1  0.89799676  0.94188949  0.65301319  1
  O  O70  1  0.96432026  0.81486869  0.83611802  1
  O  O71  1  0.97614621  0.25057737  0.91051986  1
