# generated using pymatgen
data_Li3V5O12
_symmetry_space_group_name_H-M   'P 1'
_cell_length_a   5.07010405
_cell_length_b   5.03536458
_cell_length_c   9.16571926
_cell_angle_alpha   87.82884956
_cell_angle_beta   94.18246171
_cell_angle_gamma   67.54576219
_symmetry_Int_Tables_number   1
_chemical_formula_structural   Li3V5O12
_chemical_formula_sum   'Li3 V5 O12'
_cell_volume   215.13327977
_cell_formula_units_Z   1
loop_
 _symmetry_equiv_pos_site_id
 _symmetry_equiv_pos_as_xyz
  1  'x, y, z'
loop_
 _atom_site_type_symbol
 _atom_site_label
 _atom_site_symmetry_multiplicity
 _atom_site_fract_x
 _atom_site_fract_y
 _atom_site_fract_z
 _atom_site_occupancy
  Li  Li0  1  0.15125513  0.32691569  0.68765855  1
  Li  Li1  1  0.62286039  0.14687147  0.99601348  1
  Li  Li2  1  0.94466701  0.92238978  0.75260984  1
  V  V3  1  0.06486493  0.07086278  0.24562266  1
  V  V4  1  0.00920828  0.48777150  0.98102754  1
  V  V5  1  0.53713954  0.98521356  0.50850710  1
  V  V6  1  0.44374707  0.43415055  0.26915308  1
  V  V7  1  0.55648394  0.58286642  0.74070722  1
  O  O8  1  0.21282446  0.27989640  0.38932910  1
  O  O9  1  0.08529246  0.76261580  0.14525925  1
  O  O10  1  0.30101990  0.21473334  0.12083575  1
  O  O11  1  0.27391330  0.52822628  0.87330597  1
  O  O12  1  0.55610984  0.28294714  0.63936946  1
  O  O13  1  0.28102691  0.91709363  0.64906565  1
  O  O14  1  0.43268693  0.73852179  0.36607507  1
  O  O15  1  0.74986518  0.10166270  0.36570422  1
  O  O16  1  0.70122385  0.79148131  0.89854773  1
  O  O17  1  0.76276047  0.38336197  0.13688264  1
  O  O18  1  0.91671631  0.25746672  0.86583233  1
  O  O19  1  0.81348611  0.68242716  0.61397534  1
