# generated using pymatgen
data_Li2Fe2(SiO3)3
_symmetry_space_group_name_H-M   'P 1'
_cell_length_a   10.65770242
_cell_length_b   7.32447008
_cell_length_c   12.39328945
_cell_angle_alpha   90.00000000
_cell_angle_beta   111.52888630
_cell_angle_gamma   90.00000000
_symmetry_Int_Tables_number   1
_chemical_formula_structural   Li2Fe2(SiO3)3
_chemical_formula_sum   'Li8 Fe8 Si12 O36'
_cell_volume   899.94917185
_cell_formula_units_Z   4
loop_
 _symmetry_equiv_pos_site_id
 _symmetry_equiv_pos_as_xyz
  1  'x, y, z'
loop_
 _atom_site_type_symbol
 _atom_site_label
 _atom_site_symmetry_multiplicity
 _atom_site_fract_x
 _atom_site_fract_y
 _atom_site_fract_z
 _atom_site_occupancy
  Li  Li0  1  0.04669633  0.95951060  0.63500413  1
  Li  Li1  1  0.04669633  0.54048940  0.13500413  1
  Li  Li2  1  0.46432442  0.07510783  0.65537755  1
  Li  Li3  1  0.53567558  0.57510783  0.84462245  1
  Li  Li4  1  0.46432442  0.42489217  0.15537755  1
  Li  Li5  1  0.53567558  0.92489217  0.34462245  1
  Li  Li6  1  0.95330367  0.45951060  0.86499587  1
  Li  Li7  1  0.95330367  0.04048940  0.36499587  1
  Fe  Fe8  1  0.05968512  0.89673956  0.92328598  1
  Fe  Fe9  1  0.05968512  0.60326044  0.42328598  1
  Fe  Fe10  1  0.43074976  0.63647318  0.56149327  1
  Fe  Fe11  1  0.56925024  0.13647318  0.93850673  1
  Fe  Fe12  1  0.43074976  0.86352682  0.06149327  1
  Fe  Fe13  1  0.56925024  0.36352682  0.43850673  1
  Fe  Fe14  1  0.94031488  0.39673956  0.57671402  1
  Fe  Fe15  1  0.94031488  0.10326044  0.07671402  1
  Si  Si16  1  0.23111643  0.54286458  0.93687335  1
  Si  Si17  1  0.23922011  0.15605727  0.85351385  1
  Si  Si18  1  0.25816238  0.47455370  0.70530287  1
  Si  Si19  1  0.23111643  0.95713542  0.43687335  1
  Si  Si20  1  0.23922011  0.34394273  0.35351385  1
  Si  Si21  1  0.25816238  0.02544630  0.20530287  1
  Si  Si22  1  0.74183762  0.97455370  0.79469713  1
  Si  Si23  1  0.76077989  0.65605727  0.64648615  1
  Si  Si24  1  0.76888357  0.04286458  0.56312665  1
  Si  Si25  1  0.74183762  0.52544630  0.29469713  1
  Si  Si26  1  0.76077989  0.84394273  0.14648615  1
  Si  Si27  1  0.76888357  0.45713542  0.06312665  1
  O  O28  1  0.09862806  0.63089907  0.95369852  1
  O  O29  1  0.11484694  0.01376255  0.80192620  1
  O  O30  1  0.12436865  0.50537276  0.58987661  1
  O  O31  1  0.19812538  0.32073731  0.92733651  1
  O  O32  1  0.09862806  0.86910093  0.45369852  1
  O  O33  1  0.24421142  0.59779531  0.81224364  1
  O  O34  1  0.26555744  0.25534519  0.74313247  1
  O  O35  1  0.11484694  0.48623745  0.30192620  1
  O  O36  1  0.37342780  0.59802851  0.03969496  1
  O  O37  1  0.12436865  0.99462724  0.08987661  1
  O  O38  1  0.38090930  0.06706442  0.93853384  1
  O  O39  1  0.19812538  0.17926269  0.42733651  1
  O  O40  1  0.24421142  0.90220469  0.31224364  1
  O  O41  1  0.40221341  0.52728335  0.69665651  1
  O  O42  1  0.26555744  0.24465481  0.24313247  1
  O  O43  1  0.37342780  0.90197149  0.53969496  1
  O  O44  1  0.38090930  0.43293558  0.43853384  1
  O  O45  1  0.40221341  0.97271665  0.19665651  1
  O  O46  1  0.59778659  0.02728335  0.80334349  1
  O  O47  1  0.61909070  0.56706442  0.56146616  1
  O  O48  1  0.62657220  0.09802851  0.46030504  1
  O  O49  1  0.73444256  0.75534519  0.75686753  1
  O  O50  1  0.59778659  0.47271665  0.30334349  1
  O  O51  1  0.75578858  0.09779531  0.68775636  1
  O  O52  1  0.80187462  0.82073731  0.57266349  1
  O  O53  1  0.61909070  0.93293558  0.06146616  1
  O  O54  1  0.87563135  0.00537276  0.91012339  1
  O  O55  1  0.62657220  0.40197149  0.96030504  1
  O  O56  1  0.88515306  0.51376255  0.69807380  1
  O  O57  1  0.73444256  0.74465481  0.25686753  1
  O  O58  1  0.75578858  0.40220469  0.18775636  1
  O  O59  1  0.90137194  0.13089907  0.54630148  1
  O  O60  1  0.80187462  0.67926269  0.07266349  1
  O  O61  1  0.87563135  0.49462724  0.41012339  1
  O  O62  1  0.88515306  0.98623745  0.19807380  1
  O  O63  1  0.90137194  0.36910093  0.04630148  1
