# generated using pymatgen
data_Mg3Zn3As4
_symmetry_space_group_name_H-M   'P 1'
_cell_length_a   4.25418755
_cell_length_b   7.78285082
_cell_length_c   7.25273164
_cell_angle_alpha   117.00917578
_cell_angle_beta   89.13896500
_cell_angle_gamma   105.42996645
_symmetry_Int_Tables_number   1
_chemical_formula_structural   Mg3Zn3As4
_chemical_formula_sum   'Mg3 Zn3 As4'
_cell_volume   204.66286444
_cell_formula_units_Z   1
loop_
 _symmetry_equiv_pos_site_id
 _symmetry_equiv_pos_as_xyz
  1  'x, y, z'
loop_
 _atom_site_type_symbol
 _atom_site_label
 _atom_site_symmetry_multiplicity
 _atom_site_fract_x
 _atom_site_fract_y
 _atom_site_fract_z
 _atom_site_occupancy
  Mg  Mg0  1  0.31885288  0.63593139  0.98179940  1
  Mg  Mg1  1  0.82201084  0.64035682  0.49142658  1
  Mg  Mg2  1  0.66887301  0.33980258  0.00475887  1
  Zn  Zn3  1  0.18981690  0.38249624  0.52073424  1
  Zn  Zn4  1  0.98669648  0.98130684  0.99559100  1
  Zn  Zn5  1  0.50228697  0.00299354  0.49920501  1
  As  As6  1  0.62388083  0.22974729  0.30390365  1
  As  As7  1  0.11728830  0.22338774  0.76233854  1
  As  As8  1  0.39210548  0.79425528  0.72662877  1
  As  As9  1  0.87818830  0.76972230  0.21361394  1
