# generated using pymatgen
data_LiNiPO4
_symmetry_space_group_name_H-M   'P 1'
_cell_length_a   7.41324402
_cell_length_b   13.44958231
_cell_length_c   6.14461039
_cell_angle_alpha   89.99963716
_cell_angle_beta   89.99830624
_cell_angle_gamma   90.00027388
_symmetry_Int_Tables_number   1
_chemical_formula_structural   LiNiPO4
_chemical_formula_sum   'Li8 Ni8 P8 O32'
_cell_volume   612.64859773
_cell_formula_units_Z   8
loop_
 _symmetry_equiv_pos_site_id
 _symmetry_equiv_pos_as_xyz
  1  'x, y, z'
loop_
 _atom_site_type_symbol
 _atom_site_label
 _atom_site_symmetry_multiplicity
 _atom_site_fract_x
 _atom_site_fract_y
 _atom_site_fract_z
 _atom_site_occupancy
  Li  Li0  1  0.17347366  0.52122311  0.44126840  1
  Li  Li1  1  0.17347228  0.97877994  0.94127438  1
  Li  Li2  1  0.32654605  0.02124210  0.44122791  1
  Li  Li3  1  0.32656387  0.47876974  0.94125745  1
  Li  Li4  1  0.67346334  0.52123028  0.05874089  1
  Li  Li5  1  0.67346927  0.97877230  0.55873760  1
  Li  Li6  1  0.82655319  0.02122309  0.05874838  1
  Li  Li7  1  0.82655188  0.47877129  0.55875740  1
  Ni  Ni8  1  0.18651387  0.21466739  0.21214184  1
  Ni  Ni9  1  0.18653875  0.28535219  0.71214317  1
  Ni  Ni10  1  0.31349685  0.78539036  0.71218599  1
  Ni  Ni11  1  0.31348258  0.71459672  0.21218375  1
  Ni  Ni12  1  0.68647739  0.21462896  0.28781716  1
  Ni  Ni13  1  0.68652994  0.28536477  0.78783471  1
  Ni  Ni14  1  0.81349016  0.71460125  0.28782847  1
  Ni  Ni15  1  0.81349879  0.78538535  0.78782176  1
  P  P16  1  0.03964396  0.62782592  0.89004917  1
  P  P17  1  0.03964576  0.87215765  0.39005117  1
  P  P18  1  0.46035030  0.12783437  0.89007842  1
  P  P19  1  0.46035476  0.37217685  0.39006542  1
  P  P20  1  0.53964221  0.62782319  0.60995557  1
  P  P21  1  0.53964224  0.87215899  0.10995704  1
  P  P22  1  0.96036494  0.12783739  0.60991393  1
  P  P23  1  0.96032521  0.37218546  0.10993827  1
  O  O24  1  0.97064689  0.05052807  0.78880798  1
  O  O25  1  0.97064661  0.44948023  0.28886029  1
  O  O26  1  0.06879349  0.76360254  0.29723702  1
  O  O27  1  0.06880286  0.73638211  0.79723438  1
  O  O28  1  0.14743668  0.14017633  0.49262671  1
  O  O29  1  0.14743292  0.35981836  0.99271869  1
  O  O30  1  0.19791636  0.60549258  0.04704824  1
  O  O31  1  0.19792136  0.89448917  0.54704495  1
  O  O32  1  0.30205125  0.10554536  0.04707978  1
  O  O33  1  0.30208291  0.39450177  0.54708496  1
  O  O34  1  0.35256701  0.64013597  0.49268576  1
  O  O35  1  0.35256655  0.85985086  0.99268587  1
  O  O36  1  0.43121882  0.23637982  0.79721946  1
  O  O37  1  0.43114874  0.26363370  0.29724124  1
  O  O38  1  0.52936745  0.55052565  0.78887022  1
  O  O39  1  0.52936613  0.94945801  0.28886746  1
  O  O40  1  0.47065356  0.44947014  0.21114578  1
  O  O41  1  0.47063703  0.05052908  0.71118962  1
  O  O42  1  0.56880473  0.73637752  0.70276400  1
  O  O43  1  0.56879316  0.76360376  0.20276612  1
  O  O44  1  0.64743032  0.14015384  0.00733702  1
  O  O45  1  0.64744010  0.35983974  0.50730644  1
  O  O46  1  0.69792256  0.60548924  0.45295420  1
  O  O47  1  0.69792275  0.89449236  0.95295440  1
  O  O48  1  0.80207669  0.10552770  0.45292748  1
  O  O49  1  0.80207613  0.39452061  0.95289860  1
  O  O50  1  0.85256429  0.64014163  0.00732141  1
  O  O51  1  0.85256254  0.85984482  0.50731627  1
  O  O52  1  0.93121160  0.23637973  0.70277937  1
  O  O53  1  0.93110322  0.26364622  0.20276051  1
  O  O54  1  0.02937332  0.55052613  0.71114595  1
  O  O55  1  0.02937073  0.94945831  0.21114163  1
