# generated using pymatgen
data_Li2FeSiO4
_symmetry_space_group_name_H-M   'P 1'
_cell_length_a   6.91652868
_cell_length_b   5.26358182
_cell_length_c   10.26347865
_cell_angle_alpha   90.00000000
_cell_angle_beta   89.31215182
_cell_angle_gamma   90.00000000
_symmetry_Int_Tables_number   1
_chemical_formula_structural   Li2FeSiO4
_chemical_formula_sum   'Li8 Fe4 Si4 O16'
_cell_volume   373.62234881
_cell_formula_units_Z   4
loop_
 _symmetry_equiv_pos_site_id
 _symmetry_equiv_pos_as_xyz
  1  'x, y, z'
loop_
 _atom_site_type_symbol
 _atom_site_label
 _atom_site_symmetry_multiplicity
 _atom_site_fract_x
 _atom_site_fract_y
 _atom_site_fract_z
 _atom_site_occupancy
  Li  Li0  1  0.00396474  0.23727949  0.84462732  1
  Li  Li1  1  0.00396474  0.26272051  0.34462732  1
  Li  Li2  1  0.22536939  0.37060444  0.65073169  1
  Li  Li3  1  0.22536939  0.12939556  0.15073169  1
  Li  Li4  1  0.77463061  0.87060444  0.84926831  1
  Li  Li5  1  0.77463061  0.62939556  0.34926831  1
  Li  Li6  1  0.99603526  0.73727949  0.65537268  1
  Li  Li7  1  0.99603526  0.76272051  0.15537268  1
  Fe  Fe8  1  0.49746974  0.25336053  0.85937266  1
  Fe  Fe9  1  0.50253026  0.75336053  0.64062734  1
  Fe  Fe10  1  0.49746974  0.24663947  0.35937266  1
  Fe  Fe11  1  0.50253026  0.74663947  0.14062734  1
  Si  Si12  1  0.24045461  0.74024976  0.89803307  1
  Si  Si13  1  0.24045461  0.75975024  0.39803307  1
  Si  Si14  1  0.75954539  0.24024976  0.60196693  1
  Si  Si15  1  0.75954539  0.25975024  0.10196693  1
  O  O16  1  0.05028454  0.86375571  0.83410232  1
  O  O17  1  0.05028454  0.63624429  0.33410232  1
  O  O18  1  0.24683030  0.43018780  0.86573611  1
  O  O19  1  0.24806747  0.70884427  0.55753071  1
  O  O20  1  0.24683030  0.06981220  0.36573611  1
  O  O21  1  0.44754796  0.86061404  0.83629608  1
  O  O22  1  0.24806747  0.79115573  0.05753071  1
  O  O23  1  0.44754796  0.63938596  0.33629608  1
  O  O24  1  0.55245204  0.36061404  0.66370392  1
  O  O25  1  0.75193253  0.20884427  0.94246929  1
  O  O26  1  0.55245204  0.13938596  0.16370392  1
  O  O27  1  0.75316970  0.93018780  0.63426389  1
  O  O28  1  0.75193253  0.29115573  0.44246929  1
  O  O29  1  0.75316970  0.56981220  0.13426389  1
  O  O30  1  0.94971546  0.36375571  0.66589768  1
  O  O31  1  0.94971546  0.13624429  0.16589768  1
