# generated using pymatgen
data_TaCrO4
_symmetry_space_group_name_H-M   'P 1'
_cell_length_a   4.49288664
_cell_length_b   11.94080295
_cell_length_c   5.02625505
_cell_angle_alpha   90.00000000
_cell_angle_beta   90.00000000
_cell_angle_gamma   90.00000000
_symmetry_Int_Tables_number   1
_chemical_formula_structural   TaCrO4
_chemical_formula_sum   'Ta4 Cr4 O16'
_cell_volume   269.65191884
_cell_formula_units_Z   4
loop_
 _symmetry_equiv_pos_site_id
 _symmetry_equiv_pos_as_xyz
  1  'x, y, z'
loop_
 _atom_site_type_symbol
 _atom_site_label
 _atom_site_symmetry_multiplicity
 _atom_site_fract_x
 _atom_site_fract_y
 _atom_site_fract_z
 _atom_site_occupancy
  Ta  Ta0  1  0.00000000  0.42426267  0.25000000  1
  Ta  Ta1  1  0.00000000  0.57573733  0.75000000  1
  Ta  Ta2  1  0.50000000  0.07573733  0.75000000  1
  Ta  Ta3  1  0.50000000  0.92426267  0.25000000  1
  Cr  Cr4  1  0.00000000  0.17804937  0.25000000  1
  Cr  Cr5  1  0.00000000  0.82195063  0.75000000  1
  Cr  Cr6  1  0.50000000  0.67804937  0.25000000  1
  Cr  Cr7  1  0.50000000  0.32195063  0.75000000  1
  O  O8  1  0.23310783  0.30986499  0.41908345  1
  O  O9  1  0.23310783  0.69013501  0.91908345  1
  O  O10  1  0.24114395  0.44410245  0.91822015  1
  O  O11  1  0.24114395  0.55589755  0.41822015  1
  O  O12  1  0.25885605  0.05589755  0.41822015  1
  O  O13  1  0.25885605  0.94410245  0.91822015  1
  O  O14  1  0.26689217  0.19013501  0.91908345  1
  O  O15  1  0.26689217  0.80986499  0.41908345  1
  O  O16  1  0.73310783  0.19013501  0.58091655  1
  O  O17  1  0.73310783  0.80986499  0.08091655  1
  O  O18  1  0.74114395  0.05589755  0.08177985  1
  O  O19  1  0.74114395  0.94410245  0.58177985  1
  O  O20  1  0.75885605  0.44410245  0.58177985  1
  O  O21  1  0.75885605  0.55589755  0.08177985  1
  O  O22  1  0.76689217  0.30986499  0.08091655  1
  O  O23  1  0.76689217  0.69013501  0.58091655  1
