# generated using pymatgen
data_Li2TiMn3O8
_symmetry_space_group_name_H-M   'P 1'
_cell_length_a   5.79180674
_cell_length_b   10.48987175
_cell_length_c   8.86663277
_cell_angle_alpha   115.41174567
_cell_angle_beta   89.73434390
_cell_angle_gamma   105.87179974
_symmetry_Int_Tables_number   1
_chemical_formula_structural   Li2TiMn3O8
_chemical_formula_sum   'Li6 Ti3 Mn9 O24'
_cell_volume   464.06881225
_cell_formula_units_Z   3
loop_
 _symmetry_equiv_pos_site_id
 _symmetry_equiv_pos_as_xyz
  1  'x, y, z'
loop_
 _atom_site_type_symbol
 _atom_site_label
 _atom_site_symmetry_multiplicity
 _atom_site_fract_x
 _atom_site_fract_y
 _atom_site_fract_z
 _atom_site_occupancy
  Li  Li0  1  0.16670720  0.83332433  0.16663007  1
  Li  Li1  1  0.82249429  0.66653281  0.83341494  1
  Li  Li2  1  0.16668051  0.33334755  0.16664992  1
  Li  Li3  1  0.99758987  0.49605704  0.49828680  1
  Li  Li4  1  0.51087313  0.00017514  0.49996908  1
  Li  Li5  1  0.33587951  0.17065350  0.83504521  1
  Ti  Ti6  1  0.32897870  0.66679292  0.33361424  1
  Ti  Ti7  1  0.66671619  0.33337297  0.66663161  1
  Ti  Ti8  1  0.00438644  -0.00004729  0.99972896  1
  Mn  Mn9  1  0.83477926  0.66674603  0.33290488  1
  Mn  Mn10  1  0.66682535  0.83340740  0.66676302  1
  Mn  Mn11  1  0.50394178  0.50415350  0.99958517  1
  Mn  Mn12  1  0.16662520  0.83342524  0.66675532  1
  Mn  Mn13  1  0.99905396  0.49472255  0.99838621  1
  Mn  Mn14  1  0.82935146  0.16245671  0.33369531  1
  Mn  Mn15  1  0.49839919  0.99982688  0.00036344  1
  Mn  Mn16  1  0.33421754  0.17195297  0.33495325  1
  Mn  Mn17  1  0.16677648  0.33320162  0.66668023  1
  O  O18  1  0.82797041  0.64165473  0.06438316  1
  O  O19  1  0.65924404  0.81314442  0.43720459  1
  O  O20  1  0.48546320  0.97575814  0.73167722  1
  O  O21  1  0.31705667  0.64431621  0.09339171  1
  O  O22  1  0.16221667  0.81032185  0.38979382  1
  O  O23  1  0.99130034  0.97899877  0.76158494  1
  O  O24  1  0.84787345  0.69093149  0.60171153  1
  O  O25  1  0.67412753  0.85351532  0.89614127  1
  O  O26  1  0.51502358  0.52158661  0.22801537  1
  O  O27  1  0.34199886  0.68776012  0.57179032  1
  O  O28  1  0.17110779  0.85635115  0.94347688  1
  O  O29  1  0.01977296  0.52251379  0.27655157  1
  O  O30  1  0.98437842  0.47515662  0.73043759  1
  O  O31  1  0.81831494  0.14506881  0.10528346  1
  O  O32  1  0.65937178  0.31360666  0.42938246  1
  O  O33  1  0.49219121  0.48395010  0.76848847  1
  O  O34  1  0.31357465  0.14416516  0.05678488  1
  O  O35  1  0.14260046  0.30973672  0.39898297  1
  O  O36  1  0.01622572  0.02233341  0.23990809  1
  O  O37  1  0.84106338  0.18265598  0.56480306  1
  O  O38  1  0.67387784  0.35306708  0.90396862  1
  O  O39  1  0.50530783  0.02500634  0.26884772  1
  O  O40  1  0.34897072  0.19139604  0.60292740  1
  O  O41  1  0.19068246  0.35690361  0.93440324  1
