# generated using pymatgen
data_LiFe(PO3)4
_symmetry_space_group_name_H-M   'P 1'
_cell_length_a   7.42934120
_cell_length_b   7.42934120
_cell_length_c   18.11682598
_cell_angle_alpha   90.00000000
_cell_angle_beta   90.00000000
_cell_angle_gamma   101.71717337
_symmetry_Int_Tables_number   1
_chemical_formula_structural   LiFe(PO3)4
_chemical_formula_sum   'Li4 Fe4 P16 O48'
_cell_volume   979.12302814
_cell_formula_units_Z   4
loop_
 _symmetry_equiv_pos_site_id
 _symmetry_equiv_pos_as_xyz
  1  'x, y, z'
loop_
 _atom_site_type_symbol
 _atom_site_label
 _atom_site_symmetry_multiplicity
 _atom_site_fract_x
 _atom_site_fract_y
 _atom_site_fract_z
 _atom_site_occupancy
  Li  Li0  1  0.20605403  0.10108502  0.39047144  1
  Li  Li1  1  0.89891498  0.79394597  0.60952856  1
  Li  Li2  1  0.79394597  0.89891498  0.89047144  1
  Li  Li3  1  0.10108502  0.20605403  0.10952856  1
  Fe  Fe4  1  0.56303323  0.95399673  0.62909741  1
  Fe  Fe5  1  0.04600327  0.43696677  0.37090259  1
  Fe  Fe6  1  0.95399673  0.56303323  0.87090259  1
  Fe  Fe7  1  0.43696677  0.04600327  0.12909741  1
  P  P8  1  0.23096357  0.95451077  0.90171838  1
  P  P9  1  0.04548923  0.76903643  0.09828162  1
  P  P10  1  0.28741663  0.77276929  0.76053386  1
  P  P11  1  0.22723071  0.71258337  0.23946614  1
  P  P12  1  0.38127628  0.61872372  0.50000000  1
  P  P13  1  0.23481641  0.33306027  0.94201292  1
  P  P14  1  0.66693973  0.76518359  0.05798708  1
  P  P15  1  0.36561299  0.36561299  0.25000000  1
  P  P16  1  0.63438701  0.63438701  0.75000000  1
  P  P17  1  0.33306027  0.23481641  0.55798708  1
  P  P18  1  0.76518359  0.66693973  0.44201292  1
  P  P19  1  0.61872372  0.38127628  0.00000000  1
  P  P20  1  0.77276929  0.28741663  0.73946614  1
  P  P21  1  0.71258337  0.22723071  0.26053386  1
  P  P22  1  0.76903643  0.04548923  0.40171838  1
  P  P23  1  0.95451077  0.23096357  0.59828162  1
  O  O24  1  0.16568912  0.96293538  0.10388591  1
  O  O25  1  0.03706462  0.83431088  0.89611409  1
  O  O26  1  0.35077229  0.94954027  0.96524134  1
  O  O27  1  0.05045973  0.64922771  0.03475866  1
  O  O28  1  0.33482356  0.90499243  0.23125905  1
  O  O29  1  0.09500757  0.66517644  0.76874095  1
  O  O30  1  0.08316413  0.65963909  0.17362309  1
  O  O31  1  0.34036091  0.91683587  0.82637691  1
  O  O32  1  0.33482589  0.87292579  0.68860374  1
  O  O33  1  0.12707421  0.66517411  0.31139626  1
  O  O34  1  0.42078846  0.78808982  0.54784404  1
  O  O35  1  0.21191018  0.57921154  0.45215596  1
  O  O36  1  0.51101008  0.82229993  0.09996690  1
  O  O37  1  0.17770007  0.48898992  0.90003310  1
  O  O38  1  0.36944817  0.57448173  0.22901185  1
  O  O39  1  0.42551827  0.63055183  0.77098815  1
  O  O40  1  0.80304797  0.83890883  0.38473111  1
  O  O41  1  0.16109117  0.19695203  0.61526889  1
  O  O42  1  0.54426197  0.61140948  0.44249492  1
  O  O43  1  0.38859052  0.45573803  0.55750508  1
  O  O44  1  0.68459705  0.74635788  0.68023561  1
  O  O45  1  0.25364212  0.31540295  0.31976439  1
  O  O46  1  0.15765256  0.28420686  0.01601367  1
  O  O47  1  0.71579314  0.84234744  0.98398633  1
  O  O48  1  0.28420686  0.15765256  0.48398633  1
  O  O49  1  0.84234744  0.71579314  0.51601367  1
  O  O50  1  0.31540295  0.25364212  0.18023561  1
  O  O51  1  0.74635788  0.68459705  0.81976439  1
  O  O52  1  0.61140948  0.54426197  0.05750508  1
  O  O53  1  0.45573803  0.38859052  0.94249492  1
  O  O54  1  0.19695203  0.16109117  0.88473111  1
  O  O55  1  0.83890883  0.80304797  0.11526889  1
  O  O56  1  0.63055183  0.42551827  0.72901185  1
  O  O57  1  0.57448173  0.36944817  0.27098815  1
  O  O58  1  0.82229993  0.51101008  0.40003310  1
  O  O59  1  0.48898992  0.17770007  0.59996690  1
  O  O60  1  0.78808982  0.42078846  0.95215596  1
  O  O61  1  0.57921154  0.21191018  0.04784404  1
  O  O62  1  0.66517411  0.12707421  0.18860374  1
  O  O63  1  0.87292579  0.33482589  0.81139626  1
  O  O64  1  0.65963909  0.08316413  0.32637691  1
  O  O65  1  0.91683587  0.34036091  0.67362309  1
  O  O66  1  0.90499243  0.33482356  0.26874095  1
  O  O67  1  0.66517644  0.09500757  0.73125905  1
  O  O68  1  0.64922771  0.05045973  0.46524134  1
  O  O69  1  0.94954027  0.35077229  0.53475866  1
  O  O70  1  0.96293538  0.16568912  0.39611409  1
  O  O71  1  0.83431088  0.03706462  0.60388591  1
