# generated using pymatgen
data_Mn6O7F5
_symmetry_space_group_name_H-M   'P 1'
_cell_length_a   4.56862629
_cell_length_b   5.64113179
_cell_length_c   15.34618682
_cell_angle_alpha   89.96015003
_cell_angle_beta   90.44197199
_cell_angle_gamma   90.79675497
_symmetry_Int_Tables_number   1
_chemical_formula_structural   Mn6O7F5
_chemical_formula_sum   'Mn12 O14 F10'
_cell_volume   395.45527454
_cell_formula_units_Z   2
loop_
 _symmetry_equiv_pos_site_id
 _symmetry_equiv_pos_as_xyz
  1  'x, y, z'
loop_
 _atom_site_type_symbol
 _atom_site_label
 _atom_site_symmetry_multiplicity
 _atom_site_fract_x
 _atom_site_fract_y
 _atom_site_fract_z
 _atom_site_occupancy
  Mn  Mn0  1  0.03267535  0.17621091  0.40797408  1
  Mn  Mn1  1  0.03044281  0.83843724  0.24581305  1
  Mn  Mn2  1  0.99846790  0.15237419  0.07560872  1
  Mn  Mn3  1  0.01843213  0.16506305  0.74421202  1
  Mn  Mn4  1  0.99208777  0.84843258  0.58189931  1
  Mn  Mn5  1  0.01405362  0.84905116  0.90656998  1
  Mn  Mn6  1  0.50319881  0.35114541  0.58733997  1
  Mn  Mn7  1  0.49744875  0.34786826  0.92108278  1
  Mn  Mn8  1  0.50089417  0.36286121  0.25643228  1
  Mn  Mn9  1  0.50895497  0.65435927  0.09018095  1
  Mn  Mn10  1  0.51701040  0.62396391  0.42056106  1
  Mn  Mn11  1  0.49798863  0.63524480  0.76083219  1
  O  O12  1  0.24099768  0.11289530  0.30065969  1
  O  O13  1  0.20924720  0.11617476  0.63499350  1
  O  O14  1  0.21899525  0.11236808  0.96700706  1
  O  O15  1  0.21545872  0.88623414  0.13368481  1
  O  O16  1  0.23262973  0.88665404  0.80110203  1
  O  O17  1  0.28718803  0.59754950  0.31512182  1
  O  O18  1  0.28834367  0.39153567  0.47836241  1
  O  O19  1  0.27523284  0.39745286  0.81308259  1
  O  O20  1  0.71437007  0.38257432  0.03095179  1
  O  O21  1  0.72404579  0.61572952  0.19760577  1
  O  O22  1  0.72805049  0.38410251  0.35982514  1
  O  O23  1  0.73436211  0.61218145  0.52958008  1
  O  O24  1  0.72242613  0.61731823  0.86293997  1
  O  O25  1  0.72174832  0.39083399  0.69621094  1
  F  F26  1  0.25438624  0.87973496  0.46904133  1
  F  F27  1  0.24933456  0.38338344  0.15155455  1
  F  F28  1  0.25130980  0.62448562  0.65012997  1
  F  F29  1  0.25294114  0.61744225  0.98562181  1
  F  F30  1  0.74905264  0.12707012  0.19125134  1
  F  F31  1  0.77463356  0.10444532  0.51749104  1
  F  F32  1  0.78102244  0.86952610  0.36097300  1
  F  F33  1  0.75411844  0.88279036  0.01135352  1
  F  F34  1  0.77140556  0.12624330  0.84810152  1
  F  F35  1  0.73704427  0.87626217  0.69484792  1
