# generated using pymatgen
data_LiMnF3
_symmetry_space_group_name_H-M   'P 1'
_cell_length_a   7.88107045
_cell_length_b   10.18673632
_cell_length_c   7.13317655
_cell_angle_alpha   90.00000000
_cell_angle_beta   114.47354868
_cell_angle_gamma   90.00000000
_symmetry_Int_Tables_number   1
_chemical_formula_structural   LiMnF3
_chemical_formula_sum   'Li8 Mn8 F24'
_cell_volume   521.21568008
_cell_formula_units_Z   8
loop_
 _symmetry_equiv_pos_site_id
 _symmetry_equiv_pos_as_xyz
  1  'x, y, z'
loop_
 _atom_site_type_symbol
 _atom_site_label
 _atom_site_symmetry_multiplicity
 _atom_site_fract_x
 _atom_site_fract_y
 _atom_site_fract_z
 _atom_site_occupancy
  Li  Li0  1  0.15863229  0.01776847  0.75211500  1
  Li  Li1  1  0.15863229  0.48223153  0.25211500  1
  Li  Li2  1  0.51089485  0.74237816  0.78882008  1
  Li  Li3  1  0.48910515  0.24237816  0.71117992  1
  Li  Li4  1  0.51089485  0.75762184  0.28882008  1
  Li  Li5  1  0.48910515  0.25762184  0.21117992  1
  Li  Li6  1  0.84136771  0.51776847  0.74788500  1
  Li  Li7  1  0.84136771  0.98223153  0.24788500  1
  Mn  Mn8  1  0.01016701  0.23581901  0.96876919  1
  Mn  Mn9  1  0.01016701  0.26418099  0.46876919  1
  Mn  Mn10  1  0.27526986  0.49128866  0.84839292  1
  Mn  Mn11  1  0.27526986  0.00871134  0.34839292  1
  Mn  Mn12  1  0.72473014  0.99128866  0.65160708  1
  Mn  Mn13  1  0.72473014  0.50871134  0.15160708  1
  Mn  Mn14  1  0.98983299  0.73581901  0.53123081  1
  Mn  Mn15  1  0.98983299  0.76418099  0.03123081  1
  F  F16  1  0.07591258  0.60217848  0.91191716  1
  F  F17  1  0.99481227  0.86715628  0.76715267  1
  F  F18  1  0.22002068  0.09812545  0.01750250  1
  F  F19  1  0.07591258  0.89782152  0.41191716  1
  F  F20  1  0.99481227  0.63284372  0.26715267  1
  F  F21  1  0.22002068  0.40187455  0.51750250  1
  F  F22  1  0.26760979  0.66609132  0.67897413  1
  F  F23  1  0.28221118  0.12663088  0.62492377  1
  F  F24  1  0.51037801  0.37504162  0.91107393  1
  F  F25  1  0.26760979  0.83390868  0.17897413  1
  F  F26  1  0.28221118  0.37336912  0.12492377  1
  F  F27  1  0.48962199  0.87504162  0.58892607  1
  F  F28  1  0.51037801  0.12495838  0.41107393  1
  F  F29  1  0.71778882  0.62663088  0.87507623  1
  F  F30  1  0.73239021  0.16609132  0.82102587  1
  F  F31  1  0.48962199  0.62495838  0.08892607  1
  F  F32  1  0.71778882  0.87336912  0.37507623  1
  F  F33  1  0.73239021  0.33390868  0.32102587  1
  F  F34  1  0.77997932  0.59812545  0.48249750  1
  F  F35  1  0.00518773  0.36715628  0.73284733  1
  F  F36  1  0.92408742  0.10217848  0.58808284  1
  F  F37  1  0.77997932  0.90187455  0.98249750  1
  F  F38  1  0.00518773  0.13284372  0.23284733  1
  F  F39  1  0.92408742  0.39782152  0.08808284  1
