# generated using pymatgen
data_LuBiTe3
_symmetry_space_group_name_H-M   'P 1'
_cell_length_a   4.36914707
_cell_length_b   4.36914707
_cell_length_c   10.90266199
_cell_angle_alpha   78.44136783
_cell_angle_beta   78.44136783
_cell_angle_gamma   60.00000806
_symmetry_Int_Tables_number   1
_chemical_formula_structural   LuBiTe3
_chemical_formula_sum   'Lu1 Bi1 Te3'
_cell_volume   175.35158578
_cell_formula_units_Z   1
loop_
 _symmetry_equiv_pos_site_id
 _symmetry_equiv_pos_as_xyz
  1  'x, y, z'
loop_
 _atom_site_type_symbol
 _atom_site_label
 _atom_site_symmetry_multiplicity
 _atom_site_fract_x
 _atom_site_fract_y
 _atom_site_fract_z
 _atom_site_occupancy
  Lu  Lu0  1  0.60237162  0.60237162  0.19288514  1
  Bi  Bi1  1  0.39780462  0.39780462  0.80658615  1
  Te  Te2  1  0.99510224  0.99510224  0.01469329  1
  Te  Te3  1  0.78499768  0.78499768  0.64500697  1
  Te  Te4  1  0.21972385  0.21972385  0.34082845  1
