# generated using pymatgen
data_LiMn3NiO8
_symmetry_space_group_name_H-M   'P 1'
_cell_length_a   5.96992337
_cell_length_b   5.81738506
_cell_length_c   5.81061009
_cell_angle_alpha   59.08794731
_cell_angle_beta   61.87180837
_cell_angle_gamma   88.71207997
_symmetry_Int_Tables_number   1
_chemical_formula_structural   LiMn3NiO8
_chemical_formula_sum   'Li1 Mn3 Ni1 O8'
_cell_volume   146.10709539
_cell_formula_units_Z   1
loop_
 _symmetry_equiv_pos_site_id
 _symmetry_equiv_pos_as_xyz
  1  'x, y, z'
loop_
 _atom_site_type_symbol
 _atom_site_label
 _atom_site_symmetry_multiplicity
 _atom_site_fract_x
 _atom_site_fract_y
 _atom_site_fract_z
 _atom_site_occupancy
  Li  Li0  1  0.50001066  0.00000932  0.99999274  1
  Mn  Mn1  1  0.99994681  0.00001266  0.49998022  1
  Mn  Mn2  1  -0.00002798  0.49997004  0.00002431  1
  Mn  Mn3  1  0.00002624  0.49998799  0.49999925  1
  Ni  Ni4  1  0.00003502  0.00000260  -0.00002726  1
  O  O5  1  0.20401462  0.23741627  0.04869494  1
  O  O6  1  0.19554892  0.72706113  0.04369668  1
  O  O7  1  0.18692489  0.22123301  0.55163812  1
  O  O8  1  0.19837758  0.72911817  0.53349925  1
  O  O9  1  0.80160632  0.27090797  0.46650004  1
  O  O10  1  0.81298969  0.77873382  0.44841824  1
  O  O11  1  0.80449877  0.27295285  0.95630955  1
  O  O12  1  0.79604848  0.76259217  0.95127392  1
