# generated using pymatgen
data_K4Li3Mn2O8
_symmetry_space_group_name_H-M   'P 1'
_cell_length_a   5.64931631
_cell_length_b   8.45118199
_cell_length_c   11.15788704
_cell_angle_alpha   90.00000000
_cell_angle_beta   78.49977717
_cell_angle_gamma   90.00000000
_symmetry_Int_Tables_number   1
_chemical_formula_structural   K4Li3Mn2O8
_chemical_formula_sum   'K8 Li6 Mn4 O16'
_cell_volume   522.02063344
_cell_formula_units_Z   2
loop_
 _symmetry_equiv_pos_site_id
 _symmetry_equiv_pos_as_xyz
  1  'x, y, z'
loop_
 _atom_site_type_symbol
 _atom_site_label
 _atom_site_symmetry_multiplicity
 _atom_site_fract_x
 _atom_site_fract_y
 _atom_site_fract_z
 _atom_site_occupancy
  K  K0  1  0.17173911  0.99657339  0.15492658  1
  K  K1  1  0.16314280  0.26021037  0.61970424  1
  K  K2  1  0.35348906  0.49899890  0.33620551  1
  K  K3  1  0.66314280  0.23978963  0.11970424  1
  K  K4  1  0.37736566  0.78960215  0.88585587  1
  K  K5  1  0.67173911  0.50342661  0.65492658  1
  K  K6  1  0.87736566  0.71039785  0.38585587  1
  K  K7  1  0.85348906  0.00100110  0.83620551  1
  Li  Li8  1  0.26405296  0.52986069  0.07655414  1
  Li  Li9  1  0.19181160  0.01451156  0.43166534  1
  Li  Li10  1  0.09855018  0.54886533  0.79852350  1
  Li  Li11  1  0.59855018  0.95113467  0.29852350  1
  Li  Li12  1  0.76405296  0.97013931  0.57655414  1
  Li  Li13  1  0.69181160  0.48548844  0.93166534  1
  Mn  Mn14  1  0.20084697  0.29143302  0.93027845  1
  Mn  Mn15  1  0.29595077  0.78573783  0.57152788  1
  Mn  Mn16  1  0.70084697  0.20856698  0.43027845  1
  Mn  Mn17  1  0.79595077  0.71426217  0.07152788  1
  O  O18  1  0.06227207  0.70250750  0.13535327  1
  O  O19  1  0.14080958  0.30990722  0.08597347  1
  O  O20  1  0.09038881  0.95218578  0.60163946  1
  O  O21  1  0.19863746  0.58458264  0.62184772  1
  O  O22  1  0.36442524  0.81269317  0.40278500  1
  O  O23  1  0.44452538  0.17612095  0.36723690  1
  O  O24  1  0.31867075  0.10962830  0.89491930  1
  O  O25  1  0.59038881  0.54781422  0.10163946  1
  O  O26  1  0.37503559  0.45951011  0.87913839  1
  O  O27  1  0.69863746  0.91541736  0.12184772  1
  O  O28  1  0.56227207  0.79749250  0.63535327  1
  O  O29  1  0.64080958  0.19009278  0.58597347  1
  O  O30  1  0.81867075  0.39037170  0.39491930  1
  O  O31  1  0.87503559  0.04048989  0.37913839  1
  O  O32  1  0.86442524  0.68730683  0.90278500  1
  O  O33  1  0.94452538  0.32387905  0.86723690  1
