# generated using pymatgen
data_LiV2(SiO4)2
_symmetry_space_group_name_H-M   'P 1'
_cell_length_a   4.87832270
_cell_length_b   4.87912705
_cell_length_c   6.32025997
_cell_angle_alpha   89.83553282
_cell_angle_beta   89.87420150
_cell_angle_gamma   67.77216339
_symmetry_Int_Tables_number   1
_chemical_formula_structural   LiV2(SiO4)2
_chemical_formula_sum   'Li1 V2 Si2 O8'
_cell_volume   139.25462024
_cell_formula_units_Z   1
loop_
 _symmetry_equiv_pos_site_id
 _symmetry_equiv_pos_as_xyz
  1  'x, y, z'
loop_
 _atom_site_type_symbol
 _atom_site_label
 _atom_site_symmetry_multiplicity
 _atom_site_fract_x
 _atom_site_fract_y
 _atom_site_fract_z
 _atom_site_occupancy
  Li  Li0  1  0.32245724  0.33161361  0.46338849  1
  V  V1  1  0.99937141  0.99830727  0.21397235  1
  V  V2  1  0.99663250  0.99530341  0.72826575  1
  Si  Si3  1  0.35147470  0.34950762  0.96380258  1
  Si  Si4  1  0.65346983  0.65205111  0.46504451  1
  O  O5  1  0.23075574  0.22885627  0.75278564  1
  O  O6  1  0.24370501  0.24051713  0.17915594  1
  O  O7  1  0.21728040  0.71940387  0.95674680  1
  O  O8  1  0.28510868  0.77226190  0.47595909  1
  O  O9  1  0.72150235  0.21541560  0.95676854  1
  O  O10  1  0.77273582  0.28365831  0.47638429  1
  O  O11  1  0.77896576  0.77644907  0.66965834  1
  O  O12  1  0.76639957  0.76154883  0.25628966  1
