# generated using pymatgen
data_Li3Mn4P3H12O19
_symmetry_space_group_name_H-M   'P 1'
_cell_length_a   10.82621517
_cell_length_b   10.82621517
_cell_length_c   10.82621529
_cell_angle_alpha   60.26527062
_cell_angle_beta   60.26527062
_cell_angle_gamma   60.26526865
_symmetry_Int_Tables_number   1
_chemical_formula_structural   Li3Mn4P3H12O19
_chemical_formula_sum   'Li6 Mn8 P6 H24 O38'
_cell_volume   902.64038600
_cell_formula_units_Z   2
loop_
 _symmetry_equiv_pos_site_id
 _symmetry_equiv_pos_as_xyz
  1  'x, y, z'
loop_
 _atom_site_type_symbol
 _atom_site_label
 _atom_site_symmetry_multiplicity
 _atom_site_fract_x
 _atom_site_fract_y
 _atom_site_fract_z
 _atom_site_occupancy
  Li  Li0  1  0.06958648  0.67422625  0.93779547  1
  Li  Li1  1  0.17422625  0.56958648  0.43779547  1
  Li  Li2  1  0.67422625  0.93779547  0.06958648  1
  Li  Li3  1  0.56958648  0.43779547  0.17422625  1
  Li  Li4  1  0.43779547  0.17422625  0.56958648  1
  Li  Li5  1  0.93779547  0.06958648  0.67422625  1
  Mn  Mn6  1  0.00675430  0.97881170  0.30536094  1
  Mn  Mn7  1  0.50675430  0.80536094  0.47881170  1
  Mn  Mn8  1  0.47881170  0.50675430  0.80536094  1
  Mn  Mn9  1  0.99880524  0.99880524  0.99880524  1
  Mn  Mn10  1  0.49880524  0.49880524  0.49880524  1
  Mn  Mn11  1  0.30536094  0.00675430  0.97881170  1
  Mn  Mn12  1  0.80536094  0.47881170  0.50675430  1
  Mn  Mn13  1  0.97881170  0.30536094  0.00675430  1
  P  P14  1  0.30078075  0.83872052  0.80634099  1
  P  P15  1  0.33872052  0.80078075  0.30634099  1
  P  P16  1  0.30634099  0.33872052  0.80078075  1
  P  P17  1  0.83872052  0.80634099  0.30078075  1
  P  P18  1  0.80634099  0.30078075  0.83872052  1
  P  P19  1  0.80078075  0.30634099  0.33872052  1
  H  H20  1  0.00383143  0.75815041  0.69049730  1
  H  H21  1  0.14322068  0.80652259  0.62438478  1
  H  H22  1  0.02722873  0.46153851  0.22395933  1
  H  H23  1  0.30652259  0.64322068  0.12438478  1
  H  H24  1  0.72395933  0.96153851  0.52722873  1
  H  H25  1  0.25815041  0.50383143  0.19049730  1
  H  H26  1  0.12438478  0.30652259  0.64322068  1
  H  H27  1  0.61471960  0.88645928  0.67406198  1
  H  H28  1  0.17406198  0.38645928  0.11471960  1
  H  H29  1  0.52722873  0.72395933  0.96153851  1
  H  H30  1  0.19049730  0.25815041  0.50383143  1
  H  H31  1  0.11471960  0.17406198  0.38645928  1
  H  H32  1  0.67406198  0.61471960  0.88645928  1
  H  H33  1  0.75815041  0.69049730  0.00383143  1
  H  H34  1  0.22395933  0.02722873  0.46153851  1
  H  H35  1  0.88645928  0.67406198  0.61471960  1
  H  H36  1  0.38645928  0.11471960  0.17406198  1
  H  H37  1  0.80652259  0.62438478  0.14322068  1
  H  H38  1  0.46153851  0.22395933  0.02722873  1
  H  H39  1  0.50383143  0.19049730  0.25815041  1
  H  H40  1  0.96153851  0.52722873  0.72395933  1
  H  H41  1  0.62438478  0.14322068  0.80652259  1
  H  H42  1  0.64322068  0.12438478  0.30652259  1
  H  H43  1  0.69049730  0.00383143  0.75815041  1
  O  O44  1  0.14753036  0.96309754  0.79859457  1
  O  O45  1  0.04194385  0.81712314  0.70158048  1
  O  O46  1  0.18564681  0.78622794  0.34611322  1
  O  O47  1  0.37857197  0.92783468  0.15466404  1
  O  O48  1  0.32211076  0.84395354  0.43404282  1
  O  O49  1  0.34395354  0.82211076  0.93404282  1
  O  O50  1  0.42783468  0.87857197  0.65466404  1
  O  O51  1  0.28622794  0.68564681  0.84611322  1
  O  O52  1  0.13007405  0.46602310  0.15718576  1
  O  O53  1  0.65718576  0.96602310  0.63007405  1
  O  O54  1  0.15466404  0.37857197  0.92783468  1
  O  O55  1  0.31712314  0.54194385  0.20158048  1
  O  O56  1  0.68564681  0.84611322  0.28622794  1
  O  O57  1  0.46309754  0.64753036  0.29859457  1
  O  O58  1  0.29859457  0.46309754  0.64753036  1
  O  O59  1  0.82211076  0.93404282  0.34395354  1
  O  O60  1  0.20158048  0.31712314  0.54194385  1
  O  O61  1  0.63007405  0.65718576  0.96602310  1
  O  O62  1  0.07578011  0.07578011  0.07578011  1
  O  O63  1  0.57578011  0.57578011  0.57578011  1
  O  O64  1  0.15718576  0.13007405  0.46602310  1
  O  O65  1  0.81712314  0.70158048  0.04194385  1
  O  O66  1  0.43404282  0.32211076  0.84395354  1
  O  O67  1  0.96309754  0.79859457  0.14753036  1
  O  O68  1  0.34611322  0.18564681  0.78622794  1
  O  O69  1  0.65466404  0.42783468  0.87857197  1
  O  O70  1  0.87857197  0.65466404  0.42783468  1
  O  O71  1  0.46602310  0.15718576  0.13007405  1
  O  O72  1  0.96602310  0.63007405  0.65718576  1
  O  O73  1  0.64753036  0.29859457  0.46309754  1
  O  O74  1  0.54194385  0.20158048  0.31712314  1
  O  O75  1  0.84395354  0.43404282  0.32211076  1
  O  O76  1  0.78622794  0.34611322  0.18564681  1
  O  O77  1  0.84611322  0.28622794  0.68564681  1
  O  O78  1  0.93404282  0.34395354  0.82211076  1
  O  O79  1  0.70158048  0.04194385  0.81712314  1
  O  O80  1  0.79859457  0.14753036  0.96309754  1
  O  O81  1  0.92783468  0.15466404  0.37857197  1
