# generated using pymatgen
data_LiMn2NiO6
_symmetry_space_group_name_H-M   'P 1'
_cell_length_a   2.91593815
_cell_length_b   6.57325861
_cell_length_c   5.89590111
_cell_angle_alpha   104.45313622
_cell_angle_beta   91.50602803
_cell_angle_gamma   103.17171655
_symmetry_Int_Tables_number   1
_chemical_formula_structural   LiMn2NiO6
_chemical_formula_sum   'Li1 Mn2 Ni1 O6'
_cell_volume   106.13736418
_cell_formula_units_Z   1
loop_
 _symmetry_equiv_pos_site_id
 _symmetry_equiv_pos_as_xyz
  1  'x, y, z'
loop_
 _atom_site_type_symbol
 _atom_site_label
 _atom_site_symmetry_multiplicity
 _atom_site_fract_x
 _atom_site_fract_y
 _atom_site_fract_z
 _atom_site_occupancy
  Li  Li0  1  0.33336226  0.66668806  0.16667961  1
  Mn  Mn1  1  0.99279783  0.00387361  0.98753554  1
  Mn  Mn2  1  0.67385692  0.32945741  0.34579390  1
  Ni  Ni3  1  0.33332425  0.66665135  0.66664929  1
  O  O4  1  0.85692815  0.63589890  0.42502887  1
  O  O5  1  0.15836274  0.31833119  0.12141387  1
  O  O6  1  0.80973640  0.69743190  0.90829393  1
  O  O7  1  0.19750837  0.35530269  0.56318478  1
  O  O8  1  0.50831058  0.01500068  0.21193589  1
  O  O9  1  0.46914450  0.97803221  0.77015132  1
