# generated using pymatgen
data_Li6NbCo3(PO4)6
_symmetry_space_group_name_H-M   'P 1'
_cell_length_a   8.70881530
_cell_length_b   8.74863801
_cell_length_c   8.76159963
_cell_angle_alpha   60.80267972
_cell_angle_beta   60.60740460
_cell_angle_gamma   61.15822424
_symmetry_Int_Tables_number   1
_chemical_formula_structural   Li6NbCo3(PO4)6
_chemical_formula_sum   'Li6 Nb1 Co3 P6 O24'
_cell_volume   481.11710208
_cell_formula_units_Z   1
loop_
 _symmetry_equiv_pos_site_id
 _symmetry_equiv_pos_as_xyz
  1  'x, y, z'
loop_
 _atom_site_type_symbol
 _atom_site_label
 _atom_site_symmetry_multiplicity
 _atom_site_fract_x
 _atom_site_fract_y
 _atom_site_fract_z
 _atom_site_occupancy
  Li  Li0  1  0.03441896  0.02098447  0.01162532  1
  Li  Li1  1  0.73708297  0.16120681  0.35604898  1
  Li  Li2  1  0.47223936  0.50048370  0.49087984  1
  Li  Li3  1  0.30984706  0.83615906  0.64364580  1
  Li  Li4  1  0.64568157  0.31428696  0.83147987  1
  Li  Li5  1  0.83458662  0.64395856  0.31271398  1
  Nb  Nb6  1  0.85281959  0.85094297  0.85266992  1
  Co  Co7  1  0.14812563  0.15207009  0.14087535  1
  Co  Co8  1  0.35552939  0.36166191  0.35260869  1
  Co  Co9  1  0.65118794  0.65090440  0.64936684  1
  P  P10  1  0.05121263  0.75030124  0.43883137  1
  P  P11  1  0.44426198  0.04896022  0.74681417  1
  P  P12  1  0.74977506  0.44196697  0.04575076  1
  P  P13  1  0.24970128  0.53929172  0.95876762  1
  P  P14  1  0.54111532  0.96178598  0.25240961  1
  P  P15  1  0.95569934  0.25041663  0.53300517  1
  O  O16  1  0.13063733  0.27073603  0.50644017  1
  O  O17  1  0.27938090  0.52260069  0.12289815  1
  O  O18  1  0.06256690  0.92148636  0.26122719  1
  O  O19  1  0.54415694  0.11810718  0.28236745  1
  O  O20  1  0.23484961  0.59477668  0.44099134  1
  O  O21  1  0.98400210  0.81392664  0.61121851  1
  O  O22  1  0.26041390  0.08436297  0.90458467  1
  O  O23  1  0.47384630  0.22207183  0.57795636  1
  O  O24  1  0.59579651  0.43964461  0.23497953  1
  O  O25  1  0.17864923  0.38689920  0.00242018  1
  O  O26  1  0.09926021  0.73746272  0.90365480  1
  O  O27  1  0.38012208  0.01577445  0.19189058  1
  O  O28  1  0.61267007  0.97646978  0.81852927  1
  O  O29  1  0.90615920  0.25478870  0.07558702  1
  O  O30  1  0.81821483  0.60847154  0.98300795  1
  O  O31  1  0.41841495  0.54544888  0.77608478  1
  O  O32  1  0.54567695  0.77852077  0.41978663  1
  O  O33  1  0.73705199  0.90290251  0.09692879  1
  O  O34  1  0.97141445  0.19201032  0.38458549  1
  O  O35  1  0.77653727  0.42111229  0.54900435  1
  O  O36  1  0.46555431  0.89341233  0.69642928  1
  O  O37  1  0.90398191  0.09715199  0.73369846  1
  O  O38  1  0.69253138  0.47122346  0.89215722  1
  O  O39  1  0.89482396  0.69425639  0.46707751  1
