# generated using pymatgen
data_Li2VGa3O8
_symmetry_space_group_name_H-M   'P 1'
_cell_length_a   5.50053210
_cell_length_b   6.63989672
_cell_length_c   5.21117748
_cell_angle_alpha   89.52764577
_cell_angle_beta   89.79710569
_cell_angle_gamma   89.62288369
_symmetry_Int_Tables_number   1
_chemical_formula_structural   Li2VGa3O8
_chemical_formula_sum   'Li2 V1 Ga3 O8'
_cell_volume   190.31590524
_cell_formula_units_Z   1
loop_
 _symmetry_equiv_pos_site_id
 _symmetry_equiv_pos_as_xyz
  1  'x, y, z'
loop_
 _atom_site_type_symbol
 _atom_site_label
 _atom_site_symmetry_multiplicity
 _atom_site_fract_x
 _atom_site_fract_y
 _atom_site_fract_z
 _atom_site_occupancy
  Li  Li0  1  0.10236710  0.62503853  0.49235201  1
  Li  Li1  1  0.42943348  0.12617071  0.00744156  1
  V  V2  1  0.08242284  0.12408590  0.49960140  1
  Ga  Ga3  1  0.41871702  0.62674839  0.99386099  1
  Ga  Ga4  1  0.57223891  0.38910095  0.48215233  1
  Ga  Ga5  1  0.91196180  0.85978098  0.01280820  1
  O  O6  1  0.07875536  0.08572427  0.16928070  1
  O  O7  1  0.10354949  0.65515868  0.12298790  1
  O  O8  1  0.37613858  0.16609479  0.61000093  1
  O  O9  1  0.42094126  0.59687402  0.63998058  1
  O  O10  1  0.53644098  0.38643567  0.13583236  1
  O  O11  1  0.58894496  0.86488392  0.06565431  1
  O  O12  1  0.90128285  0.33750583  0.56914082  1
  O  O13  1  0.97692136  0.90631136  0.65195192  1
