# generated using pymatgen
data_FeOF
_symmetry_space_group_name_H-M   'P 1'
_cell_length_a   9.49817256
_cell_length_b   14.28270572
_cell_length_c   3.09587462
_cell_angle_alpha   90.00000000
_cell_angle_beta   90.00000000
_cell_angle_gamma   90.53790291
_symmetry_Int_Tables_number   1
_chemical_formula_structural   FeOF
_chemical_formula_sum   'Fe12 O12 F12'
_cell_volume   419.96661561
_cell_formula_units_Z   12
loop_
 _symmetry_equiv_pos_site_id
 _symmetry_equiv_pos_as_xyz
  1  'x, y, z'
loop_
 _atom_site_type_symbol
 _atom_site_label
 _atom_site_symmetry_multiplicity
 _atom_site_fract_x
 _atom_site_fract_y
 _atom_site_fract_z
 _atom_site_occupancy
  Fe  Fe0  1  0.01386630  0.99593542  0.00000000  1
  Fe  Fe1  1  0.00907011  0.33603743  0.00000000  1
  Fe  Fe2  1  0.00856846  0.66035390  0.00000000  1
  Fe  Fe3  1  0.28977802  0.16345765  0.50000000  1
  Fe  Fe4  1  0.22949117  0.49933183  0.50000000  1
  Fe  Fe5  1  0.22471040  0.82896222  0.50000000  1
  Fe  Fe6  1  0.50471470  0.32466663  0.00000000  1
  Fe  Fe7  1  0.51010957  0.00008973  0.00000000  1
  Fe  Fe8  1  0.51584633  0.66690914  0.00000000  1
  Fe  Fe9  1  0.72683079  0.16569233  0.50000000  1
  Fe  Fe10  1  0.74764705  0.52097874  0.50000000  1
  Fe  Fe11  1  0.72496657  0.83369608  0.50000000  1
  O  O12  1  0.09863483  0.59940253  0.50000000  1
  O  O13  1  0.09882368  0.94036974  0.50000000  1
  O  O14  1  0.14350021  0.76787397  0.00000000  1
  O  O15  1  0.15085386  0.42826063  0.00000000  1
  O  O16  1  0.34589448  0.23752393  0.00000000  1
  O  O17  1  0.40495110  0.05973096  0.50000000  1
  O  O18  1  0.60222545  0.27401176  0.50000000  1
  O  O19  1  0.59834503  0.93462678  0.50000000  1
  O  O20  1  0.58460958  0.59926210  0.50000000  1
  O  O21  1  0.65996050  0.10231331  0.00000000  1
  O  O22  1  0.65272843  0.76670754  0.00000000  1
  O  O23  1  0.84857075  0.56596031  0.00000000  1
  F  F24  1  0.09086971  0.26507129  0.50000000  1
  F  F25  1  0.15165390  0.10798048  0.00000000  1
  F  F26  1  0.34365493  0.56155581  0.00000000  1
  F  F27  1  0.34349278  0.89139590  0.00000000  1
  F  F28  1  0.40491023  0.40500642  0.50000000  1
  F  F29  1  0.39586163  0.72936213  0.50000000  1
  F  F30  1  0.65591697  0.43601927  0.00000000  1
  F  F31  1  0.85705669  0.23511310  0.00000000  1
  F  F32  1  0.85041889  0.90119548  0.00000000  1
  F  F33  1  0.90989276  0.06972992  0.50000000  1
  F  F34  1  0.90077836  0.39200431  0.50000000  1
  F  F35  1  0.90079679  0.73341022  0.50000000  1
