# generated using pymatgen
data_Li4VP2O9
_symmetry_space_group_name_H-M   'P 1'
_cell_length_a   15.77035616
_cell_length_b   5.27753665
_cell_length_c   8.83091427
_cell_angle_alpha   90.00000000
_cell_angle_beta   90.00000000
_cell_angle_gamma   90.00000000
_symmetry_Int_Tables_number   1
_chemical_formula_structural   Li4VP2O9
_chemical_formula_sum   'Li16 V4 P8 O36'
_cell_volume   734.98491946
_cell_formula_units_Z   4
loop_
 _symmetry_equiv_pos_site_id
 _symmetry_equiv_pos_as_xyz
  1  'x, y, z'
loop_
 _atom_site_type_symbol
 _atom_site_label
 _atom_site_symmetry_multiplicity
 _atom_site_fract_x
 _atom_site_fract_y
 _atom_site_fract_z
 _atom_site_occupancy
  Li  Li0  1  0.10127963  0.28707198  0.47824579  1
  Li  Li1  1  0.05638133  0.69852977  0.32239317  1
  Li  Li2  1  0.19822779  0.71630455  0.87684944  1
  Li  Li3  1  0.14742826  0.19034880  0.72854784  1
  Li  Li4  1  0.35257174  0.69034880  0.22854784  1
  Li  Li5  1  0.30177221  0.21630455  0.37684944  1
  Li  Li6  1  0.44361867  0.19852977  0.82239317  1
  Li  Li7  1  0.39872037  0.78707198  0.97824579  1
  Li  Li8  1  0.60127963  0.21292802  0.47824579  1
  Li  Li9  1  0.55638133  0.80147023  0.32239317  1
  Li  Li10  1  0.69822779  0.78369545  0.87684944  1
  Li  Li11  1  0.64742826  0.30965120  0.72854784  1
  Li  Li12  1  0.85257174  0.80965120  0.22854784  1
  Li  Li13  1  0.80177221  0.28369545  0.37684944  1
  Li  Li14  1  0.94361867  0.30147023  0.82239317  1
  Li  Li15  1  0.89872037  0.71292802  0.97824579  1
  V  V16  1  0.12297854  0.11860091  0.09997369  1
  V  V17  1  0.37702146  0.61860091  0.59997369  1
  V  V18  1  0.62297854  0.38139909  0.09997369  1
  V  V19  1  0.87702146  0.88139909  0.59997369  1
  P  P20  1  0.02848236  0.69602301  0.68511822  1
  P  P21  1  0.22430790  0.79790657  0.51780019  1
  P  P22  1  0.27569210  0.29790657  0.01780019  1
  P  P23  1  0.47151764  0.19602301  0.18511822  1
  P  P24  1  0.52848236  0.80397699  0.68511822  1
  P  P25  1  0.72430790  0.70209343  0.51780019  1
  P  P26  1  0.77569210  0.20209243  0.01780019  1
  P  P27  1  0.97151764  0.30397699  0.18511822  1
  O  O28  1  0.00568217  0.21316653  0.02529961  1
  O  O29  1  0.04828812  0.41058347  0.68625018  1
  O  O30  1  0.09806948  0.85780751  0.75436130  1
  O  O31  1  0.05867283  0.25913856  0.27609396  1
  O  O32  1  0.12412325  0.80588025  0.10190904  1
  O  O33  1  0.18819952  0.26649366  0.92596778  1
  O  O34  1  0.15728475  0.62356192  0.45148136  1
  O  O35  1  0.20048410  0.08022182  0.51723453  1
  O  O36  1  0.23934082  0.21015664  0.17663489  1
  O  O37  1  0.26065918  0.71015664  0.67663489  1
  O  O38  1  0.29951590  0.58022182  0.01723453  1
  O  O39  1  0.34271525  0.12356192  0.95148136  1
  O  O40  1  0.31180048  0.76649366  0.42596778  1
  O  O41  1  0.37587675  0.30588025  0.60190904  1
  O  O42  1  0.44132717  0.75913856  0.77609396  1
  O  O43  1  0.40193052  0.35780751  0.25436130  1
  O  O44  1  0.45171188  0.91058347  0.18625018  1
  O  O45  1  0.49431783  0.71316653  0.52529961  1
  O  O46  1  0.50568217  0.28683347  0.02529961  1
  O  O47  1  0.54828812  0.08941653  0.68625018  1
  O  O48  1  0.59806948  0.64219249  0.75436130  1
  O  O49  1  0.55867283  0.24086144  0.27609396  1
  O  O50  1  0.62412325  0.69411975  0.10190904  1
  O  O51  1  0.68819952  0.23350634  0.92596778  1
  O  O52  1  0.65728475  0.87643808  0.45148136  1
  O  O53  1  0.70048410  0.41977818  0.51723453  1
  O  O54  1  0.73934082  0.28984336  0.17663489  1
  O  O55  1  0.76065918  0.78984336  0.67663489  1
  O  O56  1  0.79951590  0.91977818  0.01723453  1
  O  O57  1  0.84271525  0.37643808  0.95148136  1
  O  O58  1  0.81180048  0.73350634  0.42596778  1
  O  O59  1  0.87587675  0.19411975  0.60190904  1
  O  O60  1  0.94132717  0.74086144  0.77609396  1
  O  O61  1  0.90193052  0.14219249  0.25436130  1
  O  O62  1  0.95171188  0.58941653  0.18625018  1
  O  O63  1  0.99431783  0.78683347  0.52529961  1
