# generated using pymatgen
data_Fe2OF3
_symmetry_space_group_name_H-M   'P 1'
_cell_length_a   7.63269832
_cell_length_b   5.77720249
_cell_length_c   5.77720249
_cell_angle_alpha   72.13089536
_cell_angle_beta   70.27819562
_cell_angle_gamma   70.27819562
_symmetry_Int_Tables_number   1
_chemical_formula_structural   Fe2OF3
_chemical_formula_sum   'Fe6 O3 F9'
_cell_volume   220.32233194
_cell_formula_units_Z   3
loop_
 _symmetry_equiv_pos_site_id
 _symmetry_equiv_pos_as_xyz
  1  'x, y, z'
loop_
 _atom_site_type_symbol
 _atom_site_label
 _atom_site_symmetry_multiplicity
 _atom_site_fract_x
 _atom_site_fract_y
 _atom_site_fract_z
 _atom_site_occupancy
  Fe  Fe0  1  0.83269226  0.66521680  0.66818186  1
  Fe  Fe1  1  0.33300003  0.68997971  0.64582133  1
  Fe  Fe2  1  0.66699997  0.35417867  0.31002029  1
  Fe  Fe3  1  0.16730774  0.33181814  0.33478320  1
  Fe  Fe4  1  0.50000000  0.97858471  0.02141529  1
  Fe  Fe5  1  0.00000000  0.96829255  0.03170745  1
  O  O6  1  0.67010066  0.65271474  0.00716013  1
  O  O7  1  0.32989934  0.99283987  0.34728526  1
  O  O8  1  0.00000000  0.66702024  0.33297976  1
  F  F9  1  0.66623284  0.03534932  0.62938394  1
  F  F10  1  0.33376716  0.37061606  0.96465068  1
  F  F11  1  0.96923706  0.23131539  0.23763214  1
  F  F12  1  0.30320059  0.91085797  0.89648822  1
  F  F13  1  0.63591500  0.56603032  0.57022072  1
  F  F14  1  0.03076294  0.76236786  0.76868461  1
  F  F15  1  0.69679941  0.10351178  0.08914203  1
  F  F16  1  0.36408500  0.42977928  0.43396968  1
  F  F17  1  0.00000000  0.28952757  0.71047243  1
