# generated using pymatgen
data_Mn6O7F5
_symmetry_space_group_name_H-M   'P 1'
_cell_length_a   4.63680721
_cell_length_b   5.64572980
_cell_length_c   15.34301265
_cell_angle_alpha   90.06680910
_cell_angle_beta   89.51096390
_cell_angle_gamma   91.39284375
_symmetry_Int_Tables_number   1
_chemical_formula_structural   Mn6O7F5
_chemical_formula_sum   'Mn12 O14 F10'
_cell_volume   401.51836448
_cell_formula_units_Z   2
loop_
 _symmetry_equiv_pos_site_id
 _symmetry_equiv_pos_as_xyz
  1  'x, y, z'
loop_
 _atom_site_type_symbol
 _atom_site_label
 _atom_site_symmetry_multiplicity
 _atom_site_fract_x
 _atom_site_fract_y
 _atom_site_fract_z
 _atom_site_occupancy
  Mn  Mn0  1  0.04498463  0.15311289  0.41253983  1
  Mn  Mn1  1  0.01587242  0.82635082  0.25057170  1
  Mn  Mn2  1  0.00883588  0.17665607  0.08034399  1
  Mn  Mn3  1  0.00957690  0.17052000  0.74539302  1
  Mn  Mn4  1  0.98986488  0.84931313  0.57730075  1
  Mn  Mn5  1  0.05431028  0.84923102  0.91387230  1
  Mn  Mn6  1  0.49402674  0.34708866  0.58570869  1
  Mn  Mn7  1  0.48402584  0.35525103  0.92097116  1
  Mn  Mn8  1  0.48467385  0.36357687  0.25141246  1
  Mn  Mn9  1  0.51440593  0.62192095  0.08460864  1
  Mn  Mn10  1  0.47970607  0.64823115  0.42477548  1
  Mn  Mn11  1  0.48384172  0.64192292  0.75264461  1
  O  O12  1  0.23411433  0.11513715  0.30414999  1
  O  O13  1  0.21038308  0.11124022  0.63462414  1
  O  O14  1  0.23293790  0.12006807  0.96865298  1
  O  O15  1  0.22225792  0.88791282  0.46980838  1
  O  O16  1  0.22232090  0.89370916  0.80099916  1
  O  O17  1  0.27579837  0.39482458  0.14436452  1
  O  O18  1  0.28324256  0.60350929  0.31286519  1
  O  O19  1  0.27513981  0.38292272  0.47532642  1
  O  O20  1  0.27499281  0.40063605  0.81575368  1
  O  O21  1  0.29226553  0.60570134  0.97847808  1
  O  O22  1  0.71445878  0.38073134  0.02605351  1
  O  O23  1  0.72713407  0.60332049  0.19275856  1
  O  O24  1  0.70970448  0.62193401  0.52860177  1
  O  O25  1  0.71190738  0.38625699  0.69500215  1
  F  F26  1  0.25484812  0.88075056  0.13204414  1
  F  F27  1  0.23101227  0.60957693  0.64230231  1
  F  F28  1  0.74477374  0.37881585  0.35801114  1
  F  F29  1  0.75487140  0.61775169  0.86761175  1
  F  F30  1  0.75966461  0.11212667  0.19501585  1
  F  F31  1  0.77312958  0.12971386  0.51421967  1
  F  F32  1  0.75519735  0.88384601  0.36483390  1
  F  F33  1  0.78214714  0.86903451  0.02768432  1
  F  F34  1  0.75407500  0.12827845  0.86090877  1
  F  F35  1  0.73949672  0.87902274  0.68978501  1
