# generated using pymatgen
data_FeOF
_symmetry_space_group_name_H-M   'P 1'
_cell_length_a   14.32313583
_cell_length_b   14.41516646
_cell_length_c   3.10876864
_cell_angle_alpha   90.00000000
_cell_angle_beta   90.00000000
_cell_angle_gamma   90.13883600
_symmetry_Int_Tables_number   1
_chemical_formula_structural   FeOF
_chemical_formula_sum   'Fe18 O18 F18'
_cell_volume   641.86678060
_cell_formula_units_Z   18
loop_
 _symmetry_equiv_pos_site_id
 _symmetry_equiv_pos_as_xyz
  1  'x, y, z'
loop_
 _atom_site_type_symbol
 _atom_site_label
 _atom_site_symmetry_multiplicity
 _atom_site_fract_x
 _atom_site_fract_y
 _atom_site_fract_z
 _atom_site_occupancy
  Fe  Fe0  1  0.01417508  0.99846864  0.00000000  1
  Fe  Fe1  1  0.01327071  0.33177065  0.00000000  1
  Fe  Fe2  1  0.00327245  0.67124414  0.00000000  1
  Fe  Fe3  1  0.15347709  0.16494469  0.50000000  1
  Fe  Fe4  1  0.16552579  0.48537051  0.50000000  1
  Fe  Fe5  1  0.15266583  0.83032845  0.50000000  1
  Fe  Fe6  1  0.34665543  0.99855284  0.00000000  1
  Fe  Fe7  1  0.33349354  0.34548012  0.00000000  1
  Fe  Fe8  1  0.34700226  0.66511672  0.00000000  1
  Fe  Fe9  1  0.48677574  0.49780762  0.50000000  1
  Fe  Fe10  1  0.50065929  0.15223943  0.50000000  1
  Fe  Fe11  1  0.48624586  0.83169227  0.50000000  1
  Fe  Fe12  1  0.67153982  0.00673037  0.00000000  1
  Fe  Fe13  1  0.68036945  0.33149727  0.00000000  1
  Fe  Fe14  1  0.68021090  0.66554827  0.00000000  1
  Fe  Fe15  1  0.82033145  0.16480506  0.50000000  1
  Fe  Fe16  1  0.82000713  0.49777194  0.50000000  1
  Fe  Fe17  1  0.81584119  0.83695582  0.50000000  1
  O  O18  1  0.06600151  0.27027727  0.50000000  1
  O  O19  1  0.06427430  0.93504046  0.50000000  1
  O  O20  1  0.10214032  0.10278030  0.00000000  1
  O  O21  1  0.09958757  0.43810044  0.00000000  1
  O  O22  1  0.10352397  0.76796119  0.00000000  1
  O  O23  1  0.26953727  0.39738268  0.50000000  1
  O  O24  1  0.39736868  0.60081240  0.50000000  1
  O  O25  1  0.39825281  0.93655928  0.50000000  1
  O  O26  1  0.43600521  0.10376271  0.00000000  1
  O  O27  1  0.43900756  0.43249097  0.00000000  1
  O  O28  1  0.43484261  0.76825575  0.00000000  1
  O  O29  1  0.60344747  0.06241484  0.50000000  1
  O  O30  1  0.73116343  0.26902265  0.50000000  1
  O  O31  1  0.73361075  0.60379402  0.50000000  1
  O  O32  1  0.72713516  0.93884324  0.50000000  1
  O  O33  1  0.77166273  0.10247941  0.00000000  1
  O  O34  1  0.76897962  0.43613502  0.00000000  1
  O  O35  1  0.76589853  0.77290510  0.00000000  1
  F  F36  1  0.06693882  0.59925631  0.50000000  1
  F  F37  1  0.23506512  0.22896170  0.00000000  1
  F  F38  1  0.22908715  0.56759887  0.00000000  1
  F  F39  1  0.23210546  0.89910706  0.00000000  1
  F  F40  1  0.26845895  0.06524268  0.50000000  1
  F  F41  1  0.26901449  0.73214924  0.50000000  1
  F  F42  1  0.39940563  0.26769854  0.50000000  1
  F  F43  1  0.56374421  0.23406230  0.00000000  1
  F  F44  1  0.56594674  0.56608579  0.00000000  1
  F  F45  1  0.56345020  0.89406374  0.00000000  1
  F  F46  1  0.60309614  0.39977116  0.50000000  1
  F  F47  1  0.60207010  0.73074592  0.50000000  1
  F  F48  1  0.89975026  0.23372038  0.00000000  1
  F  F49  1  0.90101580  0.56547080  0.00000000  1
  F  F50  1  0.89641010  0.90035547  0.00000000  1
  F  F51  1  0.93622720  0.06533853  0.50000000  1
  F  F52  1  0.93435010  0.39958754  0.50000000  1
  F  F53  1  0.92990406  0.73544243  0.50000000  1
