# generated using pymatgen
data_LiNiPO4
_symmetry_space_group_name_H-M   'P 1'
_cell_length_a   5.16458645
_cell_length_b   7.56295693
_cell_length_c   8.54150727
_cell_angle_alpha   82.96956736
_cell_angle_beta   90.47850700
_cell_angle_gamma   81.40480059
_symmetry_Int_Tables_number   1
_chemical_formula_structural   LiNiPO4
_chemical_formula_sum   'Li4 Ni4 P4 O16'
_cell_volume   327.27941304
_cell_formula_units_Z   4
loop_
 _symmetry_equiv_pos_site_id
 _symmetry_equiv_pos_as_xyz
  1  'x, y, z'
loop_
 _atom_site_type_symbol
 _atom_site_label
 _atom_site_symmetry_multiplicity
 _atom_site_fract_x
 _atom_site_fract_y
 _atom_site_fract_z
 _atom_site_occupancy
  Li  Li0  1  0.13465223  0.97093680  0.35348709  1
  Li  Li1  1  0.22148202  0.48684972  0.19097106  1
  Li  Li2  1  0.77851798  0.51315028  0.80902894  1
  Li  Li3  1  0.86534777  0.02906320  0.64651291  1
  Ni  Ni4  1  0.28434750  0.19485809  0.90394145  1
  Ni  Ni5  1  0.30309512  0.64727797  0.57927995  1
  Ni  Ni6  1  0.69690488  0.35272203  0.42072005  1
  Ni  Ni7  1  0.71565250  0.80514191  0.09605855  1
  P  P8  1  0.25107362  0.28423308  0.55231435  1
  P  P9  1  0.20818258  0.77935810  0.90971370  1
  P  P10  1  0.79181742  0.22064190  0.09028630  1
  P  P11  1  0.74892638  0.71576692  0.44768565  1
  O  O12  1  0.04479041  0.18583952  0.47920856  1
  O  O13  1  0.05663169  0.29760160  0.06770345  1
  O  O14  1  0.15872835  0.35439208  0.70939788  1
  O  O15  1  0.28341336  0.45499994  0.43189214  1
  O  O16  1  0.14183386  0.98225886  0.84118068  1
  O  O17  1  0.38636246  0.67710257  0.79551674  1
  O  O18  1  0.35686575  0.74933046  0.07271858  1
  O  O19  1  0.52518015  0.17014342  0.57279806  1
  O  O20  1  0.47481985  0.82985658  0.42720194  1
  O  O21  1  0.64313425  0.25066954  0.92728142  1
  O  O22  1  0.61363754  0.32289743  0.20448326  1
  O  O23  1  0.85816614  0.01774014  0.15881932  1
  O  O24  1  0.71658664  0.54500006  0.56810786  1
  O  O25  1  0.84127165  0.64560792  0.29060212  1
  O  O26  1  0.94336831  0.70239840  0.93229655  1
  O  O27  1  0.95520959  0.81416048  0.52079144  1
