# generated using pymatgen
data_LiVO2
_symmetry_space_group_name_H-M   'P 1'
_cell_length_a   5.80575631
_cell_length_b   5.80575631
_cell_length_c   5.80575631
_cell_angle_alpha   84.88454843
_cell_angle_beta   62.78060241
_cell_angle_gamma   116.96448242
_symmetry_Int_Tables_number   1
_chemical_formula_structural   LiVO2
_chemical_formula_sum   'Li4 V4 O8'
_cell_volume   143.83737028
_cell_formula_units_Z   4
loop_
 _symmetry_equiv_pos_site_id
 _symmetry_equiv_pos_as_xyz
  1  'x, y, z'
loop_
 _atom_site_type_symbol
 _atom_site_label
 _atom_site_symmetry_multiplicity
 _atom_site_fract_x
 _atom_site_fract_y
 _atom_site_fract_z
 _atom_site_occupancy
  Li  Li0  1  0.75000000  0.87500000  0.37500000  1
  Li  Li1  1  0.25000000  0.87500000  0.87500000  1
  Li  Li2  1  0.75000000  0.37500000  0.87500000  1
  Li  Li3  1  0.25000000  0.37500000  0.37500000  1
  V  V4  1  0.25000000  0.37500000  0.87500000  1
  V  V5  1  0.75000000  0.87500000  0.87500000  1
  V  V6  1  0.25000000  0.87500000  0.37500000  1
  V  V7  1  0.75000000  0.37500000  0.37500000  1
  O  O8  1  0.24990730  0.62509106  0.12500165  1
  O  O9  1  0.75009270  0.62509106  0.62481624  1
  O  O10  1  0.75009188  0.12487829  0.62521359  1
  O  O11  1  0.24990812  0.62469453  0.62521359  1
  O  O12  1  0.25009270  0.12490894  0.62499835  1
  O  O13  1  0.74990730  0.12490894  0.12518376  1
  O  O14  1  0.74990812  0.62512171  0.12478641  1
  O  O15  1  0.25009188  0.12530547  0.12478641  1
