# generated using pymatgen
data_Li2Mn2Co(PO4)3
_symmetry_space_group_name_H-M   'P 1'
_cell_length_a   8.26812798
_cell_length_b   9.00369769
_cell_length_c   9.00369812
_cell_angle_alpha   59.55986021
_cell_angle_beta   59.34300465
_cell_angle_gamma   59.34299999
_symmetry_Int_Tables_number   1
_chemical_formula_structural   Li2Mn2Co(PO4)3
_chemical_formula_sum   'Li4 Mn4 Co2 P6 O24'
_cell_volume   467.64128122
_cell_formula_units_Z   2
loop_
 _symmetry_equiv_pos_site_id
 _symmetry_equiv_pos_as_xyz
  1  'x, y, z'
loop_
 _atom_site_type_symbol
 _atom_site_label
 _atom_site_symmetry_multiplicity
 _atom_site_fract_x
 _atom_site_fract_y
 _atom_site_fract_z
 _atom_site_occupancy
  Li  Li0  1  0.25000000  0.86214233  0.63785767  1
  Li  Li1  1  0.75000000  0.15497950  0.34502050  1
  Li  Li2  1  0.74542508  0.75145454  0.15144162  1
  Li  Li3  1  0.75457492  0.34855838  0.74854546  1
  Mn  Mn4  1  0.06317124  0.64461086  0.64676472  1
  Mn  Mn5  1  0.53670994  0.15430193  0.15310355  1
  Mn  Mn6  1  0.43682876  0.85323528  0.85538914  1
  Mn  Mn7  1  0.96329006  0.34689645  0.34569807  1
  Co  Co8  1  0.99971531  0.00196778  0.00552601  1
  Co  Co9  1  0.50028469  0.49447399  0.49803222  1
  P  P10  1  0.26069153  0.24649705  0.56193867  1
  P  P11  1  0.23930847  0.93806133  0.25350295  1
  P  P12  1  0.25000000  0.56312423  0.93687577  1
  P  P13  1  0.75000000  0.45762589  0.04237411  1
  P  P14  1  0.75970981  0.04727870  0.74951171  1
  P  P15  1  0.74029019  0.75048829  0.45272130  1
  O  O16  1  0.05633208  0.09529181  0.31442148  1
  O  O17  1  0.05771372  0.53702232  0.09203630  1
  O  O18  1  0.06078511  0.31272840  0.53762640  1
  O  O19  1  0.23801350  0.08102388  0.75013042  1
  O  O20  1  0.44366792  0.18557852  0.40470819  1
  O  O21  1  0.28872508  0.39187066  0.58292310  1
  O  O22  1  0.21127492  0.91707690  0.10813034  1
  O  O23  1  0.26198650  0.74986958  0.41897612  1
  O  O24  1  0.56304991  0.61317103  0.00065985  1
  O  O25  1  0.26818569  0.58909430  0.74187265  1
  O  O26  1  0.77506871  0.26354321  0.06287272  1
  O  O27  1  0.58148096  0.98934980  0.82033304  1
  O  O28  1  0.43921489  0.96237360  0.18727160  1
  O  O29  1  0.23181431  0.75812735  0.91090570  1
  O  O30  1  0.72493129  0.43712728  0.23645679  1
  O  O31  1  0.44228628  0.40796370  0.96297768  1
  O  O32  1  0.72113706  0.24378622  0.60089743  1
  O  O33  1  0.77782963  0.07198647  0.90199096  1
  O  O34  1  0.72217037  0.59800904  0.42801353  1
  O  O35  1  0.54359654  0.81931910  0.59512036  1
  O  O36  1  0.77886294  0.89910257  0.25621378  1
  O  O37  1  0.91851904  0.67966696  0.51065020  1
  O  O38  1  0.93695009  0.49934015  0.88682897  1
  O  O39  1  0.95640346  0.90487964  0.68068090  1
