# generated using pymatgen
data_LiNiPO4
_symmetry_space_group_name_H-M   'P 1'
_cell_length_a   6.82531136
_cell_length_b   8.04719491
_cell_length_c   5.22010848
_cell_angle_alpha   90.00000000
_cell_angle_beta   90.00000000
_cell_angle_gamma   90.00000000
_symmetry_Int_Tables_number   1
_chemical_formula_structural   LiNiPO4
_chemical_formula_sum   'Li4 Ni4 P4 O16'
_cell_volume   286.71242678
_cell_formula_units_Z   4
loop_
 _symmetry_equiv_pos_site_id
 _symmetry_equiv_pos_as_xyz
  1  'x, y, z'
loop_
 _atom_site_type_symbol
 _atom_site_label
 _atom_site_symmetry_multiplicity
 _atom_site_fract_x
 _atom_site_fract_y
 _atom_site_fract_z
 _atom_site_occupancy
  Li  Li0  1  0.24872565  0.55418775  0.21821924  1
  Li  Li1  1  0.25127435  0.05418775  0.71821924  1
  Li  Li2  1  0.74872565  0.94581225  0.21821924  1
  Li  Li3  1  0.75127435  0.44581225  0.71821924  1
  Ni  Ni4  1  0.96411432  0.75552393  0.73891554  1
  Ni  Ni5  1  0.53588568  0.25552393  0.23891554  1
  Ni  Ni6  1  0.46411432  0.74447607  0.73891554  1
  Ni  Ni7  1  0.03588568  0.24447607  0.23891554  1
  P  P8  1  0.21694490  0.40854850  0.72304002  1
  P  P9  1  0.28305510  0.90854850  0.22304002  1
  P  P10  1  0.71694490  0.09145150  0.72304002  1
  P  P11  1  0.78305510  0.59145150  0.22304002  1
  O  O12  1  0.03081023  0.51344998  0.68565095  1
  O  O13  1  0.27580300  0.33617487  0.45066120  1
  O  O14  1  0.18469417  0.25550272  0.90086029  1
  O  O15  1  0.38065844  0.51563243  0.84365176  1
  O  O16  1  0.11934156  0.01563243  0.34365176  1
  O  O17  1  0.31530583  0.75550272  0.40086029  1
  O  O18  1  0.22419700  0.83617487  0.95066120  1
  O  O19  1  0.46918977  0.01344998  0.18565095  1
  O  O20  1  0.53081023  0.98655002  0.68565095  1
  O  O21  1  0.77580300  0.16382513  0.45066120  1
  O  O22  1  0.68469417  0.24449728  0.90086029  1
  O  O23  1  0.88065844  0.98436757  0.84365176  1
  O  O24  1  0.61934156  0.48436757  0.34365176  1
  O  O25  1  0.81530583  0.74449728  0.40086029  1
  O  O26  1  0.72419700  0.66382513  0.95066120  1
  O  O27  1  0.96918977  0.48655002  0.18565095  1
