# generated using pymatgen
data_CrInCoS4
_symmetry_space_group_name_H-M   'P 1'
_cell_length_a   7.27556560
_cell_length_b   7.30436423
_cell_length_c   7.22638875
_cell_angle_alpha   90.00000000
_cell_angle_beta   60.22334116
_cell_angle_gamma   120.13102502
_symmetry_Int_Tables_number   1
_chemical_formula_structural   CrInCoS4
_chemical_formula_sum   'Cr2 In2 Co2 S8'
_cell_volume   271.92943681
_cell_formula_units_Z   2
loop_
 _symmetry_equiv_pos_site_id
 _symmetry_equiv_pos_as_xyz
  1  'x, y, z'
loop_
 _atom_site_type_symbol
 _atom_site_label
 _atom_site_symmetry_multiplicity
 _atom_site_fract_x
 _atom_site_fract_y
 _atom_site_fract_z
 _atom_site_occupancy
  Cr  Cr0  1  -0.00000000  -0.00000000  0.50000000  1
  Cr  Cr1  1  -0.00000000  -0.00000000  -0.00000000  1
  In  In2  1  0.50000000  0.50000000  -0.00000000  1
  In  In3  1  0.50000000  -0.00000000  -0.00000000  1
  Co  Co4  1  0.75138380  0.37569190  0.37430810  1
  Co  Co5  1  0.24861620  0.62430810  0.62569190  1
  S  S6  1  0.99153320  0.76717664  0.25423340  1
  S  S7  1  0.99153320  0.22435656  0.25423340  1
  S  S8  1  0.47409438  0.23704719  0.75769169  1
  S  S9  1  0.47409438  0.23704719  0.26821393  1
  S  S10  1  0.00846680  0.23282336  0.74576660  1
  S  S11  1  0.00846680  0.77564344  0.74576660  1
  S  S12  1  0.52590562  0.76295281  0.24230831  1
  S  S13  1  0.52590562  0.76295281  0.73178607  1
