# generated using pymatgen
data_Li4V(PO3)6
_symmetry_space_group_name_H-M   'P 1'
_cell_length_a   7.35708684
_cell_length_b   7.35708684
_cell_length_c   13.99525050
_cell_angle_alpha   86.65661435
_cell_angle_beta   93.34338565
_cell_angle_gamma   115.82050572
_symmetry_Int_Tables_number   1
_chemical_formula_structural   Li4V(PO3)6
_chemical_formula_sum   'Li8 V2 P12 O36'
_cell_volume   680.27132584
_cell_formula_units_Z   2
loop_
 _symmetry_equiv_pos_site_id
 _symmetry_equiv_pos_as_xyz
  1  'x, y, z'
loop_
 _atom_site_type_symbol
 _atom_site_label
 _atom_site_symmetry_multiplicity
 _atom_site_fract_x
 _atom_site_fract_y
 _atom_site_fract_z
 _atom_site_occupancy
  Li  Li0  1  0.03973842  0.69975081  0.92486277  1
  Li  Li1  1  0.30024919  0.96026158  0.42486277  1
  Li  Li2  1  0.21733177  0.55991545  0.54736433  1
  Li  Li3  1  0.44008455  0.78266823  0.04736433  1
  Li  Li4  1  0.55991545  0.21733177  0.95263567  1
  Li  Li5  1  0.78266823  0.44008455  0.45263567  1
  Li  Li6  1  0.69975081  0.03973842  0.57513723  1
  Li  Li7  1  0.96026158  0.30024919  0.07513723  1
  V  V8  1  0.62776831  0.62776831  0.75000000  1
  V  V9  1  0.37223169  0.37223169  0.25000000  1
  P  P10  1  0.03643292  0.85297292  0.61356380  1
  P  P11  1  0.14702708  0.96356708  0.11356380  1
  P  P12  1  0.36939902  0.90739947  0.75115674  1
  P  P13  1  0.09260053  0.63060098  0.25115674  1
  P  P14  1  0.23030672  0.39981273  0.88978509  1
  P  P15  1  0.60018727  0.76969328  0.38978509  1
  P  P16  1  0.39981273  0.23030672  0.61021491  1
  P  P17  1  0.76969328  0.60018727  0.11021491  1
  P  P18  1  0.90739947  0.36939902  0.74884326  1
  P  P19  1  0.63060098  0.09260053  0.24884326  1
  P  P20  1  0.85297292  0.03643292  0.88643620  1
  P  P21  1  0.96356708  0.14702708  0.38643620  1
  O  O22  1  0.13425249  0.81549447  0.71432986  1
  O  O23  1  0.08669491  0.75405924  0.53484474  1
  O  O24  1  0.18450553  0.86574751  0.21432986  1
  O  O25  1  0.24594076  0.91330509  0.03484474  1
  O  O26  1  0.36991497  0.90164978  0.85743339  1
  O  O27  1  0.09835022  0.63008503  0.35743339  1
  O  O28  1  0.18748048  0.50435845  0.96875972  1
  O  O29  1  0.47642834  0.81185730  0.69804158  1
  O  O30  1  0.14043692  0.44849989  0.78832232  1
  O  O31  1  0.49564155  0.81251952  0.46875972  1
  O  O32  1  0.18814270  0.52357166  0.19804158  1
  O  O33  1  0.55150011  0.85956308  0.28832232  1
  O  O34  1  0.09667602  0.15726281  0.90192386  1
  O  O35  1  0.81096030  0.82212086  0.86854142  1
  O  O36  1  0.44224762  0.43147723  0.87256915  1
  O  O37  1  0.84273719  0.90332398  0.40192386  1
  O  O38  1  0.43147723  0.44224762  0.62743085  1
  O  O39  1  0.17787914  0.18903970  0.36854142  1
  O  O40  1  0.82212086  0.81096030  0.63145858  1
  O  O41  1  0.56852277  0.55775238  0.37256915  1
  O  O42  1  0.15726281  0.09667602  0.59807614  1
  O  O43  1  0.55775238  0.56852277  0.12743085  1
  O  O44  1  0.18903970  0.17787914  0.13145858  1
  O  O45  1  0.90332398  0.84273719  0.09807614  1
  O  O46  1  0.44849989  0.14043692  0.71167768  1
  O  O47  1  0.81185730  0.47642834  0.80195842  1
  O  O48  1  0.50435845  0.18748048  0.53124028  1
  O  O49  1  0.85956308  0.55150011  0.21167768  1
  O  O50  1  0.52357166  0.18814270  0.30195842  1
  O  O51  1  0.81251952  0.49564155  0.03124028  1
  O  O52  1  0.90164978  0.36991497  0.64256661  1
  O  O53  1  0.63008503  0.09835022  0.14256661  1
  O  O54  1  0.75405924  0.08669491  0.96515526  1
  O  O55  1  0.81549447  0.13425249  0.78567014  1
  O  O56  1  0.91330509  0.24594076  0.46515526  1
  O  O57  1  0.86574751  0.18450553  0.28567014  1
