# generated using pymatgen
data_FePO4
_symmetry_space_group_name_H-M   'P 1'
_cell_length_a   7.49867168
_cell_length_b   8.65674825
_cell_length_c   5.36044903
_cell_angle_alpha   90.00000000
_cell_angle_beta   105.45164932
_cell_angle_gamma   90.00000000
_symmetry_Int_Tables_number   1
_chemical_formula_structural   FePO4
_chemical_formula_sum   'Fe4 P4 O16'
_cell_volume   335.39168030
_cell_formula_units_Z   4
loop_
 _symmetry_equiv_pos_site_id
 _symmetry_equiv_pos_as_xyz
  1  'x, y, z'
loop_
 _atom_site_type_symbol
 _atom_site_label
 _atom_site_symmetry_multiplicity
 _atom_site_fract_x
 _atom_site_fract_y
 _atom_site_fract_z
 _atom_site_occupancy
  Fe  Fe0  1  0.21042578  0.53122232  0.45906463  1
  Fe  Fe1  1  0.28957422  0.03122232  0.04093537  1
  Fe  Fe2  1  0.71042578  0.96877768  0.95906463  1
  Fe  Fe3  1  0.78957422  0.46877768  0.54093537  1
  P  P4  1  0.18517695  0.68825238  0.88144137  1
  P  P5  1  0.31482305  0.18825238  0.61855863  1
  P  P6  1  0.68517695  0.81174762  0.38144137  1
  P  P7  1  0.81482305  0.31174762  0.11855863  1
  O  O8  1  0.02517793  0.59730679  0.68303528  1
  O  O9  1  0.16294162  0.17797852  0.76670597  1
  O  O10  1  0.13219834  0.85642222  0.92033609  1
  O  O11  1  0.26285107  0.10260173  0.35920425  1
  O  O12  1  0.33705838  0.67797852  0.73329403  1
  O  O13  1  0.23714893  0.60260173  0.14079575  1
  O  O14  1  0.36780166  0.35642222  0.57966391  1
  O  O15  1  0.47482207  0.09730679  0.81696472  1
  O  O16  1  0.52517793  0.90269321  0.18303528  1
  O  O17  1  0.63219834  0.64357778  0.42033609  1
  O  O18  1  0.76285107  0.39739827  0.85920425  1
  O  O19  1  0.66294162  0.32202148  0.26670597  1
  O  O20  1  0.73714893  0.89739827  0.64079575  1
  O  O21  1  0.86780166  0.14357778  0.07966391  1
  O  O22  1  0.83705838  0.82202148  0.23329403  1
  O  O23  1  0.97482207  0.40269321  0.31696472  1
