# generated using pymatgen
data_K8Li13(FeO4)4
_symmetry_space_group_name_H-M   'P 1'
_cell_length_a   5.69835514
_cell_length_b   8.81316306
_cell_length_c   10.95492620
_cell_angle_alpha   89.91569051
_cell_angle_beta   97.64180358
_cell_angle_gamma   93.01540718
_symmetry_Int_Tables_number   1
_chemical_formula_structural   K8Li13(FeO4)4
_chemical_formula_sum   'K8 Li13 Fe4 O16'
_cell_volume   544.51266557
_cell_formula_units_Z   1
loop_
 _symmetry_equiv_pos_site_id
 _symmetry_equiv_pos_as_xyz
  1  'x, y, z'
loop_
 _atom_site_type_symbol
 _atom_site_label
 _atom_site_symmetry_multiplicity
 _atom_site_fract_x
 _atom_site_fract_y
 _atom_site_fract_z
 _atom_site_occupancy
  K  K0  1  0.10286135  0.00297996  0.85573490  1
  K  K1  1  0.14224481  0.75104891  0.39338681  1
  K  K2  1  0.42190327  0.50515558  0.65790795  1
  K  K3  1  0.33286322  0.24732259  0.14607542  1
  K  K4  1  0.62528327  0.76140768  0.88463577  1
  K  K5  1  0.61233573  0.55925816  0.30683004  1
  K  K6  1  0.85890474  0.94032903  0.18188906  1
  K  K7  1  0.87139550  0.25275469  0.64712581  1
  Li  Li8  1  0.09959661  0.74932223  0.69594683  1
  Li  Li9  1  0.97246169  0.47412705  0.48620366  1
  Li  Li10  1  0.32616223  0.47783606  0.92860560  1
  Li  Li11  1  0.19925501  0.99611162  0.57133884  1
  Li  Li12  1  0.08123281  0.47828422  0.19118471  1
  Li  Li13  1  0.42423737  0.25731364  0.81015243  1
  Li  Li14  1  0.41875394  0.98346056  0.30004321  1
  Li  Li15  1  0.57100434  0.01720419  0.70245299  1
  Li  Li16  1  0.52902767  0.04836005  0.01804602  1
  Li  Li17  1  0.93690291  0.51463474  0.83521450  1
  Li  Li18  1  0.69676910  0.50257682  0.05906581  1
  Li  Li19  1  0.80684793  0.03086263  0.44045345  1
  Li  Li20  1  0.89068796  0.24713734  0.29832393  1
  Fe  Fe21  1  0.68005172  0.79368889  0.55744641  1
  Fe  Fe22  1  0.84147138  0.27320023  0.94871771  1
  Fe  Fe23  1  0.20051406  0.71625479  0.05668996  1
  Fe  Fe24  1  0.33056917  0.22568743  0.44387000  1
  O  O25  1  0.11682273  0.31862792  0.85763606  1
  O  O26  1  0.13476215  0.69604201  0.87913992  1
  O  O27  1  0.12637945  0.05823346  0.38131929  1
  O  O28  1  0.15945342  0.40487092  0.37823716  1
  O  O29  1  0.39920382  0.81817631  0.63273641  1
  O  O30  1  0.33811076  0.92115405  0.10548518  1
  O  O31  1  0.37295432  0.19713146  0.61691990  1
  O  O32  1  0.63155880  0.45194220  0.87518316  1
  O  O33  1  0.37064644  0.53931645  0.10017018  1
  O  O34  1  0.62293633  0.08284734  0.87116828  1
  O  O35  1  0.61433215  0.19983322  0.37640946  1
  O  O36  1  0.62360830  0.84017349  0.38801116  1
  O  O37  1  0.85590537  0.60979448  0.58433729  1
  O  O38  1  0.88903939  0.95438212  0.62546485  1
  O  O39  1  0.83093883  0.28420542  0.12621832  1
  O  O40  1  0.93315297  0.66162705  0.13927956  1
