# generated using pymatgen
data_Fe2C2O7
_symmetry_space_group_name_H-M   'P 1'
_cell_length_a   8.53001475
_cell_length_b   8.53001475
_cell_length_c   8.38375108
_cell_angle_alpha   89.41450494
_cell_angle_beta   89.41450494
_cell_angle_gamma   60.23027424
_symmetry_Int_Tables_number   1
_chemical_formula_structural   Fe2C2O7
_chemical_formula_sum   'Fe6 C6 O21'
_cell_volume   529.46996767
_cell_formula_units_Z   3
loop_
 _symmetry_equiv_pos_site_id
 _symmetry_equiv_pos_as_xyz
  1  'x, y, z'
loop_
 _atom_site_type_symbol
 _atom_site_label
 _atom_site_symmetry_multiplicity
 _atom_site_fract_x
 _atom_site_fract_y
 _atom_site_fract_z
 _atom_site_occupancy
  Fe  Fe0  1  0.33179196  0.33374830  0.17804777  1
  Fe  Fe1  1  0.66625170  0.66820804  0.82195223  1
  Fe  Fe2  1  0.33372591  0.33354940  0.74401956  1
  Fe  Fe3  1  0.66645060  0.66627409  0.25598044  1
  Fe  Fe4  1  0.00044354  0.99773541  0.71506545  1
  Fe  Fe5  1  0.00226459  0.99955646  0.28493455  1
  C  C6  1  0.99824452  0.66085571  0.72613691  1
  C  C7  1  0.33914429  0.00175548  0.27386309  1
  C  C8  1  0.33646534  -0.00006655  0.73198595  1
  C  C9  1  0.00006655  0.66353466  0.26801405  1
  C  C10  1  0.66708464  0.33565288  0.73426429  1
  C  C11  1  0.66434712  0.33291536  0.26573571  1
  O  O12  1  0.00030340  0.99969660  0.50000000  1
  O  O13  1  0.06789131  0.75936511  0.21275188  1
  O  O14  1  0.24063489  0.93210869  0.78724812  1
  O  O15  1  0.16264034  0.57503921  0.67112655  1
  O  O16  1  0.42496079  0.83735966  0.32887345  1
  O  O17  1  0.09470319  0.48950896  0.26788104  1
  O  O18  1  0.51049104  0.90529681  0.73211896  1
  O  O19  1  0.33053785  0.33026304  0.96168456  1
  O  O20  1  0.66973696  0.66946215  0.03831544  1
  O  O21  1  0.83612559  0.74071862  0.32378901  1
  O  O22  1  0.25928138  0.16387441  0.67621099  1
  O  O23  1  0.49004404  0.41371064  0.26396407  1
  O  O24  1  0.58628936  0.50995596  0.73603593  1
  O  O25  1  0.17819314  0.06778000  0.21654927  1
  O  O26  1  0.93222000  0.82180686  0.78345073  1
  O  O27  1  0.41675148  0.09867668  0.27609243  1
  O  O28  1  0.90132332  0.58324852  0.72390757  1
  O  O29  1  0.58093845  0.25674606  0.68195874  1
  O  O30  1  0.74325394  0.41906155  0.31804126  1
  O  O31  1  0.75892457  0.16899381  0.21561624  1
  O  O32  1  0.83100619  0.24107543  0.78438376  1
