# generated using pymatgen
data_Li2FeP4O13
_symmetry_space_group_name_H-M   'P 1'
_cell_length_a   5.10960592
_cell_length_b   8.02194684
_cell_length_c   13.75326557
_cell_angle_alpha   79.75674978
_cell_angle_beta   83.52580922
_cell_angle_gamma   80.81700926
_symmetry_Int_Tables_number   1
_chemical_formula_structural   Li2FeP4O13
_chemical_formula_sum   'Li4 Fe2 P8 O26'
_cell_volume   545.56804204
_cell_formula_units_Z   2
loop_
 _symmetry_equiv_pos_site_id
 _symmetry_equiv_pos_as_xyz
  1  'x, y, z'
loop_
 _atom_site_type_symbol
 _atom_site_label
 _atom_site_symmetry_multiplicity
 _atom_site_fract_x
 _atom_site_fract_y
 _atom_site_fract_z
 _atom_site_occupancy
  Li  Li0  1  0.07591810  0.32609969  0.00595390  1
  Li  Li1  1  0.34712661  0.32906135  0.47210768  1
  Li  Li2  1  0.65287339  0.67093865  0.52789232  1
  Li  Li3  1  0.92408190  0.67390031  0.99404610  1
  Fe  Fe4  1  0.43052313  0.05580781  0.25906492  1
  Fe  Fe5  1  0.56947687  0.94419219  0.74093508  1
  P  P6  1  0.99569887  0.90242126  0.15356729  1
  P  P7  1  0.12923426  0.79325793  0.64109073  1
  P  P8  1  0.29685693  0.66741854  0.30135602  1
  P  P9  1  0.34958157  0.57518094  0.82006920  1
  P  P10  1  0.65041843  0.42481906  0.17993080  1
  P  P11  1  0.70314307  0.33258146  0.69864398  1
  P  P12  1  0.87076574  0.20674207  0.35890927  1
  P  P13  1  0.00430113  0.09757874  0.84643271  1
  O  O14  1  0.15426716  0.04042838  0.16859068  1
  O  O15  1  0.17246329  0.14930317  0.36444203  1
  O  O16  1  0.03228872  0.74698137  0.24695630  1
  O  O17  1  0.07192322  0.82733570  0.05887080  1
  O  O18  1  0.23242278  0.52672355  0.38137954  1
  O  O19  1  0.14345270  0.64200904  0.73780935  1
  O  O20  1  0.30578092  0.03607921  0.84465225  1
  O  O21  1  0.26071673  0.71935191  0.55156255  1
  O  O22  1  0.45445969  0.29856621  0.18549274  1
  O  O23  1  0.19335898  0.52861355  0.91705830  1
  O  O24  1  0.49587790  0.60089232  0.21094978  1
  O  O25  1  0.27132003  0.93567792  0.66347373  1
  O  O26  1  0.41572504  0.81266353  0.32970937  1
  O  O27  1  0.58427496  0.18733647  0.67029063  1
  O  O28  1  0.72867997  0.06432208  0.33652627  1
  O  O29  1  0.50412210  0.39910768  0.78905022  1
  O  O30  1  0.80664102  0.47138645  0.08294170  1
  O  O31  1  0.54554031  0.70143379  0.81450726  1
  O  O32  1  0.73928327  0.28064809  0.44843745  1
  O  O33  1  0.69421908  0.96392079  0.15534775  1
  O  O34  1  0.85654730  0.35799096  0.26219065  1
  O  O35  1  0.76757722  0.47327645  0.61862046  1
  O  O36  1  0.92807678  0.17266430  0.94112920  1
  O  O37  1  0.96771128  0.25301863  0.75304370  1
  O  O38  1  0.82753671  0.85069683  0.63555797  1
  O  O39  1  0.84573284  0.95957162  0.83140932  1
