# generated using pymatgen
data_Li2MnF4
_symmetry_space_group_name_H-M   'P 1'
_cell_length_a   8.10741287
_cell_length_b   8.10741287
_cell_length_c   6.06061938
_cell_angle_alpha   68.05167319
_cell_angle_beta   111.94832681
_cell_angle_gamma   115.58322131
_symmetry_Int_Tables_number   1
_chemical_formula_structural   Li2MnF4
_chemical_formula_sum   'Li8 Mn4 F16'
_cell_volume   322.35028403
_cell_formula_units_Z   4
loop_
 _symmetry_equiv_pos_site_id
 _symmetry_equiv_pos_as_xyz
  1  'x, y, z'
loop_
 _atom_site_type_symbol
 _atom_site_label
 _atom_site_symmetry_multiplicity
 _atom_site_fract_x
 _atom_site_fract_y
 _atom_site_fract_z
 _atom_site_occupancy
  Li  Li0  1  0.00000000  0.00000000  0.00000000  1
  Li  Li1  1  0.61276606  0.88723394  0.11276606  1
  Li  Li2  1  0.38723394  0.11276606  0.38723394  1
  Li  Li3  1  0.50000000  0.50000000  0.50000000  1
  Li  Li4  1  0.74528959  0.24528959  0.75000000  1
  Li  Li5  1  0.25471041  0.75471041  0.25000000  1
  Li  Li6  1  0.61276606  0.88723394  0.61276606  1
  Li  Li7  1  0.38723394  0.11276606  0.88723394  1
  Mn  Mn8  1  0.73392913  0.50960618  0.11216198  1
  Mn  Mn9  1  0.00960618  0.23392913  0.38783802  1
  Mn  Mn10  1  0.99039382  0.76607087  0.61216198  1
  Mn  Mn11  1  0.26607087  0.49039382  0.88783802  1
  F  F12  1  0.86601596  0.11385707  0.10433848  1
  F  F13  1  0.74470456  0.77881831  0.98294312  1
  F  F14  1  0.00762890  0.50762890  0.25000000  1
  F  F15  1  0.38614293  0.63398404  0.14782041  1
  F  F16  1  0.61385707  0.36601596  0.39566152  1
  F  F17  1  0.86601596  0.11385707  0.64782041  1
  F  F18  1  0.27881831  0.24470456  0.51705688  1
  F  F19  1  0.48704893  0.98704893  0.25000000  1
  F  F20  1  0.51295107  0.01295107  0.75000000  1
  F  F21  1  0.72118169  0.75529544  0.48294312  1
  F  F22  1  0.13398404  0.88614293  0.35217959  1
  F  F23  1  0.38614293  0.63398404  0.60433848  1
  F  F24  1  0.61385707  0.36601596  0.85217959  1
  F  F25  1  0.25529544  0.22118169  0.01705688  1
  F  F26  1  0.99237110  0.49237110  0.75000000  1
  F  F27  1  0.13398404  0.88614293  0.89566152  1
