# generated using pymatgen
data_Fe(PO3)3
_symmetry_space_group_name_H-M   'P 1'
_cell_length_a   7.32427756
_cell_length_b   7.21935367
_cell_length_c   6.94251580
_cell_angle_alpha   103.51805288
_cell_angle_beta   95.49613691
_cell_angle_gamma   83.80417024
_symmetry_Int_Tables_number   1
_chemical_formula_structural   Fe(PO3)3
_chemical_formula_sum   'Fe2 P6 O18'
_cell_volume   353.89509350
_cell_formula_units_Z   2
loop_
 _symmetry_equiv_pos_site_id
 _symmetry_equiv_pos_as_xyz
  1  'x, y, z'
loop_
 _atom_site_type_symbol
 _atom_site_label
 _atom_site_symmetry_multiplicity
 _atom_site_fract_x
 _atom_site_fract_y
 _atom_site_fract_z
 _atom_site_occupancy
  Fe  Fe0  1  0.18344521  0.15089137  0.42839801  1
  Fe  Fe1  1  0.81655479  0.84910863  0.57160199  1
  P  P2  1  0.14837134  0.55763348  0.75529131  1
  P  P3  1  0.30113060  0.76914498  0.13793441  1
  P  P4  1  0.36633244  0.77678578  0.55445450  1
  P  P5  1  0.63366756  0.22321422  0.44554550  1
  P  P6  1  0.69886940  0.23085502  0.86206559  1
  P  P7  1  0.85162866  0.44236652  0.24470869  1
  O  O8  1  0.02369976  0.32062331  0.29030138  1
  O  O9  1  0.14705546  0.34460786  0.68112207  1
  O  O10  1  0.15433885  0.93572585  0.20133709  1
  O  O11  1  0.22950183  0.95289624  0.59530053  1
  O  O12  1  0.19383724  0.59822478  0.98786129  1
  O  O13  1  0.32189165  0.62199598  0.66804077  1
  O  O14  1  0.33695271  0.66524362  0.32796866  1
  O  O15  1  0.43281377  0.19253091  0.39418224  1
  O  O16  1  0.52751249  0.19964411  0.93761153  1
  O  O17  1  0.47248751  0.80035589  0.06238847  1
  O  O18  1  0.56718623  0.80746909  0.60581776  1
  O  O19  1  0.66304729  0.33475638  0.67203134  1
  O  O20  1  0.67810835  0.37800402  0.33195923  1
  O  O21  1  0.80616276  0.40177522  0.01213871  1
  O  O22  1  0.77049817  0.04710376  0.40469947  1
  O  O23  1  0.84566115  0.06427415  0.79866291  1
  O  O24  1  0.85294454  0.65539214  0.31887793  1
  O  O25  1  0.97630024  0.67937669  0.70969862  1
