# generated using pymatgen
data_FeOF
_symmetry_space_group_name_H-M   'P 1'
_cell_length_a   14.34313365
_cell_length_b   14.38940955
_cell_length_c   3.11483734
_cell_angle_alpha   90.00000000
_cell_angle_beta   90.00000000
_cell_angle_gamma   90.10492466
_symmetry_Int_Tables_number   1
_chemical_formula_structural   FeOF
_chemical_formula_sum   'Fe18 O18 F18'
_cell_volume   642.86778486
_cell_formula_units_Z   18
loop_
 _symmetry_equiv_pos_site_id
 _symmetry_equiv_pos_as_xyz
  1  'x, y, z'
loop_
 _atom_site_type_symbol
 _atom_site_label
 _atom_site_symmetry_multiplicity
 _atom_site_fract_x
 _atom_site_fract_y
 _atom_site_fract_z
 _atom_site_occupancy
  Fe  Fe0  1  0.00407187  0.98774501  0.00000000  1
  Fe  Fe1  1  0.00477514  0.33585404  0.00000000  1
  Fe  Fe2  1  0.01404507  0.66427352  0.00000000  1
  Fe  Fe3  1  0.18471395  0.16390768  0.50000000  1
  Fe  Fe4  1  0.15267849  0.49649862  0.50000000  1
  Fe  Fe5  1  0.15359382  0.83217309  0.50000000  1
  Fe  Fe6  1  0.33902019  0.00387527  0.00000000  1
  Fe  Fe7  1  0.33618789  0.32026008  0.00000000  1
  Fe  Fe8  1  0.34602551  0.66440737  0.00000000  1
  Fe  Fe9  1  0.50157476  0.51367030  0.50000000  1
  Fe  Fe10  1  0.48600592  0.16389167  0.50000000  1
  Fe  Fe11  1  0.48330538  0.83553043  0.50000000  1
  Fe  Fe12  1  0.67944108  0.99719905  0.00000000  1
  Fe  Fe13  1  0.67950447  0.32975934  0.00000000  1
  Fe  Fe14  1  0.66776729  0.65674820  0.00000000  1
  Fe  Fe15  1  0.81964735  0.16379241  0.50000000  1
  Fe  Fe16  1  0.81663711  0.50044171  0.50000000  1
  Fe  Fe17  1  0.83572097  0.84776817  0.50000000  1
  O  O18  1  0.06469050  0.60167224  0.50000000  1
  O  O19  1  0.06824539  0.93937072  0.50000000  1
  O  O20  1  0.10372375  0.43273871  0.00000000  1
  O  O21  1  0.10048857  0.77021865  0.00000000  1
  O  O22  1  0.23039871  0.23116872  0.00000000  1
  O  O23  1  0.27226817  0.06047625  0.50000000  1
  O  O24  1  0.39962487  0.27100407  0.50000000  1
  O  O25  1  0.39538139  0.60075614  0.50000000  1
  O  O26  1  0.39501180  0.93708336  0.50000000  1
  O  O27  1  0.43758923  0.10214284  0.00000000  1
  O  O28  1  0.43350201  0.77172146  0.00000000  1
  O  O29  1  0.56422203  0.56590876  0.00000000  1
  O  O30  1  0.73252802  0.26873366  0.50000000  1
  O  O31  1  0.73166595  0.60774995  0.50000000  1
  O  O32  1  0.72855504  0.93313681  0.50000000  1
  O  O33  1  0.76945554  0.10104682  0.00000000  1
  O  O34  1  0.76623064  0.43670823  0.00000000  1
  O  O35  1  0.89886054  0.89940541  0.00000000  1
  F  F36  1  0.06337998  0.26093576  0.50000000  1
  F  F37  1  0.10191415  0.10283916  0.00000000  1
  F  F38  1  0.23057264  0.56619414  0.00000000  1
  F  F39  1  0.23182066  0.89444749  0.00000000  1
  F  F40  1  0.26751683  0.73143260  0.50000000  1
  F  F41  1  0.27123495  0.40201808  0.50000000  1
  F  F42  1  0.43513693  0.43572168  0.00000000  1
  F  F43  1  0.56666691  0.23142864  0.00000000  1
  F  F44  1  0.56222984  0.90213925  0.00000000  1
  F  F45  1  0.60269135  0.06551940  0.50000000  1
  F  F46  1  0.59831683  0.39549808  0.50000000  1
  F  F47  1  0.60210513  0.73746734  0.50000000  1
  F  F48  1  0.76827041  0.76997332  0.00000000  1
  F  F49  1  0.90056972  0.23316837  0.00000000  1
  F  F50  1  0.89830237  0.56412190  0.00000000  1
  F  F51  1  0.93777371  0.06973900  0.50000000  1
  F  F52  1  0.93271033  0.39930357  0.50000000  1
  F  F53  1  0.93163183  0.72921248  0.50000000  1
