# generated using pymatgen
data_Mn3OF6
_symmetry_space_group_name_H-M   'P 1'
_cell_length_a   4.83223687
_cell_length_b   10.23445436
_cell_length_c   11.63230511
_cell_angle_alpha   65.57027885
_cell_angle_beta   79.68233385
_cell_angle_gamma   89.62003810
_symmetry_Int_Tables_number   1
_chemical_formula_structural   Mn3OF6
_chemical_formula_sum   'Mn12 O4 F24'
_cell_volume   513.84187849
_cell_formula_units_Z   4
loop_
 _symmetry_equiv_pos_site_id
 _symmetry_equiv_pos_as_xyz
  1  'x, y, z'
loop_
 _atom_site_type_symbol
 _atom_site_label
 _atom_site_symmetry_multiplicity
 _atom_site_fract_x
 _atom_site_fract_y
 _atom_site_fract_z
 _atom_site_occupancy
  Mn  Mn0  1  0.98316428  0.01222921  0.98136958  1
  Mn  Mn1  1  0.96379094  0.16101237  0.20879743  1
  Mn  Mn2  1  0.83264080  0.81571061  0.35102879  1
  Mn  Mn3  1  0.51285479  0.51020492  0.97342764  1
  Mn  Mn4  1  0.57970308  0.87292981  0.78622991  1
  Mn  Mn5  1  0.67391130  0.68791736  0.64333930  1
  Mn  Mn6  1  0.68096891  0.46766430  0.51847052  1
  Mn  Mn7  1  0.27772917  0.98400486  0.49802302  1
  Mn  Mn8  1  0.37147699  0.66931379  0.19007157  1
  Mn  Mn9  1  0.11391003  0.36887009  0.79798054  1
  Mn  Mn10  1  0.15127616  0.18665766  0.65300861  1
  Mn  Mn11  1  0.31718861  0.32279349  0.33396765  1
  O  O12  1  0.58824120  0.67608994  0.49279563  1
  O  O13  1  0.47554193  0.85299020  0.64164838  1
  O  O14  1  0.34539569  0.34217699  0.65797114  1
  O  O15  1  0.13305907  0.15326392  0.34787739  1
  F  F16  1  0.86671803  0.20099512  0.79004921  1
  F  F17  1  0.89605437  0.51357679  0.65566269  1
  F  F18  1  0.94817729  0.02764325  0.64284349  1
  F  F19  1  0.74344359  0.90265034  0.91191608  1
  F  F20  1  0.84526127  0.40483961  0.91930765  1
  F  F21  1  0.98899700  0.33108965  0.49261881  1
  F  F22  1  0.82318147  0.70525451  0.78028973  1
  F  F23  1  0.67344356  0.29113975  0.23612196  1
  F  F24  1  0.77663003  0.11860769  0.09468008  1
  F  F25  1  0.62289056  0.97665131  0.36123879  1
  F  F26  1  0.64590924  0.60369515  0.09153426  1
  F  F27  1  0.51794890  0.47343739  0.36096775  1
  F  F28  1  0.62145493  0.79393252  0.21287215  1
  F  F29  1  0.25192208  0.19742238  0.92335771  1
  F  F30  1  0.38593006  0.52159241  0.79218712  1
  F  F31  1  0.32644021  0.02694523  0.78647325  1
  F  F32  1  0.32485142  0.70237797  0.91337020  1
  F  F33  1  0.43905880  0.17216881  0.50923228  1
  F  F34  1  0.23845081  0.33156611  0.09151567  1
  F  F35  1  0.14851386  0.50539726  0.21388794  1
  F  F36  1  0.07572243  0.66461820  0.34079093  1
  F  F37  1  0.02806861  0.82549750  0.50033759  1
  F  F38  1  0.18112498  0.83437599  0.07723904  1
  F  F39  1  0.11141156  0.96784956  0.23438252  1
