# generated using pymatgen
data_Mn12O7F17
_symmetry_space_group_name_H-M   'P 1'
_cell_length_a   4.80704405
_cell_length_b   5.82572786
_cell_length_c   15.85170913
_cell_angle_alpha   90.37405529
_cell_angle_beta   90.22906866
_cell_angle_gamma   87.46904592
_symmetry_Int_Tables_number   1
_chemical_formula_structural   Mn12O7F17
_chemical_formula_sum   'Mn12 O7 F17'
_cell_volume   443.47412311
_cell_formula_units_Z   1
loop_
 _symmetry_equiv_pos_site_id
 _symmetry_equiv_pos_as_xyz
  1  'x, y, z'
loop_
 _atom_site_type_symbol
 _atom_site_label
 _atom_site_symmetry_multiplicity
 _atom_site_fract_x
 _atom_site_fract_y
 _atom_site_fract_z
 _atom_site_occupancy
  Mn  Mn0  1  0.03442669  0.14976129  0.41850966  1
  Mn  Mn1  1  0.04224751  0.83904341  0.24510259  1
  Mn  Mn2  1  0.98290971  0.15129783  0.08228096  1
  Mn  Mn3  1  0.04586202  0.17476496  0.75779782  1
  Mn  Mn4  1  0.99255914  0.83809656  0.57954830  1
  Mn  Mn5  1  0.00912532  0.84769113  0.91017975  1
  Mn  Mn6  1  0.47919274  0.33714893  0.57739053  1
  Mn  Mn7  1  0.50344666  0.35337991  0.92123242  1
  Mn  Mn8  1  0.50616762  0.35544958  0.25341280  1
  Mn  Mn9  1  0.49093900  0.65073924  0.08480225  1
  Mn  Mn10  1  0.44545270  0.65313088  0.41688010  1
  Mn  Mn11  1  0.47826310  0.65603249  0.75682831  1
  O  O12  1  0.22193144  0.87714338  0.13596533  1
  O  O13  1  0.22268090  0.88964514  0.47166110  1
  O  O14  1  0.23291442  0.88542995  0.80617795  1
  O  O15  1  0.29563081  0.62449076  0.30546469  1
  O  O16  1  0.26823520  0.37604908  0.47158094  1
  O  O17  1  0.30043097  0.40013108  0.81454233  1
  O  O18  1  0.69873103  0.38192856  0.02928749  1
  F  F19  1  0.25109840  0.12088818  0.30249898  1
  F  F20  1  0.22273788  0.10845019  0.63994243  1
  F  F21  1  0.22287252  0.12162453  0.97128236  1
  F  F22  1  0.25297806  0.38533323  0.14163863  1
  F  F23  1  0.25595365  0.60018876  0.64049782  1
  F  F24  1  0.26243429  0.61777471  0.97551985  1
  F  F25  1  0.73605740  0.60989506  0.19104599  1
  F  F26  1  0.75821137  0.38630452  0.36697941  1
  F  F27  1  0.69831196  0.62407658  0.52172158  1
  F  F28  1  0.74535976  0.60747699  0.86470110  1
  F  F29  1  0.72812509  0.38362619  0.69323295  1
  F  F30  1  0.77032795  0.10719533  0.19752686  1
  F  F31  1  0.75942461  0.11549327  0.52839040  1
  F  F32  1  0.81201574  0.90223131  0.35302557  1
  F  F33  1  0.76300236  0.87941959  0.01765246  1
  F  F34  1  0.76385931  0.12406252  0.86145420  1
  F  F35  1  0.74608367  0.86460688  0.69424207  1
