# generated using pymatgen
data_Mn6O5F7
_symmetry_space_group_name_H-M   'P 1'
_cell_length_a   4.65680391
_cell_length_b   5.73145477
_cell_length_c   15.66196225
_cell_angle_alpha   90.15645417
_cell_angle_beta   89.15957997
_cell_angle_gamma   89.94450511
_symmetry_Int_Tables_number   1
_chemical_formula_structural   Mn6O5F7
_chemical_formula_sum   'Mn12 O10 F14'
_cell_volume   417.97512017
_cell_formula_units_Z   2
loop_
 _symmetry_equiv_pos_site_id
 _symmetry_equiv_pos_as_xyz
  1  'x, y, z'
loop_
 _atom_site_type_symbol
 _atom_site_label
 _atom_site_symmetry_multiplicity
 _atom_site_fract_x
 _atom_site_fract_y
 _atom_site_fract_z
 _atom_site_occupancy
  Mn  Mn0  1  0.05841084  0.15823282  0.41396964  1
  Mn  Mn1  1  0.00625943  0.84417517  0.24327616  1
  Mn  Mn2  1  0.00268607  0.14814942  0.07716150  1
  Mn  Mn3  1  0.00179523  0.15849394  0.74220276  1
  Mn  Mn4  1  0.02404588  0.86125879  0.57901323  1
  Mn  Mn5  1  0.03682551  0.86046826  0.90898618  1
  Mn  Mn6  1  0.50867412  0.33571377  0.93028078  1
  Mn  Mn7  1  0.49641412  0.33652276  0.58733871  1
  Mn  Mn8  1  0.49452450  0.34379896  0.25109275  1
  Mn  Mn9  1  0.50923244  0.65617030  0.09206733  1
  Mn  Mn10  1  0.48841050  0.65279707  0.42404826  1
  Mn  Mn11  1  0.49793060  0.64841953  0.75210367  1
  O  O12  1  0.23127753  0.10682283  0.30061112  1
  O  O13  1  0.21767872  0.11147363  0.63616884  1
  O  O14  1  0.22333020  0.11849196  0.97034532  1
  O  O15  1  0.21594398  0.88761267  0.13392252  1
  O  O16  1  0.23516982  0.88959815  0.47292274  1
  O  O17  1  0.22507022  0.89097225  0.79963219  1
  O  O18  1  0.29569209  0.39135412  0.48012411  1
  O  O19  1  0.72055160  0.38025833  0.03389209  1
  O  O20  1  0.70722829  0.61678136  0.19862812  1
  O  O21  1  0.70759113  0.37431556  0.69499077  1
  F  F22  1  0.23762882  0.38797972  0.14610719  1
  F  F23  1  0.25046435  0.59705142  0.31170487  1
  F  F24  1  0.25179843  0.60746382  0.64442989  1
  F  F25  1  0.26883790  0.39339287  0.82201620  1
  F  F26  1  0.27602638  0.62487874  0.98358656  1
  F  F27  1  0.74434371  0.38778073  0.36406646  1
  F  F28  1  0.75228877  0.62126775  0.53426814  1
  F  F29  1  0.74324890  0.61254485  0.86663094  1
  F  F30  1  0.76447999  0.87701891  0.35790560  1
  F  F31  1  0.75089826  0.11688402  0.18476776  1
  F  F32  1  0.77308168  0.12700152  0.51728308  1
  F  F33  1  0.76404525  0.87981178  0.01204633  1
  F  F34  1  0.76195742  0.12181479  0.85018874  1
  F  F35  1  0.75615631  0.87322543  0.68222044  1
