# generated using pymatgen
data_La7Mn8O23
_symmetry_space_group_name_H-M   'P 1'
_cell_length_a   5.56140935
_cell_length_b   7.89487631
_cell_length_c   11.12010577
_cell_angle_alpha   90.00000000
_cell_angle_beta   89.91908083
_cell_angle_gamma   90.00000000
_symmetry_Int_Tables_number   1
_chemical_formula_structural   La7Mn8O23
_chemical_formula_sum   'La7 Mn8 O23'
_cell_volume   488.24598140
_cell_formula_units_Z   1
loop_
 _symmetry_equiv_pos_site_id
 _symmetry_equiv_pos_as_xyz
  1  'x, y, z'
loop_
 _atom_site_type_symbol
 _atom_site_label
 _atom_site_symmetry_multiplicity
 _atom_site_fract_x
 _atom_site_fract_y
 _atom_site_fract_z
 _atom_site_occupancy
  La  La0  1  0.03048514  0.25000000  0.49529804  1
  La  La1  1  0.02823786  0.25000000  0.99956421  1
  La  La2  1  0.46839502  0.75000000  0.74507761  1
  La  La3  1  0.52918370  0.25000000  0.75283913  1
  La  La4  1  0.53193169  0.25000000  0.25269271  1
  La  La5  1  0.95756380  0.75000000  0.50714052  1
  La  La6  1  0.96665448  0.75000000  0.00733913  1
  Mn  Mn7  1  0.00685563  0.00265250  0.24705446  1
  Mn  Mn8  1  0.00685563  0.49734750  0.24705446  1
  Mn  Mn9  1  0.99983622  0.00075823  0.75119687  1
  Mn  Mn10  1  0.99983622  0.49924177  0.75119687  1
  Mn  Mn11  1  0.50181083  0.99480438  0.00626093  1
  Mn  Mn12  1  0.49733643  0.99454595  0.49482293  1
  Mn  Mn13  1  0.50181083  0.50519562  0.00626093  1
  Mn  Mn14  1  0.49733643  0.50545405  0.49482293  1
  O  O15  1  0.00926385  0.75000000  0.78350543  1
  O  O16  1  0.20565412  0.52740658  0.10379475  1
  O  O17  1  0.21436266  0.53551735  0.60867450  1
  O  O18  1  0.20565412  0.97259342  0.10379475  1
  O  O19  1  0.21436266  0.96448265  0.60867450  1
  O  O20  1  0.27076547  0.45598997  0.36210425  1
  O  O21  1  0.27076547  0.04401003  0.36210425  1
  O  O22  1  0.28498706  0.46404418  0.85896546  1
  O  O23  1  0.28498706  0.03595582  0.85896546  1
  O  O24  1  0.49008848  0.25000000  0.03712548  1
  O  O25  1  0.49687137  0.25000000  0.52996810  1
  O  O26  1  0.51441727  0.75000000  0.96145620  1
  O  O27  1  0.51249414  0.75000000  0.48115936  1
  O  O28  1  0.71804832  0.96451304  0.63977759  1
  O  O29  1  0.73782160  0.96641859  0.13798753  1
  O  O30  1  0.71804832  0.53548696  0.63977759  1
  O  O31  1  0.73782160  0.53358141  0.13798753  1
  O  O32  1  0.79479613  0.02364840  0.39125528  1
  O  O33  1  0.79479613  0.47635160  0.39125528  1
  O  O34  1  0.77730130  0.03809967  0.88932700  1
  O  O35  1  0.77730130  0.46190033  0.88932700  1
  O  O36  1  0.98224430  0.25000000  0.21641165  1
  O  O37  1  0.99114437  0.25000000  0.71656531  1
