# generated using pymatgen
data_NaMn8O16
_symmetry_space_group_name_H-M   'P 1'
_cell_length_a   5.92428911
_cell_length_b   11.85828732
_cell_length_c   8.37996152
_cell_angle_alpha   89.99890528
_cell_angle_beta   89.99999961
_cell_angle_gamma   90.00000670
_symmetry_Int_Tables_number   1
_chemical_formula_structural   NaMn8O16
_chemical_formula_sum   'Na2 Mn16 O32'
_cell_volume   588.70840706
_cell_formula_units_Z   2
loop_
 _symmetry_equiv_pos_site_id
 _symmetry_equiv_pos_as_xyz
  1  'x, y, z'
loop_
 _atom_site_type_symbol
 _atom_site_label
 _atom_site_symmetry_multiplicity
 _atom_site_fract_x
 _atom_site_fract_y
 _atom_site_fract_z
 _atom_site_occupancy
  Na  Na0  1  0.74999823  0.24999920  0.37425679  1
  Na  Na1  1  0.25000043  0.75000026  0.62574698  1
  Mn  Mn2  1  0.49728955  0.25000555  0.99508887  1
  Mn  Mn3  1  0.50270782  0.74999329  0.00490620  1
  Mn  Mn4  1  0.00271031  0.25000678  0.99508908  1
  Mn  Mn5  1  0.99728942  0.74999380  0.00490783  1
  Mn  Mn6  1  0.25000042  0.62378676  0.24517546  1
  Mn  Mn7  1  0.25000027  0.12261614  0.24529508  1
  Mn  Mn8  1  0.25000160  0.37738445  0.24529731  1
  Mn  Mn9  1  0.25000031  0.87622033  0.24515857  1
  Mn  Mn10  1  -0.00000007  0.99999701  0.50000602  1
  Mn  Mn11  1  0.49999805  0.50000310  0.49999944  1
  Mn  Mn12  1  -0.00000104  0.50000175  0.49999676  1
  Mn  Mn13  1  0.50000322  0.99999550  0.50000217  1
  Mn  Mn14  1  0.75000056  0.12378135  0.75483774  1
  Mn  Mn15  1  0.75000164  0.37621616  0.75482679  1
  Mn  Mn16  1  0.74999975  0.87738011  0.75470677  1
  Mn  Mn17  1  0.74999881  0.62261830  0.75470390  1
  O  O18  1  0.24999900  0.64211557  0.01534576  1
  O  O19  1  0.24999995  0.14104119  0.01067395  1
  O  O20  1  0.24999938  0.35897340  0.01067431  1
  O  O21  1  0.25000178  0.85786880  0.01532274  1
  O  O22  1  0.03432615  0.74999847  0.23510260  1
  O  O23  1  0.03848627  0.25000307  0.22612692  1
  O  O24  1  0.46567579  0.74999790  0.23510160  1
  O  O25  1  0.46151297  0.25000302  0.22612636  1
  O  O26  1  0.03144089  0.49870241  0.26399112  1
  O  O27  1  0.46855655  0.00130606  0.26397538  1
  O  O28  1  0.03144512  0.00130632  0.26397866  1
  O  O29  1  0.46856001  0.49870222  0.26399053  1
  O  O30  1  0.24999911  0.89429845  0.47808914  1
  O  O31  1  0.24999891  0.60570329  0.47810098  1
  O  O32  1  0.24999985  0.39029683  0.48007773  1
  O  O33  1  0.24999924  0.10969666  0.48006836  1
  O  O34  1  0.75000432  0.10569418  0.52190806  1
  O  O35  1  0.74999894  0.60970670  0.51992476  1
  O  O36  1  0.74999917  0.39430240  0.52190142  1
  O  O37  1  0.75000368  0.89029663  0.51993782  1
  O  O38  1  0.53144027  0.50130346  0.73601111  1
  O  O39  1  0.96855688  0.99869001  0.73602332  1
  O  O40  1  0.53144599  0.99869051  0.73602394  1
  O  O41  1  0.96855852  0.50130292  0.73600884  1
  O  O42  1  0.53848435  0.74999673  0.77387221  1
  O  O43  1  0.53433112  0.25000447  0.76489670  1
  O  O44  1  0.96567124  0.25000514  0.76489636  1
  O  O45  1  0.96151219  0.74999730  0.77387195  1
  O  O46  1  0.74999978  0.14213260  0.98466789  1
  O  O47  1  0.74999796  0.35788066  0.98465373  1
  O  O48  1  0.74999688  0.85895800  0.98932738  1
  O  O49  1  0.74999849  0.64102479  0.98932659  1
