# generated using pymatgen
data_Li5Al(Co2O5)2
_symmetry_space_group_name_H-M   'P 1'
_cell_length_a   2.90348526
_cell_length_b   2.90348507
_cell_length_c   24.23631656
_cell_angle_alpha   93.43404248
_cell_angle_beta   86.56595660
_cell_angle_gamma   119.99999775
_symmetry_Int_Tables_number   1
_chemical_formula_structural   Li5Al(Co2O5)2
_chemical_formula_sum   'Li5 Al1 Co4 O10'
_cell_volume   176.52050875
_cell_formula_units_Z   1
loop_
 _symmetry_equiv_pos_site_id
 _symmetry_equiv_pos_as_xyz
  1  'x, y, z'
loop_
 _atom_site_type_symbol
 _atom_site_label
 _atom_site_symmetry_multiplicity
 _atom_site_fract_x
 _atom_site_fract_y
 _atom_site_fract_z
 _atom_site_occupancy
  Li  Li0  1  0.40000998  0.59999002  0.79997007  1
  Li  Li1  1  0.19999002  0.80000998  0.40002993  1
  Li  Li2  1  0.80000000  0.20000000  0.60000000  1
  Li  Li3  1  0.99955201  0.00044799  0.00134396  1
  Li  Li4  1  0.60044799  0.39955201  0.19865604  1
  Al  Al5  1  0.30000000  0.70000000  0.10000000  1
  Co  Co6  1  0.90007884  0.09992116  0.29976347  1
  Co  Co7  1  0.49998845  0.50001155  0.50003465  1
  Co  Co8  1  0.10001155  0.89998845  0.69996535  1
  Co  Co9  1  0.69992116  0.30007884  0.90023653  1
  O  O10  1  0.04906546  0.95093454  0.85280361  1
  O  O11  1  0.84867072  0.15132928  0.45398783  1
  O  O12  1  0.44879727  0.55120273  0.65360819  1
  O  O13  1  0.64739690  0.35260310  0.05780929  1
  O  O14  1  0.24914483  0.75085517  0.25256551  1
  O  O15  1  0.35085517  0.64914483  0.94743449  1
  O  O16  1  0.15120273  0.84879727  0.54639181  1
  O  O17  1  0.75132928  0.24867072  0.74601217  1
  O  O18  1  0.95260310  0.04739690  0.14219071  1
  O  O19  1  0.55093454  0.44906546  0.34719639  1
