# generated using pymatgen
data_Mn6OF11
_symmetry_space_group_name_H-M   'P 1'
_cell_length_a   5.29603154
_cell_length_b   5.29603154
_cell_length_c   15.65443349
_cell_angle_alpha   93.04526953
_cell_angle_beta   93.04526953
_cell_angle_gamma   88.66173597
_symmetry_Int_Tables_number   1
_chemical_formula_structural   Mn6OF11
_chemical_formula_sum   'Mn12 O2 F22'
_cell_volume   437.74275879
_cell_formula_units_Z   2
loop_
 _symmetry_equiv_pos_site_id
 _symmetry_equiv_pos_as_xyz
  1  'x, y, z'
loop_
 _atom_site_type_symbol
 _atom_site_label
 _atom_site_symmetry_multiplicity
 _atom_site_fract_x
 _atom_site_fract_y
 _atom_site_fract_z
 _atom_site_occupancy
  Mn  Mn0  1  0.04704735  0.04704735  0.00601686  1
  Mn  Mn1  1  0.00518157  0.50269102  0.16552959  1
  Mn  Mn2  1  0.03794135  0.03794135  0.33929934  1
  Mn  Mn3  1  0.99502195  0.48610919  0.49770851  1
  Mn  Mn4  1  0.01273848  0.01273848  0.66424752  1
  Mn  Mn5  1  0.01176336  0.51928583  0.83423172  1
  Mn  Mn6  1  0.50269102  0.00518157  0.16552959  1
  Mn  Mn7  1  0.47474852  0.47474852  0.00787772  1
  Mn  Mn8  1  0.50040235  0.50040235  0.66633479  1
  Mn  Mn9  1  0.48610919  0.99502195  0.49770851  1
  Mn  Mn10  1  0.46736454  0.46736454  0.33890072  1
  Mn  Mn11  1  0.51928583  0.01176336  0.83423172  1
  O  O12  1  0.25256559  0.25256559  0.07997535  1
  O  O13  1  0.24234452  0.24234452  0.41463806  1
  F  F14  1  0.21123256  0.21123256  0.24748236  1
  F  F15  1  0.18146624  0.76342004  0.07769097  1
  F  F16  1  0.23344489  0.23344489  0.58652834  1
  F  F17  1  0.18178944  0.75091196  0.40776889  1
  F  F18  1  0.21542214  0.21542214  0.91144251  1
  F  F19  1  0.22418800  0.77974875  0.74878079  1
  F  F20  1  0.32231084  0.71190213  0.24150871  1
  F  F21  1  0.27190970  0.72867154  0.57611231  1
  F  F22  1  0.32764105  0.72098317  0.91306879  1
  F  F23  1  0.28364164  0.28364164  0.75332607  1
  F  F24  1  0.72098317  0.32764105  0.91306879  1
  F  F25  1  0.72867154  0.27190970  0.57611231  1
  F  F26  1  0.71190213  0.32231084  0.24150871  1
  F  F27  1  0.68773014  0.68773014  0.09896003  1
  F  F28  1  0.68577871  0.68577871  0.42774173  1
  F  F29  1  0.72046820  0.72046820  0.76102035  1
  F  F30  1  0.75091196  0.18178944  0.40776889  1
  F  F31  1  0.76342004  0.18146624  0.07769097  1
  F  F32  1  0.77974875  0.22418800  0.74878079  1
  F  F33  1  0.76961150  0.76961150  0.59016297  1
  F  F34  1  0.83797889  0.83797889  0.92469354  1
  F  F35  1  0.83454385  0.83454385  0.25655115  1
