# generated using pymatgen
data_Mn12O7F17
_symmetry_space_group_name_H-M   'P 1'
_cell_length_a   4.80039844
_cell_length_b   5.82536713
_cell_length_c   15.79508332
_cell_angle_alpha   91.42578908
_cell_angle_beta   89.62108482
_cell_angle_gamma   91.14107729
_symmetry_Int_Tables_number   1
_chemical_formula_structural   Mn12O7F17
_chemical_formula_sum   'Mn12 O7 F17'
_cell_volume   441.46243831
_cell_formula_units_Z   1
loop_
 _symmetry_equiv_pos_site_id
 _symmetry_equiv_pos_as_xyz
  1  'x, y, z'
loop_
 _atom_site_type_symbol
 _atom_site_label
 _atom_site_symmetry_multiplicity
 _atom_site_fract_x
 _atom_site_fract_y
 _atom_site_fract_z
 _atom_site_occupancy
  Mn  Mn0  1  0.04013780  0.17429418  0.41358680  1
  Mn  Mn1  1  0.99136764  0.84525588  0.24710714  1
  Mn  Mn2  1  0.98472723  0.16702741  0.07356244  1
  Mn  Mn3  1  0.00439985  0.15082498  0.75193238  1
  Mn  Mn4  1  0.03450521  0.81640202  0.58786051  1
  Mn  Mn5  1  0.02930630  0.85442589  0.91173986  1
  Mn  Mn6  1  0.49049419  0.35449039  0.58007887  1
  Mn  Mn7  1  0.49184805  0.33467905  0.92684997  1
  Mn  Mn8  1  0.48661290  0.34159773  0.24960630  1
  Mn  Mn9  1  0.52486058  0.63991296  0.08993453  1
  Mn  Mn10  1  0.49701610  0.65355244  0.41751858  1
  Mn  Mn11  1  0.47352597  0.66365367  0.75079703  1
  O  O12  1  0.22615994  0.12250874  0.30294309  1
  O  O13  1  0.20948203  0.12286997  0.96931545  1
  O  O14  1  0.21115414  0.88307822  0.80356119  1
  O  O15  1  0.29306712  0.39623766  0.47105306  1
  O  O16  1  0.28529137  0.59224868  0.64190392  1
  O  O17  1  0.70082109  0.38112942  0.03066654  1
  O  O18  1  0.70518241  0.60082186  0.19673258  1
  F  F19  1  0.24295339  0.10465943  0.64134057  1
  F  F20  1  0.24070672  0.87496908  0.13410410  1
  F  F21  1  0.24746738  0.89820412  0.47465840  1
  F  F22  1  0.24528027  0.37364252  0.14674193  1
  F  F23  1  0.25243959  0.61904380  0.30945278  1
  F  F24  1  0.27066604  0.38429436  0.81891039  1
  F  F25  1  0.27951896  0.62778438  0.98402871  1
  F  F26  1  0.72992288  0.38517094  0.35369999  1
  F  F27  1  0.75090041  0.62358767  0.52137993  1
  F  F28  1  0.72512283  0.61904418  0.86245650  1
  F  F29  1  0.72624459  0.38211000  0.69539818  1
  F  F30  1  0.75993760  0.10153868  0.18425988  1
  F  F31  1  0.78768086  0.14163502  0.52457198  1
  F  F32  1  0.77267979  0.89252981  0.36680634  1
  F  F33  1  0.78035470  0.87054586  0.01771634  1
  F  F34  1  0.74927306  0.11811873  0.85772179  1
  F  F35  1  0.75888701  0.88811027  0.68999997  1
