# generated using pymatgen
data_Mn6O7F5
_symmetry_space_group_name_H-M   'P 1'
_cell_length_a   4.59353046
_cell_length_b   5.64779094
_cell_length_c   15.30854208
_cell_angle_alpha   89.66359664
_cell_angle_beta   89.76842370
_cell_angle_gamma   88.65870180
_symmetry_Int_Tables_number   1
_chemical_formula_structural   Mn6O7F5
_chemical_formula_sum   'Mn12 O14 F10'
_cell_volume   397.03540277
_cell_formula_units_Z   2
loop_
 _symmetry_equiv_pos_site_id
 _symmetry_equiv_pos_as_xyz
  1  'x, y, z'
loop_
 _atom_site_type_symbol
 _atom_site_label
 _atom_site_symmetry_multiplicity
 _atom_site_fract_x
 _atom_site_fract_y
 _atom_site_fract_z
 _atom_site_occupancy
  Mn  Mn0  1  0.03054215  0.16003743  0.41219577  1
  Mn  Mn1  1  0.99614092  0.84359640  0.24219523  1
  Mn  Mn2  1  0.00440493  0.15459712  0.07534875  1
  Mn  Mn3  1  0.01518001  0.16888972  0.75077562  1
  Mn  Mn4  1  0.01703778  0.82475537  0.57711200  1
  Mn  Mn5  1  0.04595848  0.84501066  0.91288534  1
  Mn  Mn6  1  0.51217140  0.37362693  0.58593765  1
  Mn  Mn7  1  0.48271823  0.35471408  0.92504771  1
  Mn  Mn8  1  0.50649654  0.34585921  0.25752711  1
  Mn  Mn9  1  0.49878812  0.65078110  0.08681995  1
  Mn  Mn10  1  0.49797005  0.63770177  0.42333120  1
  Mn  Mn11  1  0.48329033  0.63459606  0.75103035  1
  O  O12  1  0.21411707  0.11266250  0.30040611  1
  O  O13  1  0.23248382  0.11908829  0.96974217  1
  O  O14  1  0.21438964  0.88487008  0.13333197  1
  O  O15  1  0.23623019  0.88634823  0.46769379  1
  O  O16  1  0.23508262  0.88219814  0.80463073  1
  O  O17  1  0.28425071  0.40056138  0.48064989  1
  O  O18  1  0.27663240  0.60629468  0.64380681  1
  O  O19  1  0.28109586  0.39495967  0.81337875  1
  O  O20  1  0.27502007  0.61125037  0.97691341  1
  O  O21  1  0.71819096  0.38137700  0.02816363  1
  O  O22  1  0.71099889  0.61511510  0.19725098  1
  O  O23  1  0.72451964  0.38349140  0.36416205  1
  O  O24  1  0.72137524  0.61581029  0.52683599  1
  O  O25  1  0.72603481  0.39283305  0.69358348  1
  F  F26  1  0.25200947  0.11706367  0.63334161  1
  F  F27  1  0.25095429  0.38276484  0.15253754  1
  F  F28  1  0.24887799  0.61665557  0.31859059  1
  F  F29  1  0.73993829  0.61635633  0.85885115  1
  F  F30  1  0.74667952  0.11416854  0.17942452  1
  F  F31  1  0.77821290  0.12932513  0.52779549  1
  F  F32  1  0.74790512  0.87132883  0.35778569  1
  F  F33  1  0.77517524  0.87065139  0.01309277  1
  F  F34  1  0.75515722  0.11711860  0.86506168  1
  F  F35  1  0.76396912  0.88354110  0.69276348  1
