# generated using pymatgen
data_SrLiVPO6
_symmetry_space_group_name_H-M   'P 1'
_cell_length_a   5.42075401
_cell_length_b   8.36719577
_cell_length_c   10.84009240
_cell_angle_alpha   90.00000000
_cell_angle_beta   90.00000000
_cell_angle_gamma   89.76177615
_symmetry_Int_Tables_number   1
_chemical_formula_structural   SrLiVPO6
_chemical_formula_sum   'Sr4 Li4 V4 P4 O24'
_cell_volume   491.66450948
_cell_formula_units_Z   4
loop_
 _symmetry_equiv_pos_site_id
 _symmetry_equiv_pos_as_xyz
  1  'x, y, z'
loop_
 _atom_site_type_symbol
 _atom_site_label
 _atom_site_symmetry_multiplicity
 _atom_site_fract_x
 _atom_site_fract_y
 _atom_site_fract_z
 _atom_site_occupancy
  Sr  Sr0  1  0.18095146  0.88703801  0.72766182  1
  Sr  Sr1  1  0.18095146  0.38703801  0.77233818  1
  Sr  Sr2  1  0.81904568  0.61295464  0.22765681  1
  Sr  Sr3  1  0.81904568  0.11295464  0.27234319  1
  Li  Li4  1  0.18636660  0.62630214  0.01671855  1
  Li  Li5  1  0.18636660  0.12630214  0.48328145  1
  Li  Li6  1  0.81364579  0.87370192  0.51672039  1
  Li  Li7  1  0.81364579  0.37370192  0.98327961  1
  V  V8  1  0.35994572  0.91815211  0.08982831  1
  V  V9  1  0.35994572  0.41815211  0.41017169  1
  V  V10  1  0.64004593  0.58185613  0.58982695  1
  V  V11  1  0.64004593  0.08185613  0.91017305  1
  P  P12  1  0.32426603  0.80190355  0.39106687  1
  P  P13  1  0.32426603  0.30190355  0.10893313  1
  P  P14  1  0.67573240  0.69809769  0.89106678  1
  P  P15  1  0.67573240  0.19809769  0.60893322  1
  O  O16  1  0.10565592  0.80197376  0.12632664  1
  O  O17  1  0.10565592  0.30197376  0.37367336  1
  O  O18  1  0.10330422  0.91947494  0.40347979  1
  O  O19  1  0.10330422  0.41947494  0.09652021  1
  O  O20  1  0.22168921  0.63504874  0.35499175  1
  O  O21  1  0.22168921  0.13504874  0.14500825  1
  O  O22  1  0.32704338  0.97902447  0.92256946  1
  O  O23  1  0.32704338  0.47902447  0.57743054  1
  O  O24  1  0.46202122  0.79886313  0.51926953  1
  O  O25  1  0.46202122  0.29886313  0.98073047  1
  O  O26  1  0.48742917  0.63943775  0.79089387  1
  O  O27  1  0.51257531  0.86055767  0.29089425  1
  O  O28  1  0.48742917  0.13943775  0.70910613  1
  O  O29  1  0.51257531  0.36055767  0.20910575  1
  O  O30  1  0.53798174  0.70113330  0.01927126  1
  O  O31  1  0.53798174  0.20113330  0.48072874  1
  O  O32  1  0.67295509  0.52097522  0.42257272  1
  O  O33  1  0.67295509  0.02097522  0.07742728  1
  O  O34  1  0.77829891  0.86495446  0.85499211  1
  O  O35  1  0.77829891  0.36495446  0.64500789  1
  O  O36  1  0.89669867  0.58052561  0.90347872  1
  O  O37  1  0.89669867  0.08052561  0.59652128  1
  O  O38  1  0.89434355  0.69802477  0.62631971  1
  O  O39  1  0.89434355  0.19802477  0.87368029  1
