# generated using pymatgen
data_MnOF
_symmetry_space_group_name_H-M   'P 1'
_cell_length_a   4.61918510
_cell_length_b   5.68573768
_cell_length_c   10.26853758
_cell_angle_alpha   90.00000000
_cell_angle_beta   90.00000000
_cell_angle_gamma   86.27498686
_symmetry_Int_Tables_number   1
_chemical_formula_structural   MnOF
_chemical_formula_sum   'Mn8 O8 F8'
_cell_volume   269.11772250
_cell_formula_units_Z   8
loop_
 _symmetry_equiv_pos_site_id
 _symmetry_equiv_pos_as_xyz
  1  'x, y, z'
loop_
 _atom_site_type_symbol
 _atom_site_label
 _atom_site_symmetry_multiplicity
 _atom_site_fract_x
 _atom_site_fract_y
 _atom_site_fract_z
 _atom_site_occupancy
  Mn  Mn0  1  0.99742949  0.14950177  0.62388781  1
  Mn  Mn1  1  0.04960624  0.85658089  0.36501980  1
  Mn  Mn2  1  0.00005906  0.14994160  0.12261907  1
  Mn  Mn3  1  0.97986968  0.84142393  0.86202341  1
  Mn  Mn4  1  0.47986968  0.34142393  0.88797659  1
  Mn  Mn5  1  0.54960624  0.35658089  0.38498020  1
  Mn  Mn6  1  0.49742949  0.64950177  0.12611219  1
  Mn  Mn7  1  0.50005906  0.64994160  0.62738093  1
  O  O8  1  0.19399597  0.11251657  0.95383000  1
  O  O9  1  0.25244062  0.89206953  0.20352453  1
  O  O10  1  0.20407454  0.88141393  0.70472040  1
  O  O11  1  0.30267575  0.61789051  0.45804111  1
  O  O12  1  0.70407454  0.38141393  0.04527960  1
  O  O13  1  0.75244062  0.39206953  0.54647547  1
  O  O14  1  0.69399597  0.61251657  0.79617000  1
  O  O15  1  0.80267575  0.11789051  0.29195889  1
  F  F16  1  0.26263124  0.12059426  0.47336674  1
  F  F17  1  0.28949227  0.38590813  0.22811823  1
  F  F18  1  0.24424882  0.38069271  0.72610867  1
  F  F19  1  0.22347831  0.61146517  0.98066253  1
  F  F20  1  0.76263124  0.62059426  0.27663326  1
  F  F21  1  0.74424882  0.88069271  0.02389133  1
  F  F22  1  0.72347831  0.11146517  0.76933747  1
  F  F23  1  0.78949227  0.88590813  0.52188177  1
