# generated using pymatgen
data_Mn12O7F17
_symmetry_space_group_name_H-M   'P 1'
_cell_length_a   4.79456345
_cell_length_b   5.77747843
_cell_length_c   15.86714878
_cell_angle_alpha   89.90456596
_cell_angle_beta   89.53536733
_cell_angle_gamma   86.92250501
_symmetry_Int_Tables_number   1
_chemical_formula_structural   Mn12O7F17
_chemical_formula_sum   'Mn12 O7 F17'
_cell_volume   438.87911068
_cell_formula_units_Z   1
loop_
 _symmetry_equiv_pos_site_id
 _symmetry_equiv_pos_as_xyz
  1  'x, y, z'
loop_
 _atom_site_type_symbol
 _atom_site_label
 _atom_site_symmetry_multiplicity
 _atom_site_fract_x
 _atom_site_fract_y
 _atom_site_fract_z
 _atom_site_occupancy
  Mn  Mn0  1  0.99462183  0.15584563  0.41607798  1
  Mn  Mn1  1  0.02101190  0.83490543  0.23909221  1
  Mn  Mn2  1  0.99944437  0.15740399  0.07955385  1
  Mn  Mn3  1  0.07047880  0.16731131  0.75120316  1
  Mn  Mn4  1  0.01147580  0.85035254  0.58102573  1
  Mn  Mn5  1  0.01582606  0.84523049  0.90863538  1
  Mn  Mn6  1  0.47283046  0.31145043  0.58922187  1
  Mn  Mn7  1  0.51456946  0.35181400  0.91879501  1
  Mn  Mn8  1  0.52008559  0.33853234  0.26106387  1
  Mn  Mn9  1  0.49560098  0.65195297  0.08287254  1
  Mn  Mn10  1  0.50490893  0.66232517  0.42197300  1
  Mn  Mn11  1  0.48776376  0.65201616  0.75353947  1
  O  O12  1  0.20140616  0.09292276  0.64042967  1
  O  O13  1  0.22696545  0.88562714  0.12934737  1
  O  O14  1  0.21564051  0.89609450  0.47031219  1
  O  O15  1  0.23754331  0.88964342  0.80262061  1
  O  O16  1  0.30420431  0.40073243  0.81293846  1
  O  O17  1  0.71080303  0.38284400  0.02840233  1
  O  O18  1  0.72796382  0.38697596  0.36937088  1
  F  F19  1  0.21701775  0.11732821  0.30616947  1
  F  F20  1  0.22996683  0.12393483  0.96918840  1
  F  F21  1  0.26078769  0.38821575  0.14949830  1
  F  F22  1  0.27584694  0.62009345  0.31155718  1
  F  F23  1  0.25099901  0.39487014  0.47507938  1
  F  F24  1  0.25495479  0.59300835  0.64163146  1
  F  F25  1  0.26399374  0.61484916  0.97697437  1
  F  F26  1  0.71973032  0.61498017  0.19189190  1
  F  F27  1  0.72903510  0.62320854  0.53337276  1
  F  F28  1  0.74013563  0.61542649  0.86487815  1
  F  F29  1  0.74482517  0.38293510  0.70047638  1
  F  F30  1  0.76928366  0.11591869  0.18885061  1
  F  F31  1  0.75156757  0.11524695  0.52000676  1
  F  F32  1  0.76304023  0.88838148  0.35141348  1
  F  F33  1  0.76263083  0.88611377  0.01784453  1
  F  F34  1  0.79095585  0.13108891  0.85494348  1
  F  F35  1  0.74208434  0.86042037  0.68974980  1
