# generated using pymatgen
data_Li3V2(O2F)2
_symmetry_space_group_name_H-M   'P 1'
_cell_length_a   5.94524818
_cell_length_b   5.14722377
_cell_length_c   7.36825501
_cell_angle_alpha   89.63846997
_cell_angle_beta   90.00000000
_cell_angle_gamma   90.00000000
_symmetry_Int_Tables_number   1
_chemical_formula_structural   Li3V2(O2F)2
_chemical_formula_sum   'Li6 V4 O8 F4'
_cell_volume   225.47533468
_cell_formula_units_Z   2
loop_
 _symmetry_equiv_pos_site_id
 _symmetry_equiv_pos_as_xyz
  1  'x, y, z'
loop_
 _atom_site_type_symbol
 _atom_site_label
 _atom_site_symmetry_multiplicity
 _atom_site_fract_x
 _atom_site_fract_y
 _atom_site_fract_z
 _atom_site_occupancy
  Li  Li0  1  0.00208272  0.32111916  0.63000275  1
  Li  Li1  1  0.99791728  0.67888084  0.36999725  1
  Li  Li2  1  0.25000000  0.86146482  0.63221601  1
  Li  Li3  1  0.49791728  0.32111916  0.63000275  1
  Li  Li4  1  0.50208272  0.67888084  0.36999725  1
  Li  Li5  1  0.75000000  0.13853518  0.36778399  1
  V  V6  1  0.00000000  0.00000000  0.00000000  1
  V  V7  1  0.25000000  0.49885162  0.00913668  1
  V  V8  1  0.50000000  0.00000000  0.00000000  1
  V  V9  1  0.75000000  0.50114838  0.99086332  1
  O  O10  1  0.99385880  0.34070786  0.13914837  1
  O  O11  1  0.00614120  0.65929214  0.86085163  1
  O  O12  1  0.25000000  0.80925772  0.14592737  1
  O  O13  1  0.25000000  0.17487648  0.85430826  1
  O  O14  1  0.50614120  0.34070786  0.13914837  1
  O  O15  1  0.49385880  0.65929214  0.86085163  1
  O  O16  1  0.75000000  0.82512352  0.14569174  1
  O  O17  1  0.75000000  0.19074228  0.85407263  1
  F  F18  1  0.00000000  0.00000000  0.50000000  1
  F  F19  1  0.25000000  0.52632307  0.51516519  1
  F  F20  1  0.50000000  0.00000000  0.50000000  1
  F  F21  1  0.75000000  0.47367693  0.48483481  1
