# generated using pymatgen
data_V6O7F5
_symmetry_space_group_name_H-M   'P 1'
_cell_length_a   6.07196244
_cell_length_b   5.75328950
_cell_length_c   6.14540767
_cell_angle_alpha   99.01099714
_cell_angle_beta   101.32418054
_cell_angle_gamma   100.03970668
_symmetry_Int_Tables_number   1
_chemical_formula_structural   V6O7F5
_chemical_formula_sum   'V6 O7 F5'
_cell_volume   203.18934702
_cell_formula_units_Z   1
loop_
 _symmetry_equiv_pos_site_id
 _symmetry_equiv_pos_as_xyz
  1  'x, y, z'
loop_
 _atom_site_type_symbol
 _atom_site_label
 _atom_site_symmetry_multiplicity
 _atom_site_fract_x
 _atom_site_fract_y
 _atom_site_fract_z
 _atom_site_occupancy
  V  V0  1  0.13548285  0.29922455  0.61004944  1
  V  V1  1  0.38150879  0.84175177  0.64974649  1
  V  V2  1  0.32748099  0.59786929  0.14938207  1
  V  V3  1  0.67629804  0.40084137  0.85905272  1
  V  V4  1  0.60092425  0.15178525  0.33903746  1
  V  V5  1  0.86831370  0.68475862  0.40633902  1
  O  O6  1  0.09794720  0.93172852  0.64230726  1
  O  O7  1  0.18219306  0.56331305  0.41580003  1
  O  O8  1  0.41824154  0.59660624  0.82395147  1
  O  O9  1  0.43045248  0.18611432  0.58120274  1
  O  O10  1  0.58035285  0.81866087  0.43333860  1
  O  O11  1  0.57974013  0.42017943  0.17349636  1
  O  O12  1  0.82855844  0.42771102  0.59256340  1
  F  F13  1  0.09349977  0.32517053  0.93706242  1
  F  F14  1  0.32331960  0.93821291  0.11801282  1
  F  F15  1  0.65200966  0.05338933  0.89734820  1
  F  F16  1  0.90879775  0.67156136  0.07824919  1
  F  F17  1  0.91456791  0.09817957  0.31488230  1
