# generated using pymatgen
data_LiFe4(BO3)4
_symmetry_space_group_name_H-M   'P 1'
_cell_length_a   5.20461741
_cell_length_b   9.22328682
_cell_length_c   10.20200406
_cell_angle_alpha   90.78782934
_cell_angle_beta   89.37936777
_cell_angle_gamma   89.43324241
_symmetry_Int_Tables_number   1
_chemical_formula_structural   LiFe4(BO3)4
_chemical_formula_sum   'Li2 Fe8 B8 O24'
_cell_volume   489.63401578
_cell_formula_units_Z   2
loop_
 _symmetry_equiv_pos_site_id
 _symmetry_equiv_pos_as_xyz
  1  'x, y, z'
loop_
 _atom_site_type_symbol
 _atom_site_label
 _atom_site_symmetry_multiplicity
 _atom_site_fract_x
 _atom_site_fract_y
 _atom_site_fract_z
 _atom_site_occupancy
  Li  Li0  1  0.84212245  0.82367306  0.65139811  1
  Li  Li1  1  0.65748447  0.67157051  0.36847860  1
  Fe  Fe2  1  0.83647242  0.16899926  0.62785596  1
  Fe  Fe3  1  0.83000890  0.49145941  0.12886737  1
  Fe  Fe4  1  0.67572989  0.01049734  0.87932612  1
  Fe  Fe5  1  0.67119959  0.32993414  0.37792870  1
  Fe  Fe6  1  0.33241023  0.65560123  0.62594398  1
  Fe  Fe7  1  0.33722717  0.99381717  0.13230667  1
  Fe  Fe8  1  0.16190402  0.84743470  0.38204137  1
  Fe  Fe9  1  0.16494461  0.50709282  0.87539757  1
  B  B10  1  0.84330977  0.50143194  0.62106504  1
  B  B11  1  0.84048436  0.16614468  0.12798376  1
  B  B12  1  0.65303284  -0.00091693  0.38454008  1
  B  B13  1  0.66420178  0.33575557  0.87668797  1
  B  B14  1  0.32964835  0.99657630  0.63434830  1
  B  B15  1  0.32249166  0.66677696  0.13369832  1
  B  B16  1  0.17532923  0.50586004  0.37330470  1
  B  B17  1  0.18382763  0.83365239  0.87482571  1
  O  O18  1  0.91252845  0.49991517  0.33395291  1
  O  O19  1  0.93081325  0.86494514  0.84965792  1
  O  O20  1  0.77663737  0.20742793  0.82471775  1
  O  O21  1  0.75405961  0.13047398  0.43378344  1
  O  O22  1  0.77823715  0.87018984  0.40061684  1
  O  O23  1  0.82633297  0.43665341  0.93647645  1
  O  O24  1  0.71486964  0.62876505  0.60129613  1
  O  O25  1  0.67528249  0.06496693  0.07117019  1
  O  O26  1  0.75111859  0.36808888  0.57190019  1
  O  O27  1  0.72978765  0.29389220  0.18151010  1
  O  O28  1  0.57414037  0.63494067  0.16111469  1
  O  O29  1  0.59336524  0.99886061  0.67351324  1
  O  O30  1  0.41644644  0.00557662  0.32352303  1
  O  O31  1  0.41183213  0.35957776  0.86929234  1
  O  O32  1  0.29309753  0.70121092  0.83890637  1
  O  O33  1  0.27157006  0.63650482  0.41589166  1
  O  O34  1  0.32614486  0.38398845  0.36812797  1
  O  O35  1  0.34137711  0.93824334  0.93192113  1
  O  O36  1  0.16616537  0.56165209  0.07527872  1
  O  O37  1  0.18557959  0.12108865  0.63772233  1
  O  O38  1  0.22496907  0.86686654  0.59374751  1
  O  O39  1  0.21261256  0.79924919  0.16802038  1
  O  O40  1  0.09316845  0.14277952  0.13046446  1
  O  O41  1  0.07626666  0.49945168  0.68532490  1
