# generated using pymatgen
data_Li2V(OF)2
_symmetry_space_group_name_H-M   'P 1'
_cell_length_a   5.96437741
_cell_length_b   6.05735774
_cell_length_c   8.35736165
_cell_angle_alpha   89.31362136
_cell_angle_beta   90.00002969
_cell_angle_gamma   90.00004671
_symmetry_Int_Tables_number   1
_chemical_formula_structural   Li2V(OF)2
_chemical_formula_sum   'Li8 V4 O8 F8'
_cell_volume   301.91616902
_cell_formula_units_Z   4
loop_
 _symmetry_equiv_pos_site_id
 _symmetry_equiv_pos_as_xyz
  1  'x, y, z'
loop_
 _atom_site_type_symbol
 _atom_site_label
 _atom_site_symmetry_multiplicity
 _atom_site_fract_x
 _atom_site_fract_y
 _atom_site_fract_z
 _atom_site_occupancy
  Li  Li0  1  0.24430674  0.25229152  0.38776722  1
  Li  Li1  1  0.24430630  0.74770868  0.11223289  1
  Li  Li2  1  0.25578697  0.49999963  0.74999999  1
  Li  Li3  1  0.50394958  0.25672623  0.99077339  1
  Li  Li4  1  0.50394959  0.74327396  0.50922663  1
  Li  Li5  1  0.73985461  0.50000007  0.24999992  1
  Li  Li6  1  0.74916837  0.24616946  0.61664776  1
  Li  Li7  1  0.74916840  0.75383077  0.88335286  1
  V  V8  1  0.02550876  0.25785035  0.98538010  1
  V  V9  1  0.02550880  0.74215044  0.51462016  1
  V  V10  1  0.23176891  0.99999959  0.74999902  1
  V  V11  1  0.74113813  0.00000160  0.25000053  1
  O  O12  1  0.01142674  0.23362387  0.76307908  1
  O  O13  1  0.01142648  0.76637505  0.73691957  1
  O  O14  1  0.24495271  0.01611035  0.97300064  1
  O  O15  1  0.24495224  0.98388902  0.52699900  1
  O  O16  1  0.22361612  0.46351774  0.00754577  1
  O  O17  1  0.22361689  0.53648089  0.49245391  1
  O  O18  1  0.77748830  0.97453600  0.46397176  1
  O  O19  1  0.77748883  0.02546423  0.03602777  1
  F  F20  1  0.47810464  0.24298891  0.74623374  1
  F  F21  1  0.47810449  0.75700972  0.75376652  1
  F  F22  1  0.52026463  0.23963232  0.25774562  1
  F  F23  1  0.52026382  0.76036967  0.24225533  1
  F  F24  1  0.75640319  0.52901663  0.49480495  1
  F  F25  1  0.75640410  0.47098323  0.00519463  1
  F  F26  1  0.98053494  0.24649553  0.24728986  1
  F  F27  1  0.98053473  0.75350455  0.25271038  1
