# generated using pymatgen
data_Li2V2O5F2
_symmetry_space_group_name_H-M   'P 1'
_cell_length_a   5.98968620
_cell_length_b   5.63653340
_cell_length_c   10.13191902
_cell_angle_alpha   91.00163879
_cell_angle_beta   104.47070962
_cell_angle_gamma   68.13116218
_symmetry_Int_Tables_number   1
_chemical_formula_structural   Li2V2O5F2
_chemical_formula_sum   'Li4 V4 O10 F4'
_cell_volume   306.28851534
_cell_formula_units_Z   2
loop_
 _symmetry_equiv_pos_site_id
 _symmetry_equiv_pos_as_xyz
  1  'x, y, z'
loop_
 _atom_site_type_symbol
 _atom_site_label
 _atom_site_symmetry_multiplicity
 _atom_site_fract_x
 _atom_site_fract_y
 _atom_site_fract_z
 _atom_site_occupancy
  Li  Li0  1  0.18925426  0.07645651  0.39496696  1
  Li  Li1  1  0.26855011  0.88278675  0.08444439  1
  Li  Li2  1  0.73144989  0.11721325  0.91555561  1
  Li  Li3  1  0.81074574  0.92354349  0.60503304  1
  V  V4  1  0.24261161  0.39974707  0.09389700  1
  V  V5  1  0.39337960  0.46916254  0.60529463  1
  V  V6  1  0.60662040  0.53083746  0.39470537  1
  V  V7  1  0.75738839  0.60025293  0.90610300  1
  O  O8  1  0.97038348  0.29610130  0.00508485  1
  O  O9  1  0.29588160  0.23260595  0.56821834  1
  O  O10  1  0.38006306  0.56711862  0.22424573  1
  O  O11  1  0.30527608  0.69274675  0.46145591  1
  O  O12  1  0.45810487  0.25725496  0.01392718  1
  O  O13  1  0.54189513  0.74274504  0.98607282  1
  O  O14  1  0.69472392  0.30725325  0.53854409  1
  O  O15  1  0.61993694  0.43288138  0.77575427  1
  O  O16  1  0.70411840  0.76739405  0.43178166  1
  O  O17  1  0.02961652  0.70389870  0.99491515  1
  F  F18  1  0.29739142  0.12626634  0.22615096  1
  F  F19  1  0.14057136  0.68745958  0.67910061  1
  F  F20  1  0.85942864  0.31254042  0.32089939  1
  F  F21  1  0.70260858  0.87373366  0.77384904  1
