# generated using pymatgen
data_Li2Mn2F7
_symmetry_space_group_name_H-M   'P 1'
_cell_length_a   8.79919995
_cell_length_b   6.58220344
_cell_length_c   5.58032592
_cell_angle_alpha   92.01739013
_cell_angle_beta   77.76900532
_cell_angle_gamma   108.77783622
_symmetry_Int_Tables_number   1
_chemical_formula_structural   Li2Mn2F7
_chemical_formula_sum   'Li4 Mn4 F14'
_cell_volume   298.86329734
_cell_formula_units_Z   2
loop_
 _symmetry_equiv_pos_site_id
 _symmetry_equiv_pos_as_xyz
  1  'x, y, z'
loop_
 _atom_site_type_symbol
 _atom_site_label
 _atom_site_symmetry_multiplicity
 _atom_site_fract_x
 _atom_site_fract_y
 _atom_site_fract_z
 _atom_site_occupancy
  Li  Li0  1  0.25843930  0.59249985  0.10540476  1
  Li  Li1  1  0.34732123  0.76519426  0.55717759  1
  Li  Li2  1  0.65267877  0.23480574  0.44282241  1
  Li  Li3  1  0.74156070  0.40750015  0.89459524  1
  Mn  Mn4  1  0.16494648  0.98603316  0.30002815  1
  Mn  Mn5  1  0.30882235  0.22563741  0.77757286  1
  Mn  Mn6  1  0.69117765  0.77436259  0.22242714  1
  Mn  Mn7  1  0.83505352  0.01396684  0.69997185  1
  F  F8  1  0.15026976  0.69792052  0.39490848  1
  F  F9  1  0.26614005  0.92893915  0.93136052  1
  F  F10  1  0.08665522  0.10416878  0.69286754  1
  F  F11  1  0.20571022  0.27522222  0.15794933  1
  F  F12  1  0.30075663  0.51658485  0.76170794  1
  F  F13  1  0.46147322  0.68669441  0.22889811  1
  F  F14  1  0.37750000  0.08344682  0.44257687  1
  F  F15  1  0.62250000  0.91655318  0.55742313  1
  F  F16  1  0.53852678  0.31330559  0.77110189  1
  F  F17  1  0.69924337  0.48341515  0.23829206  1
  F  F18  1  0.79428978  0.72477778  0.84205067  1
  F  F19  1  0.91334478  0.89583122  0.30713246  1
  F  F20  1  0.73385995  0.07106085  0.06863948  1
  F  F21  1  0.84973024  0.30207948  0.60509152  1
