# generated using pymatgen
data_Li4Ca3Nb6O20
_symmetry_space_group_name_H-M   'P 1'
_cell_length_a   5.68554533
_cell_length_b   5.62036407
_cell_length_c   14.47120076
_cell_angle_alpha   90.00000000
_cell_angle_beta   78.67094147
_cell_angle_gamma   90.00000000
_symmetry_Int_Tables_number   1
_chemical_formula_structural   Li4Ca3Nb6O20
_chemical_formula_sum   'Li4 Ca3 Nb6 O20'
_cell_volume   453.41455275
_cell_formula_units_Z   1
loop_
 _symmetry_equiv_pos_site_id
 _symmetry_equiv_pos_as_xyz
  1  'x, y, z'
loop_
 _atom_site_type_symbol
 _atom_site_label
 _atom_site_symmetry_multiplicity
 _atom_site_fract_x
 _atom_site_fract_y
 _atom_site_fract_z
 _atom_site_occupancy
  Li  Li0  1  0.49575932  -0.00000000  0.49897231  1
  Li  Li1  1  0.99491885  0.50000000  0.49736834  1
  Li  Li2  1  0.50771281  0.50000000  0.49736834  1
  Li  Li3  1  0.00526837  0.00000000  0.49897231  1
  Ca  Ca4  1  0.57437799  -0.00000000  0.85124401  1
  Ca  Ca5  1  0.07235049  0.50000000  0.85529901  1
  Ca  Ca6  1  0.91348625  0.50000000  0.17302751  1
  Nb  Nb7  1  0.49791547  0.50000000  0.00416906  1
  Nb  Nb8  1  0.99792022  -0.00000000  0.00415955  1
  Nb  Nb9  1  0.14439479  0.00000000  0.71121042  1
  Nb  Nb10  1  0.64444507  0.50000000  0.71110986  1
  Nb  Nb11  1  0.35433172  0.50000000  0.29133655  1
  Nb  Nb12  1  0.85389185  0.00000000  0.29221629  1
  O  O13  1  0.21197407  -0.00000000  0.57605187  1
  O  O14  1  0.71204507  0.50000000  0.57590986  1
  O  O15  1  0.28734595  0.50000000  0.42530810  1
  O  O16  1  0.78689021  0.00000000  0.42621957  1
  O  O17  1  0.38704542  0.24943860  0.72707039  1
  O  O18  1  0.88588419  0.75056140  0.72707039  1
  O  O19  1  0.88588419  0.24943860  0.72707039  1
  O  O20  1  0.38704542  0.75056140  0.72707039  1
  O  O21  1  0.10214393  0.25884649  0.27731293  1
  O  O22  1  0.62054314  0.74115351  0.27731293  1
  O  O23  1  0.62054314  0.25884649  0.27731293  1
  O  O24  1  0.10214393  0.74115351  0.27731293  1
  O  O25  1  0.07172715  -0.00000000  0.85654570  1
  O  O26  1  0.57170581  0.50000000  0.85658838  1
  O  O27  1  0.43110647  0.50000000  0.13778706  1
  O  O28  1  0.93112587  0.00000000  0.13774826  1
  O  O29  1  0.25180785  0.25453417  0.98741359  1
  O  O30  1  0.76077857  0.74546583  0.98741359  1
  O  O31  1  0.25180785  0.74546583  0.98741359  1
  O  O32  1  0.76077857  0.25453417  0.98741359  1
