# generated using pymatgen
data_Li2V(CO3)2
_symmetry_space_group_name_H-M   'P 1'
_cell_length_a   9.01279747
_cell_length_b   9.01832785
_cell_length_c   9.01298134
_cell_angle_alpha   113.68453134
_cell_angle_beta   108.09384127
_cell_angle_gamma   106.69956215
_symmetry_Int_Tables_number   1
_chemical_formula_structural   Li2V(CO3)2
_chemical_formula_sum   'Li8 V4 C8 O24'
_cell_volume   561.70626570
_cell_formula_units_Z   4
loop_
 _symmetry_equiv_pos_site_id
 _symmetry_equiv_pos_as_xyz
  1  'x, y, z'
loop_
 _atom_site_type_symbol
 _atom_site_label
 _atom_site_symmetry_multiplicity
 _atom_site_fract_x
 _atom_site_fract_y
 _atom_site_fract_z
 _atom_site_occupancy
  Li  Li0  1  0.87430412  0.62500596  0.99930702  1
  Li  Li1  1  0.81653284  0.12500778  0.44153276  1
  Li  Li2  1  0.71921113  0.13382776  0.84524537  1
  Li  Li3  1  0.67809391  0.55190357  0.37700188  1
  Li  Li4  1  0.21142079  0.11617001  0.33537819  1
  Li  Li5  1  0.17942738  0.62501217  0.30442910  1
  Li  Li6  1  0.32509090  0.69809994  0.87619078  1
  Li  Li7  1  0.12469875  0.12499966  0.74970353  1
  V  V8  1  0.96666567  0.84142920  0.37583859  1
  V  V9  1  0.03442211  0.40856427  0.87523644  1
  V  V10  1  0.52696030  0.12500053  0.15196664  1
  V  V11  1  0.47029308  0.62499650  0.59529609  1
  C  C12  1  0.82780632  0.40799829  0.14330710  1
  C  C13  1  0.73773121  0.43093862  0.59559546  1
  C  C14  1  0.66467411  0.81908216  0.05680898  1
  C  C15  1  0.75997677  0.93542730  0.60400443  1
  C  C16  1  0.33509568  0.39310261  0.15397704  1
  C  C17  1  0.23532912  0.84204396  0.16983715  1
  C  C18  1  0.16857487  0.31453344  0.57452961  1
  C  C19  1  0.26083193  0.85686901  0.69197372  1
  O  O20  1  0.92788798  0.43071699  0.06604148  1
  O  O21  1  0.71250619  0.24182512  0.07490233  1
  O  O22  1  0.85236004  0.11329119  0.67631517  1
  O  O23  1  0.84770064  0.55004770  0.27989928  1
  O  O24  1  0.79261055  0.78240674  0.11554494  1
  O  O25  1  0.72392304  0.29894116  0.45137044  1
  O  O26  1  0.83316004  0.46760552  0.76021340  1
  O  O27  1  0.77818753  0.82018516  0.47908899  1
  O  O28  1  0.66296097  0.52955111  0.57907103  1
  O  O29  1  0.45137935  0.33639157  0.17421788  1
  O  O30  1  0.65246239  0.95109504  0.17500002  1
  O  O31  1  0.33305023  0.00818090  0.22066056  1
  O  O32  1  0.65301751  0.88705224  0.66316522  1
  O  O33  1  0.34463840  0.52285159  0.29644068  1
  O  O34  1  0.54953299  0.72050381  0.88341069  1
  O  O35  1  0.27612889  0.36292809  0.51595936  1
  O  O36  1  0.22985956  0.69994926  0.04766776  1
  O  O37  1  0.27356909  0.72712750  0.57179128  1
  O  O38  1  0.06303276  0.13667477  0.48904242  1
  O  O39  1  0.20873390  0.32253315  0.98833550  1
  O  O40  1  0.13535425  0.81931826  0.24719683  1
  O  O41  1  0.15891944  0.42977465  0.70799528  1
  O  O42  1  0.33775199  0.91358838  0.86497783  1
  O  O43  1  0.16577328  0.92744840  0.63617873  1
