# generated using pymatgen
data_LiFe8(BO3)8
_symmetry_space_group_name_H-M   'P 1'
_cell_length_a   5.21653994
_cell_length_b   9.18765890
_cell_length_c   10.20243753
_cell_angle_alpha   89.93298678
_cell_angle_beta   89.92993136
_cell_angle_gamma   89.01908580
_symmetry_Int_Tables_number   1
_chemical_formula_structural   LiFe8(BO3)8
_chemical_formula_sum   'Li1 Fe8 B8 O24'
_cell_volume   488.90793249
_cell_formula_units_Z   1
loop_
 _symmetry_equiv_pos_site_id
 _symmetry_equiv_pos_as_xyz
  1  'x, y, z'
loop_
 _atom_site_type_symbol
 _atom_site_label
 _atom_site_symmetry_multiplicity
 _atom_site_fract_x
 _atom_site_fract_y
 _atom_site_fract_z
 _atom_site_occupancy
  Li  Li0  1  0.84064719  0.82699837  0.65553802  1
  Fe  Fe1  1  0.82567411  0.16882258  0.62744347  1
  Fe  Fe2  1  0.82637615  0.49784165  0.12802858  1
  Fe  Fe3  1  0.67014722  0.00877029  0.88237105  1
  Fe  Fe4  1  0.66846993  0.33894208  0.37544579  1
  Fe  Fe5  1  0.33871948  0.65546355  0.62706658  1
  Fe  Fe6  1  0.32897088  0.99678626  0.12522981  1
  Fe  Fe7  1  0.17346195  0.83522054  0.37522687  1
  Fe  Fe8  1  0.17323693  0.50629980  0.88022129  1
  B  B9  1  0.84775311  0.50137655  0.62423525  1
  B  B10  1  0.82903867  0.16850776  0.13264583  1
  B  B11  1  0.66356730  0.00355210  0.38335336  1
  B  B12  1  0.67268193  0.33609485  0.87531395  1
  B  B13  1  0.33333053  0.99341495  0.62491039  1
  B  B14  1  0.32518150  0.67080905  0.12850395  1
  B  B15  1  0.16040682  0.50220750  0.37659556  1
  B  B16  1  0.17699167  0.82949602  0.87002148  1
  O  O17  1  0.91018223  0.49832015  0.32729015  1
  O  O18  1  0.93051041  0.85112346  0.83736003  1
  O  O19  1  0.78187851  0.21400817  0.81608614  1
  O  O20  1  0.73779500  0.13946576  0.43141409  1
  O  O21  1  0.82762534  0.88750961  0.39013536  1
  O  O22  1  0.83519049  0.43731654  0.93431822  1
  O  O23  1  0.70063971  0.62654827  0.62572462  1
  O  O24  1  0.66846503  0.06514850  0.08192407  1
  O  O25  1  0.75704639  0.37293428  0.57129523  1
  O  O26  1  0.71713911  0.29959532  0.17974805  1
  O  O27  1  0.58022812  0.64656871  0.13206647  1
  O  O28  1  0.59213367  0.99681937  0.65809417  1
  O  O29  1  0.41631193  0.99014702  0.33264861  1
  O  O30  1  0.41649351  0.35872080  0.87817772  1
  O  O31  1  0.30361678  0.69974984  0.82366356  1
  O  O32  1  0.24054430  0.63346325  0.43344936  1
  O  O33  1  0.31986612  0.38573355  0.37232146  1
  O  O34  1  0.32523660  0.92783855  0.93875363  1
  O  O35  1  0.16208703  0.56894105  0.07207191  1
  O  O36  1  0.17124784  0.10896629  0.63144304  1
  O  O37  1  0.23735018  0.85729141  0.58098965  1
  O  O38  1  0.21093134  0.79689320  0.18161216  1
  O  O39  1  0.08616434  0.14641440  0.13743565  1
  O  O40  1  0.09558066  0.50249161  0.67667241  1
