# generated using pymatgen
data_Li4CoO4
_symmetry_space_group_name_H-M   'P 1'
_cell_length_a   9.05914386
_cell_length_b   9.50135896
_cell_length_c   9.32828459
_cell_angle_alpha   90.00000000
_cell_angle_beta   90.89417392
_cell_angle_gamma   90.00000000
_symmetry_Int_Tables_number   1
_chemical_formula_structural   Li4CoO4
_chemical_formula_sum   'Li32 Co8 O32'
_cell_volume   802.82664876
_cell_formula_units_Z   8
loop_
 _symmetry_equiv_pos_site_id
 _symmetry_equiv_pos_as_xyz
  1  'x, y, z'
loop_
 _atom_site_type_symbol
 _atom_site_label
 _atom_site_symmetry_multiplicity
 _atom_site_fract_x
 _atom_site_fract_y
 _atom_site_fract_z
 _atom_site_occupancy
  Li  Li0  1  0.15146611  0.11587655  0.38737451  1
  Li  Li1  1  0.15146611  0.38412345  0.88737451  1
  Li  Li2  1  0.29852238  0.86907976  0.90958539  1
  Li  Li3  1  0.29852238  0.63092024  0.40958539  1
  Li  Li4  1  0.35188323  0.36440645  0.10790238  1
  Li  Li5  1  0.35188323  0.13559355  0.60790238  1
  Li  Li6  1  0.36066951  0.14753651  0.87001275  1
  Li  Li7  1  0.36066951  0.35246349  0.37001275  1
  Li  Li8  1  0.37160991  0.89892690  0.32901183  1
  Li  Li9  1  0.37160991  0.60107310  0.82901183  1
  Li  Li10  1  0.40158705  0.10842130  0.13928716  1
  Li  Li11  1  0.40158705  0.39157870  0.63928716  1
  Li  Li12  1  0.58966616  0.61659568  0.35865592  1
  Li  Li13  1  0.58966616  0.88340432  0.85865592  1
  Li  Li14  1  0.62287844  0.10940070  0.66238307  1
  Li  Li15  1  0.62287844  0.39059930  0.16238307  1
  Li  Li16  1  0.61840665  0.64820734  0.62907087  1
  Li  Li17  1  0.61840665  0.85179266  0.12907087  1
  Li  Li18  1  0.64966133  0.61812374  0.89974119  1
  Li  Li19  1  0.64966133  0.88187626  0.39974119  1
  Li  Li20  1  0.66820006  0.12050074  0.11038708  1
  Li  Li21  1  0.66820006  0.37949926  0.61038708  1
  Li  Li22  1  0.86302325  0.60878623  0.09817866  1
  Li  Li23  1  0.86302325  0.89121377  0.59817866  1
  Li  Li24  1  0.87027014  0.37246933  0.40166993  1
  Li  Li25  1  0.87027014  0.12753067  0.90166993  1
  Li  Li26  1  0.88966318  0.14985317  0.63736063  1
  Li  Li27  1  0.88966318  0.35014683  0.13736063  1
  Li  Li28  1  0.91566342  0.62019796  0.66468324  1
  Li  Li29  1  0.91566342  0.87980204  0.16468324  1
  Li  Li30  1  0.88593821  0.11930709  0.36403058  1
  Li  Li31  1  0.88593821  0.38069291  0.86403058  1
  Co  Co32  1  0.12590384  0.14076139  0.10950519  1
  Co  Co33  1  0.12590384  0.35923861  0.60950519  1
  Co  Co34  1  0.37622764  0.63106045  0.11278207  1
  Co  Co35  1  0.37622764  0.86893955  0.61278207  1
  Co  Co36  1  0.61156986  0.14829066  0.38428129  1
  Co  Co37  1  0.61156986  0.35170934  0.88428129  1
  Co  Co38  1  0.87083686  0.63956378  0.37967249  1
  Co  Co39  1  0.87083686  0.86043622  0.87967249  1
  O  O40  1  0.01088417  0.24234635  0.49865641  1
  O  O41  1  0.01088417  0.25765365  0.99865641  1
  O  O42  1  0.01712253  0.04125968  0.23109263  1
  O  O43  1  0.01712253  0.45874032  0.73109263  1
  O  O44  1  0.25238503  0.03886369  0.00676117  1
  O  O45  1  0.25238503  0.46113631  0.50676117  1
  O  O46  1  0.25747277  0.22899215  0.23230849  1
  O  O47  1  0.25747277  0.27100785  0.73230849  1
  O  O48  1  0.28713361  0.74194623  0.22935272  1
  O  O49  1  0.28713361  0.75805377  0.72935272  1
  O  O50  1  0.28022464  0.51638022  0.99293192  1
  O  O51  1  0.28022464  0.98361978  0.49293192  1
  O  O52  1  0.46194002  0.50207246  0.23893836  1
  O  O53  1  0.46194002  0.99792754  0.73893836  1
  O  O54  1  0.49146218  0.76058512  0.49235338  1
  O  O55  1  0.49146218  0.73941488  0.99235338  1
  O  O56  1  0.51084308  0.24767346  0.01418233  1
  O  O57  1  0.51084308  0.25232654  0.51418233  1
  O  O58  1  0.54437272  0.00943694  0.25634511  1
  O  O59  1  0.54437272  0.49056306  0.75634511  1
  O  O60  1  0.74494993  0.03841611  0.50290796  1
  O  O61  1  0.74494993  0.46158389  0.00290796  1
  O  O62  1  0.74374472  0.25140636  0.26757289  1
  O  O63  1  0.74374472  0.24859364  0.76757289  1
  O  O64  1  0.75358093  0.74913223  0.26369115  1
  O  O65  1  0.75358093  0.75086777  0.76369115  1
  O  O66  1  0.75000747  0.53419140  0.49549074  1
  O  O67  1  0.75000747  0.96580860  0.99549074  1
  O  O68  1  0.94241986  0.51131533  0.26493553  1
  O  O69  1  0.94241986  0.98868467  0.76493553  1
  O  O70  1  0.96480510  0.75651581  0.00037798  1
  O  O71  1  0.96480510  0.74348419  0.50037798  1
