# generated using pymatgen
data_Mn6O5F7
_symmetry_space_group_name_H-M   'P 1'
_cell_length_a   4.69007968
_cell_length_b   5.74141311
_cell_length_c   15.67634799
_cell_angle_alpha   90.98491190
_cell_angle_beta   91.15114041
_cell_angle_gamma   88.32423249
_symmetry_Int_Tables_number   1
_chemical_formula_structural   Mn6O5F7
_chemical_formula_sum   'Mn12 O10 F14'
_cell_volume   421.80385251
_cell_formula_units_Z   2
loop_
 _symmetry_equiv_pos_site_id
 _symmetry_equiv_pos_as_xyz
  1  'x, y, z'
loop_
 _atom_site_type_symbol
 _atom_site_label
 _atom_site_symmetry_multiplicity
 _atom_site_fract_x
 _atom_site_fract_y
 _atom_site_fract_z
 _atom_site_occupancy
  Mn  Mn0  1  0.01540754  0.16642497  0.41794895  1
  Mn  Mn1  1  0.99817315  0.83572662  0.23683810  1
  Mn  Mn2  1  0.99938951  0.14882927  0.07553180  1
  Mn  Mn3  1  0.03344533  0.16019554  0.75688191  1
  Mn  Mn4  1  0.03992489  0.83734109  0.58005023  1
  Mn  Mn5  1  0.01169430  0.85902264  0.91275520  1
  Mn  Mn6  1  0.48618383  0.35703325  0.58137322  1
  Mn  Mn7  1  0.47879674  0.33504156  0.92245082  1
  Mn  Mn8  1  0.52823899  0.35796569  0.25529277  1
  Mn  Mn9  1  0.50288569  0.64485326  0.08855266  1
  Mn  Mn10  1  0.48851017  0.64674612  0.42009092  1
  Mn  Mn11  1  0.46873971  0.65334340  0.75274209  1
  O  O12  1  0.20391569  0.10891324  0.97088008  1
  O  O13  1  0.21420904  0.87860169  0.13171566  1
  O  O14  1  0.23116518  0.88533222  0.47244997  1
  O  O15  1  0.22105685  0.89779826  0.81053982  1
  O  O16  1  0.27485457  0.39002161  0.47510209  1
  O  O17  1  0.28513420  0.61093028  0.63686476  1
  O  O18  1  0.27662260  0.38696561  0.81487617  1
  O  O19  1  0.70922414  0.37454083  0.02838718  1
  O  O20  1  0.71595540  0.61829011  0.19536494  1
  O  O21  1  0.72669300  0.39506767  0.36524687  1
  F  F22  1  0.23618545  0.10813329  0.29743867  1
  F  F23  1  0.25543125  0.11056663  0.64290719  1
  F  F24  1  0.25902621  0.37755849  0.15057891  1
  F  F25  1  0.24778819  0.61528853  0.30919613  1
  F  F26  1  0.26249545  0.60966832  0.98012097  1
  F  F27  1  0.74613831  0.61555712  0.52840286  1
  F  F28  1  0.74083993  0.62849150  0.86109903  1
  F  F29  1  0.74685590  0.37811083  0.69413893  1
  F  F30  1  0.76525008  0.11918064  0.18165169  1
  F  F31  1  0.76757920  0.11200240  0.53530874  1
  F  F32  1  0.76898882  0.89732361  0.35554620  1
  F  F33  1  0.75481860  0.86840458  0.01283670  1
  F  F34  1  0.74190575  0.12522768  0.85741284  1
  F  F35  1  0.79647835  0.88550145  0.69142392  1
