# generated using pymatgen
data_Li7V4O11F
_symmetry_space_group_name_H-M   'P 1'
_cell_length_a   5.05793509
_cell_length_b   8.63882259
_cell_length_c   5.13510253
_cell_angle_alpha   77.81799393
_cell_angle_beta   102.51735165
_cell_angle_gamma   93.11869038
_symmetry_Int_Tables_number   1
_chemical_formula_structural   Li7V4O11F
_chemical_formula_sum   'Li7 V4 O11 F1'
_cell_volume   214.10174168
_cell_formula_units_Z   1
loop_
 _symmetry_equiv_pos_site_id
 _symmetry_equiv_pos_as_xyz
  1  'x, y, z'
loop_
 _atom_site_type_symbol
 _atom_site_label
 _atom_site_symmetry_multiplicity
 _atom_site_fract_x
 _atom_site_fract_y
 _atom_site_fract_z
 _atom_site_occupancy
  Li  Li0  1  0.86393723  0.71034221  0.04088024  1
  Li  Li1  1  0.63496598  0.79797631  0.43930073  1
  Li  Li2  1  0.38032051  0.87120989  0.87543795  1
  Li  Li3  1  0.90253465  0.37176132  0.37113387  1
  Li  Li4  1  0.11964453  0.62720980  0.62203394  1
  Li  Li5  1  0.60367591  0.12635838  0.12631135  1
  Li  Li6  1  0.35593482  0.20639891  0.56669408  1
  V  V7  1  0.11974896  0.96203736  0.29240492  1
  V  V8  1  0.35065792  0.55307718  0.19530499  1
  V  V9  1  0.66102273  0.45434250  0.77192372  1
  V  V10  1  0.86341411  0.03990354  0.71253779  1
  O  O11  1  0.76908951  0.92657243  0.06786450  1
  O  O12  1  0.24945405  0.75563026  0.24939082  1
  O  O13  1  0.73008598  0.57381568  0.43990002  1
  O  O14  1  0.00244712  0.85285353  0.63416772  1
  O  O15  1  0.49459073  0.63102070  0.87949898  1
  O  O16  1  0.99890633  0.50937322  0.99097603  1
  O  O17  1  0.99647309  0.14194337  0.38243407  1
  O  O18  1  0.28863554  0.43424249  0.52362016  1
  O  O19  1  0.73192662  0.25389778  0.75278348  1
  O  O20  1  0.50827636  0.00431341  0.51335840  1
  O  O21  1  0.20824244  0.06600588  0.94543657  1
  F  F22  1  0.52491589  0.34341488  0.14290467  1
