# generated using pymatgen
data_Li4Fe3OF8
_symmetry_space_group_name_H-M   'P 1'
_cell_length_a   2.93386668
_cell_length_b   5.14454419
_cell_length_c   11.66359980
_cell_angle_alpha   77.98410622
_cell_angle_beta   90.13276057
_cell_angle_gamma   73.37668722
_symmetry_Int_Tables_number   1
_chemical_formula_structural   Li4Fe3OF8
_chemical_formula_sum   'Li4 Fe3 O1 F8'
_cell_volume   164.63006559
_cell_formula_units_Z   1
loop_
 _symmetry_equiv_pos_site_id
 _symmetry_equiv_pos_as_xyz
  1  'x, y, z'
loop_
 _atom_site_type_symbol
 _atom_site_label
 _atom_site_symmetry_multiplicity
 _atom_site_fract_x
 _atom_site_fract_y
 _atom_site_fract_z
 _atom_site_occupancy
  Li  Li0  1  0.14314086  0.72447390  0.56052883  1
  Li  Li1  1  0.23494684  0.53510138  0.87667542  1
  Li  Li2  1  0.85225529  0.29088608  0.44796247  1
  Li  Li3  1  0.00694045  0.98432625  0.99225853  1
  Fe  Fe4  1  0.59045514  0.83440022  0.27016546  1
  Fe  Fe5  1  0.77116194  0.46695317  0.12304267  1
  Fe  Fe6  1  0.43449986  0.13280435  0.70287623  1
  O  O7  1  0.13986952  0.73182748  0.16108425  1
  F  F8  1  0.63670970  0.72947554  0.94812760  1
  F  F9  1  0.09529020  0.81294735  0.72481438  1
  F  F10  1  0.19933972  0.61827042  0.40278807  1
  F  F11  1  0.79454573  0.41734742  0.60577492  1
  F  F12  1  0.86652087  0.25337020  0.83006660  1
  F  F13  1  0.92455283  0.16576059  0.28732425  1
  F  F14  1  0.37965761  0.24659799  0.04170779  1
  F  F15  1  0.49089144  0.02170765  0.52550851  1
