# generated using pymatgen
data_Li3Fe8(BO3)8
_symmetry_space_group_name_H-M   'P 1'
_cell_length_a   5.29285651
_cell_length_b   9.01982641
_cell_length_c   11.42039001
_cell_angle_alpha   113.29712390
_cell_angle_beta   77.58683242
_cell_angle_gamma   89.92798105
_symmetry_Int_Tables_number   1
_chemical_formula_structural   Li3Fe8(BO3)8
_chemical_formula_sum   'Li3 Fe8 B8 O24'
_cell_volume   486.78952627
_cell_formula_units_Z   1
loop_
 _symmetry_equiv_pos_site_id
 _symmetry_equiv_pos_as_xyz
  1  'x, y, z'
loop_
 _atom_site_type_symbol
 _atom_site_label
 _atom_site_symmetry_multiplicity
 _atom_site_fract_x
 _atom_site_fract_y
 _atom_site_fract_z
 _atom_site_occupancy
  Li  Li0  1  0.16102583  0.17128210  0.35733187  1
  Li  Li1  1  0.60914476  0.05110256  0.09733207  1
  Li  Li2  1  0.43000370  0.93105693  0.83625344  1
  Fe  Fe3  1  0.40164955  0.27140629  0.86164170  1
  Fe  Fe4  1  0.08894629  0.23557368  0.11679758  1
  Fe  Fe5  1  0.84952036  0.14801883  0.62222823  1
  Fe  Fe6  1  0.65202732  0.35847558  0.37566517  1
  Fe  Fe7  1  0.33940099  0.64163386  0.62520488  1
  Fe  Fe8  1  0.14726844  0.84439282  0.37239439  1
  Fe  Fe9  1  0.91104136  0.76791314  0.87359928  1
  Fe  Fe10  1  0.60353422  0.72251328  0.12542652  1
  B  B11  1  0.64925829  0.01481822  0.36410988  1
  B  B12  1  0.88708303  0.10221611  0.87312210  1
  B  B13  1  0.14125015  0.51509225  0.37481926  1
  B  B14  1  0.40564576  0.61040878  0.87549322  1
  B  B15  1  0.86538726  0.47744422  0.61512071  1
  B  B16  1  0.59731026  0.38999682  0.11876183  1
  B  B17  1  0.34438676  0.97964598  0.62264327  1
  B  B18  1  0.10749361  0.89908573  0.13380527  1
  O  O19  1  0.13488470  0.12604233  0.90012053  1
  O  O20  1  0.45083684  0.12631131  0.66697667  1
  O  O21  1  0.22825600  0.03488557  0.13658102  1
  O  O22  1  0.53501809  0.15111341  0.36061693  1
  O  O23  1  0.88695922  0.02155078  0.39851490  1
  O  O24  1  0.77811278  0.20180153  0.82770401  1
  O  O25  1  0.29910354  0.46926451  0.86001307  1
  O  O26  1  0.03241239  0.36530229  0.33429891  1
  O  O27  1  0.69106451  0.28586345  0.17079911  1
  O  O28  1  0.63511450  0.47962994  0.57050613  1
  O  O29  1  0.98401685  0.33683985  0.59817026  1
  O  O30  1  0.39703945  0.33997464  0.05608646  1
  O  O31  1  0.60738723  0.65867682  0.93812273  1
  O  O32  1  0.36358167  0.52064852  0.42404457  1
  O  O33  1  0.31383144  0.71635185  0.82663504  1
  O  O34  1  0.96839633  0.62564956  0.66785786  1
  O  O35  1  0.70623009  0.52890528  0.13276507  1
  O  O36  1  0.21810953  0.78817914  0.17145979  1
  O  O37  1  0.14153403  0.96453463  0.56008376  1
  O  O38  1  0.43036957  0.85302807  0.64704494  1
  O  O39  1  0.03791539  0.64497244  0.36693142  1
  O  O40  1  0.75101504  0.98309732  0.89776402  1
  O  O41  1  0.53046599  0.87105744  0.32890958  1
  O  O42  1  0.87226288  0.86916612  0.09483956  1
