# generated using pymatgen
data_LiFe8(BO3)8
_symmetry_space_group_name_H-M   'P 1'
_cell_length_a   5.22044033
_cell_length_b   9.19267706
_cell_length_c   11.46463110
_cell_angle_alpha   66.34975039
_cell_angle_beta   75.93252335
_cell_angle_gamma   88.91183884
_symmetry_Int_Tables_number   1
_chemical_formula_structural   LiFe8(BO3)8
_chemical_formula_sum   'Li1 Fe8 B8 O24'
_cell_volume   486.94972795
_cell_formula_units_Z   1
loop_
 _symmetry_equiv_pos_site_id
 _symmetry_equiv_pos_as_xyz
  1  'x, y, z'
loop_
 _atom_site_type_symbol
 _atom_site_label
 _atom_site_symmetry_multiplicity
 _atom_site_fract_x
 _atom_site_fract_y
 _atom_site_fract_z
 _atom_site_occupancy
  Li  Li0  1  0.01767893  0.99657091  0.65270132  1
  Fe  Fe1  1  0.97731243  0.65144973  0.37638735  1
  Fe  Fe2  1  0.72885675  0.07255579  0.87752780  1
  Fe  Fe3  1  0.53319820  0.83750475  0.62326494  1
  Fe  Fe4  1  0.76478031  0.43244524  0.12948052  1
  Fe  Fe5  1  0.23343678  0.56573106  0.87567778  1
  Fe  Fe6  1  0.48265615  0.14497043  0.37967181  1
  Fe  Fe7  1  0.01798213  0.35880675  0.62517220  1
  Fe  Fe8  1  0.26447397  0.93270334  0.12812864  1
  B  B9  1  0.97127438  0.31203548  0.38168676  1
  B  B10  1  0.73211627  0.39413234  0.87907814  1
  B  B11  1  0.51621647  0.18179000  0.62698444  1
  B  B12  1  0.76346953  0.10680198  0.12844245  1
  B  B13  1  0.47307002  0.81561151  0.37295074  1
  B  B14  1  0.24061539  0.89695484  0.87299529  1
  B  B15  1  0.04091461  0.68770702  0.62732344  1
  B  B16  1  0.26319569  0.60487520  0.12737332  1
  O  O17  1  0.00127432  0.94341191  0.84745898  1
  O  O18  1  0.86924328  0.29412941  0.82246572  1
  O  O19  1  0.86891646  0.46617444  0.93505776  1
  O  O20  1  0.91222453  0.81754001  0.62497291  1
  O  O21  1  0.96832898  0.58704423  0.57143037  1
  O  O22  1  0.75390799  0.16319950  0.66995146  1
  O  O23  1  0.74923287  0.32699545  0.33105959  1
  O  O24  1  0.47817167  0.41452788  0.87930534  1
  O  O25  1  0.36732944  0.78377590  0.83608266  1
  O  O26  1  0.52825691  0.92224311  0.42300273  1
  O  O27  1  0.63137434  0.69762883  0.37145408  1
  O  O28  1  0.36751293  0.97192339  0.93195484  1
  O  O29  1  0.63258833  0.03236639  0.07023130  1
  O  O30  1  0.35935405  0.29829926  0.63425954  1
  O  O31  1  0.44528439  0.07435038  0.57930170  1
  O  O32  1  0.62230783  0.20880805  0.17899407  1
  O  O33  1  0.51619903  0.57983295  0.13295408  1
  O  O34  1  0.25280313  0.64694189  0.68425973  1
  O  O35  1  0.24635554  0.83229590  0.32441622  1
  O  O36  1  0.02140247  0.42222607  0.43187914  1
  O  O37  1  0.12929111  0.19245034  0.38751500  1
  O  O38  1  0.12885648  0.52549189  0.07550232  1
  O  O39  1  0.12323455  0.71054080  0.17524436  1
  O  O40  1  0.01579436  0.07934464  0.13324317  1
