# generated using pymatgen
data_LiFe8(BO3)8
_symmetry_space_group_name_H-M   'P 1'
_cell_length_a   5.33296654
_cell_length_b   9.01100317
_cell_length_c   10.13165912
_cell_angle_alpha   90.63451626
_cell_angle_beta   90.02050496
_cell_angle_gamma   89.62360868
_symmetry_Int_Tables_number   1
_chemical_formula_structural   LiFe8(BO3)8
_chemical_formula_sum   'Li1 Fe8 B8 O24'
_cell_volume   486.84033176
_cell_formula_units_Z   1
loop_
 _symmetry_equiv_pos_site_id
 _symmetry_equiv_pos_as_xyz
  1  'x, y, z'
loop_
 _atom_site_type_symbol
 _atom_site_label
 _atom_site_symmetry_multiplicity
 _atom_site_fract_x
 _atom_site_fract_y
 _atom_site_fract_z
 _atom_site_occupancy
  Li  Li0  1  0.35465063  0.00388494  0.84420621  1
  Fe  Fe1  1  0.15712147  0.16585990  0.12063313  1
  Fe  Fe2  1  0.83958358  0.16584884  0.37030742  1
  Fe  Fe3  1  0.33895405  0.34132002  0.87277855  1
  Fe  Fe4  1  0.65948998  0.33361628  0.62336839  1
  Fe  Fe5  1  0.34078407  0.66651759  0.37239121  1
  Fe  Fe6  1  0.14642917  0.82939571  0.62343465  1
  Fe  Fe7  1  0.66210936  0.66668292  0.12382430  1
  Fe  Fe8  1  0.84553451  0.82928087  0.87731760  1
  B  B9  1  0.16246899  0.17136725  0.62887201  1
  B  B10  1  0.33176027  0.32822515  0.37153826  1
  B  B11  1  0.82601590  0.17163505  0.87055612  1
  B  B12  1  0.66196234  0.32888739  0.12185371  1
  B  B13  1  0.33717059  0.67160346  0.87385459  1
  B  B14  1  0.66115666  0.67017599  0.62043414  1
  B  B15  1  0.16808694  0.83095586  0.12366300  1
  B  B16  1  0.83214304  0.83004007  0.37307797  1
  O  O17  1  0.24285312  0.03091111  0.65209060  1
  O  O18  1  0.07955170  0.18644302  0.91559721  1
  O  O19  1  0.70670745  0.04134696  0.87247584  1
  O  O20  1  0.19578716  0.20734000  0.31962630  1
  O  O21  1  0.30411607  0.29186540  0.67406379  1
  O  O22  1  0.79950676  0.20663597  0.16906405  1
  O  O23  1  0.93527628  0.19983940  0.56548156  1
  O  O24  1  0.42411615  0.30112625  0.06633296  1
  O  O25  1  0.24379156  0.46767969  0.36587299  1
  O  O26  1  0.56516045  0.29603683  0.42886978  1
  O  O27  1  0.70282699  0.30035201  0.82403472  1
  O  O28  1  0.22778640  0.53615988  0.86524901  1
  O  O29  1  0.75458771  0.46633878  0.12965115  1
  O  O30  1  0.30785498  0.71419415  0.17746859  1
  O  O31  1  0.42214252  0.69770268  0.56718346  1
  O  O32  1  0.75240959  0.53029230  0.62377413  1
  O  O33  1  0.56476321  0.69138464  0.93496097  1
  O  O34  1  0.07175850  0.80561673  0.42648721  1
  O  O35  1  0.22376860  0.79931036  0.82053072  1
  O  O36  1  0.69898088  0.70698629  0.32714581  1
  O  O37  1  0.79825840  0.78941851  0.66806287  1
  O  O38  1  0.26727787  0.96918803  0.11054862  1
  O  O39  1  0.92936131  0.80250842  0.07900167  1
  O  O40  1  0.73755679  0.96917829  0.36747072  1
