# generated using pymatgen
data_LiFe4(BO3)4
_symmetry_space_group_name_H-M   'P 1'
_cell_length_a   5.20561547
_cell_length_b   9.19183021
_cell_length_c   11.44389720
_cell_angle_alpha   66.78067101
_cell_angle_beta   76.45820558
_cell_angle_gamma   88.93710419
_symmetry_Int_Tables_number   1
_chemical_formula_structural   LiFe4(BO3)4
_chemical_formula_sum   'Li2 Fe8 B8 O24'
_cell_volume   487.56747858
_cell_formula_units_Z   2
loop_
 _symmetry_equiv_pos_site_id
 _symmetry_equiv_pos_as_xyz
  1  'x, y, z'
loop_
 _atom_site_type_symbol
 _atom_site_label
 _atom_site_symmetry_multiplicity
 _atom_site_fract_x
 _atom_site_fract_y
 _atom_site_fract_z
 _atom_site_occupancy
  Li  Li0  1  0.97034086  0.97572042  0.38780891  1
  Li  Li1  1  0.02180816  0.00257094  0.64628610  1
  Fe  Fe2  1  0.98171085  0.64165403  0.37652407  1
  Fe  Fe3  1  0.72805091  0.07134344  0.87842986  1
  Fe  Fe4  1  0.51550071  0.84043209  0.62826136  1
  Fe  Fe5  1  0.76639430  0.43229726  0.12949149  1
  Fe  Fe6  1  0.23086671  0.56474690  0.87871035  1
  Fe  Fe7  1  0.47764395  0.15847459  0.37778249  1
  Fe  Fe8  1  0.01855593  0.35551176  0.62810980  1
  Fe  Fe9  1  0.27143170  0.92833236  0.12944334  1
  B  B10  1  0.95978720  0.30576668  0.38450956  1
  B  B11  1  0.73061067  0.39470158  0.87891042  1
  B  B12  1  0.50992695  0.17959047  0.63418395  1
  B  B13  1  0.76488438  0.10363782  0.13164539  1
  B  B14  1  0.48954845  0.81738589  0.37249511  1
  B  B15  1  0.23708328  0.89538194  0.87500232  1
  B  B16  1  0.03948217  0.69179220  0.62065199  1
  B  B17  1  0.26959013  0.60453742  0.12647852  1
  O  O18  1  0.99570578  0.93838608  0.84864057  1
  O  O19  1  0.86887760  0.29112361  0.82663341  1
  O  O20  1  0.86600144  0.47232644  0.93213443  1
  O  O21  1  0.92185178  0.83056600  0.60001496  1
  O  O22  1  0.96412312  0.58326222  0.57228315  1
  O  O23  1  0.75417486  0.16248321  0.67422642  1
  O  O24  1  0.74938512  0.34482785  0.32438667  1
  O  O25  1  0.47563394  0.41541927  0.87574953  1
  O  O26  1  0.36909960  0.78075414  0.84104447  1
  O  O27  1  0.56887016  0.92678608  0.41446652  1
  O  O28  1  0.63756842  0.69544996  0.36754068  1
  O  O29  1  0.36005442  0.97477062  0.93364471  1
  O  O30  1  0.64075143  0.02415880  0.07293846  1
  O  O31  1  0.36307883  0.30244832  0.63727713  1
  O  O32  1  0.42840727  0.06903304  0.59366168  1
  O  O33  1  0.63057586  0.21709114  0.16639502  1
  O  O34  1  0.52518512  0.58453932  0.12843506  1
  O  O35  1  0.24590925  0.65287764  0.68357716  1
  O  O36  1  0.24446339  0.83381400  0.33308233  1
  O  O37  1  0.03625371  0.41406581  0.43312653  1
  O  O38  1  0.08010396  0.16887599  0.40179366  1
  O  O39  1  0.13233148  0.52535320  0.07493271  1
  O  O40  1  0.13182764  0.70844929  0.17838356  1
  O  O41  1  0.00781750  0.06296318  0.15483315  1
