# generated using pymatgen
data_LiV(CO3)2
_symmetry_space_group_name_H-M   'P 1'
_cell_length_a   7.68833619
_cell_length_b   4.65822041
_cell_length_c   6.15000208
_cell_angle_alpha   90.00000000
_cell_angle_beta   112.17361148
_cell_angle_gamma   90.00000000
_symmetry_Int_Tables_number   1
_chemical_formula_structural   LiV(CO3)2
_chemical_formula_sum   'Li2 V2 C4 O12'
_cell_volume   203.96681870
_cell_formula_units_Z   2
loop_
 _symmetry_equiv_pos_site_id
 _symmetry_equiv_pos_as_xyz
  1  'x, y, z'
loop_
 _atom_site_type_symbol
 _atom_site_label
 _atom_site_symmetry_multiplicity
 _atom_site_fract_x
 _atom_site_fract_y
 _atom_site_fract_z
 _atom_site_occupancy
  Li  Li0  1  0.09717187  0.98714821  0.21315833  1
  Li  Li1  1  0.90282813  0.48714821  0.78684167  1
  V  V2  1  0.36911600  0.51899867  0.74845558  1
  V  V3  1  0.63088400  0.01899867  0.25154442  1
  C  C4  1  0.13405498  0.01453613  0.76622457  1
  C  C5  1  0.38331754  0.47804745  0.24434975  1
  C  C6  1  0.61668246  0.97804745  0.75565025  1
  C  C7  1  0.86594502  0.51453613  0.23377543  1
  O  O8  1  0.04597467  0.89182300  0.87524072  1
  O  O9  1  0.14739106  0.29883250  0.76293398  1
  O  O10  1  0.21406767  0.87452783  0.64521541  1
  O  O11  1  0.32333109  0.59064868  0.39017295  1
  O  O12  1  0.38421331  0.20203230  0.22089846  1
  O  O13  1  0.55623055  0.14340424  0.88810062  1
  O  O14  1  0.44376945  0.64340424  0.11189938  1
  O  O15  1  0.61578669  0.70203230  0.77910154  1
  O  O16  1  0.67666891  0.09064868  0.60982705  1
  O  O17  1  0.78593233  0.37452783  0.35478459  1
  O  O18  1  0.85260894  0.79883250  0.23706602  1
  O  O19  1  0.95402533  0.39182300  0.12475928  1
