# generated using pymatgen
data_Li4MnOF5
_symmetry_space_group_name_H-M   'P 1'
_cell_length_a   3.80529220
_cell_length_b   5.31353054
_cell_length_c   6.76181848
_cell_angle_alpha   74.43295612
_cell_angle_beta   106.34992611
_cell_angle_gamma   69.01951219
_symmetry_Int_Tables_number   1
_chemical_formula_structural   Li4MnOF5
_chemical_formula_sum   'Li4 Mn1 O1 F5'
_cell_volume   111.61292923
_cell_formula_units_Z   1
loop_
 _symmetry_equiv_pos_site_id
 _symmetry_equiv_pos_as_xyz
  1  'x, y, z'
loop_
 _atom_site_type_symbol
 _atom_site_label
 _atom_site_symmetry_multiplicity
 _atom_site_fract_x
 _atom_site_fract_y
 _atom_site_fract_z
 _atom_site_occupancy
  Li  Li0  1  0.35193414  0.99344546  0.69968011  1
  Li  Li1  1  0.77391418  0.57835121  0.12588229  1
  Li  Li2  1  0.64303031  0.00456145  0.29387318  1
  Li  Li3  1  0.22644551  0.42125302  0.87257414  1
  Mn  Mn4  1  0.49937144  0.49842174  0.49856626  1
  O  O5  1  0.99685905  0.49985283  0.49509754  1
  F  F6  1  0.49755936  0.00008911  0.99636651  1
  F  F7  1  0.36251222  0.44698383  0.17236722  1
  F  F8  1  0.77661589  0.07045236  0.62639311  1
  F  F9  1  0.63628551  0.55066954  0.82281704  1
  F  F10  1  0.21993840  0.92667945  0.36939961  1
