# generated using pymatgen
data_Li9Fe4(BO3)8
_symmetry_space_group_name_H-M   'P 1'
_cell_length_a   8.35491878
_cell_length_b   8.30593192
_cell_length_c   8.83675785
_cell_angle_alpha   111.81073664
_cell_angle_beta   68.24712143
_cell_angle_gamma   105.51784437
_symmetry_Int_Tables_number   1
_chemical_formula_structural   Li9Fe4(BO3)8
_chemical_formula_sum   'Li9 Fe4 B8 O24'
_cell_volume   522.76206930
_cell_formula_units_Z   1
loop_
 _symmetry_equiv_pos_site_id
 _symmetry_equiv_pos_as_xyz
  1  'x, y, z'
loop_
 _atom_site_type_symbol
 _atom_site_label
 _atom_site_symmetry_multiplicity
 _atom_site_fract_x
 _atom_site_fract_y
 _atom_site_fract_z
 _atom_site_occupancy
  Li  Li0  1  0.76292019  0.39988106  0.89382602  1
  Li  Li1  1  0.92999652  0.75376915  0.41687911  1
  Li  Li2  1  0.73738348  0.10405371  0.10267572  1
  Li  Li3  1  0.57874688  0.75670131  0.58086323  1
  Li  Li4  1  0.43006772  0.25026605  0.41858756  1
  Li  Li5  1  0.27271600  0.55522859  0.76053867  1
  Li  Li6  1  0.26528633  0.90583691  0.90053676  1
  Li  Li7  1  0.06976191  0.23990751  0.57747102  1
  Li  Li8  1  0.23327349  0.59971290  0.12472985  1
  Fe  Fe9  1  0.90574076  0.74575195  0.77931640  1
  Fe  Fe10  1  0.40869386  0.24138355  0.77599719  1
  Fe  Fe11  1  0.58924560  0.75828019  0.22403628  1
  Fe  Fe12  1  0.09097693  0.25632077  0.22350963  1
  B  B13  1  0.80020635  0.03413066  0.39837421  1
  B  B14  1  0.69931193  0.47035060  0.59965934  1
  B  B15  1  0.95528283  0.69499623  0.05899845  1
  B  B16  1  0.54076848  0.78989219  0.93076972  1
  B  B17  1  0.45249666  0.20442807  0.06632077  1
  B  B18  1  0.05144038  0.30411424  0.93082347  1
  B  B19  1  0.30089870  0.53403285  0.41425652  1
  B  B20  1  0.20103359  0.96652806  0.60165494  1
  O  O21  1  0.96279195  0.29166027  0.82691244  1
  O  O22  1  0.93419605  0.17597425  0.40627545  1
  O  O23  1  0.79214861  0.51029824  0.71457477  1
  O  O24  1  0.97394786  0.23892285  0.07009162  1
  O  O25  1  0.71566703  0.87219090  0.90527234  1
  O  O26  1  0.53393775  0.26301161  0.92310647  1
  O  O27  1  0.74050681  0.57416792  0.49917358  1
  O  O28  1  0.76630028  0.92894147  0.49569731  1
  O  O29  1  0.56115681  0.33283181  0.59740503  1
  O  O30  1  0.77789746  0.62986445  0.08563583  1
  O  O31  1  0.44958755  0.76158686  0.82205259  1
  O  O32  1  0.70657401  0.99477469  0.28422265  1
  O  O33  1  0.29277074  0.00602966  0.71846748  1
  O  O34  1  0.53797616  0.21917425  0.17364003  1
  O  O35  1  0.22793944  0.38722310  0.90064772  1
  O  O36  1  0.24110801  0.07245482  0.50345687  1
  O  O37  1  0.43790143  0.67481808  0.40821597  1
  O  O38  1  0.26301179  0.44473530  0.52766529  1
  O  O39  1  0.46157696  0.73749572  0.07849108  1
  O  O40  1  0.27757070  0.12491239  0.09080299  1
  O  O41  1  0.04633735  0.74195210  0.90828798  1
  O  O42  1  0.20965732  0.48594678  0.29487517  1
  O  O43  1  0.06448607  0.82730902  0.59627404  1
  O  O44  1  0.03821927  0.70775895  0.16784742  1
