# generated using pymatgen
data_Mn6O7F5
_symmetry_space_group_name_H-M   'P 1'
_cell_length_a   4.62234535
_cell_length_b   7.77746200
_cell_length_c   5.59133365
_cell_angle_alpha   92.79255312
_cell_angle_beta   89.04203229
_cell_angle_gamma   90.23055193
_symmetry_Int_Tables_number   1
_chemical_formula_structural   Mn6O7F5
_chemical_formula_sum   'Mn6 O7 F5'
_cell_volume   200.74128824
_cell_formula_units_Z   1
loop_
 _symmetry_equiv_pos_site_id
 _symmetry_equiv_pos_as_xyz
  1  'x, y, z'
loop_
 _atom_site_type_symbol
 _atom_site_label
 _atom_site_symmetry_multiplicity
 _atom_site_fract_x
 _atom_site_fract_y
 _atom_site_fract_z
 _atom_site_occupancy
  Mn  Mn0  1  0.49112622  0.00126035  0.50102032  1
  Mn  Mn1  1  0.54289046  0.65491940  0.17492797  1
  Mn  Mn2  1  0.51051964  0.34456661  0.81963900  1
  Mn  Mn3  1  0.97136512  0.68225516  0.66915543  1
  Mn  Mn4  1  0.98126712  0.32069296  0.35184766  1
  Mn  Mn5  1  0.99643328  0.99032381  0.00198116  1
  O  O6  1  0.80685002  0.45176827  0.63148166  1
  O  O7  1  0.79511326  0.76330082  0.96312255  1
  O  O8  1  0.81361045  0.09093198  0.28955054  1
  O  O9  1  0.69117265  0.77383119  0.46882878  1
  O  O10  1  0.69672066  0.42942423  0.12655851  1
  O  O11  1  0.31336217  0.23494109  0.53354765  1
  O  O12  1  0.17948681  0.90005244  0.70713712  1
  F  F13  1  0.70600049  0.10371258  0.80587323  1
  F  F14  1  0.28407402  0.57719382  0.86911387  1
  F  F15  1  0.30757381  0.88063003  0.18997949  1
  F  F16  1  0.20215176  0.57044287  0.36982488  1
  F  F17  1  0.21028107  0.22975341  0.02641118  1
