# generated using pymatgen
data_LiV(OF)2
_symmetry_space_group_name_H-M   'P 1'
_cell_length_a   5.95931875
_cell_length_b   5.96626823
_cell_length_c   8.29065907
_cell_angle_alpha   89.56521426
_cell_angle_beta   90.00000000
_cell_angle_gamma   90.00000000
_symmetry_Int_Tables_number   1
_chemical_formula_structural   LiV(OF)2
_chemical_formula_sum   'Li4 V4 O8 F8'
_cell_volume   294.76501836
_cell_formula_units_Z   4
loop_
 _symmetry_equiv_pos_site_id
 _symmetry_equiv_pos_as_xyz
  1  'x, y, z'
loop_
 _atom_site_type_symbol
 _atom_site_label
 _atom_site_symmetry_multiplicity
 _atom_site_fract_x
 _atom_site_fract_y
 _atom_site_fract_z
 _atom_site_occupancy
  Li  Li0  1  0.24243411  0.24797714  0.38290607  1
  Li  Li1  1  0.24243411  0.75202286  0.11709393  1
  Li  Li2  1  0.74545429  0.74856869  0.88679718  1
  Li  Li3  1  0.74545429  0.25143131  0.61320282  1
  V  V4  1  0.02778980  0.26687738  0.98420274  1
  V  V5  1  0.02778980  0.73312262  0.51579726  1
  V  V6  1  0.23951069  0.00000000  0.75000000  1
  V  V7  1  0.72614195  0.00000000  0.25000000  1
  O  O8  1  0.02313734  0.77010071  0.73467268  1
  O  O9  1  0.02313734  0.22989929  0.76532732  1
  O  O10  1  0.21519269  0.46053245  0.01845537  1
  O  O11  1  0.21519269  0.53946755  0.48154463  1
  O  O12  1  0.22008976  0.01634327  0.97321668  1
  O  O13  1  0.22008976  0.98365673  0.52678332  1
  O  O14  1  0.78864930  0.98880918  0.45684650  1
  O  O15  1  0.78864930  0.01119082  0.04315350  1
  F  F16  1  0.47278092  0.20976080  0.72402683  1
  F  F17  1  0.47278092  0.79023920  0.77597317  1
  F  F18  1  0.51701810  0.22050034  0.26539674  1
  F  F19  1  0.51701810  0.77949966  0.23460326  1
  F  F20  1  0.77814227  0.45834087  0.98257819  1
  F  F21  1  0.77814227  0.54165913  0.51742181  1
  F  F22  1  0.99065711  0.22950507  0.23721722  1
  F  F23  1  0.99065711  0.77049493  0.26278278  1
