# generated using pymatgen
data_LiMn2F7
_symmetry_space_group_name_H-M   'P 1'
_cell_length_a   5.26015887
_cell_length_b   5.53262487
_cell_length_c   9.83247171
_cell_angle_alpha   90.00000000
_cell_angle_beta   100.37816061
_cell_angle_gamma   90.00000000
_symmetry_Int_Tables_number   1
_chemical_formula_structural   LiMn2F7
_chemical_formula_sum   'Li2 Mn4 F14'
_cell_volume   281.46802383
_cell_formula_units_Z   2
loop_
 _symmetry_equiv_pos_site_id
 _symmetry_equiv_pos_as_xyz
  1  'x, y, z'
loop_
 _atom_site_type_symbol
 _atom_site_label
 _atom_site_symmetry_multiplicity
 _atom_site_fract_x
 _atom_site_fract_y
 _atom_site_fract_z
 _atom_site_occupancy
  Li  Li0  1  0.50000000  0.91608868  0.75000000  1
  Li  Li1  1  0.50000000  0.08391132  0.25000000  1
  Mn  Mn2  1  0.06704999  0.25466763  0.92930911  1
  Mn  Mn3  1  0.06704999  0.74533237  0.42930911  1
  Mn  Mn4  1  0.93295001  0.25466763  0.57069089  1
  Mn  Mn5  1  0.93295001  0.74533237  0.07069089  1
  F  F6  1  0.00000000  0.41373566  0.75000000  1
  F  F7  1  0.00000000  0.58626434  0.25000000  1
  F  F8  1  0.16334117  0.89735431  0.60517326  1
  F  F9  1  0.16334117  0.10264569  0.10517326  1
  F  F10  1  0.22225646  0.40457084  0.51912636  1
  F  F11  1  0.22225646  0.59542916  0.01912636  1
  F  F12  1  0.32941863  0.10059824  0.86502262  1
  F  F13  1  0.32941863  0.89940176  0.36502262  1
  F  F14  1  0.67058137  0.10059824  0.63497738  1
  F  F15  1  0.67058137  0.89940176  0.13497738  1
  F  F16  1  0.77774354  0.40457084  0.98087364  1
  F  F17  1  0.77774354  0.59542916  0.48087364  1
  F  F18  1  0.83665883  0.89735431  0.89482674  1
  F  F19  1  0.83665883  0.10264569  0.39482674  1
