# generated using pymatgen
data_Ni3OF5
_symmetry_space_group_name_H-M   'P 1'
_cell_length_a   4.70557288
_cell_length_b   7.76328383
_cell_length_c   5.63377659
_cell_angle_alpha   93.99401398
_cell_angle_beta   90.85297544
_cell_angle_gamma   89.29604542
_symmetry_Int_Tables_number   1
_chemical_formula_structural   Ni3OF5
_chemical_formula_sum   'Ni6 O2 F10'
_cell_volume   205.27015094
_cell_formula_units_Z   2
loop_
 _symmetry_equiv_pos_site_id
 _symmetry_equiv_pos_as_xyz
  1  'x, y, z'
loop_
 _atom_site_type_symbol
 _atom_site_label
 _atom_site_symmetry_multiplicity
 _atom_site_fract_x
 _atom_site_fract_y
 _atom_site_fract_z
 _atom_site_occupancy
  Ni  Ni0  1  0.48980561  0.00720656  0.49830068  1
  Ni  Ni1  1  0.51019439  0.65946044  0.16836632  1
  Ni  Ni2  1  0.50000000  0.33333300  0.83333300  1
  Ni  Ni3  1  0.00073287  0.66928409  0.66465851  1
  Ni  Ni4  1  0.00000000  0.33333300  0.33333300  1
  Ni  Ni5  1  0.99926713  0.99738291  0.00200849  1
  O  O6  1  0.69710719  0.43133276  0.12913370  1
  O  O7  1  0.30289281  0.23533424  0.53753230  1
  F  F8  1  0.79996240  0.43833952  0.62937436  1
  F  F9  1  0.80491144  0.76561908  0.96436227  1
  F  F10  1  0.80516745  0.09896123  0.30043040  1
  F  F11  1  0.69927151  0.10000782  0.79769443  1
  F  F12  1  0.69391235  0.77313784  0.46701449  1
  F  F13  1  0.30072849  0.56665918  0.86897257  1
  F  F14  1  0.30608765  0.89352816  0.19965251  1
  F  F15  1  0.20003760  0.22832648  0.03729264  1
  F  F16  1  0.19483255  0.56770577  0.36623660  1
  F  F17  1  0.19508856  0.90104792  0.70230373  1
