# generated using pymatgen
data_Li2Si4Ni5O14
_symmetry_space_group_name_H-M   'P 1'
_cell_length_a   7.49245795
_cell_length_b   7.92382318
_cell_length_c   5.42059442
_cell_angle_alpha   91.01032656
_cell_angle_beta   105.24879219
_cell_angle_gamma   114.33913638
_symmetry_Int_Tables_number   1
_chemical_formula_structural   Li2Si4Ni5O14
_chemical_formula_sum   'Li2 Si4 Ni5 O14'
_cell_volume   279.96684795
_cell_formula_units_Z   1
loop_
 _symmetry_equiv_pos_site_id
 _symmetry_equiv_pos_as_xyz
  1  'x, y, z'
loop_
 _atom_site_type_symbol
 _atom_site_label
 _atom_site_symmetry_multiplicity
 _atom_site_fract_x
 _atom_site_fract_y
 _atom_site_fract_z
 _atom_site_occupancy
  Li  Li0  1  0.10397415  0.45297381  0.22880975  1
  Li  Li1  1  0.89602585  0.54702619  0.77119025  1
  Si  Si2  1  0.22548515  0.86065614  0.49823366  1
  Si  Si3  1  0.21242861  0.39223367  0.79099888  1
  Si  Si4  1  0.78757139  0.60776633  0.20900112  1
  Si  Si5  1  0.77451485  0.13934386  0.50176634  1
  Ni  Ni6  1  0.00000000  0.00000000  0.00000000  1
  Ni  Ni7  1  0.39862159  0.81013796  0.07753764  1
  Ni  Ni8  1  0.58338179  0.70371974  0.63272034  1
  Ni  Ni9  1  0.41661821  0.29628026  0.36727966  1
  Ni  Ni10  1  0.60137841  0.18986204  0.92246236  1
  O  O11  1  0.18372879  0.57315306  0.88481115  1
  O  O12  1  0.34270109  0.95888770  0.79754266  1
  O  O13  1  0.01702864  0.27623851  0.52710623  1
  O  O14  1  0.32905624  0.73261013  0.40322076  1
  O  O15  1  0.19238688  0.26730617  0.03066796  1
  O  O16  1  0.41166716  0.43449199  0.68933542  1
  O  O17  1  0.22630935  0.01777551  0.30571812  1
  O  O18  1  0.77369065  0.98222449  0.69428188  1
  O  O19  1  0.58833284  0.56550801  0.31066458  1
  O  O20  1  0.80761312  0.73269383  0.96933204  1
  O  O21  1  0.67094376  0.26738987  0.59677924  1
  O  O22  1  0.98297136  0.72376149  0.47289377  1
  O  O23  1  0.65729891  0.04111230  0.20245734  1
  O  O24  1  0.81627121  0.42684694  0.11518885  1
