# generated using pymatgen
data_LiNi3O3F
_symmetry_space_group_name_H-M   'P 1'
_cell_length_a   2.96235845
_cell_length_b   2.96236397
_cell_length_c   8.52389478
_cell_angle_alpha   89.99998439
_cell_angle_beta   89.99992378
_cell_angle_gamma   90.00003228
_symmetry_Int_Tables_number   1
_chemical_formula_structural   LiNi3O3F
_chemical_formula_sum   'Li1 Ni3 O3 F1'
_cell_volume   74.80215413
_cell_formula_units_Z   1
loop_
 _symmetry_equiv_pos_site_id
 _symmetry_equiv_pos_as_xyz
  1  'x, y, z'
loop_
 _atom_site_type_symbol
 _atom_site_label
 _atom_site_symmetry_multiplicity
 _atom_site_fract_x
 _atom_site_fract_y
 _atom_site_fract_z
 _atom_site_occupancy
  Li  Li0  1  0.50000046  0.49999995  0.75002159  1
  Ni  Ni1  1  0.99999959  0.00000405  0.00444159  1
  Ni  Ni2  1  0.49999926  0.49999734  0.24997736  1
  Ni  Ni3  1  0.99999903  0.00000088  0.49557170  1
  O  O4  1  0.49999996  0.49999960  0.00000776  1
  O  O5  1  0.00000087  0.99999748  0.24998959  1
  O  O6  1  0.50000051  0.50000094  0.49997670  1
  F  F7  1  0.00000031  -0.00000023  0.75001372  1
