# generated using pymatgen
data_Li4Mn3Cr3(CuO8)2
_symmetry_space_group_name_H-M   'P 1'
_cell_length_a   5.81537715
_cell_length_b   5.81396605
_cell_length_c   9.52680196
_cell_angle_alpha   89.93347880
_cell_angle_beta   90.12763138
_cell_angle_gamma   120.00611923
_symmetry_Int_Tables_number   1
_chemical_formula_structural   Li4Mn3Cr3(CuO8)2
_chemical_formula_sum   'Li4 Mn3 Cr3 Cu2 O16'
_cell_volume   278.93324895
_cell_formula_units_Z   1
loop_
 _symmetry_equiv_pos_site_id
 _symmetry_equiv_pos_as_xyz
  1  'x, y, z'
loop_
 _atom_site_type_symbol
 _atom_site_label
 _atom_site_symmetry_multiplicity
 _atom_site_fract_x
 _atom_site_fract_y
 _atom_site_fract_z
 _atom_site_occupancy
  Li  Li0  1  0.34133817  0.67060449  0.89728009  1
  Li  Li1  1  0.99320897  0.99691922  0.99722911  1
  Li  Li2  1  0.99735586  0.99866366  0.49585634  1
  Li  Li3  1  0.67185993  0.33612313  0.39737660  1
  Mn  Mn4  1  0.65911190  0.83007991  0.21481475  1
  Mn  Mn5  1  0.83296945  0.66302363  0.71400444  1
  Mn  Mn6  1  0.83303973  0.16996446  0.71397003  1
  Cr  Cr7  1  0.16629318  0.83082606  0.21091624  1
  Cr  Cr8  1  0.16680432  0.33752863  0.21230166  1
  Cr  Cr9  1  0.33920070  0.16954515  0.71370548  1
  Cu  Cu10  1  0.32835229  0.66399122  0.49056372  1
  Cu  Cu11  1  0.66443702  0.33163416  0.98799714  1
  O  O12  1  0.15373093  0.83550204  0.60257260  1
  O  O13  1  0.03855548  0.52059200  0.33263355  1
  O  O14  1  0.34062742  0.67092081  0.10444912  1
  O  O15  1  0.99001349  0.99464636  0.31199474  1
  O  O16  1  0.99319799  0.99648008  0.81224527  1
  O  O17  1  0.15367257  0.31822824  0.60254147  1
  O  O18  1  0.48284711  0.96337496  0.33316701  1
  O  O19  1  0.48443151  0.52034022  0.33350942  1
  O  O20  1  0.32037029  0.15810900  0.10650769  1
  O  O21  1  0.68015034  0.84018658  0.60478367  1
  O  O22  1  0.52572007  0.48820687  0.83422479  1
  O  O23  1  0.52565039  0.03741982  0.83413341  1
  O  O24  1  0.67683378  0.33845895  0.60747218  1
  O  O25  1  0.83759222  0.67734430  0.10474059  1
  O  O26  1  0.96684920  0.48337472  0.83318001  1
  O  O27  1  0.83578366  0.15821235  0.10367187  1
