# generated using pymatgen
data_Li3Fe8(BO3)8
_symmetry_space_group_name_H-M   'P 1'
_cell_length_a   5.24353125
_cell_length_b   9.12033106
_cell_length_c   11.41571567
_cell_angle_alpha   66.93927064
_cell_angle_beta   76.89078811
_cell_angle_gamma   89.34529906
_symmetry_Int_Tables_number   1
_chemical_formula_structural   Li3Fe8(BO3)8
_chemical_formula_sum   'Li3 Fe8 B8 O24'
_cell_volume   487.38624764
_cell_formula_units_Z   1
loop_
 _symmetry_equiv_pos_site_id
 _symmetry_equiv_pos_as_xyz
  1  'x, y, z'
loop_
 _atom_site_type_symbol
 _atom_site_label
 _atom_site_symmetry_multiplicity
 _atom_site_fract_x
 _atom_site_fract_y
 _atom_site_fract_z
 _atom_site_occupancy
  Li  Li0  1  0.97067851  0.96583340  0.40656995  1
  Li  Li1  1  0.50989321  0.49327825  0.66057338  1
  Li  Li2  1  0.23310060  0.25229274  0.15926787  1
  Fe  Fe3  1  0.98757717  0.64017548  0.37088034  1
  Fe  Fe4  1  0.73085423  0.06130563  0.88699325  1
  Fe  Fe5  1  0.50675768  0.85240026  0.63348660  1
  Fe  Fe6  1  0.76885546  0.44085189  0.12412872  1
  Fe  Fe7  1  0.23962600  0.56515871  0.88077022  1
  Fe  Fe8  1  0.48278291  0.15914214  0.38362665  1
  Fe  Fe9  1  0.02337835  0.33911829  0.63099819  1
  Fe  Fe10  1  0.24992397  0.93361850  0.12579111  1
  B  B11  1  0.96741239  0.31228333  0.37427925  1
  B  B12  1  0.74492594  0.39528879  0.87220154  1
  B  B13  1  0.52791488  0.18621428  0.63213901  1
  B  B14  1  0.75834337  0.11496092  0.12858483  1
  B  B15  1  0.47982488  0.81074720  0.38540734  1
  B  B16  1  0.23285378  0.90188883  0.87203986  1
  B  B17  1  0.02051812  0.68358207  0.61936303  1
  B  B18  1  0.27140369  0.59341222  0.13344746  1
  O  O19  1  0.97499958  0.91588026  0.87387376  1
  O  O20  1  0.89348636  0.28674535  0.82817258  1
  O  O21  1  0.85855521  0.47014468  0.93483129  1
  O  O22  1  0.87302857  0.80995607  0.61131856  1
  O  O23  1  0.93033747  0.56272082  0.58604246  1
  O  O24  1  0.75665616  0.16666508  0.67686401  1
  O  O25  1  0.74835390  0.35151130  0.32163336  1
  O  O26  1  0.50483284  0.42356036  0.84728035  1
  O  O27  1  0.37088065  0.79905703  0.82071086  1
  O  O28  1  0.55995583  0.92609992  0.42695468  1
  O  O29  1  0.63753462  0.69353921  0.37956608  1
  O  O30  1  0.36498977  0.98607546  0.92180875  1
  O  O31  1  0.64329434  0.02581281  0.07630685  1
  O  O32  1  0.38470401  0.31432784  0.62952327  1
  O  O33  1  0.44947044  0.07753343  0.58747502  1
  O  O34  1  0.59961786  0.22377504  0.16570544  1
  O  O35  1  0.53076523  0.59280035  0.12687924  1
  O  O36  1  0.26112657  0.66975753  0.65437802  1
  O  O37  1  0.23374155  0.82044742  0.35360476  1
  O  O38  1  0.04555401  0.40994379  0.43273657  1
  O  O39  1  0.10295075  0.18751844  0.36519837  1
  O  O40  1  0.15063735  0.49101906  0.09265702  1
  O  O41  1  0.11979981  0.69377967  0.18220429  1
  O  O42  1  0.00854098  0.09896415  0.14512878  1
