# generated using pymatgen
data_Na6W10O33
_symmetry_space_group_name_H-M   'P 1'
_cell_length_a   8.24552078
_cell_length_b   12.32350931
_cell_length_c   7.73855344
_cell_angle_alpha   107.19758598
_cell_angle_beta   100.85392215
_cell_angle_gamma   71.12206172
_symmetry_Int_Tables_number   1
_chemical_formula_structural   Na6W10O33
_chemical_formula_sum   'Na6 W10 O33'
_cell_volume   707.03740205
_cell_formula_units_Z   1
loop_
 _symmetry_equiv_pos_site_id
 _symmetry_equiv_pos_as_xyz
  1  'x, y, z'
loop_
 _atom_site_type_symbol
 _atom_site_label
 _atom_site_symmetry_multiplicity
 _atom_site_fract_x
 _atom_site_fract_y
 _atom_site_fract_z
 _atom_site_occupancy
  Na  Na0  1  0.15567635  0.22845976  0.14350268  1
  Na  Na1  1  0.34312225  0.78519031  0.89619424  1
  Na  Na2  1  0.61293212  0.24020291  0.63316165  1
  Na  Na3  1  0.38706788  0.75979609  0.36683835  1
  Na  Na4  1  0.65687775  0.21480969  0.10380576  1
  Na  Na5  1  0.84432365  0.77154024  0.85649732  1
  W  W6  1  0.06756134  0.31908731  0.67736405  1
  W  W7  1  0.39004134  0.01963803  0.71136130  1
  W  W8  1  0.22656769  0.49973096  0.55395416  1
  W  W9  1  0.01707013  0.97232261  0.28092378  1
  W  W10  1  0.22960517  0.49259949  0.05123974  1
  W  W11  1  0.77039483  0.50740051  0.94876026  1
  W  W12  1  0.98292987  0.02767739  0.71907622  1
  W  W13  1  0.77343231  0.50026904  0.44604584  1
  W  W14  1  0.60995866  0.98036197  0.28863870  1
  W  W15  1  0.93243866  0.68091269  0.32263595  1
  O  O16  1  0.03414740  0.38023322  0.93923382  1
  O  O17  1  0.18539188  0.07482784  0.85413979  1
  O  O18  1  0.05902609  0.37817120  0.46450241  1
  O  O19  1  0.27549730  0.20949547  0.67170718  1
  O  O20  1  0.18721923  0.46967663  0.78152235  1
  O  O21  1  0.00826903  0.89470755  0.77893146  1
  O  O22  1  0.16260186  0.52161080  0.30149217  1
  O  O23  1  0.07454169  0.77056996  0.38825970  1
  O  O24  1  0.52918854  0.07914550  0.88796998  1
  O  O25  1  0.50000000  0.00000000  0.50000000  1
  O  O26  1  0.28683256  0.62912054  0.66741052  1
  O  O27  1  0.42071676  0.38724196  0.51328495  1
  O  O28  1  0.38523704  0.35705380  0.06259448  1
  O  O29  1  0.15640343  0.99304240  0.51872459  1
  O  O30  1  0.54291983  0.13336141  0.29052476  1
  O  O31  1  0.17885005  0.86323196  0.15124116  1
  O  O32  1  0.34362434  0.59841336  0.10157368  1
  O  O33  1  0.65637566  0.40158664  0.89842632  1
  O  O34  1  0.82114995  0.13676804  0.84875884  1
  O  O35  1  0.45708017  0.86663859  0.70947524  1
  O  O36  1  0.84359657  0.00695760  0.48127541  1
  O  O37  1  0.61476296  0.64294620  0.93740552  1
  O  O38  1  0.57928324  0.61275804  0.48671505  1
  O  O39  1  0.71316744  0.37087946  0.33258948  1
  O  O40  1  0.47081146  0.92085450  0.11203002  1
  O  O41  1  0.92545831  0.22943004  0.61174030  1
  O  O42  1  0.83739814  0.47838920  0.69850783  1
  O  O43  1  0.99173097  0.10529245  0.22106854  1
  O  O44  1  0.81278077  0.53032337  0.21847765  1
  O  O45  1  0.72450270  0.79050453  0.32829282  1
  O  O46  1  0.94097391  0.62182880  0.53549759  1
  O  O47  1  0.81460812  0.92517216  0.14586021  1
  O  O48  1  0.96585260  0.61976678  0.06076618  1
