# generated using pymatgen
data_Li9Ti5(SiO8)2
_symmetry_space_group_name_H-M   'P 1'
_cell_length_a   5.17681155
_cell_length_b   11.20385030
_cell_length_c   5.00222829
_cell_angle_alpha   94.27111941
_cell_angle_beta   80.47730319
_cell_angle_gamma   99.93686488
_symmetry_Int_Tables_number   1
_chemical_formula_structural   Li9Ti5(SiO8)2
_chemical_formula_sum   'Li9 Ti5 Si2 O16'
_cell_volume   281.52481078
_cell_formula_units_Z   1
loop_
 _symmetry_equiv_pos_site_id
 _symmetry_equiv_pos_as_xyz
  1  'x, y, z'
loop_
 _atom_site_type_symbol
 _atom_site_label
 _atom_site_symmetry_multiplicity
 _atom_site_fract_x
 _atom_site_fract_y
 _atom_site_fract_z
 _atom_site_occupancy
  Li  Li0  1  0.00899425  0.99570147  0.00197692  1
  Li  Li1  1  0.12076169  0.11758441  0.50157710  1
  Li  Li2  1  0.26137430  0.24715598  0.99818443  1
  Li  Li3  1  0.37489561  0.37754053  0.49674208  1
  Li  Li4  1  0.50010439  0.49745947  0.00325792  1
  Li  Li5  1  0.61362570  0.62784402  0.50181557  1
  Li  Li6  1  0.75423831  0.75741559  0.99842290  1
  Li  Li7  1  0.86600575  0.87929853  0.49802308  1
  Li  Li8  1  0.43750000  0.93750000  0.25000000  1
  Ti  Ti9  1  0.68794744  0.18443375  0.24977808  1
  Ti  Ti10  1  0.82268135  0.32045577  0.74781346  1
  Ti  Ti11  1  0.93750000  0.43750000  0.25000000  1
  Ti  Ti12  1  0.05231865  0.55454423  0.75218654  1
  Ti  Ti13  1  0.18705256  0.69056625  0.25022192  1
  Si  Si14  1  0.55627070  0.05497375  0.75117444  1
  Si  Si15  1  0.31872930  0.82002625  0.74882556  1
  O  O16  1  0.38085494  0.09157112  0.08496097  1
  O  O17  1  0.75435683  0.03774233  0.41546641  1
  O  O18  1  0.02590500  0.27773044  0.37042900  1
  O  O19  1  0.85811192  0.14241495  0.86861357  1
  O  O20  1  0.48411951  0.19615574  0.63077523  1
  O  O21  1  0.16477341  0.40312745  0.87845958  1
  O  O22  1  0.60001002  0.33971918  0.12899577  1
  O  O23  1  0.71022659  0.47187255  0.62154042  1
  O  O24  1  0.27498998  0.53528082  0.37100423  1
  O  O25  1  0.39088049  0.67884426  0.86922477  1
  O  O26  1  0.84909500  0.59726956  0.12957100  1
  O  O27  1  0.49414506  0.78342888  0.41503903  1
  O  O28  1  0.12064317  0.83725767  0.08453359  1
  O  O29  1  0.01688808  0.73258505  0.63138643  1
  O  O30  1  0.25948154  0.96370103  0.64803508  1
  O  O31  1  0.61551846  0.91129897  0.85196492  1
