# generated using pymatgen
data_Na3Mn8O16
_symmetry_space_group_name_H-M   'P 1'
_cell_length_a   6.16774207
_cell_length_b   12.37360863
_cell_length_c   8.43208693
_cell_angle_alpha   89.99792567
_cell_angle_beta   89.96210551
_cell_angle_gamma   90.00239840
_symmetry_Int_Tables_number   1
_chemical_formula_structural   Na3Mn8O16
_chemical_formula_sum   'Na6 Mn16 O32'
_cell_volume   643.51334717
_cell_formula_units_Z   2
loop_
 _symmetry_equiv_pos_site_id
 _symmetry_equiv_pos_as_xyz
  1  'x, y, z'
loop_
 _atom_site_type_symbol
 _atom_site_label
 _atom_site_symmetry_multiplicity
 _atom_site_fract_x
 _atom_site_fract_y
 _atom_site_fract_z
 _atom_site_occupancy
  Na  Na0  1  0.75014144  0.00001128  0.12149040  1
  Na  Na1  1  0.74990719  0.74915631  0.37320663  1
  Na  Na2  1  0.74990270  0.25081262  0.37315924  1
  Na  Na3  1  0.25006592  0.75083568  0.62680926  1
  Na  Na4  1  0.25007146  0.24917030  0.62684484  1
  Na  Na5  1  0.24986780  0.49997348  0.87852249  1
  Mn  Mn6  1  0.49980912  0.24987692  0.00011269  1
  Mn  Mn7  1  0.49985839  0.75013018  0.99997540  1
  Mn  Mn8  1  0.00012854  0.75012842  0.00000047  1
  Mn  Mn9  1  0.00011757  0.24985359  0.00012177  1
  Mn  Mn10  1  0.24999220  0.62317410  0.24792907  1
  Mn  Mn11  1  0.25006856  0.37710903  0.24773474  1
  Mn  Mn12  1  0.24994799  0.87555301  0.24771602  1
  Mn  Mn13  1  0.24995006  0.12436581  0.24773204  1
  Mn  Mn14  1  0.00163266  0.99999792  0.50254051  1
  Mn  Mn15  1  0.49822349  0.00000120  0.50255394  1
  Mn  Mn16  1  0.50176578  0.49997982  0.49696578  1
  Mn  Mn17  1  0.99847312  0.49998110  0.49700705  1
  Mn  Mn18  1  0.75005356  0.62438446  0.75274001  1
  Mn  Mn19  1  0.74998102  0.87750106  0.75214352  1
  Mn  Mn20  1  0.75009667  0.37551248  0.75274409  1
  Mn  Mn21  1  0.75003842  0.12261965  0.75210932  1
  O  O22  1  0.25028770  0.85585584  0.01679940  1
  O  O23  1  0.25030246  0.64740420  0.01411243  1
  O  O24  1  0.25028863  0.14411598  0.01682336  1
  O  O25  1  0.25032591  0.35260051  0.01419063  1
  O  O26  1  0.45969675  0.74710380  0.22894003  1
  O  O27  1  0.04030336  0.74712770  0.22891795  1
  O  O28  1  0.45969581  0.25287181  0.22893346  1
  O  O29  1  0.04027684  0.25286289  0.22890432  1
  O  O30  1  0.03872101  0.50004962  0.26325859  1
  O  O31  1  0.46133237  0.50004296  0.26328788  1
  O  O32  1  0.03370863  0.99995995  0.27278142  1
  O  O33  1  0.46626719  0.99995459  0.27276532  1
  O  O34  1  0.24945466  0.39368846  0.47600972  1
  O  O35  1  0.24964244  0.89315353  0.47866506  1
  O  O36  1  0.24947001  0.60630277  0.47603098  1
  O  O37  1  0.24964509  0.10683227  0.47866762  1
  O  O38  1  0.75061629  0.60684215  0.52128567  1
  O  O39  1  0.75030044  0.89370431  0.52397387  1
  O  O40  1  0.75060867  0.39311936  0.52129040  1
  O  O41  1  0.75031784  0.10628369  0.52397184  1
  O  O42  1  0.53869133  0.99995973  0.73668199  1
  O  O43  1  0.96122147  0.99995045  0.73668175  1
  O  O44  1  0.53368066  0.49993782  0.72724011  1
  O  O45  1  0.96638573  0.49992680  0.72721878  1
  O  O46  1  0.54027273  0.75296164  0.77105087  1
  O  O47  1  0.95968085  0.75293554  0.77107169  1
  O  O48  1  0.54031328  0.24715213  0.77107150  1
  O  O49  1  0.95967767  0.24715750  0.77110396  1
  O  O50  1  0.74969356  0.35586550  0.98320240  1
  O  O51  1  0.74968801  0.64415709  0.98319481  1
  O  O52  1  0.74967842  0.85261296  0.98587790  1
  O  O53  1  0.74966053  0.14737807  0.98583499  1
