# generated using pymatgen
data_LiNiPO4
_symmetry_space_group_name_H-M   'P 1'
_cell_length_a   5.42175039
_cell_length_b   6.20759964
_cell_length_c   5.42175039
_cell_angle_alpha   76.60369296
_cell_angle_beta   62.00030177
_cell_angle_gamma   103.39630704
_symmetry_Int_Tables_number   1
_chemical_formula_structural   LiNiPO4
_chemical_formula_sum   'Li2 Ni2 P2 O8'
_cell_volume   143.89433017
_cell_formula_units_Z   2
loop_
 _symmetry_equiv_pos_site_id
 _symmetry_equiv_pos_as_xyz
  1  'x, y, z'
loop_
 _atom_site_type_symbol
 _atom_site_label
 _atom_site_symmetry_multiplicity
 _atom_site_fract_x
 _atom_site_fract_y
 _atom_site_fract_z
 _atom_site_occupancy
  Li  Li0  1  0.81192354  0.25000000  0.81192354  1
  Li  Li1  1  0.56192354  0.75000000  0.56192354  1
  Ni  Ni2  1  0.43862786  0.25000000  0.43862786  1
  Ni  Ni3  1  0.18862786  0.75000000  0.18862786  1
  P  P4  1  0.12109671  0.25000000  0.12109671  1
  P  P5  1  0.87109671  0.75000000  0.87109671  1
  O  O6  1  0.77829597  0.10782321  0.26903890  1
  O  O7  1  0.28929778  0.08754334  0.16671823  1
  O  O8  1  0.75426257  0.58754334  0.20175444  1
  O  O9  1  0.87686211  0.60782321  0.67047276  1
  O  O10  1  0.16671823  0.41245666  0.28929778  1
  O  O11  1  0.26903890  0.39217679  0.77829597  1
  O  O12  1  0.67047276  0.89217679  0.87686211  1
  O  O13  1  0.20175444  0.91245666  0.75426257  1
