# generated using pymatgen
data_Ba2Ca7I18
_symmetry_space_group_name_H-M   'P 1'
_cell_length_a   10.37157698
_cell_length_b   11.48205927
_cell_length_c   11.21524615
_cell_angle_alpha   95.69014135
_cell_angle_beta   94.90516541
_cell_angle_gamma   115.89143283
_symmetry_Int_Tables_number   1
_chemical_formula_structural   Ba2Ca7I18
_chemical_formula_sum   'Ba2 Ca7 I18'
_cell_volume   1183.16741682
_cell_formula_units_Z   1
loop_
 _symmetry_equiv_pos_site_id
 _symmetry_equiv_pos_as_xyz
  1  'x, y, z'
loop_
 _atom_site_type_symbol
 _atom_site_label
 _atom_site_symmetry_multiplicity
 _atom_site_fract_x
 _atom_site_fract_y
 _atom_site_fract_z
 _atom_site_occupancy
  Ba  Ba0  1  0.30772313  0.76832732  0.60990199  1
  Ba  Ba1  1  0.69227687  0.23167268  0.39009801  1
  Ca  Ca2  1  0.20499684  0.88262359  0.18171563  1
  Ca  Ca3  1  0.00000000  0.00000000  0.50000000  1
  Ca  Ca4  1  0.20050838  0.38865345  0.21051846  1
  Ca  Ca5  1  0.40624367  0.29679874  0.88651695  1
  Ca  Ca6  1  0.59375633  0.70320126  0.11348305  1
  Ca  Ca7  1  0.79949162  0.61134655  0.78948154  1
  Ca  Ca8  1  0.79500316  0.11737641  0.81828437  1
  I  I9  1  0.12117712  0.75785092  0.91284067  1
  I  I10  1  0.13683956  0.62873855  0.30153988  1
  I  I11  1  0.05994829  0.27952615  0.43932351  1
  I  I12  1  0.08201162  0.10175340  0.77757171  1
  I  I13  1  0.29156660  0.49927541  0.97067424  1
  I  I14  1  0.52487338  0.93975586  0.18207316  1
  I  I15  1  0.51141389  0.57414749  0.34102826  1
  I  I16  1  0.33776360  0.19063090  0.14269151  1
  I  I17  1  0.68561134  0.97041033  0.54059233  1
  I  I18  1  0.31438866  0.02958967  0.45940767  1
  I  I19  1  0.66223640  0.80936910  0.85730849  1
  I  I20  1  0.48858611  0.42585251  0.65897174  1
  I  I21  1  0.47512662  0.06024414  0.81792684  1
  I  I22  1  0.70843340  0.50072459  0.02932576  1
  I  I23  1  0.91798838  0.89824660  0.22242829  1
  I  I24  1  0.94005171  0.72047385  0.56067649  1
  I  I25  1  0.86316044  0.37126145  0.69846012  1
  I  I26  1  0.87882288  0.24214908  0.08715933  1
