# generated using pymatgen
data_Ba2In2O5
_symmetry_space_group_name_H-M   'P 1'
_cell_length_a   8.16536780
_cell_length_b   9.66237573
_cell_length_c   8.69514316
_cell_angle_alpha   90.00000000
_cell_angle_beta   90.00000000
_cell_angle_gamma   114.99467931
_symmetry_Int_Tables_number   1
_chemical_formula_structural   Ba2In2O5
_chemical_formula_sum   'Ba8 In8 O20'
_cell_volume   621.77166304
_cell_formula_units_Z   4
loop_
 _symmetry_equiv_pos_site_id
 _symmetry_equiv_pos_as_xyz
  1  'x, y, z'
loop_
 _atom_site_type_symbol
 _atom_site_label
 _atom_site_symmetry_multiplicity
 _atom_site_fract_x
 _atom_site_fract_y
 _atom_site_fract_z
 _atom_site_occupancy
  Ba  Ba0  1  0.87232532  0.24465164  0.25268535  1
  Ba  Ba1  1  0.63837398  0.77674797  0.25485799  1
  Ba  Ba2  1  0.36810609  0.23621217  0.25690087  1
  Ba  Ba3  1  0.86810609  0.23621217  0.74309913  1
  Ba  Ba4  1  0.63301828  0.76603657  0.74319009  1
  Ba  Ba5  1  0.13301828  0.76603657  0.25680991  1
  Ba  Ba6  1  0.37232532  0.24465164  0.74731465  1
  Ba  Ba7  1  0.13837398  0.77674797  0.74514201  1
  In  In8  1  0.99543041  0.99086082  0.00000000  1
  In  In9  1  0.75592383  0.51184767  0.00000000  1
  In  In10  1  0.74918240  0.49836481  0.50000000  1
  In  In11  1  0.00244201  0.00488502  0.50000000  1
  In  In12  1  0.25592383  0.51184767  0.00000000  1
  In  In13  1  0.49543041  0.99086082  0.00000000  1
  In  In14  1  0.50244201  0.00488502  0.50000000  1
  In  In15  1  0.24918240  0.49836481  0.50000000  1
  O  O16  1  0.87481311  0.74962522  0.00000000  1
  O  O17  1  0.76233708  0.49033171  0.25519657  1
  O  O18  1  0.50511666  0.00877436  0.24574391  1
  O  O19  1  0.73886004  0.97772007  0.50086779  1
  O  O20  1  0.28130842  0.06261785  0.00002750  1
  O  O21  1  0.46526438  0.43052776  0.01341049  1
  O  O22  1  0.63008416  0.26016832  0.50000000  1
  O  O23  1  0.86711148  0.73422196  0.50000000  1
  O  O24  1  0.37481311  0.74962522  0.00000000  1
  O  O25  1  0.23886004  0.97772007  0.49913221  1
  O  O26  1  0.78130842  0.06261785  0.99997250  1
  O  O27  1  0.00365770  0.00877436  0.24574391  1
  O  O28  1  0.50365770  0.00877436  0.75425609  1
  O  O29  1  0.72799563  0.49033171  0.74480343  1
  O  O30  1  0.22799563  0.49033171  0.25519657  1
  O  O31  1  0.13008416  0.26016832  0.50000000  1
  O  O32  1  0.36711148  0.73422196  0.50000000  1
  O  O33  1  0.26233708  0.49033171  0.74480343  1
  O  O34  1  0.00511666  0.00877436  0.75425609  1
  O  O35  1  0.96526438  0.43052776  0.98658951  1
