# generated using pymatgen
data_Lu3(MnGa2)2
_symmetry_space_group_name_H-M   'P 1'
_cell_length_a   7.51411594
_cell_length_b   8.29636573
_cell_length_c   8.29636573
_cell_angle_alpha   76.85991195
_cell_angle_beta   116.92706215
_cell_angle_gamma   63.07293785
_symmetry_Int_Tables_number   1
_chemical_formula_structural   Lu3(MnGa2)2
_chemical_formula_sum   'Lu6 Mn4 Ga8'
_cell_volume   344.98090681
_cell_formula_units_Z   2
loop_
 _symmetry_equiv_pos_site_id
 _symmetry_equiv_pos_as_xyz
  1  'x, y, z'
loop_
 _atom_site_type_symbol
 _atom_site_label
 _atom_site_symmetry_multiplicity
 _atom_site_fract_x
 _atom_site_fract_y
 _atom_site_fract_z
 _atom_site_occupancy
  Lu  Lu0  1  0.41040503  0.44137075  0.94137075  1
  Lu  Lu1  1  0.91040503  0.55862925  0.05862925  1
  Lu  Lu2  1  0.83841995  0.25126827  0.75126827  1
  Lu  Lu3  1  0.33841995  0.74873173  0.24873173  1
  Lu  Lu4  1  0.41009424  0.06006924  0.56006924  1
  Lu  Lu5  1  0.91009424  0.93993076  0.43993076  1
  Mn  Mn6  1  0.47251838  0.33048024  0.33649780  1
  Mn  Mn7  1  0.46650082  0.66951976  0.66350220  1
  Mn  Mn8  1  0.96650082  0.83649780  0.83048024  1
  Mn  Mn9  1  0.97251838  0.16350220  0.16951976  1
  Ga  Ga10  1  0.25837047  0.50000000  0.50000000  1
  Ga  Ga11  1  0.75837047  0.00000000  -0.00000000  1
  Ga  Ga12  1  0.21947075  0.25095552  0.75095552  1
  Ga  Ga13  1  0.71947075  0.74904448  0.24904448  1
  Ga  Ga14  1  0.32744351  0.14202846  0.14669512  1
  Ga  Ga15  1  0.32277684  0.85797154  0.85330488  1
  Ga  Ga16  1  0.82277684  0.64669512  0.64202846  1
  Ga  Ga17  1  0.82744351  0.35330488  0.35797154  1
