# generated using pymatgen
data_LiMnPO4
_symmetry_space_group_name_H-M   'P 1'
_cell_length_a   4.37313116
_cell_length_b   5.62580944
_cell_length_c   4.37313116
_cell_angle_alpha   67.12843385
_cell_angle_beta   90.00000000
_cell_angle_gamma   112.87157732
_symmetry_Int_Tables_number   1
_chemical_formula_structural   LiMnPO4
_chemical_formula_sum   'Li1 Mn1 P1 O4'
_cell_volume   89.87920225
_cell_formula_units_Z   1
loop_
 _symmetry_equiv_pos_site_id
 _symmetry_equiv_pos_as_xyz
  1  'x, y, z'
loop_
 _atom_site_type_symbol
 _atom_site_label
 _atom_site_symmetry_multiplicity
 _atom_site_fract_x
 _atom_site_fract_y
 _atom_site_fract_z
 _atom_site_occupancy
  Li  Li0  1  0.50000000  0.00000000  0.50000000  1
  Mn  Mn1  1  0.75000000  0.50000000  0.75000000  1
  P  P2  1  0.00000000  0.00000000  0.00000000  1
  O  O3  1  0.31580337  0.19179549  0.09459467  1
  O  O4  1  0.71361084  0.80820451  0.31580337  1
  O  O5  1  0.87599112  0.19179549  0.71361084  1
  O  O6  1  0.09459467  0.80820451  0.87599112  1
