# generated using pymatgen
data_V3O5F
_symmetry_space_group_name_H-M   'P 1'
_cell_length_a   5.15228484
_cell_length_b   5.44562655
_cell_length_c   5.11921916
_cell_angle_alpha   87.23490074
_cell_angle_beta   58.41059935
_cell_angle_gamma   63.13814516
_symmetry_Int_Tables_number   1
_chemical_formula_structural   V3O5F
_chemical_formula_sum   'V3 O5 F1'
_cell_volume   105.73825111
_cell_formula_units_Z   1
loop_
 _symmetry_equiv_pos_site_id
 _symmetry_equiv_pos_as_xyz
  1  'x, y, z'
loop_
 _atom_site_type_symbol
 _atom_site_label
 _atom_site_symmetry_multiplicity
 _atom_site_fract_x
 _atom_site_fract_y
 _atom_site_fract_z
 _atom_site_occupancy
  V  V0  1  0.32273027  0.05541592  0.32924081  1
  V  V1  1  0.72902064  0.44500478  0.13837353  1
  V  V2  1  0.65503458  0.97858911  0.65484829  1
  O  O3  1  0.51860854  0.23678247  0.06795969  1
  O  O4  1  0.19316938  0.22142487  0.73662823  1
  O  O5  1  0.85444205  0.20105428  0.41145003  1
  O  O6  1  0.73094814  0.76361494  0.31680780  1
  O  O7  1  0.54415107  0.76572872  0.94002354  1
  F  F8  1  0.17640533  0.74424492  0.52629207  1
