# generated using pymatgen
data_LiVSiO4
_symmetry_space_group_name_H-M   'P 1'
_cell_length_a   5.57709436
_cell_length_b   5.92905770
_cell_length_c   5.73120585
_cell_angle_alpha   58.85130735
_cell_angle_beta   60.88559427
_cell_angle_gamma   90.00000000
_symmetry_Int_Tables_number   1
_chemical_formula_structural   LiVSiO4
_chemical_formula_sum   'Li2 V2 Si2 O8'
_cell_volume   133.42939082
_cell_formula_units_Z   2
loop_
 _symmetry_equiv_pos_site_id
 _symmetry_equiv_pos_as_xyz
  1  'x, y, z'
loop_
 _atom_site_type_symbol
 _atom_site_label
 _atom_site_symmetry_multiplicity
 _atom_site_fract_x
 _atom_site_fract_y
 _atom_site_fract_z
 _atom_site_occupancy
  Li  Li0  1  0.00000000  0.00000000  0.00000000  1
  Li  Li1  1  0.50000000  0.00000000  0.00000000  1
  V  V2  1  0.00000000  0.00000000  0.50000000  1
  V  V3  1  0.00000000  0.50000000  0.50000000  1
  Si  Si4  1  0.63586415  0.38586415  0.22827171  1
  Si  Si5  1  0.36413585  0.61413585  0.77172829  1
  O  O6  1  0.25301954  0.27180555  0.99396192  1
  O  O7  1  0.74698046  0.26576647  0.00603808  1
  O  O8  1  0.75239055  0.25813889  0.48372322  1
  O  O9  1  0.26388623  0.25813889  0.48372322  1
  O  O10  1  0.25301954  0.73423353  0.99396192  1
  O  O11  1  0.74698046  0.72819445  0.00603808  1
  O  O12  1  0.24760945  0.74186111  0.51627678  1
  O  O13  1  0.73611377  0.74186111  0.51627678  1
