# generated using pymatgen
data_Li4Mn3OF11
_symmetry_space_group_name_H-M   'P 1'
_cell_length_a   5.78016853
_cell_length_b   6.16221707
_cell_length_c   6.11854639
_cell_angle_alpha   98.59381426
_cell_angle_beta   97.57975299
_cell_angle_gamma   98.49451202
_symmetry_Int_Tables_number   1
_chemical_formula_structural   Li4Mn3OF11
_chemical_formula_sum   'Li4 Mn3 O1 F11'
_cell_volume   210.46517694
_cell_formula_units_Z   1
loop_
 _symmetry_equiv_pos_site_id
 _symmetry_equiv_pos_as_xyz
  1  'x, y, z'
loop_
 _atom_site_type_symbol
 _atom_site_label
 _atom_site_symmetry_multiplicity
 _atom_site_fract_x
 _atom_site_fract_y
 _atom_site_fract_z
 _atom_site_occupancy
  Li  Li0  1  0.00973871  0.97800238  0.00303616  1
  Li  Li1  1  0.87795733  0.67362479  0.39776355  1
  Li  Li2  1  0.70676164  0.39274666  0.90599456  1
  Li  Li3  1  0.58167998  0.13703316  0.27207862  1
  Mn  Mn4  1  0.40424107  0.84882186  0.63683903  1
  Mn  Mn5  1  0.28705889  0.59430267  0.13462974  1
  Mn  Mn6  1  0.10322089  0.31712861  0.58194756  1
  O  O7  1  0.22422875  0.59350852  0.42839233  1
  F  F8  1  0.09662451  0.88822132  0.70292787  1
  F  F9  1  0.31189115  0.92310911  0.15488230  1
  F  F10  1  0.64771025  0.85288917  0.45732331  1
  F  F11  1  0.10057696  0.28766086  0.89775764  1
  F  F12  1  0.40643569  0.60307574  0.84807088  1
  F  F13  1  0.53975518  0.42014227  0.18270604  1
  F  F14  1  0.93523572  0.64789420  0.07484062  1
  F  F15  1  0.37490016  0.19566911  0.55066183  1
  F  F16  1  0.82900394  0.43766987  0.60878117  1
  F  F17  1  0.62515195  0.04737681  0.87109819  1
  F  F18  1  0.93782825  0.16112289  0.29026759  1
