# generated using pymatgen
data_LiCuS
_symmetry_space_group_name_H-M   'P 1'
_cell_length_a   12.76607702
_cell_length_b   4.91037974
_cell_length_c   21.81818969
_cell_angle_alpha   90.00000000
_cell_angle_beta   90.00000000
_cell_angle_gamma   90.00000000
_symmetry_Int_Tables_number   1
_chemical_formula_structural   LiCuS
_chemical_formula_sum   'Li24 Cu24 S24'
_cell_volume   1367.70127800
_cell_formula_units_Z   24
loop_
 _symmetry_equiv_pos_site_id
 _symmetry_equiv_pos_as_xyz
  1  'x, y, z'
loop_
 _atom_site_type_symbol
 _atom_site_label
 _atom_site_symmetry_multiplicity
 _atom_site_fract_x
 _atom_site_fract_y
 _atom_site_fract_z
 _atom_site_occupancy
  Li  Li0  1  0.08894070  0.11587522  0.86382152  1
  Li  Li1  1  0.08894070  0.88412478  0.36382152  1
  Li  Li2  1  0.07552837  0.46931433  0.19840727  1
  Li  Li3  1  0.07552837  0.53068567  0.69840727  1
  Li  Li4  1  0.08119214  0.16768924  0.53750063  1
  Li  Li5  1  0.08119214  0.83231076  0.03750063  1
  Li  Li6  1  0.41880786  0.33231076  0.03750063  1
  Li  Li7  1  0.41880786  0.66768924  0.53750063  1
  Li  Li8  1  0.42447163  0.96931433  0.19840727  1
  Li  Li9  1  0.42447163  0.03068567  0.69840727  1
  Li  Li10  1  0.41105930  0.38412478  0.36382152  1
  Li  Li11  1  0.41105930  0.61587522  0.86382152  1
  Li  Li12  1  0.58894070  0.61587522  0.63617848  1
  Li  Li13  1  0.58894070  0.38412478  0.13617848  1
  Li  Li14  1  0.57552837  0.03068567  0.80159273  1
  Li  Li15  1  0.57552837  0.96931433  0.30159273  1
  Li  Li16  1  0.58119214  0.33231076  0.46249937  1
  Li  Li17  1  0.58119214  0.66768924  0.96249937  1
  Li  Li18  1  0.91880786  0.83231076  0.46249937  1
  Li  Li19  1  0.91880786  0.16768924  0.96249937  1
  Li  Li20  1  0.92447163  0.46931433  0.30159273  1
  Li  Li21  1  0.92447163  0.53068567  0.80159273  1
  Li  Li22  1  0.91105930  0.11587522  0.63617848  1
  Li  Li23  1  0.91105930  0.88412478  0.13617848  1
  Cu  Cu24  1  0.24720058  0.19290092  0.14610920  1
  Cu  Cu25  1  0.24720058  0.80709908  0.64610920  1
  Cu  Cu26  1  0.24771198  0.82893573  0.79320068  1
  Cu  Cu27  1  0.24771198  0.17106427  0.29320068  1
  Cu  Cu28  1  0.24473457  0.48696088  0.47055894  1
  Cu  Cu29  1  0.24473457  0.51303912  0.97055894  1
  Cu  Cu30  1  0.25526443  0.98696088  0.47055894  1
  Cu  Cu31  1  0.25526443  0.01303912  0.97055894  1
  Cu  Cu32  1  0.25228802  0.67106427  0.29320068  1
  Cu  Cu33  1  0.25228802  0.32893573  0.79320068  1
  Cu  Cu34  1  0.25279942  0.69290092  0.14610920  1
  Cu  Cu35  1  0.25279942  0.30709908  0.64610920  1
  Cu  Cu36  1  0.74720058  0.69290092  0.35389080  1
  Cu  Cu37  1  0.74720058  0.30709908  0.85389080  1
  Cu  Cu38  1  0.74771198  0.32893573  0.70679932  1
  Cu  Cu39  1  0.74771198  0.67106427  0.20679932  1
  Cu  Cu40  1  0.74473557  0.98696088  0.02944106  1
  Cu  Cu41  1  0.74473557  0.01303912  0.52944106  1
  Cu  Cu42  1  0.75526443  0.51303912  0.52944106  1
  Cu  Cu43  1  0.75526443  0.48696088  0.02944106  1
  Cu  Cu44  1  0.75228802  0.82893573  0.70679932  1
  Cu  Cu45  1  0.75228802  0.17106427  0.20679932  1
  Cu  Cu46  1  0.75279942  0.19290092  0.35389080  1
  Cu  Cu47  1  0.75279942  0.80709908  0.85389080  1
  S  S48  1  0.10974046  0.93183514  0.14616146  1
  S  S49  1  0.10974046  0.06816486  0.64616146  1
  S  S50  1  0.11254416  0.42760502  0.30643995  1
  S  S51  1  0.11254416  0.57239498  0.80643995  1
  S  S52  1  0.11058644  0.24450083  0.97278308  1
  S  S53  1  0.11058644  0.75549917  0.47278308  1
  S  S54  1  0.38941356  0.74450083  0.97278308  1
  S  S55  1  0.38941356  0.25549917  0.47278308  1
  S  S56  1  0.38745584  0.92760502  0.30643995  1
  S  S57  1  0.38745584  0.07239498  0.80643995  1
  S  S58  1  0.39025954  0.43183514  0.14616146  1
  S  S59  1  0.39025954  0.56816486  0.64616146  1
  S  S60  1  0.60974046  0.56816486  0.85383854  1
  S  S61  1  0.60974046  0.43183514  0.35383854  1
  S  S62  1  0.61254416  0.92760502  0.19356005  1
  S  S63  1  0.61254416  0.07239498  0.69356005  1
  S  S64  1  0.61058644  0.25549917  0.02721692  1
  S  S65  1  0.61058644  0.74450083  0.52721692  1
  S  S66  1  0.88941356  0.24450083  0.52721692  1
  S  S67  1  0.88941356  0.75549917  0.02721692  1
  S  S68  1  0.88745584  0.57239498  0.69356005  1
  S  S69  1  0.88745584  0.42760502  0.19356005  1
  S  S70  1  0.89025954  0.93183514  0.35383854  1
  S  S71  1  0.89025954  0.06816486  0.85383854  1
