# generated using pymatgen
data_Mg3Cu9(SiO3)16
_symmetry_space_group_name_H-M   'P 1'
_cell_length_a   8.23215687
_cell_length_b   8.20241864
_cell_length_c   14.22329626
_cell_angle_alpha   74.14097100
_cell_angle_beta   78.49896746
_cell_angle_gamma   72.16400620
_symmetry_Int_Tables_number   1
_chemical_formula_structural   Mg3Cu9(SiO3)16
_chemical_formula_sum   'Mg3 Cu9 Si16 O48'
_cell_volume   872.40278635
_cell_formula_units_Z   1
loop_
 _symmetry_equiv_pos_site_id
 _symmetry_equiv_pos_as_xyz
  1  'x, y, z'
loop_
 _atom_site_type_symbol
 _atom_site_label
 _atom_site_symmetry_multiplicity
 _atom_site_fract_x
 _atom_site_fract_y
 _atom_site_fract_z
 _atom_site_occupancy
  Mg  Mg0  1  0.99938526  0.99995587  0.00220369  1
  Mg  Mg1  1  0.50061474  0.00004413  0.49779631  1
  Mg  Mg2  1  0.75000000  0.50000000  0.25000000  1
  Cu  Cu3  1  0.53276739  0.25782808  0.28179082  1
  Cu  Cu4  1  0.78301718  0.75829718  0.03198458  1
  Cu  Cu5  1  0.71698282  0.24170282  0.46801542  1
  Cu  Cu6  1  0.96723261  0.74217192  0.21820918  1
  Cu  Cu7  1  0.03254571  0.25884112  0.78129431  1
  Cu  Cu8  1  0.28385857  0.75821190  0.53017797  1
  Cu  Cu9  1  0.25000000  0.50000000  0.75000000  1
  Cu  Cu10  1  0.21614143  0.24178810  0.96982203  1
  Cu  Cu11  1  0.46745429  0.74115888  0.71870569  1
  Si  Si12  1  0.58311196  0.14530784  0.03587515  1
  Si  Si13  1  0.80407883  0.41557400  0.99842990  1
  Si  Si14  1  0.94671539  0.08415465  0.25208718  1
  Si  Si15  1  0.16683251  0.35479107  0.21524333  1
  Si  Si16  1  0.08405303  0.14476250  0.53582140  1
  Si  Si17  1  0.33316749  0.64520893  0.28475667  1
  Si  Si18  1  0.30365179  0.41580208  0.49519593  1
  Si  Si19  1  0.44692266  0.08465434  0.75180124  1
  Si  Si20  1  0.55328461  0.91584535  0.24791282  1
  Si  Si21  1  0.69592117  0.58442600  0.50157010  1
  Si  Si22  1  0.66494368  0.35453018  0.71361941  1
  Si  Si23  1  0.91688804  0.85469216  0.46412485  1
  Si  Si24  1  0.83505632  0.64546982  0.78638059  1
  Si  Si25  1  0.05307734  0.91534566  0.74819876  1
  Si  Si26  1  0.19634821  0.58419792  0.00480407  1
  Si  Si27  1  0.41594697  0.85523750  0.96417860  1
  O  O28  1  0.50310860  0.07001586  0.14924076  1
  O  O29  1  0.65670681  0.30891820  0.03997916  1
  O  O30  1  0.09355471  0.19161126  0.21004343  1
  O  O31  1  0.56994964  0.01518142  0.33072049  1
  O  O32  1  0.25000470  0.43096457  0.10331126  1
  O  O33  1  0.81967602  0.51575062  0.08102565  1
  O  O34  1  0.76900938  0.23866411  0.27474316  1
  O  O35  1  0.30141459  0.28960084  0.29596648  1
  O  O36  1  0.25679694  0.99957007  0.49879011  1
  O  O37  1  0.01869027  0.73966516  0.02666973  1
  O  O38  1  0.55189044  0.79116721  0.04403320  1
  O  O39  1  0.99336191  0.50077921  0.25182752  1
  O  O40  1  0.50663809  0.49922079  0.24817248  1
  O  O41  1  0.94810956  0.20883279  0.45596680  1
  O  O42  1  0.48130973  0.26033484  0.47333027  1
  O  O43  1  0.24320306  0.00042993  0.00120989  1
  O  O44  1  0.19858541  0.71039916  0.20403352  1
  O  O45  1  0.00426003  0.06893665  0.64923290  1
  O  O46  1  0.73099062  0.76133589  0.22525684  1
  O  O47  1  0.68032398  0.48424938  0.41897435  1
  O  O48  1  0.15673335  0.30888742  0.53992288  1
  O  O49  1  0.24999530  0.56903543  0.39668874  1
  O  O50  1  0.93005036  0.98481858  0.16927951  1
  O  O51  1  0.59456318  0.18996232  0.70938215  1
  O  O52  1  0.40644529  0.80838874  0.28995657  1
  O  O53  1  0.07116429  0.01622398  0.82973060  1
  O  O54  1  0.74487688  0.43098746  0.60090386  1
  O  O55  1  0.84329319  0.69108180  0.46002084  1
  O  O56  1  0.32657627  0.51695038  0.57464325  1
  O  O57  1  0.26865315  0.24271023  0.77394599  1
  O  O58  1  0.99689140  0.92998414  0.35075924  1
  O  O59  1  0.79975579  0.29585118  0.79369166  1
  O  O60  1  0.75651494  0.99973771  0.99843514  1
  O  O61  1  0.51925226  0.73957158  0.52455894  1
  O  O62  1  0.05230199  0.79041114  0.54410585  1
  O  O63  1  0.48811255  0.49941304  0.75253519  1
  O  O64  1  0.01188745  0.50058696  0.74746481  1
  O  O65  1  0.44769801  0.20958886  0.95589415  1
  O  O66  1  0.98074774  0.26042842  0.97544106  1
  O  O67  1  0.74348506  0.00026229  0.50156486  1
  O  O68  1  0.70024421  0.70414882  0.70630834  1
  O  O69  1  0.23134685  0.75728977  0.72605401  1
  O  O70  1  0.17342373  0.48304962  0.92535675  1
  O  O71  1  0.75512312  0.56901254  0.89909614  1
  O  O72  1  0.42883571  0.98377602  0.67026940  1
  O  O73  1  0.90543682  0.81003768  0.79061785  1
  O  O74  1  0.34326665  0.69111258  0.96007712  1
  O  O75  1  0.49573997  0.93106335  0.85076710  1
