# generated using pymatgen
data_LiMn2OF3
_symmetry_space_group_name_H-M   'P 1'
_cell_length_a   5.08912255
_cell_length_b   11.02050740
_cell_length_c   6.27054892
_cell_angle_alpha   90.00000000
_cell_angle_beta   90.00000000
_cell_angle_gamma   90.00000000
_symmetry_Int_Tables_number   1
_chemical_formula_structural   LiMn2OF3
_chemical_formula_sum   'Li4 Mn8 O4 F12'
_cell_volume   351.68193479
_cell_formula_units_Z   4
loop_
 _symmetry_equiv_pos_site_id
 _symmetry_equiv_pos_as_xyz
  1  'x, y, z'
loop_
 _atom_site_type_symbol
 _atom_site_label
 _atom_site_symmetry_multiplicity
 _atom_site_fract_x
 _atom_site_fract_y
 _atom_site_fract_z
 _atom_site_occupancy
  Li  Li0  1  0.06093233  0.59171156  0.25000000  1
  Li  Li1  1  0.43906767  0.09171156  0.25000000  1
  Li  Li2  1  0.56093233  0.90828844  0.75000000  1
  Li  Li3  1  0.93906767  0.40828844  0.75000000  1
  Mn  Mn4  1  0.00000000  0.00000000  0.00000000  1
  Mn  Mn5  1  0.00000000  0.00000000  0.50000000  1
  Mn  Mn6  1  0.95996633  0.70933392  0.75000000  1
  Mn  Mn7  1  0.54003367  0.20933392  0.75000000  1
  Mn  Mn8  1  0.50000000  0.50000000  0.50000000  1
  Mn  Mn9  1  0.50000000  0.50000000  0.00000000  1
  Mn  Mn10  1  0.45996633  0.79066608  0.25000000  1
  Mn  Mn11  1  0.04003367  0.29066608  0.25000000  1
  O  O12  1  0.26469584  0.44316430  0.25000000  1
  O  O13  1  0.23530416  0.94316430  0.25000000  1
  O  O14  1  0.76469584  0.05683570  0.75000000  1
  O  O15  1  0.73530416  0.55683570  0.75000000  1
  F  F16  1  0.23243933  0.67160222  0.01447469  1
  F  F17  1  0.23243933  0.67160222  0.48552531  1
  F  F18  1  0.19919405  0.88842272  0.75000000  1
  F  F19  1  0.30080595  0.38842272  0.75000000  1
  F  F20  1  0.26756067  0.17160222  0.01447469  1
  F  F21  1  0.26756067  0.17160222  0.48552531  1
  F  F22  1  0.73243933  0.82839778  0.51447469  1
  F  F23  1  0.73243933  0.82839778  0.98552531  1
  F  F24  1  0.69919405  0.61157728  0.25000000  1
  F  F25  1  0.80080595  0.11157728  0.25000000  1
  F  F26  1  0.76756067  0.32839778  0.51447469  1
  F  F27  1  0.76756067  0.32839778  0.98552531  1
