# generated using pymatgen
data_Li4Mn3OF11
_symmetry_space_group_name_H-M   'P 1'
_cell_length_a   6.01374319
_cell_length_b   5.92455286
_cell_length_c   6.07725219
_cell_angle_alpha   97.22342687
_cell_angle_beta   98.30200283
_cell_angle_gamma   97.68312383
_symmetry_Int_Tables_number   1
_chemical_formula_structural   Li4Mn3OF11
_chemical_formula_sum   'Li4 Mn3 O1 F11'
_cell_volume   209.99697541
_cell_formula_units_Z   1
loop_
 _symmetry_equiv_pos_site_id
 _symmetry_equiv_pos_as_xyz
  1  'x, y, z'
loop_
 _atom_site_type_symbol
 _atom_site_label
 _atom_site_symmetry_multiplicity
 _atom_site_fract_x
 _atom_site_fract_y
 _atom_site_fract_z
 _atom_site_occupancy
  Li  Li0  1  0.02537043  0.00952827  0.99589806  1
  Li  Li1  1  0.60715778  0.24654136  0.07747796  1
  Li  Li2  1  0.28850596  0.13868476  0.60199176  1
  Li  Li3  1  0.87998578  0.40665460  0.72205526  1
  Mn  Mn4  1  0.11806195  0.60037810  0.30113729  1
  Mn  Mn5  1  0.66394277  0.87198371  0.40638878  1
  Mn  Mn6  1  0.40682843  0.71340720  0.91105319  1
  O  O7  1  0.40879297  0.64372114  0.20678153  1
  F  F8  1  0.10879737  0.92086217  0.32301277  1
  F  F9  1  0.07550899  0.68086254  0.89215500  1
  F  F10  1  0.43008530  0.79540524  0.62233316  1
  F  F11  1  0.70675514  0.91580220  0.06547183  1
  F  F12  1  0.16043114  0.40201355  0.54789367  1
  F  F13  1  0.81846334  0.60249736  0.41205551  1
  F  F14  1  0.32386229  0.07819418  0.92028544  1
  F  F15  1  0.59817060  0.46470285  0.84954665  1
  F  F16  1  0.54122145  0.14598562  0.38997613  1
  F  F17  1  0.96905317  0.32055840  0.09741240  1
  F  F18  1  0.86900414  0.04221575  0.65707360  1
