# generated using pymatgen
data_Li2MnO2F
_symmetry_space_group_name_H-M   'P 1'
_cell_length_a   3.96289417
_cell_length_b   5.16595783
_cell_length_c   6.35291623
_cell_angle_alpha   90.00000000
_cell_angle_beta   90.00000000
_cell_angle_gamma   67.44572008
_symmetry_Int_Tables_number   1
_chemical_formula_structural   Li2MnO2F
_chemical_formula_sum   'Li4 Mn2 O4 F2'
_cell_volume   120.11055011
_cell_formula_units_Z   2
loop_
 _symmetry_equiv_pos_site_id
 _symmetry_equiv_pos_as_xyz
  1  'x, y, z'
loop_
 _atom_site_type_symbol
 _atom_site_label
 _atom_site_symmetry_multiplicity
 _atom_site_fract_x
 _atom_site_fract_y
 _atom_site_fract_z
 _atom_site_occupancy
  Li  Li0  1  0.66766200  0.66467600  0.25000000  1
  Li  Li1  1  0.62566204  0.74867491  0.75000000  1
  Li  Li2  1  0.33233800  0.33532400  0.75000000  1
  Li  Li3  1  0.37433796  0.25132509  0.25000000  1
  Mn  Mn4  1  0.00000000  0.00000000  0.00000000  1
  Mn  Mn5  1  0.00000000  0.00000000  0.50000000  1
  O  O6  1  0.11848526  0.76302848  0.75000000  1
  O  O7  1  0.88151474  0.23697152  0.25000000  1
  O  O8  1  0.50000000  0.00000000  0.50000000  1
  O  O9  1  0.50000000  0.00000000  0.00000000  1
  F  F10  1  0.17094334  0.65811231  0.25000000  1
  F  F11  1  0.82905666  0.34188769  0.75000000  1
