# generated using pymatgen
data_LuGaNi2
_symmetry_space_group_name_H-M   'P 1'
_cell_length_a   5.09269846
_cell_length_b   5.09117258
_cell_length_c   16.09711564
_cell_angle_alpha   90.00000000
_cell_angle_beta   90.00889886
_cell_angle_gamma   60.00991090
_symmetry_Int_Tables_number   1
_chemical_formula_structural   LuGaNi2
_chemical_formula_sum   'Lu6 Ga6 Ni12'
_cell_volume   361.48296346
_cell_formula_units_Z   6
loop_
 _symmetry_equiv_pos_site_id
 _symmetry_equiv_pos_as_xyz
  1  'x, y, z'
loop_
 _atom_site_type_symbol
 _atom_site_label
 _atom_site_symmetry_multiplicity
 _atom_site_fract_x
 _atom_site_fract_y
 _atom_site_fract_z
 _atom_site_occupancy
  Lu  Lu0  1  0.33333359  0.33333320  0.03369119  1
  Lu  Lu1  1  0.66666641  0.66666680  0.96630881  1
  Lu  Lu2  1  0.66666581  0.66666709  0.53934131  1
  Lu  Lu3  1  0.33333419  0.33333291  0.46065869  1
  Lu  Lu4  1  0.33334485  0.33332757  0.25734817  1
  Lu  Lu5  1  0.66665515  0.66667243  0.74265183  1
  Ga  Ga6  1  0.83261554  0.33476534  0.13034784  1
  Ga  Ga7  1  0.33478264  0.83260868  0.13034627  1
  Ga  Ga8  1  0.83261554  0.83261911  0.13034784  1
  Ga  Ga9  1  0.16738446  0.66523466  0.86965216  1
  Ga  Ga10  1  0.66521736  0.16739132  0.86965373  1
  Ga  Ga11  1  0.16738446  0.16738089  0.86965216  1
  Ni  Ni12  1  0.33335982  0.33332009  0.74567116  1
  Ni  Ni13  1  0.66664018  0.66667991  0.25432884  1
  Ni  Ni14  1  0.99995438  0.00002281  0.74711154  1
  Ni  Ni15  1  0.00004562  0.99997719  0.25288846  1
  Ni  Ni16  1  0.00000000  -0.00000000  0.50000000  1
  Ni  Ni17  1  0.00000000  -0.00000000  0.00000000  1
  Ni  Ni18  1  0.16765361  0.66469029  0.62394972  1
  Ni  Ni19  1  0.66468016  0.16765992  0.62394627  1
  Ni  Ni20  1  0.16765361  0.16765609  0.62394972  1
  Ni  Ni21  1  0.83234639  0.33530971  0.37605028  1
  Ni  Ni22  1  0.33531984  0.83234008  0.37605373  1
  Ni  Ni23  1  0.83234639  0.83234391  0.37605028  1
