# generated using pymatgen
data_LiFePO4
_symmetry_space_group_name_H-M   'P 1'
_cell_length_a   7.70223465
_cell_length_b   4.93536747
_cell_length_c   18.47944692
_cell_angle_alpha   90.00000000
_cell_angle_beta   89.25448379
_cell_angle_gamma   90.00000000
_symmetry_Int_Tables_number   1
_chemical_formula_structural   LiFePO4
_chemical_formula_sum   'Li8 Fe8 P8 O32'
_cell_volume   702.40637322
_cell_formula_units_Z   8
loop_
 _symmetry_equiv_pos_site_id
 _symmetry_equiv_pos_as_xyz
  1  'x, y, z'
loop_
 _atom_site_type_symbol
 _atom_site_label
 _atom_site_symmetry_multiplicity
 _atom_site_fract_x
 _atom_site_fract_y
 _atom_site_fract_z
 _atom_site_occupancy
  Li  Li0  1  0.01571641  0.77370823  0.58649720  1
  Li  Li1  1  0.01571641  0.72629177  0.08649720  1
  Li  Li2  1  0.51078601  0.35326073  0.81415787  1
  Li  Li3  1  0.51078601  0.14673927  0.31415787  1
  Li  Li4  1  0.48921399  0.85326073  0.68584213  1
  Li  Li5  1  0.48921399  0.64673927  0.18584213  1
  Li  Li6  1  0.98428359  0.27370823  0.91350280  1
  Li  Li7  1  0.98428359  0.22629177  0.41350280  1
  Fe  Fe8  1  0.16603673  0.77987269  0.77339890  1
  Fe  Fe9  1  0.16603673  0.72012731  0.27339890  1
  Fe  Fe10  1  0.34268807  0.22533159  0.51733925  1
  Fe  Fe11  1  0.34268807  0.27466841  0.01733925  1
  Fe  Fe12  1  0.65731193  0.72533159  0.98266075  1
  Fe  Fe13  1  0.65731193  0.77466841  0.48266075  1
  Fe  Fe14  1  0.83396327  0.27987269  0.72660110  1
  Fe  Fe15  1  0.83396327  0.22012731  0.22660110  1
  P  P16  1  0.24522089  0.35148389  0.68227680  1
  P  P17  1  0.24522089  0.14851611  0.18227680  1
  P  P18  1  0.24991967  0.71814463  0.93620172  1
  P  P19  1  0.24991967  0.78185537  0.43620172  1
  P  P20  1  0.75008033  0.21814463  0.56379828  1
  P  P21  1  0.75008033  0.28185537  0.06379828  1
  P  P22  1  0.75477911  0.85148389  0.81772320  1
  P  P23  1  0.75477911  0.64851611  0.31772320  1
  O  O24  1  0.06875608  0.46834587  0.71194468  1
  O  O25  1  0.06875608  0.03165413  0.21194468  1
  O  O26  1  0.17417659  0.60283963  0.00773622  1
  O  O27  1  0.14579046  0.60322450  0.87173809  1
  O  O28  1  0.25295142  0.43396191  0.60247701  1
  O  O29  1  0.25812097  0.04011872  0.69428197  1
  O  O30  1  0.17417659  0.89716037  0.50773622  1
  O  O31  1  0.14579046  0.89677550  0.37173809  1
  O  O32  1  0.25295142  0.06603809  0.10247701  1
  O  O33  1  0.25812097  0.45988128  0.19428197  1
  O  O34  1  0.24684697  0.03257139  0.93531483  1
  O  O35  1  0.24684697  0.46742861  0.43531483  1
  O  O36  1  0.38683389  0.50163593  0.72724605  1
  O  O37  1  0.38683389  0.99836407  0.22724605  1
  O  O38  1  0.43933688  0.59795202  0.92940179  1
  O  O39  1  0.43933688  0.90204798  0.42940179  1
  O  O40  1  0.56066312  0.09795202  0.57059821  1
  O  O41  1  0.56066312  0.40204798  0.07059821  1
  O  O42  1  0.61316611  0.00163593  0.77275395  1
  O  O43  1  0.61316611  0.49836407  0.27275395  1
  O  O44  1  0.75315303  0.53257139  0.56468517  1
  O  O45  1  0.75315303  0.96742861  0.06468517  1
  O  O46  1  0.74187903  0.54011872  0.80571803  1
  O  O47  1  0.74704858  0.93396191  0.89752299  1
  O  O48  1  0.85420954  0.10322450  0.62826191  1
  O  O49  1  0.82582341  0.10283963  0.49226378  1
  O  O50  1  0.74187903  0.95988128  0.30571803  1
  O  O51  1  0.74704858  0.56603809  0.39752299  1
  O  O52  1  0.85420954  0.39677550  0.12826191  1
  O  O53  1  0.82582341  0.39716037  0.99226378  1
  O  O54  1  0.93124392  0.96834587  0.78805532  1
  O  O55  1  0.93124392  0.53165413  0.28805532  1
