# generated using pymatgen
data_Mn2CrO6
_symmetry_space_group_name_H-M   'P 1'
_cell_length_a   5.07693549
_cell_length_b   5.07693473
_cell_length_c   9.61052332
_cell_angle_alpha   90.00000000
_cell_angle_beta   90.00000000
_cell_angle_gamma   120.19456052
_symmetry_Int_Tables_number   1
_chemical_formula_structural   Mn2CrO6
_chemical_formula_sum   'Mn4 Cr2 O12'
_cell_volume   214.10465391
_cell_formula_units_Z   2
loop_
 _symmetry_equiv_pos_site_id
 _symmetry_equiv_pos_as_xyz
  1  'x, y, z'
loop_
 _atom_site_type_symbol
 _atom_site_label
 _atom_site_symmetry_multiplicity
 _atom_site_fract_x
 _atom_site_fract_y
 _atom_site_fract_z
 _atom_site_occupancy
  Mn  Mn0  1  0.16704204  0.83295796  0.50000000  1
  Mn  Mn1  1  0.33295796  0.66704204  0.00000000  1
  Mn  Mn2  1  0.66704204  0.33295796  0.00000000  1
  Mn  Mn3  1  0.83295796  0.16704204  0.50000000  1
  Cr  Cr4  1  0.00000000  0.00000000  0.00000000  1
  Cr  Cr5  1  0.50000000  0.50000000  0.50000000  1
  O  O6  1  0.00064464  0.66534866  0.10001467  1
  O  O7  1  0.99935536  0.33465134  0.89998533  1
  O  O8  1  0.16534866  0.50064464  0.39998533  1
  O  O9  1  0.49935536  0.83465134  0.60001467  1
  O  O10  1  0.16619297  0.16619297  0.59933481  1
  O  O11  1  0.33380703  0.33380703  0.09933481  1
  O  O12  1  0.66619297  0.66619297  0.90066519  1
  O  O13  1  0.33465134  0.99935536  0.89998533  1
  O  O14  1  0.83380703  0.83380703  0.40066519  1
  O  O15  1  0.50064464  0.16534866  0.39998533  1
  O  O16  1  0.83465134  0.49935536  0.60001467  1
  O  O17  1  0.66534866  0.00064464  0.10001467  1
