# generated using pymatgen
data_Li2Mn(CO3)2
_symmetry_space_group_name_H-M   'P 1'
_cell_length_a   5.19007415
_cell_length_b   6.63659260
_cell_length_c   8.00473778
_cell_angle_alpha   89.43843572
_cell_angle_beta   91.42966851
_cell_angle_gamma   68.34502548
_symmetry_Int_Tables_number   1
_chemical_formula_structural   Li2Mn(CO3)2
_chemical_formula_sum   'Li4 Mn2 C4 O12'
_cell_volume   256.12564272
_cell_formula_units_Z   2
loop_
 _symmetry_equiv_pos_site_id
 _symmetry_equiv_pos_as_xyz
  1  'x, y, z'
loop_
 _atom_site_type_symbol
 _atom_site_label
 _atom_site_symmetry_multiplicity
 _atom_site_fract_x
 _atom_site_fract_y
 _atom_site_fract_z
 _atom_site_occupancy
  Li  Li0  1  0.28812936  0.05723383  0.40367389  1
  Li  Li1  1  0.33928258  0.25742960  0.92131253  1
  Li  Li2  1  0.65675287  0.73266424  0.08103023  1
  Li  Li3  1  0.83161134  0.78871597  0.56779769  1
  Mn  Mn4  1  0.49304468  0.48360579  0.50306991  1
  Mn  Mn5  1  0.98523489  0.99787924  0.98839262  1
  C  C6  1  0.72729146  0.11577346  0.26783084  1
  C  C7  1  0.78700512  0.37724428  0.77338707  1
  C  C8  1  0.19803175  0.64540141  0.23586756  1
  C  C9  1  0.29384273  0.87992095  0.72843455  1
  O  O10  1  0.97977509  0.10398100  0.25415820  1
  O  O11  1  0.59670403  0.08162339  0.13540244  1
  O  O12  1  0.60437467  0.15342350  0.41040397  1
  O  O13  1  0.53890238  0.36860392  0.76522446  1
  O  O14  1  0.93943208  0.31735129  0.90892115  1
  O  O15  1  0.08820643  0.62165810  0.37586710  1
  O  O16  1  0.87476263  0.44550576  0.64215345  1
  O  O17  1  0.45900277  0.62404386  0.24118602  1
  O  O18  1  0.05655024  0.68487213  0.09616246  1
  O  O19  1  0.42584759  0.84248294  0.58902172  1
  O  O20  1  0.40933598  0.91274287  0.86715832  1
  O  O21  1  0.03997833  0.88908549  0.73190282  1
