# generated using pymatgen
data_LiMn2(PO4)2
_symmetry_space_group_name_H-M   'P 1'
_cell_length_a   10.14812674
_cell_length_b   7.12975117
_cell_length_c   5.05370568
_cell_angle_alpha   90.00000000
_cell_angle_beta   90.32368398
_cell_angle_gamma   90.00000000
_symmetry_Int_Tables_number   1
_chemical_formula_structural   LiMn2(PO4)2
_chemical_formula_sum   'Li2 Mn4 P4 O16'
_cell_volume   365.64805743
_cell_formula_units_Z   2
loop_
 _symmetry_equiv_pos_site_id
 _symmetry_equiv_pos_as_xyz
  1  'x, y, z'
loop_
 _atom_site_type_symbol
 _atom_site_label
 _atom_site_symmetry_multiplicity
 _atom_site_fract_x
 _atom_site_fract_y
 _atom_site_fract_z
 _atom_site_occupancy
  Li  Li0  1  0.35256082  0.49759438  0.73787655  1
  Li  Li1  1  0.85256082  0.00240562  0.73787655  1
  Mn  Mn2  1  0.15268927  0.48056163  0.23370660  1
  Mn  Mn3  1  0.32918735  0.99883336  0.74090722  1
  Mn  Mn4  1  0.65268927  0.01943837  0.23370660  1
  Mn  Mn5  1  0.82918735  0.50116664  0.74090722  1
  P  P6  1  0.08991836  0.73930391  0.75564211  1
  P  P7  1  0.41063753  0.24661117  0.24876417  1
  P  P8  1  0.58991836  0.76069609  0.75564211  1
  P  P9  1  0.91063753  0.25338883  0.24876417  1
  O  O10  1  0.06137697  0.23426682  0.21240984  1
  O  O11  1  0.12167592  0.72075798  0.05437036  1
  O  O12  1  0.15411740  0.56374680  0.61964252  1
  O  O13  1  0.14658044  0.92437829  0.64957993  1
  O  O14  1  0.33990622  0.41585860  0.11382477  1
  O  O15  1  0.36723496  0.05726482  0.12650661  1
  O  O16  1  0.37335393  0.24712786  0.54804206  1
  O  O17  1  0.43864483  0.75652253  0.70247726  1
  O  O18  1  0.56137697  0.26573318  0.21240984  1
  O  O19  1  0.62167592  0.77924202  0.05437036  1
  O  O20  1  0.65411740  0.93625320  0.61964252  1
  O  O21  1  0.64658044  0.57562171  0.64957993  1
  O  O22  1  0.83990622  0.08414140  0.11382477  1
  O  O23  1  0.86723496  0.44273518  0.12650661  1
  O  O24  1  0.87335393  0.25287214  0.54804206  1
  O  O25  1  0.93864483  0.74347747  0.70247726  1
