# generated using pymatgen
data_LiFeCO3F2
_symmetry_space_group_name_H-M   'P 1'
_cell_length_a   6.46656497
_cell_length_b   8.56993479
_cell_length_c   5.93161178
_cell_angle_alpha   90.00000000
_cell_angle_beta   90.00000000
_cell_angle_gamma   90.00000000
_symmetry_Int_Tables_number   1
_chemical_formula_structural   LiFeCO3F2
_chemical_formula_sum   'Li4 Fe4 C4 O12 F8'
_cell_volume   328.71829953
_cell_formula_units_Z   4
loop_
 _symmetry_equiv_pos_site_id
 _symmetry_equiv_pos_as_xyz
  1  'x, y, z'
loop_
 _atom_site_type_symbol
 _atom_site_label
 _atom_site_symmetry_multiplicity
 _atom_site_fract_x
 _atom_site_fract_y
 _atom_site_fract_z
 _atom_site_occupancy
  Li  Li0  1  0.25000000  0.27186156  0.69923685  1
  Li  Li1  1  0.25000000  0.22813844  0.19923685  1
  Li  Li2  1  0.75000000  0.72813844  0.30076315  1
  Li  Li3  1  0.75000000  0.77186156  0.80076315  1
  Fe  Fe4  1  0.25000000  0.57668333  0.00366277  1
  Fe  Fe5  1  0.25000000  0.92331667  0.50366277  1
  Fe  Fe6  1  0.75000000  0.07668333  0.49633723  1
  Fe  Fe7  1  0.75000000  0.42331667  0.99633723  1
  C  C8  1  0.25000000  0.56000545  0.45923949  1
  C  C9  1  0.25000000  0.93999455  0.95923949  1
  C  C10  1  0.75000000  0.06000545  0.04076051  1
  C  C11  1  0.75000000  0.43999455  0.54076051  1
  O  O12  1  0.25000000  0.04722182  0.80381704  1
  O  O13  1  0.25000000  0.45277818  0.30381704  1
  O  O14  1  0.25000000  0.51847856  0.66517138  1
  O  O15  1  0.25000000  0.98152144  0.16517138  1
  O  O16  1  0.25000000  0.79944070  0.88094810  1
  O  O17  1  0.25000000  0.70055930  0.38094810  1
  O  O18  1  0.75000000  0.01847856  0.83482862  1
  O  O19  1  0.75000000  0.20055930  0.11905190  1
  O  O20  1  0.75000000  0.29944070  0.61905190  1
  O  O21  1  0.75000000  0.48152144  0.33482862  1
  O  O22  1  0.75000000  0.54722182  0.69618296  1
  O  O23  1  0.75000000  0.95277818  0.19618296  1
  F  F24  1  0.05047613  0.14080510  0.45624235  1
  F  F25  1  0.05047613  0.35919490  0.95624335  1
  F  F26  1  0.44952387  0.14080510  0.45624235  1
  F  F27  1  0.44952387  0.35919490  0.95624335  1
  F  F28  1  0.55047613  0.85919490  0.54375665  1
  F  F29  1  0.55047613  0.64080510  0.04375765  1
  F  F30  1  0.94952387  0.64080510  0.04375765  1
  F  F31  1  0.94952387  0.85919490  0.54375665  1
