# generated using pymatgen
data_Li5Fe5Si7O24
_symmetry_space_group_name_H-M   'P 1'
_cell_length_a   7.94624599
_cell_length_b   7.86413054
_cell_length_c   9.50522798
_cell_angle_alpha   89.68223423
_cell_angle_beta   89.03556840
_cell_angle_gamma   89.50975304
_symmetry_Int_Tables_number   1
_chemical_formula_structural   Li5Fe5Si7O24
_chemical_formula_sum   'Li5 Fe5 Si7 O24'
_cell_volume   593.87014338
_cell_formula_units_Z   1
loop_
 _symmetry_equiv_pos_site_id
 _symmetry_equiv_pos_as_xyz
  1  'x, y, z'
loop_
 _atom_site_type_symbol
 _atom_site_label
 _atom_site_symmetry_multiplicity
 _atom_site_fract_x
 _atom_site_fract_y
 _atom_site_fract_z
 _atom_site_occupancy
  Li  Li0  1  0.41785030  0.69325042  0.26586227  1
  Li  Li1  1  0.50280956  0.25939615  0.74399288  1
  Li  Li2  1  0.74474594  0.47246867  0.72211164  1
  Li  Li3  1  0.76274281  0.97876984  0.01924575  1
  Li  Li4  1  0.99478686  0.76000807  0.99687097  1
  Fe  Fe5  1  0.38462280  0.81722737  0.99930750  1
  Fe  Fe6  1  0.61952405  0.16933531  0.47304788  1
  Fe  Fe7  1  0.67698186  0.88516918  0.74229167  1
  Fe  Fe8  1  0.81971218  0.37777680  0.99914149  1
  Fe  Fe9  1  0.87638874  0.66468787  0.27131596  1
  Si  Si10  1  0.09297785  0.92356220  0.75394137  1
  Si  Si11  1  0.12149478  0.32550141  0.75447602  1
  Si  Si12  1  0.17251368  0.62693373  0.52784560  1
  Si  Si13  1  0.32470617  0.11036879  0.23266100  1
  Si  Si14  1  0.40795800  0.39759744  0.99301471  1
  Si  Si15  1  0.57182025  0.58582462  0.50689487  1
  Si  Si16  1  0.92693444  0.08018061  0.23879553  1
  O  O17  1  0.05369982  0.62281034  0.39270194  1
  O  O18  1  0.12842180  0.12363418  0.71022430  1
  O  O19  1  0.12239051  0.13005135  0.26044383  1
  O  O20  1  0.15051524  0.45117734  0.61954288  1
  O  O21  1  0.13823309  0.79971645  0.62046305  1
  O  O22  1  0.19554553  0.85955986  0.89188784  1
  O  O23  1  0.28598847  0.35376081  0.85642467  1
  O  O24  1  0.37784778  0.25052849  0.11030677  1
  O  O25  1  0.36820991  0.91605083  0.18017082  1
  O  O26  1  0.37187641  0.63320707  0.47262244  1
  O  O27  1  0.37782534  0.58435888  0.06169893  1
  O  O28  1  0.42486011  0.14834433  0.37359402  1
  O  O29  1  0.58308841  0.89303224  0.92456097  1
  O  O30  1  0.60002838  0.39059582  0.56291601  1
  O  O31  1  0.59646480  0.38003588  0.91651488  1
  O  O32  1  0.59087204  0.06978614  0.65105156  1
  O  O33  1  0.65001894  0.68372054  0.64139303  1
  O  O34  1  0.65861273  0.63239680  0.35453527  1
  O  O35  1  0.82057806  0.11729885  0.38101683  1
  O  O36  1  0.84728742  0.18044885  0.10198604  1
  O  O37  1  0.89487588  0.56572640  0.09140883  1
  O  O38  1  0.90048986  0.89620418  0.81293111  1
  O  O39  1  0.90580443  0.88297795  0.18124454  1
  O  O40  1  0.93966478  0.37890892  0.82236234  1
