# generated using pymatgen
data_LiMn2O3F
_symmetry_space_group_name_H-M   'P 1'
_cell_length_a   6.02308078
_cell_length_b   8.03491390
_cell_length_c   8.03491390
_cell_angle_alpha   116.35906564
_cell_angle_beta   112.32878674
_cell_angle_gamma   67.67121326
_symmetry_Int_Tables_number   1
_chemical_formula_structural   LiMn2O3F
_chemical_formula_sum   'Li4 Mn8 O12 F4'
_cell_volume   311.65255667
_cell_formula_units_Z   4
loop_
 _symmetry_equiv_pos_site_id
 _symmetry_equiv_pos_as_xyz
  1  'x, y, z'
loop_
 _atom_site_type_symbol
 _atom_site_label
 _atom_site_symmetry_multiplicity
 _atom_site_fract_x
 _atom_site_fract_y
 _atom_site_fract_z
 _atom_site_occupancy
  Li  Li0  1  0.35816000  0.98631931  0.24378138  1
  Li  Li1  1  0.13253106  0.26318554  0.00540627  1
  Li  Li2  1  0.85816000  0.75621862  0.01368069  1
  Li  Li3  1  0.63253106  0.99459373  0.73681446  1
  Mn  Mn4  1  0.75085678  0.23554540  0.22295785  1
  Mn  Mn5  1  0.01317075  0.98996342  0.49044184  1
  Mn  Mn6  1  0.51317075  0.50955816  0.01003658  1
  Mn  Mn7  1  0.89105369  0.62198358  0.37644391  1
  Mn  Mn8  1  0.62424803  0.38221193  0.63789969  1
  Mn  Mn9  1  0.39105369  0.62355609  0.37801642  1
  Mn  Mn10  1  0.12424803  0.36210031  0.61778807  1
  Mn  Mn11  1  0.25085678  0.77704215  0.76445460  1
  O  O12  1  0.42002927  0.39125020  0.13748982  1
  O  O13  1  0.88295959  0.38863444  0.15902562  1
  O  O14  1  0.07189853  0.12492330  0.36548590  1
  O  O15  1  0.72972582  0.47873114  0.49891602  1
  O  O16  1  0.98928166  0.24137136  0.70870267  1
  O  O17  1  0.54611705  0.72276281  0.25445491  1
  O  O18  1  0.48928166  0.29129733  0.75862864  1
  O  O19  1  0.04611705  0.74554509  0.27723719  1
  O  O20  1  0.22972582  0.50108398  0.52126886  1
  O  O21  1  0.92002927  0.86251018  0.60874980  1
  O  O22  1  0.57189853  0.63451410  0.87507670  1
  O  O23  1  0.38295959  0.84097438  0.61136556  1
  F  F24  1  0.23225304  0.01003667  0.00182902  1
  F  F25  1  0.60771373  0.13185111  0.36593731  1
  F  F26  1  0.10771373  0.63406269  0.86814889  1
  F  F27  1  0.73225304  0.99817098  0.98996333  1
