# generated using pymatgen
data_Li3Mn2F9
_symmetry_space_group_name_H-M   'P 1'
_cell_length_a   5.29811383
_cell_length_b   5.44331421
_cell_length_c   15.65902384
_cell_angle_alpha   74.87379396
_cell_angle_beta   97.06760556
_cell_angle_gamma   120.53591909
_symmetry_Int_Tables_number   1
_chemical_formula_structural   Li3Mn2F9
_chemical_formula_sum   'Li6 Mn4 F18'
_cell_volume   375.46287607
_cell_formula_units_Z   2
loop_
 _symmetry_equiv_pos_site_id
 _symmetry_equiv_pos_as_xyz
  1  'x, y, z'
loop_
 _atom_site_type_symbol
 _atom_site_label
 _atom_site_symmetry_multiplicity
 _atom_site_fract_x
 _atom_site_fract_y
 _atom_site_fract_z
 _atom_site_occupancy
  Li  Li0  1  0.27033995  0.56752449  0.45419314  1
  Li  Li1  1  0.28576851  0.65388774  0.24585580  1
  Li  Li2  1  0.32565175  0.72261806  0.04481767  1
  Li  Li3  1  0.72687711  0.29995639  0.95751269  1
  Li  Li4  1  0.68491240  0.41171807  0.54775434  1
  Li  Li5  1  0.71327199  0.37254976  0.74618435  1
  Mn  Mn6  1  -0.00017115  0.02022686  0.14842277  1
  Mn  Mn7  1  0.96192078  0.96040133  0.34944369  1
  Mn  Mn8  1  0.00270797  0.03002809  0.64979180  1
  Mn  Mn9  1  0.03294650  0.99558285  0.85026061  1
  F  F10  1  0.01747303  0.76134686  0.76924598  1
  F  F11  1  0.28174678  0.89804043  0.12682515  1
  F  F12  1  0.25196366  0.91827574  0.41602680  1
  F  F13  1  0.10401525  0.34327137  0.36742349  1
  F  F14  1  0.00535474  0.32654270  0.05409652  1
  F  F15  1  0.31156396  0.29265504  0.76281608  1
  F  F16  1  0.24675081  0.30157202  0.21353014  1
  F  F17  1  0.31029010  0.07034695  0.59435292  1
  F  F18  1  0.34263317  0.99927413  0.93936683  1
  F  F19  1  0.69524286  0.75028778  0.09606205  1
  F  F20  1  0.66132760  0.65885656  0.44183220  1
  F  F21  1  0.74223007  0.05412237  0.71406692  1
  F  F22  1  0.73317276  0.62923168  0.62919117  1
  F  F23  1  0.74362025  0.66940555  0.92130919  1
  F  F24  1  0.96913567  0.73805731  0.26537973  1
  F  F25  1  0.00027388  0.33306150  0.55491361  1
  F  F26  1  0.90606674  0.24518586  0.87007357  1
  F  F27  1  0.67301185  0.97627254  0.26924981  1
