# generated using pymatgen
data_Li2Nb2W2O13
_symmetry_space_group_name_H-M   'P 1'
_cell_length_a   7.47559854
_cell_length_b   7.47559854
_cell_length_c   7.47559854
_cell_angle_alpha   90.57249379
_cell_angle_beta   59.37995718
_cell_angle_gamma   120.04296346
_symmetry_Int_Tables_number   1
_chemical_formula_structural   Li2Nb2W2O13
_chemical_formula_sum   'Li2 Nb2 W2 O13'
_cell_volume   293.90291930
_cell_formula_units_Z   1
loop_
 _symmetry_equiv_pos_site_id
 _symmetry_equiv_pos_as_xyz
  1  'x, y, z'
loop_
 _atom_site_type_symbol
 _atom_site_label
 _atom_site_symmetry_multiplicity
 _atom_site_fract_x
 _atom_site_fract_y
 _atom_site_fract_z
 _atom_site_occupancy
  Li  Li0  1  0.73078313  0.43921265  0.83000421  1
  Li  Li1  1  0.26921687  0.43921265  0.29157048  1
  Nb  Nb2  1  0.25848097  0.39325902  0.86522195  1
  Nb  Nb3  1  0.74151903  0.87629709  0.86522195  1
  W  W4  1  0.75412502  0.88382401  0.36205097  1
  W  W5  1  0.24587498  0.88382401  0.87030101  1
  O  O6  1  0.86392269  0.92558805  0.56439749  1
  O  O7  1  0.51001446  0.57167982  0.56439749  1
  O  O8  1  0.50000000  0.92938860  0.57061140  1
  O  O9  1  0.13607731  0.57167982  0.93833464  1
  O  O10  1  0.48998554  0.92558805  0.93833464  1
  O  O11  1  0.50000000  0.54407482  0.95592518  1
  O  O12  1  0.61862986  0.80254315  0.19817612  1
  O  O13  1  0.99928073  0.18319401  0.19817612  1
  O  O14  1  0.00000000  0.82041329  0.17958671  1
  O  O15  1  0.38137014  0.18319401  0.81608671  1
  O  O16  1  0.00071927  0.80254315  0.81608671  1
  O  O17  1  0.00000000  0.18295307  0.81704693  1
  O  O18  1  0.00000000  0.39153069  0.60846931  1
