# generated using pymatgen
data_Li3CoPCO7
_symmetry_space_group_name_H-M   'P 1'
_cell_length_a   8.48786782
_cell_length_b   9.85127664
_cell_length_c   6.38859718
_cell_angle_alpha   90.00000000
_cell_angle_beta   90.00000000
_cell_angle_gamma   85.01437512
_symmetry_Int_Tables_number   1
_chemical_formula_structural   Li3CoPCO7
_chemical_formula_sum   'Li12 Co4 P4 C4 O28'
_cell_volume   532.16998150
_cell_formula_units_Z   4
loop_
 _symmetry_equiv_pos_site_id
 _symmetry_equiv_pos_as_xyz
  1  'x, y, z'
loop_
 _atom_site_type_symbol
 _atom_site_label
 _atom_site_symmetry_multiplicity
 _atom_site_fract_x
 _atom_site_fract_y
 _atom_site_fract_z
 _atom_site_occupancy
  Li  Li0  1  0.09801684  0.38217804  0.25178660  1
  Li  Li1  1  0.09801684  0.88217804  0.24821340  1
  Li  Li2  1  0.28009774  0.11875428  0.01357602  1
  Li  Li3  1  0.28009774  0.61875428  0.48642398  1
  Li  Li4  1  0.34638743  0.39007517  0.74609144  1
  Li  Li5  1  0.34638743  0.89007517  0.75390856  1
  Li  Li6  1  0.65361257  0.10992483  0.24609144  1
  Li  Li7  1  0.65361257  0.60992483  0.25390856  1
  Li  Li8  1  0.71990226  0.38124572  0.51357602  1
  Li  Li9  1  0.71990226  0.88124572  0.98642398  1
  Li  Li10  1  0.90198316  0.11782196  0.75178660  1
  Li  Li11  1  0.90198316  0.61782196  0.74821340  1
  Co  Co12  1  0.27509543  0.12353086  0.49387428  1
  Co  Co13  1  0.27509543  0.62353086  0.00612572  1
  Co  Co14  1  0.72490457  0.37646914  0.99387428  1
  Co  Co15  1  0.72490457  0.87646914  0.50612572  1
  P  P16  1  0.40883915  0.35986781  0.25215354  1
  P  P17  1  0.40883915  0.85986781  0.24784646  1
  P  P18  1  0.59116085  0.14013219  0.75215354  1
  P  P19  1  0.59116085  0.64013219  0.74784646  1
  C  C20  1  0.03788866  0.35193470  0.74937441  1
  C  C21  1  0.03788866  0.85193470  0.75062559  1
  C  C22  1  0.96211134  0.14806530  0.24937441  1
  C  C23  1  0.96211134  0.64806530  0.25062559  1
  O  O24  1  0.06937894  0.47659337  0.75496219  1
  O  O25  1  0.11090644  0.17963077  0.25966287  1
  O  O26  1  0.06937894  0.97659337  0.74503781  1
  O  O27  1  0.14753859  0.25257742  0.73396136  1
  O  O28  1  0.11090644  0.67963077  0.24033713  1
  O  O29  1  0.14753859  0.75257742  0.76603864  1
  O  O30  1  0.31010173  0.41525735  0.05849226  1
  O  O31  1  0.31371311  0.41494584  0.44288277  1
  O  O32  1  0.31371311  0.91494584  0.05711723  1
  O  O33  1  0.31010173  0.91525735  0.44150774  1
  O  O34  1  0.42041651  0.09408973  0.74509488  1
  O  O35  1  0.42123653  0.20049599  0.25259395  1
  O  O36  1  0.42041651  0.59408973  0.75490512  1
  O  O37  1  0.42123653  0.70049599  0.24740605  1
  O  O38  1  0.57876347  0.29950401  0.75259395  1
  O  O39  1  0.57958349  0.40591027  0.24509488  1
  O  O40  1  0.57876347  0.79950401  0.74740605  1
  O  O41  1  0.57958349  0.90591027  0.25490512  1
  O  O42  1  0.68628689  0.08505416  0.94288277  1
  O  O43  1  0.68989827  0.08474265  0.55849226  1
  O  O44  1  0.68628689  0.58505416  0.55711723  1
  O  O45  1  0.68989827  0.58474265  0.94150774  1
  O  O46  1  0.85246141  0.24742258  0.23396136  1
  O  O47  1  0.88909356  0.32036923  0.75966287  1
  O  O48  1  0.85246141  0.74742258  0.26603864  1
  O  O49  1  0.93062106  0.02340663  0.25496219  1
  O  O50  1  0.88909356  0.82036923  0.74033713  1
  O  O51  1  0.93062106  0.52340663  0.24503781  1
