# generated using pymatgen
data_LiVSi3O8
_symmetry_space_group_name_H-M   'P 1'
_cell_length_a   7.67494000
_cell_length_b   12.80143325
_cell_length_c   7.15354638
_cell_angle_alpha   90.00000000
_cell_angle_beta   62.57134192
_cell_angle_gamma   90.00000000
_symmetry_Int_Tables_number   1
_chemical_formula_structural   LiVSi3O8
_chemical_formula_sum   'Li4 V4 Si12 O32'
_cell_volume   623.82816865
_cell_formula_units_Z   4
loop_
 _symmetry_equiv_pos_site_id
 _symmetry_equiv_pos_as_xyz
  1  'x, y, z'
loop_
 _atom_site_type_symbol
 _atom_site_label
 _atom_site_symmetry_multiplicity
 _atom_site_fract_x
 _atom_site_fract_y
 _atom_site_fract_z
 _atom_site_occupancy
  Li  Li0  1  0.94245931  0.17885527  0.17294674  1
  Li  Li1  1  0.44245931  0.32114473  0.67294674  1
  Li  Li2  1  0.55754069  0.67885527  0.32705326  1
  Li  Li3  1  0.05754069  0.82114473  0.82705326  1
  V  V4  1  0.23837300  0.03161006  0.86302887  1
  V  V5  1  0.26162700  0.53161006  0.63697113  1
  V  V6  1  0.73837300  0.46838994  0.36302887  1
  V  V7  1  0.76162700  0.96838994  0.13697113  1
  Si  Si8  1  0.04265992  0.84349089  0.28314359  1
  Si  Si9  1  0.37646888  0.91042653  0.39583248  1
  Si  Si10  1  0.31919904  0.12157149  0.26256949  1
  Si  Si11  1  0.54265992  0.65650911  0.78314359  1
  Si  Si12  1  0.12353112  0.41042753  0.10416752  1
  Si  Si13  1  0.18080196  0.62157149  0.23743051  1
  Si  Si14  1  0.81919904  0.37842851  0.76256949  1
  Si  Si15  1  0.87646888  0.58957347  0.89583248  1
  Si  Si16  1  0.45734008  0.34349089  0.21685641  1
  Si  Si17  1  0.62353112  0.08957247  0.60416752  1
  Si  Si18  1  0.68080096  0.87842851  0.73743051  1
  Si  Si19  1  0.95734008  0.15650911  0.71685641  1
  O  O20  1  0.25416516  0.42965134  0.85560102  1
  O  O21  1  0.36082353  0.61841586  -0.00001038  1
  O  O22  1  0.13917647  0.11841586  0.50001038  1
  O  O23  1  0.24583484  0.92965134  0.64439898  1
  O  O24  1  0.02676782  0.71655228  0.26892519  1
  O  O25  1  0.91168448  0.35306473  0.17992258  1
  O  O26  1  0.96016324  0.09404189  0.91681501  1
  O  O27  1  0.03983676  0.90595811  0.08318499  1
  O  O28  1  0.24822350  0.85574401  0.29413071  1
  O  O29  1  0.21763409  0.11252791  0.10909046  1
  O  O30  1  0.04115586  0.51888646  0.25430246  1
  O  O31  1  0.45884414  0.01888646  0.24569754  1
  O  O32  1  0.41168448  0.14693527  0.67992258  1
  O  O33  1  0.52676782  0.78344772  0.76892519  1
  O  O34  1  0.28236591  0.61252791  0.39090954  1
  O  O35  1  0.25177650  0.35574401  0.20586929  1
  O  O36  1  0.53983676  0.59404189  0.58318499  1
  O  O37  1  0.46016324  0.40595811  0.41681501  1
  O  O38  1  0.71763409  0.38747209  0.60909046  1
  O  O39  1  0.74822350  0.64425599  0.79413071  1
  O  O40  1  0.47323218  0.21655228  0.23107481  1
  O  O41  1  0.58831552  0.85306473  0.32007742  1
  O  O42  1  0.54115586  0.98111354  0.75430246  1
  O  O43  1  0.95884414  0.48111354  0.74569754  1
  O  O44  1  0.75177650  0.14425599  0.70586929  1
  O  O45  1  0.78236591  0.88747209  0.89090954  1
  O  O46  1  0.97323218  0.28344772  0.73107481  1
  O  O47  1  0.08831552  0.64693527  0.82007742  1
  O  O48  1  0.75416516  0.07034866  0.35560102  1
  O  O49  1  0.86082353  0.88158414  0.49998962  1
  O  O50  1  0.63917647  0.38158414  0.00001038  1
  O  O51  1  0.74583484  0.57034866  0.14439898  1
