# generated using pymatgen
data_LiMn2(PO4)2
_symmetry_space_group_name_H-M   'P 1'
_cell_length_a   10.19644864
_cell_length_b   14.19844127
_cell_length_c   5.14974499
_cell_angle_alpha   90.00000000
_cell_angle_beta   90.00000000
_cell_angle_gamma   90.00000000
_symmetry_Int_Tables_number   1
_chemical_formula_structural   LiMn2(PO4)2
_chemical_formula_sum   'Li4 Mn8 P8 O32'
_cell_volume   745.54751873
_cell_formula_units_Z   4
loop_
 _symmetry_equiv_pos_site_id
 _symmetry_equiv_pos_as_xyz
  1  'x, y, z'
loop_
 _atom_site_type_symbol
 _atom_site_label
 _atom_site_symmetry_multiplicity
 _atom_site_fract_x
 _atom_site_fract_y
 _atom_site_fract_z
 _atom_site_occupancy
  Li  Li0  1  0.22230522  0.74993496  0.55239113  1
  Li  Li1  1  0.27769478  0.24993496  0.55239113  1
  Li  Li2  1  0.72230522  0.74993496  0.44760887  1
  Li  Li3  1  0.77769478  0.24993496  0.44760887  1
  Mn  Mn4  1  0.03330835  0.75288968  0.05850592  1
  Mn  Mn5  1  0.22210988  0.00132692  0.55541875  1
  Mn  Mn6  1  0.27789012  0.50132692  0.55541875  1
  Mn  Mn7  1  0.46669165  0.25288968  0.05850592  1
  Mn  Mn8  1  0.53330835  0.75288968  0.94149408  1
  Mn  Mn9  1  0.72210988  0.00132692  0.44458125  1
  Mn  Mn10  1  0.77789012  0.50132692  0.44458125  1
  Mn  Mn11  1  0.96669165  0.25288968  0.94149408  1
  P  P12  1  0.02978204  0.37631870  0.43341689  1
  P  P13  1  0.21395409  0.12790425  0.05266930  1
  P  P14  1  0.28604591  0.62790425  0.05266930  1
  P  P15  1  0.47021796  0.87631870  0.43341689  1
  P  P16  1  0.52978204  0.37631870  0.56658311  1
  P  P17  1  0.71395409  0.12790425  0.94733070  1
  P  P18  1  0.78604591  0.62790425  0.94733070  1
  P  P19  1  0.97021796  0.87631870  0.56658311  1
  O  O20  1  0.00595491  0.36858589  0.13703111  1
  O  O21  1  0.03385656  0.96716635  0.46418665  1
  O  O22  1  0.03534475  0.78732307  0.44012706  1
  O  O23  1  0.06530873  0.13687174  0.99701619  1
  O  O24  1  0.17914060  0.37556324  0.49508201  1
  O  O25  1  0.23532367  0.53694199  0.92646593  1
  O  O26  1  0.21761055  0.71690807  0.93477433  1
  O  O27  1  0.24227573  0.12713113  0.35048454  1
  O  O28  1  0.25772427  0.62713113  0.35048454  1
  O  O29  1  0.28238945  0.21690807  0.93477433  1
  O  O30  1  0.26467633  0.03694199  0.92646593  1
  O  O31  1  0.32085940  0.87556324  0.49508201  1
  O  O32  1  0.43469127  0.63687174  0.99701619  1
  O  O33  1  0.46465525  0.28732307  0.44012706  1
  O  O34  1  0.46614344  0.46716635  0.46418665  1
  O  O35  1  0.49404509  0.86858589  0.13703111  1
  O  O36  1  0.50595491  0.36858589  0.86296889  1
  O  O37  1  0.53385656  0.96716635  0.53581335  1
  O  O38  1  0.53534475  0.78732307  0.55987294  1
  O  O39  1  0.56530873  0.13687174  0.00298381  1
  O  O40  1  0.67914060  0.37556324  0.50491799  1
  O  O41  1  0.73532367  0.53694199  0.07353407  1
  O  O42  1  0.71761055  0.71690807  0.06522567  1
  O  O43  1  0.74227573  0.12713113  0.64951546  1
  O  O44  1  0.75772427  0.62713113  0.64951546  1
  O  O45  1  0.78238945  0.21690807  0.06522567  1
  O  O46  1  0.76467633  0.03694199  0.07353407  1
  O  O47  1  0.82085940  0.87556324  0.50491799  1
  O  O48  1  0.93469127  0.63687174  0.00298381  1
  O  O49  1  0.96465525  0.28732307  0.55987294  1
  O  O50  1  0.96614344  0.46716635  0.53581335  1
  O  O51  1  0.99404509  0.86858589  0.86296889  1
