# generated using pymatgen
data_Li2Fe(BO3)2
_symmetry_space_group_name_H-M   'P 1'
_cell_length_a   5.24010714
_cell_length_b   8.99771127
_cell_length_c   10.04928166
_cell_angle_alpha   90.00000000
_cell_angle_beta   92.94584857
_cell_angle_gamma   90.00000000
_symmetry_Int_Tables_number   1
_chemical_formula_structural   Li2Fe(BO3)2
_chemical_formula_sum   'Li8 Fe4 B8 O24'
_cell_volume   473.18717095
_cell_formula_units_Z   4
loop_
 _symmetry_equiv_pos_site_id
 _symmetry_equiv_pos_as_xyz
  1  'x, y, z'
loop_
 _atom_site_type_symbol
 _atom_site_label
 _atom_site_symmetry_multiplicity
 _atom_site_fract_x
 _atom_site_fract_y
 _atom_site_fract_z
 _atom_site_occupancy
  Li  Li0  1  0.17924576  0.66482275  0.63003908  1
  Li  Li1  1  0.16879771  0.99039458  0.11324894  1
  Li  Li2  1  0.32075424  0.16482275  0.86996092  1
  Li  Li3  1  0.33120229  0.49039458  0.38675106  1
  Li  Li4  1  0.66879771  0.50960542  0.61324894  1
  Li  Li5  1  0.67924576  0.83517725  0.13003908  1
  Li  Li6  1  0.83120229  0.00960542  0.88675106  1
  Li  Li7  1  0.82075424  0.33517725  0.36996092  1
  Fe  Fe8  1  0.14927521  0.32663193  0.12706066  1
  Fe  Fe9  1  0.35072479  0.82663193  0.37293934  1
  Fe  Fe10  1  0.64927521  0.17336807  0.62706066  1
  Fe  Fe11  1  0.85072479  0.67336807  0.87293934  1
  B  B12  1  0.16984803  0.33075895  0.61912976  1
  B  B13  1  0.16445959  0.66173617  0.13050473  1
  B  B14  1  0.33015197  0.83075895  0.88087024  1
  B  B15  1  0.33554041  0.16173617  0.36949527  1
  B  B16  1  0.66445959  0.83826383  0.63050473  1
  B  B17  1  0.66984803  0.16924105  0.11912976  1
  B  B18  1  0.83554041  0.33826383  0.86949527  1
  B  B19  1  0.83015197  0.66924105  0.38087024  1
  O  O20  1  0.06971414  0.31499183  0.93485110  1
  O  O21  1  0.09312779  0.67268826  0.40351341  1
  O  O22  1  0.19525295  0.95562289  0.90522415  1
  O  O23  1  0.20276802  0.28863699  0.32711075  1
  O  O24  1  0.20983923  0.70183959  0.83551821  1
  O  O25  1  0.23809034  0.02405760  0.34241627  1
  O  O26  1  0.29016077  0.20183959  0.66448179  1
  O  O27  1  0.26190966  0.52405760  0.15758373  1
  O  O28  1  0.29723198  0.78863699  0.17288925  1
  O  O29  1  0.30474705  0.45562289  0.59477585  1
  O  O30  1  0.43028586  0.81499183  0.56514890  1
  O  O31  1  0.40687221  0.17268826  0.09648759  1
  O  O32  1  0.59312779  0.82731174  0.90351341  1
  O  O33  1  0.56971414  0.18500817  0.43485110  1
  O  O34  1  0.69525295  0.54437711  0.40522415  1
  O  O35  1  0.70276802  0.21136301  0.82711075  1
  O  O36  1  0.73809034  0.47594240  0.84241627  1
  O  O37  1  0.70983923  0.79816041  0.33551821  1
  O  O38  1  0.76190966  0.97594240  0.65758373  1
  O  O39  1  0.79016077  0.29816041  0.16448179  1
  O  O40  1  0.79723198  0.71136301  0.67288925  1
  O  O41  1  0.80474705  0.04437711  0.09477585  1
  O  O42  1  0.90687221  0.32731174  0.59648659  1
  O  O43  1  0.93028586  0.68500817  0.06514890  1
