# generated using pymatgen
data_La3YFe4(AsO)4
_symmetry_space_group_name_H-M   'P 1'
_cell_length_a   4.09112045
_cell_length_b   8.18989028
_cell_length_c   9.27870310
_cell_angle_alpha   90.00000000
_cell_angle_beta   90.00000000
_cell_angle_gamma   90.12845743
_symmetry_Int_Tables_number   1
_chemical_formula_structural   La3YFe4(AsO)4
_chemical_formula_sum   'La3 Y1 Fe4 As4 O4'
_cell_volume   310.88984509
_cell_formula_units_Z   1
loop_
 _symmetry_equiv_pos_site_id
 _symmetry_equiv_pos_as_xyz
  1  'x, y, z'
loop_
 _atom_site_type_symbol
 _atom_site_label
 _atom_site_symmetry_multiplicity
 _atom_site_fract_x
 _atom_site_fract_y
 _atom_site_fract_z
 _atom_site_occupancy
  La  La0  1  0.25000000  0.87500000  0.13220147  1
  La  La1  1  0.75030160  0.12726110  0.87189454  1
  La  La2  1  0.74969840  0.62273890  0.87189454  1
  Y  Y3  1  0.25000000  0.37500000  0.11686646  1
  Fe  Fe4  1  0.24904612  0.12564860  0.49856553  1
  Fe  Fe5  1  0.25095388  0.62435140  0.49856553  1
  Fe  Fe6  1  0.75000000  0.37500000  0.49886664  1
  Fe  Fe7  1  0.75000000  0.87500000  0.49837436  1
  As  As8  1  0.25000000  0.37500000  0.67641240  1
  As  As9  1  0.25000000  0.87500000  0.67534480  1
  As  As10  1  0.74968672  0.12723612  0.32285577  1
  As  As11  1  0.75031328  0.62276388  0.32285577  1
  O  O12  1  0.24996020  0.13141024  0.00375911  1
  O  O13  1  0.25003980  0.61858976  0.00375911  1
  O  O14  1  0.75000000  0.37500000  0.00769560  1
  O  O15  1  0.75000000  0.87500000  0.00008836  1
