# generated using pymatgen
data_Li2Mn2Si3O10
_symmetry_space_group_name_H-M   'P 1'
_cell_length_a   5.51338745
_cell_length_b   5.51338680
_cell_length_c   16.20171031
_cell_angle_alpha   85.70502809
_cell_angle_beta   94.29497205
_cell_angle_gamma   118.95388264
_symmetry_Int_Tables_number   1
_chemical_formula_structural   Li2Mn2Si3O10
_chemical_formula_sum   'Li4 Mn4 Si6 O20'
_cell_volume   429.30225575
_cell_formula_units_Z   2
loop_
 _symmetry_equiv_pos_site_id
 _symmetry_equiv_pos_as_xyz
  1  'x, y, z'
loop_
 _atom_site_type_symbol
 _atom_site_label
 _atom_site_symmetry_multiplicity
 _atom_site_fract_x
 _atom_site_fract_y
 _atom_site_fract_z
 _atom_site_occupancy
  Li  Li0  1  0.41066053  0.79366839  0.77427961  1
  Li  Li1  1  0.20633161  0.58933947  0.27427961  1
  Li  Li2  1  0.63720497  0.15314889  0.55068167  1
  Li  Li3  1  0.84685111  0.36279503  0.05068167  1
  Mn  Mn4  1  0.98837633  0.80688996  0.57716097  1
  Mn  Mn5  1  0.19311004  0.01162367  0.07716097  1
  Mn  Mn6  1  0.79339317  0.97137774  0.91967802  1
  Mn  Mn7  1  0.02862226  0.20660683  0.41967802  1
  Si  Si8  1  0.11361082  0.11519613  0.74980625  1
  Si  Si9  1  0.33212625  0.48916840  0.59908527  1
  Si  Si10  1  0.47012715  0.30590295  0.90206803  1
  Si  Si11  1  0.51083160  0.66787375  0.09908527  1
  Si  Si12  1  0.69409705  0.52987285  0.40206803  1
  Si  Si13  1  0.88480387  0.88638918  0.24980625  1
  O  O14  1  0.07039321  0.87287174  0.69066552  1
  O  O15  1  0.12712826  0.92960679  0.19066552  1
  O  O16  1  0.22406416  0.41708932  0.69651075  1
  O  O17  1  0.49287260  0.61158744  0.88966141  1
  O  O18  1  0.08896715  0.22696702  0.54453295  1
  O  O19  1  0.20160974  0.09973860  0.95941593  1
  O  O20  1  0.34337402  0.78206241  0.57059397  1
  O  O21  1  0.21793759  0.65662598  0.07059397  1
  O  O22  1  0.38841256  0.50712740  0.38966141  1
  O  O23  1  0.37381827  0.14447185  0.81316387  1
  O  O24  1  0.58291068  0.77593584  0.19651075  1
  O  O25  1  0.62359184  0.48339039  0.59416717  1
  O  O26  1  0.75065797  0.30341230  0.93628156  1
  O  O27  1  0.69658770  0.24934203  0.43628156  1
  O  O28  1  0.77303298  0.91103385  0.04453295  1
  O  O29  1  0.90026140  0.79839026  0.45941593  1
  O  O30  1  0.51660961  0.37640816  0.09416717  1
  O  O31  1  0.85552815  0.62618173  0.31316387  1
  O  O32  1  0.84523160  0.04525627  0.80224006  1
  O  O33  1  0.95474373  0.15476840  0.30224006  1
