# generated using pymatgen
data_Ba2YI7
_symmetry_space_group_name_H-M   'P 1'
_cell_length_a   15.23833748
_cell_length_b   15.26648350
_cell_length_c   17.73307286
_cell_angle_alpha   90.00000000
_cell_angle_beta   147.79367392
_cell_angle_gamma   90.00000000
_symmetry_Int_Tables_number   1
_chemical_formula_structural   Ba2YI7
_chemical_formula_sum   'Ba8 Y4 I28'
_cell_volume   2198.68553700
_cell_formula_units_Z   4
loop_
 _symmetry_equiv_pos_site_id
 _symmetry_equiv_pos_as_xyz
  1  'x, y, z'
loop_
 _atom_site_type_symbol
 _atom_site_label
 _atom_site_symmetry_multiplicity
 _atom_site_fract_x
 _atom_site_fract_y
 _atom_site_fract_z
 _atom_site_occupancy
  Ba  Ba0  1  0.15088948  0.26906350  0.69516670  1
  Ba  Ba1  1  0.56134067  0.29345311  0.81325540  1
  Ba  Ba2  1  0.43865933  0.79345311  0.68674460  1
  Ba  Ba3  1  0.15088948  0.23093650  0.19516670  1
  Ba  Ba4  1  0.84911052  0.76906350  0.80483330  1
  Ba  Ba5  1  0.56134067  0.20654689  0.31325540  1
  Ba  Ba6  1  0.43865933  0.70654689  0.18674460  1
  Ba  Ba7  1  0.84911052  0.73093650  0.30483330  1
  Y  Y8  1  0.06444009  0.69543286  0.72933979  1
  Y  Y9  1  0.06444009  0.80456714  0.22933979  1
  Y  Y10  1  0.93555991  0.19543286  0.77066021  1
  Y  Y11  1  0.93555991  0.30456714  0.27066021  1
  I  I12  1  0.05704011  0.58779476  0.86782717  1
  I  I13  1  0.15569984  0.84964583  0.89570707  1
  I  I14  1  0.27941170  0.26291031  0.97256047  1
  I  I15  1  0.15806047  0.41330361  0.53941788  1
  I  I16  1  0.05704011  0.91220524  0.36782717  1
  I  I17  1  0.34660644  0.12188526  0.73465796  1
  I  I18  1  0.18206850  0.78214404  0.66761996  1
  I  I19  1  0.57139721  0.37223713  0.00373482  1
  I  I20  1  0.15569984  0.65035417  0.39570707  1
  I  I21  1  0.27941170  0.23708969  0.47256047  1
  I  I22  1  0.42860279  0.87223713  0.49626518  1
  I  I23  1  0.81793150  0.28214404  0.83238004  1
  I  I24  1  0.65339356  0.62188526  0.76534204  1
  I  I25  1  0.15806047  0.08669639  0.03941788  1
  I  I26  1  0.84193953  0.91330361  0.96058212  1
  I  I27  1  0.34660644  0.37811474  0.23465796  1
  I  I28  1  0.18206850  0.71785596  0.16761996  1
  I  I29  1  0.57139721  0.12776287  0.50373482  1
  I  I30  1  0.72058830  0.76291031  0.52743953  1
  I  I31  1  0.84430016  0.34964583  0.60429293  1
  I  I32  1  0.42860279  0.62776287  0.99626518  1
  I  I33  1  0.81793150  0.21785596  0.33238004  1
  I  I34  1  0.65339356  0.87811474  0.26534204  1
  I  I35  1  0.94295989  0.08779476  0.63217283  1
  I  I36  1  0.84193953  0.58669639  0.46058212  1
  I  I37  1  0.72058830  0.73708969  0.02743953  1
  I  I38  1  0.84430016  0.15035417  0.10429293  1
  I  I39  1  0.94295989  0.41220524  0.13217283  1
