# generated using pymatgen
data_ScInO3
_symmetry_space_group_name_H-M   'P 1'
_cell_length_a   3.46635131
_cell_length_b   3.46644992
_cell_length_c   12.74871060
_cell_angle_alpha   89.99965237
_cell_angle_beta   89.99954219
_cell_angle_gamma   119.99864653
_symmetry_Int_Tables_number   1
_chemical_formula_structural   ScInO3
_chemical_formula_sum   'Sc2 In2 O6'
_cell_volume   132.66621031
_cell_formula_units_Z   2
loop_
 _symmetry_equiv_pos_site_id
 _symmetry_equiv_pos_as_xyz
  1  'x, y, z'
loop_
 _atom_site_type_symbol
 _atom_site_label
 _atom_site_symmetry_multiplicity
 _atom_site_fract_x
 _atom_site_fract_y
 _atom_site_fract_z
 _atom_site_occupancy
  Sc  Sc0  1  0.33329247  0.66657181  0.75000386  1
  Sc  Sc1  1  0.66667001  0.33329888  0.24999786  1
  In  In2  1  0.00000494  0.00043013  0.00000156  1
  In  In3  1  0.00005914  0.99975826  0.49999584  1
  O  O4  1  -0.00000537  0.99990363  0.25000460  1
  O  O5  1  0.99997839  0.99993331  0.74999749  1
  O  O6  1  0.33331784  0.66650896  0.58236707  1
  O  O7  1  0.33330997  0.66672397  0.91762922  1
  O  O8  1  0.66669577  0.33324874  0.41762013  1
  O  O9  1  0.66667683  0.33342332  0.08238237  1
