# generated using pymatgen
data_Li7Mn(O2F)2
_symmetry_space_group_name_H-M   'P 1'
_cell_length_a   5.42799964
_cell_length_b   5.98700304
_cell_length_c   10.18641820
_cell_angle_alpha   83.06402752
_cell_angle_beta   78.71353945
_cell_angle_gamma   119.41321374
_symmetry_Int_Tables_number   1
_chemical_formula_structural   Li7Mn(O2F)2
_chemical_formula_sum   'Li14 Mn2 O8 F4'
_cell_volume   273.52090940
_cell_formula_units_Z   2
loop_
 _symmetry_equiv_pos_site_id
 _symmetry_equiv_pos_as_xyz
  1  'x, y, z'
loop_
 _atom_site_type_symbol
 _atom_site_label
 _atom_site_symmetry_multiplicity
 _atom_site_fract_x
 _atom_site_fract_y
 _atom_site_fract_z
 _atom_site_occupancy
  Li  Li0  1  0.08910450  0.03568974  0.23469747  1
  Li  Li1  1  0.10934935  0.62443938  0.74797585  1
  Li  Li2  1  0.48607813  0.95440735  0.38877559  1
  Li  Li3  1  0.51862519  0.55074769  0.11636365  1
  Li  Li4  1  0.26428773  0.21032488  0.44383945  1
  Li  Li5  1  0.23696726  0.70922995  0.95824819  1
  Li  Li6  1  0.31567974  0.35754251  0.66415960  1
  Li  Li7  1  0.71810342  0.24427695  0.05850550  1
  Li  Li8  1  0.76171193  0.80387460  0.53064056  1
  Li  Li9  1  0.48345250  0.49457795  0.89007936  1
  Li  Li10  1  0.51932545  0.02678080  0.61701558  1
  Li  Li11  1  0.90415265  0.42954938  0.27270835  1
  Li  Li12  1  0.90542140  0.90128299  0.74737323  1
  Li  Li13  1  0.66661889  0.13894632  0.82810700  1
  Mn  Mn14  1  0.04074482  0.03764916  0.96062751  1
  Mn  Mn15  1  0.00239944  0.49846529  0.50658472  1
  O  O16  1  0.08480292  0.83544890  0.40197433  1
  O  O17  1  0.25330720  0.96027166  0.80165393  1
  O  O18  1  0.35990124  0.19970721  0.03661626  1
  O  O19  1  0.35678363  0.68645838  0.56561497  1
  O  O20  1  0.06444706  0.36828738  0.89161916  1
  O  O21  1  0.63986796  0.29964924  0.46060955  1
  O  O22  1  0.65232068  0.82507966  0.93955074  1
  O  O23  1  0.93534811  0.15868374  0.61097464  1
  F  F24  1  0.24158888  0.40640498  0.28943588  1
  F  F25  1  0.90102558  0.61093336  0.10878746  1
  F  F26  1  0.75915634  0.07439289  0.21342344  1
  F  F27  1  0.72942801  0.55689665  0.71403806  1
