# generated using pymatgen
data_CrOF
_symmetry_space_group_name_H-M   'P 1'
_cell_length_a   5.13104456
_cell_length_b   4.59219935
_cell_length_c   5.59364367
_cell_angle_alpha   90.00000000
_cell_angle_beta   91.44161328
_cell_angle_gamma   90.00000000
_symmetry_Int_Tables_number   1
_chemical_formula_structural   CrOF
_chemical_formula_sum   'Cr4 O4 F4'
_cell_volume   131.76007480
_cell_formula_units_Z   4
loop_
 _symmetry_equiv_pos_site_id
 _symmetry_equiv_pos_as_xyz
  1  'x, y, z'
loop_
 _atom_site_type_symbol
 _atom_site_label
 _atom_site_symmetry_multiplicity
 _atom_site_fract_x
 _atom_site_fract_y
 _atom_site_fract_z
 _atom_site_occupancy
  Cr  Cr0  1  0.27302273  0.51891446  0.65041379  1
  Cr  Cr1  1  0.27302273  0.98108554  0.15041379  1
  Cr  Cr2  1  0.72697727  0.01891446  0.84958621  1
  Cr  Cr3  1  0.72697727  0.48108554  0.34958621  1
  O  O4  1  0.42477865  0.77473145  0.88699873  1
  O  O5  1  0.42477865  0.72526855  0.38699873  1
  O  O6  1  0.57522135  0.27473145  0.61300127  1
  O  O7  1  0.57522135  0.22526855  0.11300127  1
  F  F8  1  0.07902310  0.24160014  0.88833325  1
  F  F9  1  0.07902310  0.25839986  0.38833325  1
  F  F10  1  0.92097690  0.74160014  0.61166675  1
  F  F11  1  0.92097690  0.75839986  0.11166675  1
