# generated using pymatgen
data_Li3CoPCO7
_symmetry_space_group_name_H-M   'P 1'
_cell_length_a   9.44849501
_cell_length_b   9.84752655
_cell_length_c   6.39067281
_cell_angle_alpha   90.00000000
_cell_angle_beta   90.00000000
_cell_angle_gamma   63.68658403
_symmetry_Int_Tables_number   1
_chemical_formula_structural   Li3CoPCO7
_chemical_formula_sum   'Li12 Co4 P4 C4 O28'
_cell_volume   533.00321446
_cell_formula_units_Z   4
loop_
 _symmetry_equiv_pos_site_id
 _symmetry_equiv_pos_as_xyz
  1  'x, y, z'
loop_
 _atom_site_type_symbol
 _atom_site_label
 _atom_site_symmetry_multiplicity
 _atom_site_fract_x
 _atom_site_fract_y
 _atom_site_fract_z
 _atom_site_occupancy
  Li  Li0  1  0.90174511  0.43137333  0.74907836  1
  Li  Li1  1  0.90174511  0.93137333  0.75092164  1
  Li  Li2  1  0.72077371  0.25843642  0.98701195  1
  Li  Li3  1  0.72077371  0.75843642  0.51298805  1
  Li  Li4  1  0.65347640  0.06315970  0.24686744  1
  Li  Li5  1  0.65347640  0.56315970  0.25313256  1
  Li  Li6  1  0.34652360  0.43684030  0.75313256  1
  Li  Li7  1  0.34652360  0.93684030  0.74686744  1
  Li  Li8  1  0.27922629  0.24156358  0.01298805  1
  Li  Li9  1  0.27922629  0.74156358  0.48701195  1
  Li  Li10  1  0.09825489  0.06862667  0.25092164  1
  Li  Li11  1  0.09825489  0.56862667  0.24907836  1
  Co  Co12  1  0.72423414  0.26143771  0.50622168  1
  Co  Co13  1  0.72423414  0.76143771  0.99377832  1
  Co  Co14  1  0.27576586  0.23856229  0.49377832  1
  Co  Co15  1  0.27576586  0.73856229  0.00622168  1
  P  P16  1  0.59132129  0.06428319  0.75242386  1
  P  P17  1  0.59132129  0.56428319  0.74757614  1
  P  P18  1  0.40867871  0.43571681  0.24757614  1
  P  P19  1  0.40867871  0.93571681  0.25242386  1
  C  C20  1  0.96165383  0.37163932  0.25857052  1
  C  C21  1  0.96165383  0.87163932  0.24142948  1
  C  C22  1  0.03834617  0.12836068  0.74142948  1
  C  C23  1  0.03834617  0.62836068  0.75857052  1
  O  O24  1  0.93106060  0.01076792  0.25242122  1
  O  O25  1  0.93106060  0.51076792  0.24757878  1
  O  O26  1  0.88928223  0.23494483  0.73741607  1
  O  O27  1  0.85148967  0.32701517  0.26152100  1
  O  O28  1  0.88928223  0.73494483  0.76258393  1
  O  O29  1  0.85148967  0.82701517  0.23847900  1
  O  O30  1  0.68586675  0.07163772  0.94334714  1
  O  O31  1  0.69006948  0.07072905  0.55904066  1
  O  O32  1  0.69006948  0.57072905  0.94095934  1
  O  O33  1  0.68586675  0.57163772  0.55665286  1
  O  O34  1  0.57937644  0.30436496  0.25533458  1
  O  O35  1  0.57905310  0.41106632  0.74791766  1
  O  O36  1  0.57937644  0.80436496  0.24466542  1
  O  O37  1  0.57905310  0.91106632  0.75208234  1
  O  O38  1  0.42094690  0.08893368  0.25208234  1
  O  O39  1  0.42062356  0.19563504  0.74466542  1
  O  O40  1  0.42094690  0.58893368  0.24791766  1
  O  O41  1  0.42062356  0.69563504  0.75533458  1
  O  O42  1  0.31413325  0.42836228  0.05665286  1
  O  O43  1  0.30993052  0.42927095  0.44095934  1
  O  O44  1  0.30993052  0.92927095  0.05904066  1
  O  O45  1  0.31413325  0.92836228  0.44334714  1
  O  O46  1  0.14851033  0.17298483  0.73847900  1
  O  O47  1  0.11071777  0.26505517  0.26258393  1
  O  O48  1  0.14851033  0.67298483  0.76152100  1
  O  O49  1  0.11071777  0.76505517  0.23741607  1
  O  O50  1  0.06893940  0.48923208  0.74757878  1
  O  O51  1  0.06893940  0.98923208  0.75242122  1
