# generated using pymatgen
data_Li3Co13O16
_symmetry_space_group_name_H-M   'P 1'
_cell_length_a   11.58274376
_cell_length_b   5.16629281
_cell_length_c   5.16086881
_cell_angle_alpha   99.28560749
_cell_angle_beta   98.47912746
_cell_angle_gamma   85.86105176
_symmetry_Int_Tables_number   1
_chemical_formula_structural   Li3Co13O16
_chemical_formula_sum   'Li3 Co13 O16'
_cell_volume   301.07693645
_cell_formula_units_Z   1
loop_
 _symmetry_equiv_pos_site_id
 _symmetry_equiv_pos_as_xyz
  1  'x, y, z'
loop_
 _atom_site_type_symbol
 _atom_site_label
 _atom_site_symmetry_multiplicity
 _atom_site_fract_x
 _atom_site_fract_y
 _atom_site_fract_z
 _atom_site_occupancy
  Li  Li0  1  0.18750000  0.75000000  0.68750000  1
  Li  Li1  1  0.87525381  0.50036627  0.87645826  1
  Li  Li2  1  0.49974619  0.99963373  0.49854174  1
  Co  Co3  1  0.43641722  0.75442226  0.93413174  1
  Co  Co4  1  0.12487618  0.50403731  0.12149706  1
  Co  Co5  1  0.68750000  0.75000000  0.18750000  1
  Co  Co6  1  0.31143469  0.24623640  0.80646033  1
  Co  Co7  1  0.37523347  0.50226194  0.37842012  1
  Co  Co8  1  0.62409187  0.49877304  0.62201043  1
  Co  Co9  1  0.93858278  0.74557774  0.44086826  1
  Co  Co10  1  0.06356531  0.25376360  0.56853967  1
  Co  Co11  1  0.56120702  0.24592559  0.06157385  1
  Co  Co12  1  0.25012382  0.99596269  0.25350294  1
  Co  Co13  1  0.81379298  0.25407441  0.31342615  1
  Co  Co14  1  0.75090813  0.00122696  0.75298957  1
  Co  Co15  1  0.99976653  0.99773806  0.99657988  1
  O  O16  1  0.09213274  0.88135990  0.33922250  1
  O  O17  1  0.59496460  0.87153305  0.84727828  1
  O  O18  1  0.34316308  0.87479052  0.59353604  1
  O  O19  1  0.03183692  0.62520948  0.78146396  1
  O  O20  1  0.46722927  0.38366052  0.72162661  1
  O  O21  1  0.21814722  0.36917070  0.46151759  1
  O  O22  1  0.71485190  0.37281035  0.96781769  1
  O  O23  1  0.84466906  0.88404173  0.10078488  1
  O  O24  1  0.15685278  0.13082930  0.91348241  1
  O  O25  1  0.78003540  0.62846695  0.52772172  1
  O  O26  1  0.28286726  0.61864010  0.03577750  1
  O  O27  1  0.53033094  0.61595827  0.27421512  1
  O  O28  1  0.97159445  0.37129919  0.22329230  1
  O  O29  1  0.66014810  0.12718965  0.40718231  1
  O  O30  1  0.40340555  0.12870081  0.15170770  1
  O  O31  1  0.90777073  0.11633948  0.65337339  1
