# generated using pymatgen
data_LiNiSnO4
_symmetry_space_group_name_H-M   'P 1'
_cell_length_a   6.06022234
_cell_length_b   5.91666532
_cell_length_c   6.06022258
_cell_angle_alpha   61.11198163
_cell_angle_beta   89.52619273
_cell_angle_gamma   118.88801578
_symmetry_Int_Tables_number   1
_chemical_formula_structural   LiNiSnO4
_chemical_formula_sum   'Li2 Ni2 Sn2 O8'
_cell_volume   158.09053104
_cell_formula_units_Z   2
loop_
 _symmetry_equiv_pos_site_id
 _symmetry_equiv_pos_as_xyz
  1  'x, y, z'
loop_
 _atom_site_type_symbol
 _atom_site_label
 _atom_site_symmetry_multiplicity
 _atom_site_fract_x
 _atom_site_fract_y
 _atom_site_fract_z
 _atom_site_occupancy
  Li  Li0  1  0.00000000  0.50000000  0.00000000  1
  Li  Li1  1  0.50000000  0.00000000  0.50000000  1
  Ni  Ni2  1  0.00000000  0.00000000  0.50000000  1
  Ni  Ni3  1  0.00000000  0.50000000  0.50000000  1
  Sn  Sn4  1  0.00000000  0.00000000  0.00000000  1
  Sn  Sn5  1  0.50000000  0.50000000  0.50000000  1
  O  O6  1  0.24788039  0.01261083  0.74295336  1
  O  O7  1  0.20774348  0.45061675  0.30421866  1
  O  O8  1  0.24295336  0.48738917  0.74788039  1
  O  O9  1  0.19578134  0.95061675  0.29225652  1
  O  O10  1  0.80421866  0.04938325  0.70774348  1
  O  O11  1  0.75704664  0.51261083  0.25211961  1
  O  O12  1  0.79225652  0.54938325  0.69578134  1
  O  O13  1  0.75211961  0.98738917  0.25704664  1
