# generated using pymatgen
data_LiBiB2O5
_symmetry_space_group_name_H-M   'P 1'
_cell_length_a   13.51692296
_cell_length_b   4.42455323
_cell_length_c   11.56721228
_cell_angle_alpha   90.00000000
_cell_angle_beta   90.00000000
_cell_angle_gamma   90.00000000
_symmetry_Int_Tables_number   1
_chemical_formula_structural   LiBiB2O5
_chemical_formula_sum   'Li8 Bi8 B16 O40'
_cell_volume   691.79268995
_cell_formula_units_Z   8
loop_
 _symmetry_equiv_pos_site_id
 _symmetry_equiv_pos_as_xyz
  1  'x, y, z'
loop_
 _atom_site_type_symbol
 _atom_site_label
 _atom_site_symmetry_multiplicity
 _atom_site_fract_x
 _atom_site_fract_y
 _atom_site_fract_z
 _atom_site_occupancy
  Li  Li0  1  0.09389270  0.70922764  0.90578699  1
  Li  Li1  1  0.15506183  0.27151239  0.73781678  1
  Li  Li2  1  0.34493817  0.77151239  0.23781678  1
  Li  Li3  1  0.40610730  0.20922764  0.40578699  1
  Li  Li4  1  0.59389270  0.79077236  0.90578699  1
  Li  Li5  1  0.65506183  0.22848761  0.73781678  1
  Li  Li6  1  0.84493817  0.72848761  0.23781678  1
  Li  Li7  1  0.90610730  0.29077236  0.40578699  1
  Bi  Bi8  1  0.02596960  0.83144511  0.64014132  1
  Bi  Bi9  1  0.22081959  0.20324863  0.00419080  1
  Bi  Bi10  1  0.27918041  0.70324863  0.50419080  1
  Bi  Bi11  1  0.47403040  0.33144511  0.14014132  1
  Bi  Bi12  1  0.52596960  0.66855489  0.64014132  1
  Bi  Bi13  1  0.72081959  0.29675137  0.00419080  1
  Bi  Bi14  1  0.77918041  0.79675137  0.50419080  1
  Bi  Bi15  1  0.97403040  0.16855489  0.14014132  1
  B  B16  1  0.01796851  0.80605361  0.37361293  1
  B  B17  1  0.10739028  0.29771041  0.45375332  1
  B  B18  1  0.13967967  0.72020250  0.19497588  1
  B  B19  1  0.23157610  0.21714660  0.27393018  1
  B  B20  1  0.26842390  0.71714660  0.77393018  1
  B  B21  1  0.36032033  0.22020250  0.69497588  1
  B  B22  1  0.39260972  0.79771041  0.95375332  1
  B  B23  1  0.48203149  0.30605361  0.87361293  1
  B  B24  1  0.51796851  0.69394639  0.37361293  1
  B  B25  1  0.60739028  0.20228959  0.45375332  1
  B  B26  1  0.63967967  0.77979750  0.19497588  1
  B  B27  1  0.73157610  0.28285340  0.27393018  1
  B  B28  1  0.76842390  0.78285340  0.77393018  1
  B  B29  1  0.86032033  0.27979750  0.69497588  1
  B  B30  1  0.89260972  0.70228959  0.95375332  1
  B  B31  1  0.98203149  0.19394639  0.87361293  1
  O  O32  1  0.03374134  0.13213389  0.38949695  1
  O  O33  1  0.08929390  0.27218252  0.89603881  1
  O  O34  1  0.03597309  0.73740409  0.24907963  1
  O  O35  1  0.08135141  0.63283116  0.45459537  1
  O  O36  1  0.11858213  0.20845044  0.57447368  1
  O  O37  1  0.12623434  0.82722018  0.07384378  1
  O  O38  1  0.16701437  0.39140440  0.19232145  1
  O  O39  1  0.21145143  0.28660433  0.39911915  1
  O  O40  1  0.16151200  0.77654452  0.75268534  1
  O  O41  1  0.21330258  0.88997436  0.25878565  1
  O  O42  1  0.28669742  0.38997436  0.75878565  1
  O  O43  1  0.33848800  0.27654452  0.25268534  1
  O  O44  1  0.28854857  0.78660433  0.89911915  1
  O  O45  1  0.33298563  0.89140440  0.69232145  1
  O  O46  1  0.37376566  0.32722018  0.57384378  1
  O  O47  1  0.38141787  0.70845044  0.07447368  1
  O  O48  1  0.41864859  0.13283116  0.95459537  1
  O  O49  1  0.46402691  0.23740409  0.74907963  1
  O  O50  1  0.41070610  0.77218252  0.39603881  1
  O  O51  1  0.46625866  0.63213389  0.88949695  1
  O  O52  1  0.53374134  0.36786611  0.38949695  1
  O  O53  1  0.58929390  0.22781748  0.89603881  1
  O  O54  1  0.53597309  0.76259591  0.24907963  1
  O  O55  1  0.58135141  0.86716884  0.45459537  1
  O  O56  1  0.61858213  0.29154956  0.57447368  1
  O  O57  1  0.62623434  0.67277982  0.07384378  1
  O  O58  1  0.66701437  0.10859560  0.19232145  1
  O  O59  1  0.71145143  0.21339567  0.39911915  1
  O  O60  1  0.66151200  0.72345548  0.75268534  1
  O  O61  1  0.71330258  0.61002564  0.25878565  1
  O  O62  1  0.78669742  0.11002564  0.75878565  1
  O  O63  1  0.83848800  0.22345548  0.25268534  1
  O  O64  1  0.78854857  0.71339567  0.89911915  1
  O  O65  1  0.83298563  0.60859560  0.69232145  1
  O  O66  1  0.87376566  0.17277982  0.57384378  1
  O  O67  1  0.88141787  0.79154956  0.07447368  1
  O  O68  1  0.91864859  0.36716884  0.95459537  1
  O  O69  1  0.96402691  0.26259591  0.74907963  1
  O  O70  1  0.91070610  0.72781748  0.39603881  1
  O  O71  1  0.96625866  0.86786611  0.88949695  1
