# generated using pymatgen
data_Li3Bi(BO3)2
_symmetry_space_group_name_H-M   'P 1'
_cell_length_a   6.66131758
_cell_length_b   8.61209511
_cell_length_c   9.36508896
_cell_angle_alpha   90.00000000
_cell_angle_beta   84.97636644
_cell_angle_gamma   90.00000000
_symmetry_Int_Tables_number   1
_chemical_formula_structural   Li3Bi(BO3)2
_chemical_formula_sum   'Li12 Bi4 B8 O24'
_cell_volume   535.19171301
_cell_formula_units_Z   4
loop_
 _symmetry_equiv_pos_site_id
 _symmetry_equiv_pos_as_xyz
  1  'x, y, z'
loop_
 _atom_site_type_symbol
 _atom_site_label
 _atom_site_symmetry_multiplicity
 _atom_site_fract_x
 _atom_site_fract_y
 _atom_site_fract_z
 _atom_site_occupancy
  Li  Li0  1  0.05318549  0.25853296  0.17869894  1
  Li  Li1  1  0.04940371  0.81787759  0.38896300  1
  Li  Li2  1  0.25264189  0.42460259  0.40179185  1
  Li  Li3  1  0.24735811  0.92460259  0.09820815  1
  Li  Li4  1  0.45059629  0.31787759  0.11103700  1
  Li  Li5  1  0.44681351  0.75853296  0.32130106  1
  Li  Li6  1  0.55318549  0.24146704  0.67869894  1
  Li  Li7  1  0.54940371  0.68212241  0.88896300  1
  Li  Li8  1  0.75264189  0.07539741  0.90179185  1
  Li  Li9  1  0.74735811  0.57539741  0.59820815  1
  Li  Li10  1  0.95059629  0.18212241  0.61103700  1
  Li  Li11  1  0.94681451  0.74146704  0.82130106  1
  Bi  Bi12  1  0.15413095  0.37838082  0.85007468  1
  Bi  Bi13  1  0.34586905  0.87838082  0.64992532  1
  Bi  Bi14  1  0.65413095  0.12161918  0.35007468  1
  Bi  Bi15  1  0.84586905  0.62161918  0.14992532  1
  B  B16  1  0.22163837  0.10503984  0.35365133  1
  B  B17  1  0.23745712  0.56426674  0.60661305  1
  B  B18  1  0.26254288  0.06426674  0.89338695  1
  B  B19  1  0.27836163  0.60503984  0.14634867  1
  B  B20  1  0.72163837  0.39496016  0.85365133  1
  B  B21  1  0.73745712  0.93573326  0.10661305  1
  B  B22  1  0.76254288  0.43573326  0.39338695  1
  B  B23  1  0.77836163  0.89496016  0.64634867  1
  O  O24  1  0.01638713  0.10943600  0.36501346  1
  O  O25  1  0.17162129  0.47062479  0.11713126  1
  O  O26  1  0.16549445  0.73645642  0.19282547  1
  O  O27  1  0.16743963  0.41248497  0.60397429  1
  O  O28  1  0.18910028  0.13971176  0.01673686  1
  O  O29  1  0.23204338  0.63765432  0.74137730  1
  O  O30  1  0.26795662  0.13765432  0.75862270  1
  O  O31  1  0.31089972  0.63971176  0.48326314  1
  O  O32  1  0.33450555  0.23645642  0.30717453  1
  O  O33  1  0.33256037  0.91248497  0.89602571  1
  O  O34  1  0.32837871  0.97062479  0.38286874  1
  O  O35  1  0.48361287  0.60943600  0.13498654  1
  O  O36  1  0.51638713  0.39056400  0.86501346  1
  O  O37  1  0.67162129  0.02937521  0.61713126  1
  O  O38  1  0.66743963  0.08751503  0.10397429  1
  O  O39  1  0.66549445  0.76354358  0.69282547  1
  O  O40  1  0.68910028  0.36028824  0.51673686  1
  O  O41  1  0.73204338  0.86234568  0.24137730  1
  O  O42  1  0.76795662  0.36234568  0.25862270  1
  O  O43  1  0.81089972  0.86028824  0.98326314  1
  O  O44  1  0.83256037  0.58751503  0.39602571  1
  O  O45  1  0.83450555  0.26354358  0.80717453  1
  O  O46  1  0.82837871  0.52937521  0.88286874  1
  O  O47  1  0.98361287  0.89056400  0.63498654  1
