# generated using pymatgen
data_SrLaCl5
_symmetry_space_group_name_H-M   'P 1'
_cell_length_a   7.55261848
_cell_length_b   13.75807691
_cell_length_c   10.49631050
_cell_angle_alpha   90.00000000
_cell_angle_beta   109.89962749
_cell_angle_gamma   90.00000000
_symmetry_Int_Tables_number   1
_chemical_formula_structural   SrLaCl5
_chemical_formula_sum   'Sr4 La4 Cl20'
_cell_volume   1025.54311648
_cell_formula_units_Z   4
loop_
 _symmetry_equiv_pos_site_id
 _symmetry_equiv_pos_as_xyz
  1  'x, y, z'
loop_
 _atom_site_type_symbol
 _atom_site_label
 _atom_site_symmetry_multiplicity
 _atom_site_fract_x
 _atom_site_fract_y
 _atom_site_fract_z
 _atom_site_occupancy
  Sr  Sr0  1  0.47082203  0.01781562  0.74476705  1
  Sr  Sr1  1  0.52917797  0.51781562  0.75523295  1
  Sr  Sr2  1  0.47082203  0.48218438  0.24476705  1
  Sr  Sr3  1  0.52917797  0.98218438  0.25523295  1
  La  La4  1  0.10423258  0.25343017  0.89935974  1
  La  La5  1  0.10423258  0.24656983  0.39935974  1
  La  La6  1  0.89576742  0.75343017  0.60064026  1
  La  La7  1  0.89576742  0.74656983  0.10064026  1
  Cl  Cl8  1  0.13479524  0.90648690  0.69501840  1
  Cl  Cl9  1  0.17543544  0.18742890  0.66814375  1
  Cl  Cl10  1  0.19267588  0.62962452  0.64382412  1
  Cl  Cl11  1  0.37034850  0.10373778  0.00199686  1
  Cl  Cl12  1  0.40134013  0.38994197  0.94255880  1
  Cl  Cl13  1  0.13479524  0.59351310  0.19501840  1
  Cl  Cl14  1  0.17543544  0.31257110  0.16814375  1
  Cl  Cl15  1  0.19267588  0.87037548  0.14382412  1
  Cl  Cl16  1  0.37034850  0.39626222  0.50199686  1
  Cl  Cl17  1  0.40134013  0.11005803  0.44255880  1
  Cl  Cl18  1  0.59865987  0.88994197  0.55744120  1
  Cl  Cl19  1  0.62965150  0.60373778  0.49800314  1
  Cl  Cl20  1  0.80732412  0.12962452  0.85617588  1
  Cl  Cl21  1  0.82456456  0.68742890  0.83185625  1
  Cl  Cl22  1  0.86520476  0.40648690  0.80498160  1
  Cl  Cl23  1  0.59865987  0.61005803  0.05744120  1
  Cl  Cl24  1  0.62965150  0.89626222  0.99800314  1
  Cl  Cl25  1  0.80732412  0.37037548  0.35617588  1
  Cl  Cl26  1  0.82456456  0.81257110  0.33185625  1
  Cl  Cl27  1  0.86520476  0.09351310  0.30498160  1
