# generated using pymatgen
data_Ga10Si2O19
_symmetry_space_group_name_H-M   'P 1'
_cell_length_a   15.88607418
_cell_length_b   7.93695653
_cell_length_c   15.88607418
_cell_angle_alpha   90.00000000
_cell_angle_beta   157.55601382
_cell_angle_gamma   90.00000000
_symmetry_Int_Tables_number   1
_chemical_formula_structural   Ga10Si2O19
_chemical_formula_sum   'Ga20 Si4 O38'
_cell_volume   764.71638379
_cell_formula_units_Z   2
loop_
 _symmetry_equiv_pos_site_id
 _symmetry_equiv_pos_as_xyz
  1  'x, y, z'
loop_
 _atom_site_type_symbol
 _atom_site_label
 _atom_site_symmetry_multiplicity
 _atom_site_fract_x
 _atom_site_fract_y
 _atom_site_fract_z
 _atom_site_occupancy
  Ga  Ga0  1  0.03017718  0.65526506  0.96982282  1
  Ga  Ga1  1  0.10335084  0.33411686  0.89664916  1
  Ga  Ga2  1  0.14422584  0.79870052  0.85577416  1
  Ga  Ga3  1  0.21691115  0.18126095  0.78308885  1
  Ga  Ga4  1  0.06295658  0.99550707  0.44588759  1
  Ga  Ga5  1  0.55411241  0.99550707  0.93704342  1
  Ga  Ga6  1  0.39689125  0.83542314  0.60310875  1
  Ga  Ga7  1  0.69575467  0.50290963  0.81683100  1
  Ga  Ga8  1  0.18316900  0.50290963  0.30424533  1
  Ga  Ga9  1  0.47670786  0.18003820  0.52329214  1
  Ga  Ga10  1  0.52329214  0.68003820  0.47670786  1
  Ga  Ga11  1  0.30424533  0.00290963  0.18316900  1
  Ga  Ga12  1  0.81683100  0.00290963  0.69575467  1
  Ga  Ga13  1  0.60310875  0.33542314  0.39689125  1
  Ga  Ga14  1  0.44588759  0.49550707  0.06295658  1
  Ga  Ga15  1  0.93704342  0.49550707  0.55411241  1
  Ga  Ga16  1  0.78308885  0.68126095  0.21691115  1
  Ga  Ga17  1  0.85577416  0.29870052  0.14422584  1
  Ga  Ga18  1  0.89664916  0.83411686  0.10335084  1
  Ga  Ga19  1  0.96982282  0.15526506  0.03017718  1
  Si  Si20  1  0.24118670  0.82140370  0.75881330  1
  Si  Si21  1  0.38005082  0.21392975  0.61994918  1
  Si  Si22  1  0.61994918  0.71392975  0.38005082  1
  Si  Si23  1  0.75881330  0.32140370  0.24118670  1
  O  O24  1  0.02598453  0.08149077  0.97401547  1
  O  O25  1  0.08285126  0.54734062  0.91714874  1
  O  O26  1  0.09766527  0.92944756  0.90233473  1
  O  O27  1  0.16767819  0.35717466  0.83232181  1
  O  O28  1  0.19534222  0.94423786  0.80465778  1
  O  O29  1  0.21450889  0.62980760  0.78549111  1
  O  O30  1  0.26836036  0.04678324  0.73163964  1
  O  O31  1  0.50637545  0.79990268  0.97172880  1
  O  O32  1  0.02827120  0.79990268  0.49362455  1
  O  O33  1  0.12769861  0.19274022  0.42992402  1
  O  O34  1  0.57007598  0.19274022  0.87230139  1
  O  O35  1  0.34010949  0.90233839  0.65989051  1
  O  O36  1  0.40137611  0.39910600  0.59862389  1
  O  O37  1  0.65263969  0.71628534  0.84189441  1
  O  O38  1  0.15810559  0.71628534  0.34736031  1
  O  O39  1  0.41893540  0.06479923  0.58106460  1
  O  O40  1  0.72672493  0.29142666  0.78326820  1
  O  O41  1  0.21673180  0.29142666  0.27327507  1
  O  O42  1  0.47160219  0.57479269  0.52839781  1
  O  O43  1  0.52839781  0.07479269  0.47160219  1
  O  O44  1  0.27327507  0.79142666  0.21673180  1
  O  O45  1  0.78326820  0.79142666  0.72672493  1
  O  O46  1  0.58106460  0.56479923  0.41893540  1
  O  O47  1  0.34736031  0.21628534  0.15810559  1
  O  O48  1  0.84189441  0.21628534  0.65263969  1
  O  O49  1  0.59862389  0.89910600  0.40137611  1
  O  O50  1  0.65989051  0.40233839  0.34010949  1
  O  O51  1  0.42992402  0.69274022  0.12769861  1
  O  O52  1  0.87230139  0.69274022  0.57007598  1
  O  O53  1  0.49362455  0.29990268  0.02827120  1
  O  O54  1  0.97172880  0.29990268  0.50637545  1
  O  O55  1  0.73163964  0.54678324  0.26836036  1
  O  O56  1  0.78549111  0.12980760  0.21450889  1
  O  O57  1  0.80465778  0.44423786  0.19534222  1
  O  O58  1  0.83232181  0.85717466  0.16767819  1
  O  O59  1  0.90233473  0.42944756  0.09766527  1
  O  O60  1  0.91714874  0.04734062  0.08285126  1
  O  O61  1  0.97401547  0.58149077  0.02598453  1
