# generated using pymatgen
data_Li2Bi2B2O7
_symmetry_space_group_name_H-M   'P 1'
_cell_length_a   10.47995332
_cell_length_b   6.50344983
_cell_length_c   10.57185713
_cell_angle_alpha   90.00000000
_cell_angle_beta   118.95452322
_cell_angle_gamma   90.00000000
_symmetry_Int_Tables_number   1
_chemical_formula_structural   Li2Bi2B2O7
_chemical_formula_sum   'Li8 Bi8 B8 O28'
_cell_volume   630.47022734
_cell_formula_units_Z   4
loop_
 _symmetry_equiv_pos_site_id
 _symmetry_equiv_pos_as_xyz
  1  'x, y, z'
loop_
 _atom_site_type_symbol
 _atom_site_label
 _atom_site_symmetry_multiplicity
 _atom_site_fract_x
 _atom_site_fract_y
 _atom_site_fract_z
 _atom_site_occupancy
  Li  Li0  1  0.40115830  0.71977032  0.97968167  1
  Li  Li1  1  0.50024448  0.09215282  0.72410106  1
  Li  Li2  1  0.49975552  0.59215282  0.77589894  1
  Li  Li3  1  0.40115830  0.78022968  0.47968167  1
  Li  Li4  1  0.59884170  0.21977032  0.52031833  1
  Li  Li5  1  0.50024448  0.40784718  0.22410106  1
  Li  Li6  1  0.49975552  0.90784718  0.27589894  1
  Li  Li7  1  0.59884170  0.28022968  0.02031833  1
  Bi  Bi8  1  0.99832844  0.54488807  0.81559322  1
  Bi  Bi9  1  0.99832844  0.95511193  0.31559322  1
  Bi  Bi10  1  0.19990108  0.42598227  0.59664878  1
  Bi  Bi11  1  0.19990108  0.07401773  0.09664878  1
  Bi  Bi12  1  0.80009892  0.92598227  0.90335122  1
  Bi  Bi13  1  0.80009892  0.57401773  0.40335122  1
  Bi  Bi14  1  0.00167156  0.04488807  0.68440678  1
  Bi  Bi15  1  0.00167156  0.45511193  0.18440678  1
  B  B16  1  0.33926609  0.25263004  0.93255692  1
  B  B17  1  0.23350605  0.84853634  0.65759819  1
  B  B18  1  0.33926609  0.24736996  0.43255692  1
  B  B19  1  0.23350605  0.65146366  0.15759819  1
  B  B20  1  0.76649395  0.34853634  0.84240181  1
  B  B21  1  0.66073391  0.75263004  0.56744308  1
  B  B22  1  0.76649395  0.15146366  0.34240181  1
  B  B23  1  0.66073391  0.74736996  0.06744308  1
  O  O24  1  0.01845728  0.87128032  0.90255846  1
  O  O25  1  0.18861140  0.20404322  0.87666754  1
  O  O26  1  0.18925581  0.75143595  0.74752718  1
  O  O27  1  0.01845728  0.62871968  0.40255846  1
  O  O28  1  0.16550701  0.03674062  0.59635457  1
  O  O29  1  0.39023715  0.35192037  0.85144656  1
  O  O30  1  0.18861140  0.29595678  0.37666754  1
  O  O31  1  0.32932965  0.75649535  0.62166397  1
  O  O32  1  0.18925581  0.74856405  0.24752718  1
  O  O33  1  0.16550701  0.46325938  0.09635457  1
  O  O34  1  0.43061998  0.29997514  0.57483493  1
  O  O35  1  0.56938002  0.79997514  0.92516507  1
  O  O36  1  0.39023715  0.14807963  0.35144656  1
  O  O37  1  0.32932965  0.74350465  0.12166397  1
  O  O38  1  0.67067035  0.25649535  0.87833603  1
  O  O39  1  0.60976285  0.85192037  0.64855344  1
  O  O40  1  0.43061998  0.20002486  0.07483493  1
  O  O41  1  0.56938002  0.70002486  0.42516507  1
  O  O42  1  0.83449299  0.53674062  0.90364543  1
  O  O43  1  0.81074419  0.25143595  0.75247282  1
  O  O44  1  0.67067035  0.24350465  0.37833603  1
  O  O45  1  0.81138860  0.70404322  0.62333246  1
  O  O46  1  0.60976285  0.64807963  0.14855344  1
  O  O47  1  0.83449299  0.96325938  0.40364543  1
  O  O48  1  0.98154272  0.37128032  0.59744154  1
  O  O49  1  0.81074419  0.24856405  0.25247282  1
  O  O50  1  0.81138860  0.79595678  0.12333246  1
  O  O51  1  0.98154272  0.12871968  0.09744154  1
