# generated using pymatgen
data_Li3SiBiCO7
_symmetry_space_group_name_H-M   'P 1'
_cell_length_a   9.07079222
_cell_length_b   7.14501011
_cell_length_c   4.97442217
_cell_angle_alpha   90.00000000
_cell_angle_beta   87.88778704
_cell_angle_gamma   90.00000000
_symmetry_Int_Tables_number   1
_chemical_formula_structural   Li3SiBiCO7
_chemical_formula_sum   'Li6 Si2 Bi2 C2 O14'
_cell_volume   322.17773940
_cell_formula_units_Z   2
loop_
 _symmetry_equiv_pos_site_id
 _symmetry_equiv_pos_as_xyz
  1  'x, y, z'
loop_
 _atom_site_type_symbol
 _atom_site_label
 _atom_site_symmetry_multiplicity
 _atom_site_fract_x
 _atom_site_fract_y
 _atom_site_fract_z
 _atom_site_occupancy
  Li  Li0  1  0.07870496  0.25000000  0.75157714  1
  Li  Li1  1  0.26313352  0.07003122  0.22103646  1
  Li  Li2  1  0.26313352  0.42996878  0.22103646  1
  Li  Li3  1  0.73686648  0.57003122  0.77896354  1
  Li  Li4  1  0.73686648  0.92996878  0.77896354  1
  Li  Li5  1  0.92129504  0.75000000  0.24842286  1
  Si  Si6  1  0.39586104  0.25000000  0.71568127  1
  Si  Si7  1  0.60413896  0.75000000  0.28431873  1
  Bi  Bi8  1  0.35051371  0.75000000  0.76905788  1
  Bi  Bi9  1  0.64948629  0.25000000  0.23094212  1
  C  C10  1  0.03157486  0.75000000  0.71374136  1
  C  C11  1  0.96842514  0.25000000  0.28625864  1
  O  O12  1  0.10959977  0.25000000  0.32961580  1
  O  O13  1  0.07893741  0.75000000  0.95618880  1
  O  O14  1  0.12171203  0.75000000  0.50623966  1
  O  O15  1  0.29928501  0.06975537  0.83180669  1
  O  O16  1  0.29928501  0.43024463  0.83180669  1
  O  O17  1  0.40121017  0.25000000  0.38149624  1
  O  O18  1  0.42729110  0.75000000  0.20662126  1
  O  O19  1  0.57270890  0.25000000  0.79337874  1
  O  O20  1  0.59878983  0.75000000  0.61850376  1
  O  O21  1  0.70071499  0.56975537  0.16819331  1
  O  O22  1  0.70071499  0.93024463  0.16819331  1
  O  O23  1  0.87828797  0.25000000  0.49376034  1
  O  O24  1  0.92106259  0.25000000  0.04381120  1
  O  O25  1  0.89040023  0.75000000  0.67038420  1
