# generated using pymatgen
data_MgSnO3
_symmetry_space_group_name_H-M   'P 1'
_cell_length_a   5.33165300
_cell_length_b   5.45690834
_cell_length_c   7.83945362
_cell_angle_alpha   90.00000000
_cell_angle_beta   90.00000000
_cell_angle_gamma   90.00000000
_symmetry_Int_Tables_number   1
_chemical_formula_structural   MgSnO3
_chemical_formula_sum   'Mg4 Sn4 O12'
_cell_volume   228.08374253
_cell_formula_units_Z   4
loop_
 _symmetry_equiv_pos_site_id
 _symmetry_equiv_pos_as_xyz
  1  'x, y, z'
loop_
 _atom_site_type_symbol
 _atom_site_label
 _atom_site_symmetry_multiplicity
 _atom_site_fract_x
 _atom_site_fract_y
 _atom_site_fract_z
 _atom_site_occupancy
  Mg  Mg0  1  0.99938714  0.95644394  0.75000000  1
  Mg  Mg1  1  0.50061286  0.45644394  0.75000000  1
  Mg  Mg2  1  0.49938714  0.54355606  0.25000000  1
  Mg  Mg3  1  0.00061286  0.04355606  0.25000000  1
  Sn  Sn4  1  0.00000000  0.50000000  0.00000000  1
  Sn  Sn5  1  0.00000000  0.50000000  0.50000000  1
  Sn  Sn6  1  0.50000000  0.00000000  0.50000000  1
  Sn  Sn7  1  0.50000000  0.00000000  0.00000000  1
  O  O8  1  0.13556703  0.41301087  0.25000000  1
  O  O9  1  0.17130812  0.17640416  0.57194124  1
  O  O10  1  0.17130812  0.17640416  0.92805876  1
  O  O11  1  0.32869188  0.67640416  0.57194124  1
  O  O12  1  0.32869188  0.67640416  0.92805876  1
  O  O13  1  0.36443297  0.91301087  0.25000000  1
  O  O14  1  0.63556703  0.08698913  0.75000000  1
  O  O15  1  0.67130812  0.32359584  0.07194124  1
  O  O16  1  0.67130812  0.32359584  0.42805876  1
  O  O17  1  0.82869188  0.82359584  0.07194124  1
  O  O18  1  0.82869188  0.82359584  0.42805876  1
  O  O19  1  0.86443297  0.58698913  0.75000000  1
