# generated using pymatgen
data_Y2TeO6
_symmetry_space_group_name_H-M   'P 1'
_cell_length_a   9.90855236
_cell_length_b   9.90855236
_cell_length_c   5.44070215
_cell_angle_alpha   75.97850155
_cell_angle_beta   104.02149845
_cell_angle_gamma   110.89928372
_symmetry_Int_Tables_number   1
_chemical_formula_structural   Y2TeO6
_chemical_formula_sum   'Y8 Te4 O24'
_cell_volume   476.94162403
_cell_formula_units_Z   4
loop_
 _symmetry_equiv_pos_site_id
 _symmetry_equiv_pos_as_xyz
  1  'x, y, z'
loop_
 _atom_site_type_symbol
 _atom_site_label
 _atom_site_symmetry_multiplicity
 _atom_site_fract_x
 _atom_site_fract_y
 _atom_site_fract_z
 _atom_site_occupancy
  Y  Y0  1  0.21465619  0.56409420  0.61542571  1
  Y  Y1  1  0.43590580  0.78534381  0.11542571  1
  Y  Y2  1  0.60323169  0.60323169  0.75000000  1
  Y  Y3  1  0.12281486  0.12281486  0.75000000  1
  Y  Y4  1  0.39676831  0.39676831  0.25000000  1
  Y  Y5  1  0.87718514  0.87718514  0.25000000  1
  Y  Y6  1  0.56409420  0.21465619  0.88457429  1
  Y  Y7  1  0.78534381  0.43590580  0.38457429  1
  Te  Te8  1  0.00016732  0.69437779  0.93670458  1
  Te  Te9  1  0.30562221  -0.00016732  0.43670458  1
  Te  Te10  1  0.69437779  0.00016732  0.56329542  1
  Te  Te11  1  -0.00016732  0.30562221  0.06329542  1
  O  O12  1  0.04184350  0.88637325  0.99205541  1
  O  O13  1  0.11362675  0.95815650  0.49205541  1
  O  O14  1  0.18390017  0.71291620  0.85979149  1
  O  O15  1  0.44363964  0.97045660  0.74050872  1
  O  O16  1  0.28708380  0.81609983  0.35979149  1
  O  O17  1  0.02954340  0.55636036  0.24050872  1
  O  O18  1  0.68144705  0.88087687  0.89287695  1
  O  O19  1  0.42421704  0.60717349  0.92489367  1
  O  O20  1  0.18499419  0.34459507  0.92771546  1
  O  O21  1  0.11912313  0.31855295  0.39287695  1
  O  O22  1  0.39282651  0.57578296  0.42489367  1
  O  O23  1  0.65540493  0.81500581  0.42771546  1
  O  O24  1  0.34459507  0.18499419  0.57228454  1
  O  O25  1  0.60717349  0.42421704  0.57510633  1
  O  O26  1  0.88087687  0.68144705  0.60712305  1
  O  O27  1  0.81500581  0.65540493  0.07228454  1
  O  O28  1  0.57578296  0.39282651  0.07510633  1
  O  O29  1  0.31855295  0.11912313  0.10712305  1
  O  O30  1  0.97045660  0.44363964  0.75949128  1
  O  O31  1  0.71291620  0.18390017  0.64020851  1
  O  O32  1  0.55636036  0.02954340  0.25949128  1
  O  O33  1  0.81609983  0.28708380  0.14020851  1
  O  O34  1  0.88637325  0.04184350  0.50794459  1
  O  O35  1  0.95815650  0.11362675  0.00794459  1
