# generated using pymatgen
data_LiBiB2O5
_symmetry_space_group_name_H-M   'P 1'
_cell_length_a   5.62412695
_cell_length_b   3.93533141
_cell_length_c   17.67844307
_cell_angle_alpha   90.00000000
_cell_angle_beta   100.30910350
_cell_angle_gamma   90.00000000
_symmetry_Int_Tables_number   1
_chemical_formula_structural   LiBiB2O5
_chemical_formula_sum   'Li4 Bi4 B8 O20'
_cell_volume   384.95702704
_cell_formula_units_Z   4
loop_
 _symmetry_equiv_pos_site_id
 _symmetry_equiv_pos_as_xyz
  1  'x, y, z'
loop_
 _atom_site_type_symbol
 _atom_site_label
 _atom_site_symmetry_multiplicity
 _atom_site_fract_x
 _atom_site_fract_y
 _atom_site_fract_z
 _atom_site_occupancy
  Li  Li0  1  0.10768422  0.25672369  0.71194162  1
  Li  Li1  1  0.39231578  0.75672369  0.78805838  1
  Li  Li2  1  0.60768422  0.24327631  0.21194162  1
  Li  Li3  1  0.89231578  0.74327631  0.28805838  1
  Bi  Bi4  1  0.16441851  0.35399386  0.91621796  1
  Bi  Bi5  1  0.33558149  0.85399386  0.58378204  1
  Bi  Bi6  1  0.66441851  0.14600614  0.41621796  1
  Bi  Bi7  1  0.83558149  0.64600614  0.08378204  1
  B  B8  1  0.19447880  0.45662810  0.40734574  1
  B  B9  1  0.13815665  0.27592033  0.21442467  1
  B  B10  1  0.36184335  0.77592033  0.28557533  1
  B  B11  1  0.30552120  0.95662810  0.09265426  1
  B  B12  1  0.69447880  0.04337190  0.90734574  1
  B  B13  1  0.63815665  0.22407967  0.71442467  1
  B  B14  1  0.86184335  0.72407967  0.78557533  1
  B  B15  1  0.80552120  0.54337190  0.59265426  1
  O  O16  1  0.04445645  0.45469974  0.60934736  1
  O  O17  1  0.09556481  0.55085071  0.79700456  1
  O  O18  1  0.15885349  0.01680811  0.27425414  1
  O  O19  1  0.12856729  0.09653091  0.13270134  1
  O  O20  1  0.29717849  0.23684584  0.46453891  1
  O  O21  1  0.40443519  0.05085071  0.70299544  1
  O  O22  1  0.45554355  0.95469974  0.89065264  1
  O  O23  1  0.20282151  0.73684584  0.03546109  1
  O  O24  1  0.37143271  0.59653091  0.36729866  1
  O  O25  1  0.34114651  0.51680811  0.22574586  1
  O  O26  1  0.65885349  0.48319189  0.77425414  1
  O  O27  1  0.62856729  0.40346909  0.63270134  1
  O  O28  1  0.79717849  0.26315416  0.96453891  1
  O  O29  1  0.54445645  0.04530026  0.10934736  1
  O  O30  1  0.59556481  0.94914929  0.29700456  1
  O  O31  1  0.70282151  0.76315416  0.53546109  1
  O  O32  1  0.87143271  0.90346909  0.86729866  1
  O  O33  1  0.84114651  0.98319189  0.72574586  1
  O  O34  1  0.90443519  0.44914929  0.20299544  1
  O  O35  1  0.95554355  0.54530026  0.39065264  1
