# generated using pymatgen
data_Y2Bi2O7
_symmetry_space_group_name_H-M   'P 1'
_cell_length_a   7.73363701
_cell_length_b   7.73373538
_cell_length_c   7.73375012
_cell_angle_alpha   60.00542959
_cell_angle_beta   60.00493959
_cell_angle_gamma   60.00493440
_symmetry_Int_Tables_number   1
_chemical_formula_structural   Y2Bi2O7
_chemical_formula_sum   'Y4 Bi4 O14'
_cell_volume   327.11349001
_cell_formula_units_Z   2
loop_
 _symmetry_equiv_pos_site_id
 _symmetry_equiv_pos_as_xyz
  1  'x, y, z'
loop_
 _atom_site_type_symbol
 _atom_site_label
 _atom_site_symmetry_multiplicity
 _atom_site_fract_x
 _atom_site_fract_y
 _atom_site_fract_z
 _atom_site_occupancy
  Y  Y0  1  0.50000040  -0.00000026  0.50000101  1
  Y  Y1  1  0.49999983  0.50000119  0.00000071  1
  Y  Y2  1  0.99999963  0.50000201  0.49999985  1
  Y  Y3  1  0.50000073  0.49999982  0.49999971  1
  Bi  Bi4  1  0.00000086  0.99999955  0.00000026  1
  Bi  Bi5  1  0.50000063  0.99999916  0.00000054  1
  Bi  Bi6  1  -0.00000035  0.00000012  0.49999990  1
  Bi  Bi7  1  0.00000033  0.49999911  0.00000073  1
  O  O8  1  0.64702988  0.10291866  0.10292165  1
  O  O9  1  0.89712049  0.35286316  0.35286318  1
  O  O10  1  0.10290738  0.10291386  0.64703049  1
  O  O11  1  0.64713900  0.64711833  0.10289029  1
  O  O12  1  0.37500558  0.37500863  0.37500832  1
  O  O13  1  0.64713615  0.10289044  0.64711727  1
  O  O14  1  0.10290908  0.64702995  0.10291229  1
  O  O15  1  0.35286355  0.89711125  0.35288131  1
  O  O16  1  0.89709105  0.89708736  0.35296950  1
  O  O17  1  0.35286162  0.35288221  0.89711035  1
  O  O18  1  0.62499684  0.62499242  0.62498916  1
  O  O19  1  0.89709144  0.35296812  0.89708970  1
  O  O20  1  0.10287887  0.64713436  0.64713552  1
  O  O21  1  0.35296702  0.89708055  0.89707827  1
