# generated using pymatgen
data_CaMg6Zr
_symmetry_space_group_name_H-M   'P 1'
_cell_length_a   6.54012187
_cell_length_b   6.54012129
_cell_length_c   5.21724312
_cell_angle_alpha   90.00000000
_cell_angle_beta   90.00000000
_cell_angle_gamma   118.54254728
_symmetry_Int_Tables_number   1
_chemical_formula_structural   CaMg6Zr
_chemical_formula_sum   'Ca1 Mg6 Zr1'
_cell_volume   196.03605920
_cell_formula_units_Z   1
loop_
 _symmetry_equiv_pos_site_id
 _symmetry_equiv_pos_as_xyz
  1  'x, y, z'
loop_
 _atom_site_type_symbol
 _atom_site_label
 _atom_site_symmetry_multiplicity
 _atom_site_fract_x
 _atom_site_fract_y
 _atom_site_fract_z
 _atom_site_occupancy
  Ca  Ca0  1  0.15902585  0.34097415  0.25000000  1
  Mg  Mg1  1  0.17291970  0.85207273  0.25000000  1
  Mg  Mg2  1  0.64792727  0.32708030  0.25000000  1
  Mg  Mg3  1  0.66251670  0.83748330  0.25000000  1
  Mg  Mg4  1  0.34171289  0.67019296  0.75000000  1
  Mg  Mg5  1  0.82980704  0.15828711  0.75000000  1
  Mg  Mg6  1  0.84054255  0.65945745  0.75000000  1
  Zr  Zr7  1  0.34554802  0.15445198  0.75000000  1
