# generated using pymatgen
data_Co(RhO3)2
_symmetry_space_group_name_H-M   'P 1'
_cell_length_a   5.17818767
_cell_length_b   10.64786183
_cell_length_c   5.17748413
_cell_angle_alpha   85.58319464
_cell_angle_beta   119.86371751
_cell_angle_gamma   99.53475720
_symmetry_Int_Tables_number   1
_chemical_formula_structural   Co(RhO3)2
_chemical_formula_sum   'Co1 Rh2 O6'
_cell_volume   244.13722854
_cell_formula_units_Z   1
loop_
 _symmetry_equiv_pos_site_id
 _symmetry_equiv_pos_as_xyz
  1  'x, y, z'
loop_
 _atom_site_type_symbol
 _atom_site_label
 _atom_site_symmetry_multiplicity
 _atom_site_fract_x
 _atom_site_fract_y
 _atom_site_fract_z
 _atom_site_occupancy
  Co  Co0  1  0.00000000  0.00000000  0.00000000  1
  Rh  Rh1  1  0.66604149  0.00000241  0.33390095  1
  Rh  Rh2  1  0.33395851  -0.00000241  0.66609905  1
  O  O3  1  0.96859334  0.90909939  0.67950391  1
  O  O4  1  0.28641035  0.90835225  0.31697105  1
  O  O5  1  0.64923033  0.90905944  0.99890125  1
  O  O6  1  0.03140666  0.09090061  0.32049609  1
  O  O7  1  0.35076967  0.09094056  0.00109875  1
  O  O8  1  0.71358965  0.09164775  0.68302895  1
