# generated using pymatgen
data_LuWO4
_symmetry_space_group_name_H-M   'P 1'
_cell_length_a   5.17957290
_cell_length_b   6.53928908
_cell_length_c   5.17957290
_cell_angle_alpha   66.66946860
_cell_angle_beta   90.00000000
_cell_angle_gamma   113.33053140
_symmetry_Int_Tables_number   1
_chemical_formula_structural   LuWO4
_chemical_formula_sum   'Lu2 W2 O8'
_cell_volume   145.33809997
_cell_formula_units_Z   2
loop_
 _symmetry_equiv_pos_site_id
 _symmetry_equiv_pos_as_xyz
  1  'x, y, z'
loop_
 _atom_site_type_symbol
 _atom_site_label
 _atom_site_symmetry_multiplicity
 _atom_site_fract_x
 _atom_site_fract_y
 _atom_site_fract_z
 _atom_site_occupancy
  Lu  Lu0  1  0.87500000  0.25000000  0.37500000  1
  Lu  Lu1  1  0.12500000  0.75000000  0.62500000  1
  W  W2  1  0.62500000  0.75000000  0.12500000  1
  W  W3  1  0.37500000  0.25000000  0.87500000  1
  O  O4  1  0.48060731  0.07180055  0.21855398  1
  O  O5  1  0.79035553  0.57180055  0.01939269  1
  O  O6  1  0.28144602  0.57180055  0.40880676  1
  O  O7  1  0.90880676  0.92819945  0.29035553  1
  O  O8  1  0.09119324  0.07180055  0.70964447  1
  O  O9  1  0.71855398  0.42819945  0.59119324  1
  O  O10  1  0.20964447  0.42819945  0.98060731  1
  O  O11  1  0.51939269  0.92819945  0.78144602  1
