# generated using pymatgen
data_Sr3W2O9
_symmetry_space_group_name_H-M   'P 1'
_cell_length_a   7.34782097
_cell_length_b   7.34782097
_cell_length_c   7.34782077
_cell_angle_alpha   84.88825830
_cell_angle_beta   84.88825830
_cell_angle_gamma   84.88825237
_symmetry_Int_Tables_number   1
_chemical_formula_structural   Sr3W2O9
_chemical_formula_sum   'Sr6 W4 O18'
_cell_volume   392.24377991
_cell_formula_units_Z   2
loop_
 _symmetry_equiv_pos_site_id
 _symmetry_equiv_pos_as_xyz
  1  'x, y, z'
loop_
 _atom_site_type_symbol
 _atom_site_label
 _atom_site_symmetry_multiplicity
 _atom_site_fract_x
 _atom_site_fract_y
 _atom_site_fract_z
 _atom_site_occupancy
  Sr  Sr0  1  0.25000000  0.92337205  0.57662795  1
  Sr  Sr1  1  0.07662795  0.42337205  0.75000000  1
  Sr  Sr2  1  0.42337205  0.75000000  0.07662795  1
  Sr  Sr3  1  0.57662795  0.25000000  0.92337205  1
  Sr  Sr4  1  0.92337205  0.57662795  0.25000000  1
  Sr  Sr5  1  0.75000000  0.07662795  0.42337205  1
  W  W6  1  0.85654045  0.85654045  0.85654045  1
  W  W7  1  0.35654045  0.35654045  0.35654045  1
  W  W8  1  0.14345955  0.14345955  0.14345955  1
  W  W9  1  0.64345955  0.64345955  0.64345955  1
  O  O10  1  0.08415913  0.91958391  0.25720644  1
  O  O11  1  0.08041609  0.74279356  0.91584087  1
  O  O12  1  0.59872933  0.90127067  0.75000000  1
  O  O13  1  0.24279356  0.58041609  0.41584087  1
  O  O14  1  0.09872933  0.25000000  0.40127067  1
  O  O15  1  0.25000000  0.40127067  0.09872933  1
  O  O16  1  0.41958391  0.58415913  0.75720644  1
  O  O17  1  0.58415913  0.75720644  0.41958391  1
  O  O18  1  0.74279356  0.91584087  0.08041609  1
  O  O19  1  0.25720644  0.08415913  0.91958391  1
  O  O20  1  0.41584087  0.24279356  0.58041609  1
  O  O21  1  0.90127067  0.75000000  0.59872933  1
  O  O22  1  0.58041609  0.41584087  0.24279356  1
  O  O23  1  0.75000000  0.59872933  0.90127067  1
  O  O24  1  0.75720644  0.41958391  0.58415913  1
  O  O25  1  0.40127067  0.09872933  0.25000000  1
  O  O26  1  0.91958391  0.25720644  0.08415913  1
  O  O27  1  0.91584087  0.08041609  0.74279356  1
