# generated using pymatgen
data_Li4Cr3Ni2Sb3O16
_symmetry_space_group_name_H-M   'P 1'
_cell_length_a   6.08258066
_cell_length_b   6.10587453
_cell_length_c   9.79254720
_cell_angle_alpha   89.99950812
_cell_angle_beta   89.38438926
_cell_angle_gamma   120.12627536
_symmetry_Int_Tables_number   1
_chemical_formula_structural   Li4Cr3Ni2Sb3O16
_chemical_formula_sum   'Li4 Cr3 Ni2 Sb3 O16'
_cell_volume   314.53899961
_cell_formula_units_Z   1
loop_
 _symmetry_equiv_pos_site_id
 _symmetry_equiv_pos_as_xyz
  1  'x, y, z'
loop_
 _atom_site_type_symbol
 _atom_site_label
 _atom_site_symmetry_multiplicity
 _atom_site_fract_x
 _atom_site_fract_y
 _atom_site_fract_z
 _atom_site_occupancy
  Li  Li0  1  0.34105376  0.67054047  0.90164435  1
  Li  Li1  1  0.02155756  0.01078237  0.00659071  1
  Li  Li2  1  0.02628396  0.01315161  0.49046107  1
  Li  Li3  1  0.67077165  0.33539818  0.37048969  1
  Cr  Cr4  1  0.16673381  0.82985573  0.21502406  1
  Cr  Cr5  1  0.16673323  0.33689590  0.21502478  1
  Cr  Cr6  1  0.33636866  0.16818838  0.71654998  1
  Ni  Ni7  1  0.31055591  0.65530904  0.47317468  1
  Ni  Ni8  1  0.65529955  0.32760435  0.01087041  1
  Sb  Sb9  1  0.65851701  0.82925796  0.21467942  1
  Sb  Sb10  1  0.83009999  0.66205276  0.71578525  1
  Sb  Sb11  1  0.83010886  0.16808617  0.71577868  1
  O  O12  1  0.15057164  0.83858407  0.60622668  1
  O  O13  1  0.03193482  0.51598023  0.33228980  1
  O  O14  1  0.33547220  0.66775092  0.10467956  1
  O  O15  1  0.99436065  0.99719552  0.31172007  1
  O  O16  1  0.99858363  0.99930683  0.82033429  1
  O  O17  1  0.15056119  0.31201412  0.60621329  1
  O  O18  1  0.48283829  0.96343668  0.33655519  1
  O  O19  1  0.48282472  0.51941378  0.33655583  1
  O  O20  1  0.31980554  0.15991590  0.10582188  1
  O  O21  1  0.68923319  0.84464247  0.60318056  1
  O  O22  1  0.51937896  0.48652802  0.83008843  1
  O  O23  1  0.51939035  0.03289821  0.83010172  1
  O  O24  1  0.66720954  0.33362895  0.60285371  1
  O  O25  1  0.83613202  0.68354280  0.10127135  1
  O  O26  1  0.97149110  0.48575186  0.83260549  1
  O  O27  1  0.83612821  0.15258372  0.10126807  1
