# generated using pymatgen
data_Li4NbV3O8
_symmetry_space_group_name_H-M   'P 1'
_cell_length_a   10.49269059
_cell_length_b   10.56394715
_cell_length_c   14.90117210
_cell_angle_alpha   19.47852744
_cell_angle_beta   19.30475877
_cell_angle_gamma   33.32994186
_symmetry_Int_Tables_number   1
_chemical_formula_structural   Li4NbV3O8
_chemical_formula_sum   'Li4 Nb1 V3 O8'
_cell_volume   158.51708649
_cell_formula_units_Z   1
loop_
 _symmetry_equiv_pos_site_id
 _symmetry_equiv_pos_as_xyz
  1  'x, y, z'
loop_
 _atom_site_type_symbol
 _atom_site_label
 _atom_site_symmetry_multiplicity
 _atom_site_fract_x
 _atom_site_fract_y
 _atom_site_fract_z
 _atom_site_occupancy
  Li  Li0  1  0.99998934  0.99998640  0.50001357  1
  Li  Li1  1  0.00002923  0.50000312  0.49997297  1
  Li  Li2  1  0.49997994  0.99999417  0.50002607  1
  Li  Li3  1  0.50002151  0.49999836  0.49998466  1
  Nb  Nb4  1  0.99989075  0.00000579  0.00006937  1
  V  V5  1  0.00001674  0.49999473  -0.00000737  1
  V  V6  1  0.49999898  -0.00000998  0.00001121  1
  V  V7  1  0.50004904  0.49999139  -0.00002475  1
  O  O8  1  0.01771632  0.00048356  0.24431184  1
  O  O9  1  0.98845227  0.51471805  0.25277022  1
  O  O10  1  0.51245025  0.00082631  0.24472425  1
  O  O11  1  0.98232302  -0.00047957  0.75565440  1
  O  O12  1  0.47582909  0.49093958  0.27723080  1
  O  O13  1  0.01159897  0.48534591  0.74716913  1
  O  O14  1  0.48749645  -0.00084049  0.75529020  1
  O  O15  1  0.52415608  0.50904267  0.72280242  1
