# generated using pymatgen
data_Li3V2S2(O4F3)2
_symmetry_space_group_name_H-M   'P 1'
_cell_length_a   7.15435956
_cell_length_b   10.36942682
_cell_length_c   7.82977622
_cell_angle_alpha   88.37779297
_cell_angle_beta   89.45257973
_cell_angle_gamma   90.72405944
_symmetry_Int_Tables_number   1
_chemical_formula_structural   Li3V2S2(O4F3)2
_chemical_formula_sum   'Li6 V4 S4 O16 F12'
_cell_volume   580.55682718
_cell_formula_units_Z   2
loop_
 _symmetry_equiv_pos_site_id
 _symmetry_equiv_pos_as_xyz
  1  'x, y, z'
loop_
 _atom_site_type_symbol
 _atom_site_label
 _atom_site_symmetry_multiplicity
 _atom_site_fract_x
 _atom_site_fract_y
 _atom_site_fract_z
 _atom_site_occupancy
  Li  Li0  1  0.27961369  0.29039414  0.88451043  1
  Li  Li1  1  0.25013458  0.78349747  0.39317976  1
  Li  Li2  1  0.70557103  0.22711638  0.57987673  1
  Li  Li3  1  0.71203825  0.25069982  0.08233376  1
  Li  Li4  1  0.78278444  0.74837322  0.57412292  1
  Li  Li5  1  0.77597785  0.73211305  0.07884912  1
  V  V6  1  0.99822911  0.49383839  0.50770187  1
  V  V7  1  0.99963716  0.99837330  0.99900579  1
  V  V8  1  0.49947082  0.49747861  0.49962370  1
  V  V9  1  0.49967415  0.99367277  0.00775327  1
  S  S10  1  0.27604309  0.01097115  0.66895038  1
  S  S11  1  0.23351665  0.50925042  0.16879654  1
  S  S12  1  0.74189492  0.50146306  0.84304737  1
  S  S13  1  0.75072700  0.00065379  0.34274927  1
  O  O14  1  0.11490068  0.05978356  0.78566843  1
  O  O15  1  0.09371369  0.43816958  0.28490402  1
  O  O16  1  0.19558364  0.92226481  0.54798533  1
  O  O17  1  0.15000886  0.62038078  0.08594047  1
  O  O18  1  0.36971723  0.12455055  0.59700406  1
  O  O19  1  0.31986805  0.41593519  0.05788787  1
  O  O20  1  0.40571972  0.93626211  0.78668519  1
  O  O21  1  0.38843056  0.56243336  0.28942244  1
  O  O22  1  0.59546906  0.43871379  0.72625982  1
  O  O23  1  0.61025239  0.06696863  0.22589968  1
  O  O24  1  0.65640480  0.60166034  0.94325507  1
  O  O25  1  0.66604292  0.89418754  0.44299398  1
  O  O26  1  0.82181017  0.39638332  0.94456748  1
  O  O27  1  0.83695156  0.09989282  0.44489312  1
  O  O28  1  0.88539024  0.56760031  0.72492722  1
  O  O29  1  0.89663776  0.93896445  0.22504771  1
  F  F30  1  0.97051863  0.83063561  0.93605530  1
  F  F31  1  0.03406731  0.68010808  0.45469186  1
  F  F32  1  0.25859283  0.47334319  0.60746997  1
  F  F33  1  0.23687030  0.98069688  0.10750875  1
  F  F34  1  0.47903279  0.18006385  0.95236610  1
  F  F35  1  0.53241166  0.33252918  0.42883604  1
  F  F36  1  0.52095560  0.66660130  0.56949487  1
  F  F37  1  0.54994566  0.82617601  0.09550760  1
  F  F38  1  0.75559841  0.01760327  0.89628603  1
  F  F39  1  0.74632573  0.52542812  0.39669826  1
  F  F40  1  0.93596378  0.32638913  0.59306413  1
  F  F41  1  0.97355521  0.16670765  0.06595628  1
