# generated using pymatgen
data_ScCrO4
_symmetry_space_group_name_H-M   'P 1'
_cell_length_a   5.14060416
_cell_length_b   5.14060416
_cell_length_c   6.65246795
_cell_angle_alpha   90.00000000
_cell_angle_beta   90.00000000
_cell_angle_gamma   67.25962908
_symmetry_Int_Tables_number   1
_chemical_formula_structural   ScCrO4
_chemical_formula_sum   'Sc2 Cr2 O8'
_cell_volume   162.13145961
_cell_formula_units_Z   2
loop_
 _symmetry_equiv_pos_site_id
 _symmetry_equiv_pos_as_xyz
  1  'x, y, z'
loop_
 _atom_site_type_symbol
 _atom_site_label
 _atom_site_symmetry_multiplicity
 _atom_site_fract_x
 _atom_site_fract_y
 _atom_site_fract_z
 _atom_site_occupancy
  Sc  Sc0  1  0.00000000  0.00000000  0.00000000  1
  Sc  Sc1  1  0.00000000  0.00000000  0.50000000  1
  Cr  Cr2  1  0.35898808  0.35898808  0.25000000  1
  Cr  Cr3  1  0.64101192  0.64101192  0.75000000  1
  O  O4  1  0.26668321  0.78630473  0.75000000  1
  O  O5  1  0.21369427  0.73331679  0.25000000  1
  O  O6  1  0.23962202  0.23962202  0.04891120  1
  O  O7  1  0.23962202  0.23962202  0.45108880  1
  O  O8  1  0.76037798  0.76037798  0.54891120  1
  O  O9  1  0.76037798  0.76037798  0.95108880  1
  O  O10  1  0.73331679  0.21369427  0.25000000  1
  O  O11  1  0.78630473  0.26668321  0.75000000  1
