# generated using pymatgen
data_ZrCrO4
_symmetry_space_group_name_H-M   'P 1'
_cell_length_a   4.75513780
_cell_length_b   11.84144835
_cell_length_c   4.93525248
_cell_angle_alpha   90.00156016
_cell_angle_beta   90.00622190
_cell_angle_gamma   89.99622187
_symmetry_Int_Tables_number   1
_chemical_formula_structural   ZrCrO4
_chemical_formula_sum   'Zr4 Cr4 O16'
_cell_volume   277.89280558
_cell_formula_units_Z   4
loop_
 _symmetry_equiv_pos_site_id
 _symmetry_equiv_pos_as_xyz
  1  'x, y, z'
loop_
 _atom_site_type_symbol
 _atom_site_label
 _atom_site_symmetry_multiplicity
 _atom_site_fract_x
 _atom_site_fract_y
 _atom_site_fract_z
 _atom_site_occupancy
  Zr  Zr0  1  0.99995968  0.17144924  0.25001533  1
  Zr  Zr1  1  0.99999434  0.82854614  0.74996128  1
  Zr  Zr2  1  0.49999817  0.67152013  0.25003542  1
  Zr  Zr3  1  0.50002602  0.32847510  0.75003600  1
  Cr  Cr4  1  0.00003328  0.43368666  0.25004770  1
  Cr  Cr5  1  0.00003057  0.56631148  0.75003066  1
  Cr  Cr6  1  0.49998462  0.06628301  0.75002712  1
  Cr  Cr7  1  0.49999598  0.93372011  0.24996403  1
  O  O8  1  0.22123984  0.31584536  0.41034906  1
  O  O9  1  0.22126481  0.68416512  0.91036510  1
  O  O10  1  0.27603528  0.05477225  0.43178982  1
  O  O11  1  0.27600374  0.94522327  0.93184971  1
  O  O12  1  0.22396831  0.44518861  0.93192591  1
  O  O13  1  0.22392083  0.55481228  0.43190621  1
  O  O14  1  0.27878172  0.18412682  0.91031971  1
  O  O15  1  0.27876065  0.81585544  0.41036007  1
  O  O16  1  0.72123917  0.18414415  0.58963403  1
  O  O17  1  0.72121268  0.81587114  0.08966526  1
  O  O18  1  0.77604169  0.44520596  0.56805389  1
  O  O19  1  0.77610699  0.55480282  0.06808915  1
  O  O20  1  0.72396969  0.05477028  0.06816628  1
  O  O21  1  0.72397984  0.94522396  0.56818091  1
  O  O22  1  0.77873351  0.68417821  0.58962252  1
  O  O23  1  0.77871859  0.31582248  0.08960483  1
