# generated using pymatgen
data_Y4Ga2O9
_symmetry_space_group_name_H-M   'P 1'
_cell_length_a   11.53046504
_cell_length_b   6.09364387
_cell_length_c   11.10219685
_cell_angle_alpha   90.00000000
_cell_angle_beta   90.00000000
_cell_angle_gamma   90.00000000
_symmetry_Int_Tables_number   1
_chemical_formula_structural   Y4Ga2O9
_chemical_formula_sum   'Y16 Ga8 O36'
_cell_volume   780.06863474
_cell_formula_units_Z   4
loop_
 _symmetry_equiv_pos_site_id
 _symmetry_equiv_pos_as_xyz
  1  'x, y, z'
loop_
 _atom_site_type_symbol
 _atom_site_label
 _atom_site_symmetry_multiplicity
 _atom_site_fract_x
 _atom_site_fract_y
 _atom_site_fract_z
 _atom_site_occupancy
  Y  Y0  1  0.00249223  0.74888818  0.08460162  1
  Y  Y1  1  0.00249223  0.25111182  0.58460162  1
  Y  Y2  1  0.14212275  0.27454227  0.28982273  1
  Y  Y3  1  0.14212275  0.72545773  0.78982273  1
  Y  Y4  1  0.35787725  0.77454227  0.28982273  1
  Y  Y5  1  0.35787725  0.22545773  0.78982273  1
  Y  Y6  1  0.49750777  0.24888818  0.08460162  1
  Y  Y7  1  0.49750777  0.75111182  0.58460162  1
  Y  Y8  1  0.50249223  0.24888818  0.41539838  1
  Y  Y9  1  0.50249223  0.75111182  0.91539838  1
  Y  Y10  1  0.64212275  0.77454227  0.21017727  1
  Y  Y11  1  0.64212275  0.22545773  0.71017727  1
  Y  Y12  1  0.85787725  0.27454227  0.21017727  1
  Y  Y13  1  0.85787725  0.72545773  0.71017727  1
  Y  Y14  1  0.99750777  0.25111182  0.91539838  1
  Y  Y15  1  0.99750777  0.74888818  0.41539838  1
  Ga  Ga16  1  0.22518251  0.05972713  0.03735874  1
  Ga  Ga17  1  0.22518251  0.94027287  0.53735874  1
  Ga  Ga18  1  0.27481749  0.44027287  0.53735874  1
  Ga  Ga19  1  0.27481749  0.55972713  0.03735874  1
  Ga  Ga20  1  0.72518251  0.44027287  0.96264126  1
  Ga  Ga21  1  0.72518251  0.55972713  0.46264126  1
  Ga  Ga22  1  0.77481749  0.94027287  0.96264126  1
  Ga  Ga23  1  0.77481749  0.05972713  0.46264126  1
  O  O24  1  0.00000000  0.53338091  0.25000000  1
  O  O25  1  0.00000000  0.46661909  0.75000000  1
  O  O26  1  0.05680776  0.11678107  0.10917818  1
  O  O27  1  0.05680776  0.88321893  0.60917818  1
  O  O28  1  0.11799030  0.45603363  0.46699817  1
  O  O29  1  0.11799030  0.54396637  0.96699817  1
  O  O30  1  0.17396772  0.06463753  0.87332509  1
  O  O31  1  0.17396772  0.93536247  0.37332509  1
  O  O32  1  0.22192840  0.20089749  0.63325935  1
  O  O33  1  0.22192840  0.79910251  0.13325935  1
  O  O34  1  0.27807160  0.70089749  0.63325935  1
  O  O35  1  0.27807160  0.29910251  0.13325935  1
  O  O36  1  0.32603228  0.43536247  0.37332509  1
  O  O37  1  0.32603228  0.56463753  0.87332509  1
  O  O38  1  0.38200970  0.95603363  0.46699817  1
  O  O39  1  0.38200970  0.04396637  0.96699817  1
  O  O40  1  0.44319224  0.38321893  0.60917818  1
  O  O41  1  0.44319224  0.61678107  0.10917818  1
  O  O42  1  0.50000000  0.03338091  0.25000000  1
  O  O43  1  0.50000000  0.96661909  0.75000000  1
  O  O44  1  0.55680776  0.38321893  0.89082182  1
  O  O45  1  0.55680776  0.61678107  0.39082182  1
  O  O46  1  0.61799030  0.04396637  0.53300183  1
  O  O47  1  0.61799030  0.95603363  0.03300183  1
  O  O48  1  0.67396772  0.43536247  0.12667491  1
  O  O49  1  0.67396772  0.56463753  0.62667491  1
  O  O50  1  0.72192840  0.29910251  0.36674065  1
  O  O51  1  0.72192840  0.70089749  0.86674065  1
  O  O52  1  0.77807160  0.20089749  0.86674065  1
  O  O53  1  0.77807160  0.79910251  0.36674065  1
  O  O54  1  0.82603228  0.06463753  0.62667491  1
  O  O55  1  0.82603228  0.93536247  0.12667491  1
  O  O56  1  0.88200970  0.45603363  0.03300183  1
  O  O57  1  0.88200970  0.54396637  0.53300183  1
  O  O58  1  0.94319224  0.88321893  0.89082182  1
  O  O59  1  0.94319224  0.11678107  0.39082182  1
