# generated using pymatgen
data_Li4Ti4Mn4NiO18
_symmetry_space_group_name_H-M   'P 1'
_cell_length_a   9.12608462
_cell_length_b   25.30168444
_cell_length_c   2.93693620
_cell_angle_alpha   89.99996702
_cell_angle_beta   89.99998286
_cell_angle_gamma   89.97180460
_symmetry_Int_Tables_number   1
_chemical_formula_structural   Li4Ti4Mn4NiO18
_chemical_formula_sum   'Li8 Ti8 Mn8 Ni2 O36'
_cell_volume   678.15409069
_cell_formula_units_Z   2
loop_
 _symmetry_equiv_pos_site_id
 _symmetry_equiv_pos_as_xyz
  1  'x, y, z'
loop_
 _atom_site_type_symbol
 _atom_site_label
 _atom_site_symmetry_multiplicity
 _atom_site_fract_x
 _atom_site_fract_y
 _atom_site_fract_z
 _atom_site_occupancy
  Li  Li0  1  0.20275422  0.00077502  0.99999880  1
  Li  Li1  1  0.20676434  0.19744486  0.00000005  1
  Li  Li2  1  0.29324152  0.69742318  0.00000001  1
  Li  Li3  1  0.29741062  0.50073973  0.00000035  1
  Li  Li4  1  0.70258745  0.49926203  0.99999937  1
  Li  Li5  1  0.70675045  0.30257999  0.00000019  1
  Li  Li6  1  0.79324690  0.80255188  0.00000014  1
  Li  Li7  1  0.79723679  0.99922542  0.00000097  1
  Ti  Ti8  1  0.00946982  0.10427854  0.00000210  1
  Ti  Ti9  1  0.14153851  0.80484269  0.49999866  1
  Ti  Ti10  1  0.35845899  0.30481705  0.50000135  1
  Ti  Ti11  1  0.49054300  0.60431554  0.99999967  1
  Ti  Ti12  1  0.50944882  0.39568816  0.99999943  1
  Ti  Ti13  1  0.64154105  0.69518506  0.50000127  1
  Ti  Ti14  1  0.85847465  0.19515905  0.50000031  1
  Ti  Ti15  1  0.99052751  0.89572046  0.99999800  1
  Mn  Mn16  1  0.01986762  0.31564699  -0.00000042  1
  Mn  Mn17  1  0.13755139  0.58614149  0.49999977  1
  Mn  Mn18  1  0.36246361  0.08611836  0.49999631  1
  Mn  Mn19  1  0.48022367  0.81564219  -0.00000161  1
  Mn  Mn20  1  0.51980066  0.18435268  0.00000165  1
  Mn  Mn21  1  0.63752829  0.91387664  0.49999943  1
  Mn  Mn22  1  0.86245119  0.41385724  0.50000359  1
  Mn  Mn23  1  0.98014468  0.68435681  0.00000313  1
  Ni  Ni24  1  0.99999592  0.50000044  -0.00000184  1
  Ni  Ni25  1  0.49999755  0.99999706  0.00000018  1
  O  O26  1  0.99829856  0.41700901  -0.00000011  1
  O  O27  1  0.00170592  0.58299073  0.00000004  1
  O  O28  1  0.03237984  0.94012043  0.49999988  1
  O  O29  1  0.05599176  0.16284132  0.50000370  1
  O  O30  1  0.11180872  0.66303144  0.50000267  1
  O  O31  1  0.11132378  0.75667799  -0.00000023  1
  O  O32  1  0.15729802  0.51173213  0.50000053  1
  O  O33  1  0.14399373  0.29114826  0.49999960  1
  O  O34  1  0.17469423  0.85728257  0.99999844  1
  O  O35  1  0.22033534  0.08977799  0.00000101  1
  O  O36  1  0.27967989  0.58976193  0.99999877  1
  O  O37  1  0.32532502  0.35729216  -0.00000063  1
  O  O38  1  0.35603489  0.79116301  0.49999883  1
  O  O39  1  0.34269455  0.01175306  0.49999816  1
  O  O40  1  0.38867187  0.25668700  0.00000192  1
  O  O41  1  0.38826214  0.16303664  0.49999760  1
  O  O42  1  0.44396342  0.66285583  0.50000322  1
  O  O43  1  0.46748162  0.44013310  0.50000044  1
  O  O44  1  0.49828128  0.08294513  0.00000141  1
  O  O45  1  0.50171048  0.91704925  0.99999776  1
  O  O46  1  0.53251013  0.55987273  0.49999963  1
  O  O47  1  0.55603160  0.33714926  0.49999852  1
  O  O48  1  0.61175039  0.83695822  0.49999965  1
  O  O49  1  0.61132590  0.74331527  0.00000174  1
  O  O50  1  0.65728613  0.98823736  0.49999775  1
  O  O51  1  0.64397701  0.20884575  0.50000176  1
  O  O52  1  0.67466845  0.64271213  0.00000157  1
  O  O53  1  0.72032000  0.41024014  -0.00000003  1
  O  O54  1  0.77965811  0.91021506  0.99999527  1
  O  O55  1  0.82530531  0.14271697  0.00000325  1
  O  O56  1  0.85600750  0.70885475  0.49999975  1
  O  O57  1  0.84270306  0.48826760  0.50000059  1
  O  O58  1  0.88867895  0.24332247  0.99999918  1
  O  O59  1  0.88819636  0.33696765  0.49999793  1
  O  O60  1  0.94401002  0.83715795  0.49999863  1
  O  O61  1  0.96761677  0.05987915  0.50000093  1
