# generated using pymatgen
data_Li4Nb3Fe5O16
_symmetry_space_group_name_H-M   'P 1'
_cell_length_a   6.12379928
_cell_length_b   6.10472263
_cell_length_c   9.84656574
_cell_angle_alpha   90.04353938
_cell_angle_beta   89.55742844
_cell_angle_gamma   119.89704489
_symmetry_Int_Tables_number   1
_chemical_formula_structural   Li4Nb3Fe5O16
_chemical_formula_sum   'Li4 Nb3 Fe5 O16'
_cell_volume   319.10690896
_cell_formula_units_Z   1
loop_
 _symmetry_equiv_pos_site_id
 _symmetry_equiv_pos_as_xyz
  1  'x, y, z'
loop_
 _atom_site_type_symbol
 _atom_site_label
 _atom_site_symmetry_multiplicity
 _atom_site_fract_x
 _atom_site_fract_y
 _atom_site_fract_z
 _atom_site_occupancy
  Li  Li0  1  0.34304261  0.67134208  0.90000375  1
  Li  Li1  1  0.01060763  0.00533896  0.00179590  1
  Li  Li2  1  0.02501256  0.01244936  0.49176629  1
  Li  Li3  1  0.67220849  0.33630746  0.38278315  1
  Nb  Nb4  1  0.65458319  0.82724870  0.21780424  1
  Nb  Nb5  1  0.83228903  0.66353584  0.71541770  1
  Nb  Nb6  1  0.82794461  0.16603248  0.71215984  1
  Fe  Fe7  1  0.16470348  0.82416541  0.21314267  1
  Fe  Fe8  1  0.30960755  0.65458598  0.48662561  1
  Fe  Fe9  1  0.16475207  0.34035147  0.21325078  1
  Fe  Fe10  1  0.34156188  0.17027183  0.71890319  1
  Fe  Fe11  1  0.64656219  0.32258191  0.00274148  1
  O  O12  1  0.14324819  0.83004930  0.60467482  1
  O  O13  1  0.03133570  0.51575603  0.32711009  1
  O  O14  1  0.34164660  0.67065985  0.10123282  1
  O  O15  1  0.99463288  0.99729482  0.30842819  1
  O  O16  1  0.97962331  0.99038819  0.81959061  1
  O  O17  1  0.14172648  0.31381258  0.60489645  1
  O  O18  1  0.48805137  0.96669393  0.33238028  1
  O  O19  1  0.48820754  0.52109513  0.33224674  1
  O  O20  1  0.32178462  0.16063652  0.10018566  1
  O  O21  1  0.67832149  0.83937446  0.60493360  1
  O  O22  1  0.53859463  0.49078668  0.84485992  1
  O  O23  1  0.54095715  0.04858877  0.84620059  1
  O  O24  1  0.69259012  0.34729071  0.59881001  1
  O  O25  1  0.82644505  0.66991255  0.09743318  1
  O  O26  1  0.97324844  0.48744632  0.83071639  1
  O  O27  1  0.82670911  0.15630468  0.09774504  1
