# generated using pymatgen
data_Li4V2Cr3Fe3O16
_symmetry_space_group_name_H-M   'P 1'
_cell_length_a   5.94492142
_cell_length_b   5.94240569
_cell_length_c   9.44971511
_cell_angle_alpha   89.99939933
_cell_angle_beta   90.64748137
_cell_angle_gamma   119.98059470
_symmetry_Int_Tables_number   1
_chemical_formula_structural   Li4V2Cr3Fe3O16
_chemical_formula_sum   'Li4 V2 Cr3 Fe3 O16'
_cell_volume   289.13836805
_cell_formula_units_Z   1
loop_
 _symmetry_equiv_pos_site_id
 _symmetry_equiv_pos_as_xyz
  1  'x, y, z'
loop_
 _atom_site_type_symbol
 _atom_site_label
 _atom_site_symmetry_multiplicity
 _atom_site_fract_x
 _atom_site_fract_y
 _atom_site_fract_z
 _atom_site_occupancy
  Li  Li0  1  0.33570125  0.66787781  0.90022420  1
  Li  Li1  1  0.99832451  0.99919285  0.99129761  1
  Li  Li2  1  0.99909475  0.99960381  0.49267630  1
  Li  Li3  1  0.66747829  0.33374595  0.39747200  1
  V  V4  1  0.33244155  0.66620968  0.49431636  1
  V  V5  1  0.66191099  0.33098685  0.99641521  1
  Cr  Cr6  1  0.17260445  0.82846489  0.21421182  1
  Cr  Cr7  1  0.17267260  0.34419078  0.21418547  1
  Cr  Cr8  1  0.34543459  0.17271175  0.71315019  1
  Fe  Fe9  1  0.65449288  0.82728311  0.22045576  1
  Fe  Fe10  1  0.83028058  0.65366470  0.71886001  1
  Fe  Fe11  1  0.83026208  0.17658342  0.71886204  1
  O  O12  1  0.17651385  0.82684118  0.59015625  1
  O  O13  1  0.04627797  0.52317476  0.34236803  1
  O  O14  1  0.33858499  0.66929021  0.10564397  1
  O  O15  1  0.99854929  0.99931196  0.30383637  1
  O  O16  1  0.99911770  0.99952227  0.80148296  1
  O  O17  1  0.17648154  0.34967497  0.59017306  1
  O  O18  1  0.47416937  0.95691710  0.34743722  1
  O  O19  1  0.47419039  0.51729469  0.34744222  1
  O  O20  1  0.34663063  0.17332218  0.09300719  1
  O  O21  1  0.64743161  0.82372054  0.58627262  1
  O  O22  1  0.51938230  0.47393675  0.84684636  1
  O  O23  1  0.51943315  0.04546643  0.84683179  1
  O  O24  1  0.67077178  0.33541863  0.60438168  1
  O  O25  1  0.82582261  0.64864734  0.08928412  1
  O  O26  1  0.96012346  0.48004626  0.85126986  1
  O  O27  1  0.82582083  0.17720011  0.08928035  1
