# generated using pymatgen
data_Li4V2(PO4)3
_symmetry_space_group_name_H-M   'P 1'
_cell_length_a   9.08722382
_cell_length_b   9.08722382
_cell_length_c   8.43120330
_cell_angle_alpha   57.41831173
_cell_angle_beta   122.58168827
_cell_angle_gamma   119.75211778
_symmetry_Int_Tables_number   1
_chemical_formula_structural   Li4V2(PO4)3
_chemical_formula_sum   'Li8 V4 P6 O24'
_cell_volume   473.01449559
_cell_formula_units_Z   2
loop_
 _symmetry_equiv_pos_site_id
 _symmetry_equiv_pos_as_xyz
  1  'x, y, z'
loop_
 _atom_site_type_symbol
 _atom_site_label
 _atom_site_symmetry_multiplicity
 _atom_site_fract_x
 _atom_site_fract_y
 _atom_site_fract_z
 _atom_site_occupancy
  Li  Li0  1  0.25056270  0.84342318  0.75108329  1
  Li  Li1  1  0.15657682  0.74943730  0.25108329  1
  Li  Li2  1  0.00000000  0.50000000  0.00000000  1
  Li  Li3  1  0.65632695  0.65632695  0.75000000  1
  Li  Li4  1  0.34367305  0.34367305  0.25000000  1
  Li  Li5  1  0.84342318  0.25056270  0.74891671  1
  Li  Li6  1  0.50000000  0.00000000  0.50000000  1
  Li  Li7  1  0.74943730  0.15657682  0.24891671  1
  V  V8  1  0.64399553  0.85558502  0.93252690  1
  V  V9  1  0.14441498  0.35600447  0.43252690  1
  V  V10  1  0.85558502  0.64399553  0.56747310  1
  V  V11  1  0.35600447  0.14441498  0.06747310  1
  P  P12  1  0.25024128  0.55398827  0.74878905  1
  P  P13  1  0.94679298  0.94679298  0.75000000  1
  P  P14  1  0.44601173  0.74975872  0.24878905  1
  P  P15  1  0.55398827  0.25024128  0.75121095  1
  P  P16  1  0.05320702  0.05320702  0.25000000  1
  P  P17  1  0.74975872  0.44601173  0.25121095  1
  O  O18  1  0.10600946  0.97454660  0.94316204  1
  O  O19  1  0.02545340  0.89399054  0.44316204  1
  O  O20  1  0.09925444  0.57177721  0.76995593  1
  O  O21  1  0.40014327  0.74361138  0.72815347  1
  O  O22  1  0.31378799  0.39408531  0.94123124  1
  O  O23  1  0.18774593  0.52557523  0.55462560  1
  O  O24  1  0.75608195  0.92683541  0.73051013  1
  O  O25  1  0.42822279  0.90074556  0.26995593  1
  O  O26  1  0.25638862  0.59985673  0.22815347  1
  O  O27  1  0.60591469  0.68621201  0.44123124  1
  O  O28  1  0.47442477  0.81225407  0.05462560  1
  O  O29  1  0.92683541  0.75608195  0.76948987  1
  O  O30  1  0.07316459  0.24391805  0.23051013  1
  O  O31  1  0.52557523  0.18774593  0.94537440  1
  O  O32  1  0.39408531  0.31378799  0.55876876  1
  O  O33  1  0.74361138  0.40014327  0.77184653  1
  O  O34  1  0.57177721  0.09925444  0.73004407  1
  O  O35  1  0.24391805  0.07316459  0.26948987  1
  O  O36  1  0.81225407  0.47442477  0.44537440  1
  O  O37  1  0.68621201  0.60591469  0.05876876  1
  O  O38  1  0.59985673  0.25638862  0.27184653  1
  O  O39  1  0.90074556  0.42822279  0.23004407  1
  O  O40  1  0.97454660  0.10600946  0.55683796  1
  O  O41  1  0.89399054  0.02545340  0.05683796  1
