# generated using pymatgen
data_BaLaBr5
_symmetry_space_group_name_H-M   'P 1'
_cell_length_a   8.20850187
_cell_length_b   4.49657442
_cell_length_c   14.27523752
_cell_angle_alpha   90.00000000
_cell_angle_beta   93.30755632
_cell_angle_gamma   90.00000000
_symmetry_Int_Tables_number   1
_chemical_formula_structural   BaLaBr5
_chemical_formula_sum   'Ba2 La2 Br10'
_cell_volume   526.02330577
_cell_formula_units_Z   2
loop_
 _symmetry_equiv_pos_site_id
 _symmetry_equiv_pos_as_xyz
  1  'x, y, z'
loop_
 _atom_site_type_symbol
 _atom_site_label
 _atom_site_symmetry_multiplicity
 _atom_site_fract_x
 _atom_site_fract_y
 _atom_site_fract_z
 _atom_site_occupancy
  Ba  Ba0  1  0.45465721  0.25000000  0.65388598  1
  Ba  Ba1  1  0.54534279  0.75000000  0.34611402  1
  La  La2  1  0.04460334  0.75000000  0.84407278  1
  La  La3  1  0.95539666  0.25000000  0.15592722  1
  Br  Br4  1  0.04308660  0.25000000  0.69274627  1
  Br  Br5  1  0.14380472  0.75000000  0.06218498  1
  Br  Br6  1  0.29992284  0.75000000  0.51925157  1
  Br  Br7  1  0.31348038  0.25000000  0.88272794  1
  Br  Br8  1  0.30092618  0.25000000  0.25245477  1
  Br  Br9  1  0.69907382  0.75000000  0.74754523  1
  Br  Br10  1  0.68651962  0.75000000  0.11727206  1
  Br  Br11  1  0.70007716  0.25000000  0.48074843  1
  Br  Br12  1  0.85619528  0.25000000  0.93781502  1
  Br  Br13  1  0.95691340  0.75000000  0.30725373  1
