# generated using pymatgen
data_Li3B2SbO6
_symmetry_space_group_name_H-M   'P 1'
_cell_length_a   8.88321193
_cell_length_b   6.49195460
_cell_length_c   10.01958108
_cell_angle_alpha   90.00000000
_cell_angle_beta   65.03465291
_cell_angle_gamma   90.00000000
_symmetry_Int_Tables_number   1
_chemical_formula_structural   Li3B2SbO6
_chemical_formula_sum   'Li12 B8 Sb4 O24'
_cell_volume   523.83336755
_cell_formula_units_Z   4
loop_
 _symmetry_equiv_pos_site_id
 _symmetry_equiv_pos_as_xyz
  1  'x, y, z'
loop_
 _atom_site_type_symbol
 _atom_site_label
 _atom_site_symmetry_multiplicity
 _atom_site_fract_x
 _atom_site_fract_y
 _atom_site_fract_z
 _atom_site_occupancy
  Li  Li0  1  0.12834938  0.25586058  0.47942876  1
  Li  Li1  1  0.04069550  0.56243462  0.66980208  1
  Li  Li2  1  0.37165062  0.75586058  0.02057124  1
  Li  Li3  1  0.29703412  0.78023246  0.54654586  1
  Li  Li4  1  0.54069550  0.93756538  0.16980208  1
  Li  Li5  1  0.20296588  0.28023246  0.95345414  1
  Li  Li6  1  0.79703412  0.71976754  0.04654586  1
  Li  Li7  1  0.45930450  0.06243462  0.83019792  1
  Li  Li8  1  0.70296588  0.21976754  0.45345414  1
  Li  Li9  1  0.62834938  0.24413942  0.97942876  1
  Li  Li10  1  0.95930450  0.43756538  0.33019792  1
  Li  Li11  1  0.87165062  0.74413942  0.52057124  1
  B  B12  1  0.28339372  0.16366659  0.17715789  1
  B  B13  1  0.21660628  0.66366659  0.32284211  1
  B  B14  1  0.16112199  0.66934182  0.88944377  1
  B  B15  1  0.33887801  0.16934182  0.61055623  1
  B  B16  1  0.66112199  0.83065818  0.38944377  1
  B  B17  1  0.83887801  0.33065818  0.11055623  1
  B  B18  1  0.78339372  0.33633341  0.67715789  1
  B  B19  1  0.71660628  0.83633341  0.82284211  1
  Sb  Sb20  1  0.00915589  0.03058699  0.79811713  1
  Sb  Sb21  1  0.50915589  0.46941301  0.29811713  1
  Sb  Sb22  1  0.49084411  0.53058699  0.70188287  1
  Sb  Sb23  1  0.99084411  0.96941301  0.20188287  1
  O  O24  1  0.06788539  0.71282639  0.31497180  1
  O  O25  1  0.12687095  0.20554253  0.28879375  1
  O  O26  1  0.28749398  0.06013416  0.05340654  1
  O  O27  1  0.21250602  0.56013416  0.44659346  1
  O  O28  1  0.37312905  0.70554253  0.21120625  1
  O  O29  1  0.02408442  0.77582382  0.98574671  1
  O  O30  1  0.23149454  0.06778009  0.56337891  1
  O  O31  1  0.43211461  0.21282639  0.18502820  1
  O  O32  1  0.19715519  0.66991509  0.74099033  1
  O  O33  1  0.30284481  0.16991509  0.75900967  1
  O  O34  1  0.26850546  0.56778009  0.93662109  1
  O  O35  1  0.47591558  0.27582382  0.51425329  1
  O  O36  1  0.52408442  0.72417618  0.48574671  1
  O  O37  1  0.73149454  0.43221991  0.06337891  1
  O  O38  1  0.69715519  0.83008491  0.24099033  1
  O  O39  1  0.80284481  0.33008491  0.25900967  1
  O  O40  1  0.56788539  0.78717361  0.81497180  1
  O  O41  1  0.76850546  0.93221991  0.43662109  1
  O  O42  1  0.97591558  0.22417618  0.01425329  1
  O  O43  1  0.62687095  0.29445747  0.78879375  1
  O  O44  1  0.78749398  0.43986584  0.55340654  1
  O  O45  1  0.71250602  0.93986584  0.94659346  1
  O  O46  1  0.87312905  0.79445747  0.71120625  1
  O  O47  1  0.93211461  0.28717361  0.68502820  1
