# generated using pymatgen
data_HoBiTe3
_symmetry_space_group_name_H-M   'P 1'
_cell_length_a   4.39742966
_cell_length_b   4.39742962
_cell_length_c   10.86945973
_cell_angle_alpha   90.00000000
_cell_angle_beta   78.32946284
_cell_angle_gamma   119.99999969
_symmetry_Int_Tables_number   1
_chemical_formula_structural   HoBiTe3
_chemical_formula_sum   'Ho1 Bi1 Te3'
_cell_volume   176.99205512
_cell_formula_units_Z   1
loop_
 _symmetry_equiv_pos_site_id
 _symmetry_equiv_pos_as_xyz
  1  'x, y, z'
loop_
 _atom_site_type_symbol
 _atom_site_label
 _atom_site_symmetry_multiplicity
 _atom_site_fract_x
 _atom_site_fract_y
 _atom_site_fract_z
 _atom_site_occupancy
  Ho  Ho0  1  0.20347991  0.60173995  0.19478014  1
  Bi  Bi1  1  0.79755151  0.39877576  0.80367273  1
  Te  Te2  1  0.43537763  0.21768881  0.34693356  1
  Te  Te3  1  0.57167619  0.78583810  0.64248571  1
  Te  Te4  1  0.99191476  0.99595738  0.01212786  1
