# generated using pymatgen
data_BaLaBr5
_symmetry_space_group_name_H-M   'P 1'
_cell_length_a   11.82619236
_cell_length_b   7.65136772
_cell_length_c   10.89737392
_cell_angle_alpha   90.00000000
_cell_angle_beta   90.00000000
_cell_angle_gamma   90.00000000
_symmetry_Int_Tables_number   1
_chemical_formula_structural   BaLaBr5
_chemical_formula_sum   'Ba4 La4 Br20'
_cell_volume   986.06573165
_cell_formula_units_Z   4
loop_
 _symmetry_equiv_pos_site_id
 _symmetry_equiv_pos_as_xyz
  1  'x, y, z'
loop_
 _atom_site_type_symbol
 _atom_site_label
 _atom_site_symmetry_multiplicity
 _atom_site_fract_x
 _atom_site_fract_y
 _atom_site_fract_z
 _atom_site_occupancy
  Ba  Ba0  1  0.17293373  0.25000000  0.62625617  1
  Ba  Ba1  1  0.32706627  0.75000000  0.12625617  1
  Ba  Ba2  1  0.67293373  0.25000000  0.87374383  1
  Ba  Ba3  1  0.82706627  0.75000000  0.37374383  1
  La  La4  1  0.02951382  0.25000000  0.15145136  1
  La  La5  1  0.47048618  0.75000000  0.65145136  1
  La  La6  1  0.52951382  0.25000000  0.34854864  1
  La  La7  1  0.97048618  0.75000000  0.84854864  1
  Br  Br8  1  0.06119641  0.98107605  0.33832206  1
  Br  Br9  1  0.06119641  0.51892395  0.33832206  1
  Br  Br10  1  0.14452775  0.00052361  0.96306567  1
  Br  Br11  1  0.14452775  0.49947639  0.96306567  1
  Br  Br12  1  0.29428830  0.25000000  0.18863667  1
  Br  Br13  1  0.20571170  0.75000000  0.68863667  1
  Br  Br14  1  0.35547225  0.99947639  0.46306567  1
  Br  Br15  1  0.35547225  0.50052361  0.46306567  1
  Br  Br16  1  0.43880359  0.01892395  0.83832206  1
  Br  Br17  1  0.43880359  0.48107605  0.83832206  1
  Br  Br18  1  0.56119641  0.98107605  0.16167794  1
  Br  Br19  1  0.56119641  0.51892395  0.16167794  1
  Br  Br20  1  0.64452775  0.00052361  0.53693433  1
  Br  Br21  1  0.64452775  0.49947639  0.53693433  1
  Br  Br22  1  0.79428830  0.25000000  0.31136333  1
  Br  Br23  1  0.70571170  0.75000000  0.81136333  1
  Br  Br24  1  0.85547225  0.50052361  0.03693433  1
  Br  Br25  1  0.85547225  0.99947639  0.03693433  1
  Br  Br26  1  0.93880359  0.48107605  0.66167794  1
  Br  Br27  1  0.93880359  0.01892395  0.66167794  1
