# generated using pymatgen
data_Li4Mn2VNi3(PO4)6
_symmetry_space_group_name_H-M   'P 1'
_cell_length_a   8.47454819
_cell_length_b   8.82226217
_cell_length_c   8.80750644
_cell_angle_alpha   60.09156245
_cell_angle_beta   59.35910388
_cell_angle_gamma   59.47725700
_symmetry_Int_Tables_number   1
_chemical_formula_structural   Li4Mn2VNi3(PO4)6
_chemical_formula_sum   'Li4 Mn2 V1 Ni3 P6 O24'
_cell_volume   461.79792855
_cell_formula_units_Z   1
loop_
 _symmetry_equiv_pos_site_id
 _symmetry_equiv_pos_as_xyz
  1  'x, y, z'
loop_
 _atom_site_type_symbol
 _atom_site_label
 _atom_site_symmetry_multiplicity
 _atom_site_fract_x
 _atom_site_fract_y
 _atom_site_fract_z
 _atom_site_occupancy
  Li  Li0  1  0.25193175  0.84849520  0.64766639  1
  Li  Li1  1  0.78572291  0.14876773  0.35353307  1
  Li  Li2  1  0.78726425  0.71112359  0.14678402  1
  Li  Li3  1  0.78784744  0.35472806  0.71032355  1
  Mn  Mn4  1  0.01656513  0.99755871  0.00217538  1
  Mn  Mn5  1  0.49334772  0.49532302  0.49978922  1
  V  V6  1  0.55210574  0.15238157  0.14810492  1
  Ni  Ni7  1  0.06466354  0.64335330  0.64784118  1
  Ni  Ni8  1  0.43833252  0.85158596  0.85373846  1
  Ni  Ni9  1  0.94177293  0.35322376  0.35022340  1
  P  P10  1  0.24163206  0.25449249  0.54985188  1
  P  P11  1  0.24307192  0.95478420  0.25150665  1
  P  P12  1  0.24274856  0.55143587  0.95386765  1
  P  P13  1  0.74591466  0.45607824  0.04306007  1
  P  P14  1  0.75710195  0.04197164  0.75273549  1
  P  P15  1  0.73652692  0.75598148  0.45693562  1
  O  O16  1  0.05270986  0.10722547  0.31267384  1
  O  O17  1  0.05300207  0.52431525  0.10535124  1
  O  O18  1  0.05070880  0.32257180  0.52064042  1
  O  O19  1  0.23151946  0.08551422  0.73112286  1
  O  O20  1  0.42323970  0.19013091  0.38205280  1
  O  O21  1  0.27482948  0.40571562  0.55735609  1
  O  O22  1  0.23684741  0.92816444  0.09601218  1
  O  O23  1  0.27828864  0.77318542  0.41652023  1
  O  O24  1  0.56238359  0.60625159  0.00999539  1
  O  O25  1  0.27803579  0.56182838  0.75840023  1
  O  O26  1  0.75653473  0.25300189  0.07914890  1
  O  O27  1  0.58471530  0.99296395  0.81123710  1
  O  O28  1  0.42453150  0.01195290  0.18047777  1
  O  O29  1  0.22866443  0.74483391  0.92757003  1
  O  O30  1  0.73050175  0.43171120  0.24037783  1
  O  O31  1  0.42478907  0.38743438  0.00345027  1
  O  O32  1  0.73530670  0.23762336  0.59408050  1
  O  O33  1  0.75751572  0.08223718  0.91152894  1
  O  O34  1  0.73173822  0.59645614  0.42695135  1
  O  O35  1  0.54094230  0.81420267  0.60487313  1
  O  O36  1  0.75333244  0.91459514  0.25561251  1
  O  O37  1  0.91334506  0.71080201  0.49390284  1
  O  O38  1  0.93434418  0.47697685  0.88755216  1
  O  O39  1  0.95562184  0.89202147  0.70197648  1
