# generated using pymatgen
data_Li2VFeO5
_symmetry_space_group_name_H-M   'P 1'
_cell_length_a   6.64591395
_cell_length_b   6.64591395
_cell_length_c   4.63826149
_cell_angle_alpha   90.00000000
_cell_angle_beta   90.00000000
_cell_angle_gamma   90.00000000
_symmetry_Int_Tables_number   1
_chemical_formula_structural   Li2VFeO5
_chemical_formula_sum   'Li4 V2 Fe2 O10'
_cell_volume   204.86353234
_cell_formula_units_Z   2
loop_
 _symmetry_equiv_pos_site_id
 _symmetry_equiv_pos_as_xyz
  1  'x, y, z'
loop_
 _atom_site_type_symbol
 _atom_site_label
 _atom_site_symmetry_multiplicity
 _atom_site_fract_x
 _atom_site_fract_y
 _atom_site_fract_z
 _atom_site_occupancy
  Li  Li0  1  0.00000000  0.00000000  0.50000000  1
  Li  Li1  1  0.00000000  0.50000000  0.50000000  1
  Li  Li2  1  0.50000000  0.50000000  0.50000000  1
  Li  Li3  1  0.50000000  0.00000000  0.50000000  1
  V  V4  1  0.25000000  0.25000000  0.12699833  1
  V  V5  1  0.75000000  0.75000000  0.87300167  1
  Fe  Fe6  1  0.25000000  0.75000000  0.00000000  1
  Fe  Fe7  1  0.75000000  0.25000000  0.00000000  1
  O  O8  1  0.02280023  0.75000000  0.75486468  1
  O  O9  1  0.25000000  0.25000000  0.76723855  1
  O  O10  1  0.25000000  0.52280023  0.24513532  1
  O  O11  1  0.25000000  0.97719977  0.24513532  1
  O  O12  1  0.47719977  0.75000000  0.75486468  1
  O  O13  1  0.52280023  0.25000000  0.24513532  1
  O  O14  1  0.75000000  0.02280023  0.75486468  1
  O  O15  1  0.75000000  0.47719977  0.75486468  1
  O  O16  1  0.75000000  0.75000000  0.23276145  1
  O  O17  1  0.97719977  0.25000000  0.24513532  1
