# generated using pymatgen
data_MnCrO4
_symmetry_space_group_name_H-M   'P 1'
_cell_length_a   5.44909851
_cell_length_b   8.30235193
_cell_length_c   6.84976530
_cell_angle_alpha   90.00000000
_cell_angle_beta   95.30228121
_cell_angle_gamma   90.00000000
_symmetry_Int_Tables_number   1
_chemical_formula_structural   MnCrO4
_chemical_formula_sum   'Mn4 Cr4 O16'
_cell_volume   308.55967227
_cell_formula_units_Z   4
loop_
 _symmetry_equiv_pos_site_id
 _symmetry_equiv_pos_as_xyz
  1  'x, y, z'
loop_
 _atom_site_type_symbol
 _atom_site_label
 _atom_site_symmetry_multiplicity
 _atom_site_fract_x
 _atom_site_fract_y
 _atom_site_fract_z
 _atom_site_occupancy
  Mn  Mn0  1  0.23443375  0.54521246  0.35248825  1
  Mn  Mn1  1  0.26556625  0.04521246  0.14751175  1
  Mn  Mn2  1  0.73443375  0.95478754  0.85248825  1
  Mn  Mn3  1  0.76556625  0.45478754  0.64751175  1
  Cr  Cr4  1  0.23835839  0.69149255  0.85656722  1
  Cr  Cr5  1  0.26164161  0.19149255  0.64343278  1
  Cr  Cr6  1  0.73835839  0.80850745  0.35656722  1
  Cr  Cr7  1  0.76164161  0.30850745  0.14343278  1
  O  O8  1  0.01972273  0.76483804  0.29969804  1
  O  O9  1  0.07647770  0.60618557  0.66008124  1
  O  O10  1  0.09290402  0.86281752  0.91857096  1
  O  O11  1  0.24540240  0.06554014  0.45665245  1
  O  O12  1  0.25459760  0.56554014  0.04334755  1
  O  O13  1  0.40709598  0.36281752  0.58142904  1
  O  O14  1  0.42352230  0.10618557  0.83991876  1
  O  O15  1  0.51972273  0.73516196  0.79969804  1
  O  O16  1  0.48027727  0.26483804  0.20030196  1
  O  O17  1  0.57647770  0.89381443  0.16008124  1
  O  O18  1  0.59290402  0.63718248  0.41857096  1
  O  O19  1  0.74540240  0.43445986  0.95665245  1
  O  O20  1  0.75459760  0.93445986  0.54334755  1
  O  O21  1  0.90709598  0.13718248  0.08142904  1
  O  O22  1  0.92352230  0.39381443  0.33991876  1
  O  O23  1  0.98027727  0.23516196  0.70030196  1
