# generated using pymatgen
data_V2SO8
_symmetry_space_group_name_H-M   'P 1'
_cell_length_a   5.90249534
_cell_length_b   13.05613696
_cell_length_c   10.76468717
_cell_angle_alpha   90.00000000
_cell_angle_beta   90.00000000
_cell_angle_gamma   90.00000000
_symmetry_Int_Tables_number   1
_chemical_formula_structural   V2SO8
_chemical_formula_sum   'V8 S4 O32'
_cell_volume   829.56756527
_cell_formula_units_Z   4
loop_
 _symmetry_equiv_pos_site_id
 _symmetry_equiv_pos_as_xyz
  1  'x, y, z'
loop_
 _atom_site_type_symbol
 _atom_site_label
 _atom_site_symmetry_multiplicity
 _atom_site_fract_x
 _atom_site_fract_y
 _atom_site_fract_z
 _atom_site_occupancy
  V  V0  1  0.19999035  0.58840935  0.16614073  1
  V  V1  1  0.19999035  0.91159065  0.16614073  1
  V  V2  1  0.30000965  0.08840935  0.66614073  1
  V  V3  1  0.30000965  0.41159065  0.66614073  1
  V  V4  1  0.69999035  0.58840935  0.33385927  1
  V  V5  1  0.69999035  0.91159065  0.33385927  1
  V  V6  1  0.80000965  0.08840935  0.83385927  1
  V  V7  1  0.80000965  0.41159065  0.83385927  1
  S  S8  1  0.97152333  0.25000000  0.04124852  1
  S  S9  1  0.52847667  0.75000000  0.54124852  1
  S  S10  1  0.47152333  0.25000000  0.45875148  1
  S  S11  1  0.02847667  0.75000000  0.95875148  1
  O  O12  1  0.03090750  0.12321853  0.73528081  1
  O  O13  1  0.03090750  0.37678147  0.73528081  1
  O  O14  1  0.07932430  0.75000000  0.82958666  1
  O  O15  1  0.16107813  0.65561855  0.01834128  1
  O  O16  1  0.16107813  0.84438145  0.01834128  1
  O  O17  1  0.19606800  0.03245764  0.13926863  1
  O  O18  1  0.19606800  0.46754236  0.13926863  1
  O  O19  1  0.30214119  0.75000000  0.49359078  1
  O  O20  1  0.19785881  0.25000000  0.99359078  1
  O  O21  1  0.30393200  0.96754236  0.63926863  1
  O  O22  1  0.30393200  0.53245764  0.63926863  1
  O  O23  1  0.33892187  0.15561855  0.51834128  1
  O  O24  1  0.33892187  0.34438145  0.51834128  1
  O  O25  1  0.42067570  0.25000000  0.32958666  1
  O  O26  1  0.46909250  0.62321853  0.23528081  1
  O  O27  1  0.46909250  0.87678147  0.23528081  1
  O  O28  1  0.53090750  0.12321853  0.76471919  1
  O  O29  1  0.53090750  0.37678147  0.76471919  1
  O  O30  1  0.57932430  0.75000000  0.67041334  1
  O  O31  1  0.66107813  0.65561855  0.48165872  1
  O  O32  1  0.66107813  0.84438145  0.48165872  1
  O  O33  1  0.69606800  0.03245764  0.36073137  1
  O  O34  1  0.69606800  0.46754236  0.36073137  1
  O  O35  1  0.80214119  0.75000000  0.00640922  1
  O  O36  1  0.69785881  0.25000000  0.50640922  1
  O  O37  1  0.80393200  0.53245764  0.86073137  1
  O  O38  1  0.80393200  0.96754236  0.86073137  1
  O  O39  1  0.83892187  0.15561855  0.98165872  1
  O  O40  1  0.83892187  0.34438145  0.98165872  1
  O  O41  1  0.92067570  0.25000000  0.17041334  1
  O  O42  1  0.96909250  0.62321853  0.26471919  1
  O  O43  1  0.96909250  0.87678147  0.26471919  1
