# generated using pymatgen
data_Li2AlCoO4
_symmetry_space_group_name_H-M   'P 1'
_cell_length_a   6.35804721
_cell_length_b   10.83177253
_cell_length_c   5.13440226
_cell_angle_alpha   90.00000000
_cell_angle_beta   88.86071173
_cell_angle_gamma   90.00000000
_symmetry_Int_Tables_number   1
_chemical_formula_structural   Li2AlCoO4
_chemical_formula_sum   'Li8 Al4 Co4 O16'
_cell_volume   353.53084191
_cell_formula_units_Z   4
loop_
 _symmetry_equiv_pos_site_id
 _symmetry_equiv_pos_as_xyz
  1  'x, y, z'
loop_
 _atom_site_type_symbol
 _atom_site_label
 _atom_site_symmetry_multiplicity
 _atom_site_fract_x
 _atom_site_fract_y
 _atom_site_fract_z
 _atom_site_occupancy
  Li  Li0  1  0.00690092  0.83276013  0.68815908  1
  Li  Li1  1  0.24007137  0.08079582  0.70861258  1
  Li  Li2  1  0.25992863  0.58079582  0.79138742  1
  Li  Li3  1  0.49309908  0.33276013  0.81184092  1
  Li  Li4  1  0.50690092  0.66723987  0.18815908  1
  Li  Li5  1  0.74007137  0.41920418  0.20861258  1
  Li  Li6  1  0.75992863  0.91920418  0.29138742  1
  Li  Li7  1  0.99309908  0.16723987  0.31184092  1
  Al  Al8  1  0.99958767  0.66444445  0.17952450  1
  Al  Al9  1  0.50041233  0.16444445  0.32047550  1
  Al  Al10  1  0.49958767  0.83555555  0.67952450  1
  Al  Al11  1  0.00041233  0.33555555  0.82047550  1
  Co  Co12  1  0.24623939  0.41365564  0.31513824  1
  Co  Co13  1  0.25376061  0.91365564  0.18486176  1
  Co  Co14  1  0.74623939  0.08634436  0.81513824  1
  Co  Co15  1  0.75376061  0.58634436  0.68486176  1
  O  O16  1  0.01547006  0.33418281  0.16725548  1
  O  O17  1  0.02092691  0.81977562  0.29041506  1
  O  O18  1  0.26393240  0.07842608  0.27685268  1
  O  O19  1  0.22824760  0.40789617  0.68371794  1
  O  O20  1  0.27175240  0.90789617  0.81628206  1
  O  O21  1  0.23606760  0.57842608  0.22314732  1
  O  O22  1  0.47907309  0.31977562  0.20958494  1
  O  O23  1  0.48452994  0.83418281  0.33274452  1
  O  O24  1  0.51547006  0.16581719  0.66725548  1
  O  O25  1  0.52092691  0.68022438  0.79041506  1
  O  O26  1  0.76393240  0.42157392  0.77685268  1
  O  O27  1  0.72824760  0.09210383  0.18371794  1
  O  O28  1  0.77175240  0.59210383  0.31628206  1
  O  O29  1  0.73606760  0.92157392  0.72314732  1
  O  O30  1  0.97907309  0.18022438  0.70958494  1
  O  O31  1  0.98452994  0.66581719  0.83274452  1
