# generated using pymatgen
data_Li2Cr2O7
_symmetry_space_group_name_H-M   'P 1'
_cell_length_a   12.63282873
_cell_length_b   7.08585812
_cell_length_c   6.47582126
_cell_angle_alpha   90.91571914
_cell_angle_beta   96.58857421
_cell_angle_gamma   94.81399658
_symmetry_Int_Tables_number   1
_chemical_formula_structural   Li2Cr2O7
_chemical_formula_sum   'Li8 Cr8 O28'
_cell_volume   573.62760464
_cell_formula_units_Z   4
loop_
 _symmetry_equiv_pos_site_id
 _symmetry_equiv_pos_as_xyz
  1  'x, y, z'
loop_
 _atom_site_type_symbol
 _atom_site_label
 _atom_site_symmetry_multiplicity
 _atom_site_fract_x
 _atom_site_fract_y
 _atom_site_fract_z
 _atom_site_occupancy
  Li  Li0  1  0.10932257  0.85050107  0.34748003  1
  Li  Li1  1  0.15305639  0.13918050  0.93242381  1
  Li  Li2  1  0.34955674  0.74869375  0.69944633  1
  Li  Li3  1  0.39292932  0.39389073  0.35541959  1
  Li  Li4  1  0.60707068  0.60610927  0.64458041  1
  Li  Li5  1  0.65044326  0.25130625  0.30055367  1
  Li  Li6  1  0.84694361  0.86081950  0.06757619  1
  Li  Li7  1  0.89067743  0.14949893  0.65251997  1
  Cr  Cr8  1  0.09508702  0.68126212  0.85120507  1
  Cr  Cr9  1  0.12107361  0.29809249  0.43458252  1
  Cr  Cr10  1  0.38252254  0.92205358  0.22269208  1
  Cr  Cr11  1  0.40997023  0.30903134  0.82733754  1
  Cr  Cr12  1  0.59002977  0.69096866  0.17266246  1
  Cr  Cr13  1  0.61747746  0.07794642  0.77730792  1
  Cr  Cr14  1  0.87892639  0.70190751  0.56541748  1
  Cr  Cr15  1  0.90491298  0.31873788  0.14879493  1
  O  O16  1  0.02360226  0.42868314  0.29372824  1
  O  O17  1  0.06091680  0.81940517  0.03551707  1
  O  O18  1  0.07182098  0.19769997  0.63634360  1
  O  O19  1  0.16179428  0.80618254  0.68642933  1
  O  O20  1  0.16112863  0.51253625  0.95023958  1
  O  O21  1  0.15155137  0.13147383  0.27694941  1
  O  O22  1  0.22353464  0.44786888  0.50132220  1
  O  O23  1  0.28366826  0.96130324  0.04939634  1
  O  O24  1  0.33646499  0.79251357  0.40567187  1
  O  O25  1  0.35795367  0.38045276  0.03129113  1
  O  O26  1  0.33071022  0.14635879  0.69896034  1
  O  O27  1  0.43532910  0.48997682  0.67175014  1
  O  O28  1  0.46799206  0.78917015  0.08355996  1
  O  O29  1  0.44377780  0.12179025  0.31995008  1
  O  O30  1  0.55622220  0.87820975  0.68004992  1
  O  O31  1  0.53200794  0.21082985  0.91644004  1
  O  O32  1  0.56467090  0.51002318  0.32824986  1
  O  O33  1  0.66928978  0.85364121  0.30103966  1
  O  O34  1  0.64204633  0.61954724  0.96870887  1
  O  O35  1  0.66353501  0.20748643  0.59432813  1
  O  O36  1  0.71633174  0.03869676  0.95060366  1
  O  O37  1  0.77646536  0.55213112  0.49867780  1
  O  O38  1  0.84844863  0.86852617  0.72305059  1
  O  O39  1  0.83887137  0.48746375  0.04976042  1
  O  O40  1  0.83820572  0.19381746  0.31357067  1
  O  O41  1  0.92817902  0.80230003  0.36365640  1
  O  O42  1  0.93908320  0.18059483  0.96448293  1
  O  O43  1  0.97639774  0.57131686  0.70627176  1
