# generated using pymatgen
data_Li3CrO4
_symmetry_space_group_name_H-M   'P 1'
_cell_length_a   5.80035032
_cell_length_b   5.80035032
_cell_length_c   9.06365003
_cell_angle_alpha   72.27787989
_cell_angle_beta   107.72212011
_cell_angle_gamma   89.85996591
_symmetry_Int_Tables_number   1
_chemical_formula_structural   Li3CrO4
_chemical_formula_sum   'Li12 Cr4 O16'
_cell_volume   275.15843018
_cell_formula_units_Z   4
loop_
 _symmetry_equiv_pos_site_id
 _symmetry_equiv_pos_as_xyz
  1  'x, y, z'
loop_
 _atom_site_type_symbol
 _atom_site_label
 _atom_site_symmetry_multiplicity
 _atom_site_fract_x
 _atom_site_fract_y
 _atom_site_fract_z
 _atom_site_occupancy
  Li  Li0  1  0.05946898  0.69497675  0.86691633  1
  Li  Li1  1  0.30502325  0.94053102  0.36691633  1
  Li  Li2  1  0.18137729  0.56203076  0.61932459  1
  Li  Li3  1  0.56081819  0.66951671  0.87577741  1
  Li  Li4  1  0.66951671  0.56081819  0.62422259  1
  Li  Li5  1  0.56203076  0.18137729  0.88067541  1
  Li  Li6  1  0.43796924  0.81862271  0.11932459  1
  Li  Li7  1  0.33048329  0.43918181  0.37577741  1
  Li  Li8  1  0.43918181  0.33048329  0.12422259  1
  Li  Li9  1  0.81862271  0.43796924  0.38067541  1
  Li  Li10  1  0.69497675  0.05946898  0.63308367  1
  Li  Li11  1  0.94053102  0.30502325  0.13308367  1
  Cr  Cr12  1  0.06112305  0.21552460  0.87649620  1
  Cr  Cr13  1  0.78447540  0.93887695  0.37649620  1
  Cr  Cr14  1  0.21552460  0.06112305  0.62350380  1
  Cr  Cr15  1  0.93887695  0.78447540  0.12350380  1
  O  O16  1  0.27965400  0.95989345  0.85526446  1
  O  O17  1  0.04010655  0.72034600  0.35526446  1
  O  O18  1  0.42106394  0.82896050  0.63281321  1
  O  O19  1  0.29539620  0.41515050  0.88234108  1
  O  O20  1  0.83217119  0.94402692  0.89513955  1
  O  O21  1  0.17103950  0.57893606  0.13281321  1
  O  O22  1  0.58484950  0.70460380  0.38234108  1
  O  O23  1  0.05597308  0.16782881  0.39513955  1
  O  O24  1  0.94402692  0.83217119  0.60486045  1
  O  O25  1  0.41515050  0.29539620  0.61765892  1
  O  O26  1  0.82896050  0.42106394  0.86718679  1
  O  O27  1  0.16782881  0.05597308  0.10486045  1
  O  O28  1  0.70460380  0.58484950  0.11765892  1
  O  O29  1  0.57893606  0.17103950  0.36718679  1
  O  O30  1  0.95989345  0.27965400  0.64473554  1
  O  O31  1  0.72034600  0.04010655  0.14473554  1
