# generated using pymatgen
data_HoFe10Mo2N
_symmetry_space_group_name_H-M   'P 1'
_cell_length_a   4.76594579
_cell_length_b   6.56814544
_cell_length_c   6.56814544
_cell_angle_alpha   98.03357396
_cell_angle_beta   111.27271899
_cell_angle_gamma   68.72728101
_symmetry_Int_Tables_number   1
_chemical_formula_structural   HoFe10Mo2N
_chemical_formula_sum   'Ho1 Fe10 Mo2 N1'
_cell_volume   178.53392711
_cell_formula_units_Z   1
loop_
 _symmetry_equiv_pos_site_id
 _symmetry_equiv_pos_as_xyz
  1  'x, y, z'
loop_
 _atom_site_type_symbol
 _atom_site_label
 _atom_site_symmetry_multiplicity
 _atom_site_fract_x
 _atom_site_fract_y
 _atom_site_fract_z
 _atom_site_occupancy
  Ho  Ho0  1  0.00000000  -0.00000000  -0.00000000  1
  Fe  Fe1  1  0.72023201  0.77976799  0.22023201  1
  Fe  Fe2  1  0.27976799  0.22023201  0.77976799  1
  Fe  Fe3  1  0.50000000  0.77883708  0.77883708  1
  Fe  Fe4  1  0.50000000  0.22116292  0.22116292  1
  Fe  Fe5  1  0.50000000  -0.00000000  0.50000000  1
  Fe  Fe6  1  0.00000000  -0.00000000  0.50000000  1
  Fe  Fe7  1  0.50000000  0.50000000  -0.00000000  1
  Fe  Fe8  1  0.00000000  0.50000000  -0.00000000  1
  Fe  Fe9  1  0.64016575  0.35983425  0.64016575  1
  Fe  Fe10  1  0.35983425  0.64016575  0.35983425  1
  Mo  Mo11  1  0.00000000  0.35865891  0.35865891  1
  Mo  Mo12  1  0.00000000  0.64134109  0.64134109  1
  N  N13  1  0.50000000  -0.00000000  -0.00000000  1
