# generated using pymatgen
data_Li3CrO4
_symmetry_space_group_name_H-M   'P 1'
_cell_length_a   5.80535110
_cell_length_b   5.78773702
_cell_length_c   12.61937192
_cell_angle_alpha   90.00000000
_cell_angle_beta   77.46853137
_cell_angle_gamma   90.00000000
_symmetry_Int_Tables_number   1
_chemical_formula_structural   Li3CrO4
_chemical_formula_sum   'Li18 Cr6 O24'
_cell_volume   413.90777471
_cell_formula_units_Z   6
loop_
 _symmetry_equiv_pos_site_id
 _symmetry_equiv_pos_as_xyz
  1  'x, y, z'
loop_
 _atom_site_type_symbol
 _atom_site_label
 _atom_site_symmetry_multiplicity
 _atom_site_fract_x
 _atom_site_fract_y
 _atom_site_fract_z
 _atom_site_occupancy
  Li  Li0  1  0.00000000  0.49806833  0.00000000  1
  Li  Li1  1  0.00000000  0.97708627  0.00000000  1
  Li  Li2  1  0.00000000  0.21626771  0.50000000  1
  Li  Li3  1  0.00000000  0.71266639  0.50000000  1
  Li  Li4  1  0.16513626  0.73460284  0.16791346  1
  Li  Li5  1  0.17586330  0.22288949  0.15832624  1
  Li  Li6  1  0.33786211  0.95912197  0.33224218  1
  Li  Li7  1  0.15424182  0.96265241  0.66633735  1
  Li  Li8  1  0.50000000  0.47007755  0.00000000  1
  Li  Li9  1  0.17217158  0.46661127  0.66222412  1
  Li  Li10  1  0.33487216  0.72304363  0.83049414  1
  Li  Li11  1  0.50000000  0.21258394  0.50000000  1
  Li  Li12  1  0.66512784  0.72304363  0.16950586  1
  Li  Li13  1  0.82782842  0.46661127  0.33777588  1
  Li  Li14  1  0.84575818  0.96265241  0.33366265  1
  Li  Li15  1  0.66213789  0.95912197  0.66775782  1
  Li  Li16  1  0.82413670  0.22288949  0.84167376  1
  Li  Li17  1  0.83486374  0.73460284  0.83208654  1
  Cr  Cr18  1  0.30573635  0.45870498  0.33146644  1
  Cr  Cr19  1  0.50000000  0.94578408  0.00000000  1
  Cr  Cr20  1  0.30406325  0.22297225  0.83231998  1
  Cr  Cr21  1  0.50000000  0.73562950  0.50000000  1
  Cr  Cr22  1  0.69593675  0.22297225  0.16768002  1
  Cr  Cr23  1  0.69426365  0.45870498  0.66853356  1
  O  O24  1  0.10512070  0.69413941  0.32865440  1
  O  O25  1  0.26873063  0.74223320  0.00475860  1
  O  O26  1  0.10266952  0.23416034  0.33790659  1
  O  O27  1  0.42691306  0.46133301  0.18056658  1
  O  O28  1  0.10279075  0.98986325  0.82887905  1
  O  O29  1  0.27021340  0.94018916  0.50465298  1
  O  O30  1  0.43480535  0.99199953  0.15341089  1
  O  O31  1  0.10205646  0.44881823  0.83882804  1
  O  O32  1  0.27511130  0.47054600  0.48691501  1
  O  O33  1  0.72255320  0.21079716  0.01317986  1
  O  O34  1  0.56457287  0.68866242  0.34668395  1
  O  O35  1  0.57449043  0.22147657  0.31876509  1
  O  O36  1  0.42550957  0.22147657  0.68123491  1
  O  O37  1  0.43542713  0.68866242  0.65331605  1
  O  O38  1  0.27744680  0.21079716  0.98682014  1
  O  O39  1  0.72488870  0.47054600  0.51308499  1
  O  O40  1  0.89794354  0.44881823  0.16117196  1
  O  O41  1  0.56519465  0.99199953  0.84658911  1
  O  O42  1  0.72978660  0.94018916  0.49534702  1
  O  O43  1  0.89720925  0.98986325  0.17112095  1
  O  O44  1  0.57308694  0.46133301  0.81943342  1
  O  O45  1  0.89733048  0.23416034  0.66209341  1
  O  O46  1  0.73126937  0.74223320  0.99524140  1
  O  O47  1  0.89487930  0.69413941  0.67134460  1
