# generated using pymatgen
data_Li19(CoO4)4
_symmetry_space_group_name_H-M   'P 1'
_cell_length_a   7.86916242
_cell_length_b   7.18369659
_cell_length_c   6.72528806
_cell_angle_alpha   90.00000000
_cell_angle_beta   90.00000000
_cell_angle_gamma   90.14003502
_symmetry_Int_Tables_number   1
_chemical_formula_structural   Li19(CoO4)4
_chemical_formula_sum   'Li19 Co4 O16'
_cell_volume   380.17721421
_cell_formula_units_Z   1
loop_
 _symmetry_equiv_pos_site_id
 _symmetry_equiv_pos_as_xyz
  1  'x, y, z'
loop_
 _atom_site_type_symbol
 _atom_site_label
 _atom_site_symmetry_multiplicity
 _atom_site_fract_x
 _atom_site_fract_y
 _atom_site_fract_z
 _atom_site_occupancy
  Li  Li0  1  0.98032507  0.50223964  0.23721814  1
  Li  Li1  1  0.98032507  0.50223964  0.76278186  1
  Li  Li2  1  0.08447854  0.75438070  0.50000000  1
  Li  Li3  1  0.15792115  0.99820764  0.26088416  1
  Li  Li4  1  0.15792115  0.99820764  0.73911584  1
  Li  Li5  1  0.26279111  0.74025816  0.00000000  1
  Li  Li6  1  0.34003585  0.46269415  0.25366265  1
  Li  Li7  1  0.34003585  0.46269415  0.74633735  1
  Li  Li8  1  0.41406043  0.24732922  0.00000000  1
  Li  Li9  1  0.51225472  0.99758222  0.75386922  1
  Li  Li10  1  0.51225472  0.99758222  0.24613078  1
  Li  Li11  1  0.58168298  0.74353375  0.00000000  1
  Li  Li12  1  0.65849493  0.51527858  0.24599482  1
  Li  Li13  1  0.65849493  0.51527858  0.75400518  1
  Li  Li14  1  0.72977100  0.25743663  0.00000000  1
  Li  Li15  1  0.77649557  0.75689120  0.50000000  1
  Li  Li16  1  0.83624757  0.02152421  0.74283522  1
  Li  Li17  1  0.83624757  0.02152421  0.25716478  1
  Li  Li18  1  0.93895228  0.26448266  0.50000000  1
  Co  Co19  1  0.10320604  0.23619812  0.00000000  1
  Co  Co20  1  0.39771277  0.72968061  0.50000000  1
  Co  Co21  1  0.61750821  0.26344285  0.50000000  1
  Co  Co22  1  0.89065089  0.77638096  0.00000000  1
  O  O23  1  0.00221159  0.21940453  0.24322105  1
  O  O24  1  0.00221159  0.21940453  0.75677895  1
  O  O25  1  0.22416173  0.46611165  0.00000000  1
  O  O26  1  0.24243738  0.55244079  0.50000000  1
  O  O27  1  0.26725118  0.02825679  0.00000000  1
  O  O28  1  0.28810758  0.94030292  0.50000000  1
  O  O29  1  0.47616711  0.71216397  0.25073247  1
  O  O30  1  0.47616711  0.71216397  0.74926753  1
  O  O31  1  0.53358732  0.28182956  0.24387545  1
  O  O32  1  0.53358732  0.28182956  0.75612455  1
  O  O33  1  0.70517286  0.01844750  0.50000000  1
  O  O34  1  0.71790687  0.96908026  0.00000000  1
  O  O35  1  0.77743314  0.47566861  0.50000000  1
  O  O36  1  0.78347359  0.53777426  0.00000000  1
  O  O37  1  0.97643561  0.78972168  0.25370536  1
  O  O38  1  0.97643561  0.78972168  0.74629464  1
