# generated using pymatgen
data_TiCo5O12
_symmetry_space_group_name_H-M   'P 1'
_cell_length_a   4.93851643
_cell_length_b   4.94394132
_cell_length_c   9.75658265
_cell_angle_alpha   89.98747963
_cell_angle_beta   89.97494361
_cell_angle_gamma   60.03628311
_symmetry_Int_Tables_number   1
_chemical_formula_structural   TiCo5O12
_chemical_formula_sum   'Ti1 Co5 O12'
_cell_volume   206.37486199
_cell_formula_units_Z   1
loop_
 _symmetry_equiv_pos_site_id
 _symmetry_equiv_pos_as_xyz
  1  'x, y, z'
loop_
 _atom_site_type_symbol
 _atom_site_label
 _atom_site_symmetry_multiplicity
 _atom_site_fract_x
 _atom_site_fract_y
 _atom_site_fract_z
 _atom_site_occupancy
  Ti  Ti0  1  0.00000000  0.00000000  0.00000000  1
  Co  Co1  1  0.16673753  0.66652493  0.50000000  1
  Co  Co2  1  0.66670127  0.66659645  0.00000000  1
  Co  Co3  1  0.33329873  0.33340355  1.00000000  1
  Co  Co4  1  0.83326247  0.33347507  0.50000000  1
  Co  Co5  1  0.50000000  0.00000000  0.50000000  1
  O  O6  1  0.00040619  0.65404205  0.10040056  1
  O  O7  1  0.34555176  0.65404205  0.89959944  1
  O  O8  1  0.16683063  0.33354072  0.40462843  1
  O  O9  1  0.50037135  0.66645928  0.40462843  1
  O  O10  1  0.49962865  0.33354072  0.59537157  1
  O  O11  1  0.16645021  0.00000000  0.59526536  1
  O  O12  1  0.83316937  0.66645928  0.59537157  1
  O  O13  1  0.65444824  0.34595795  0.10040056  1
  O  O14  1  0.34565035  0.00000000  0.10032599  1
  O  O15  1  0.99959381  0.34595795  0.89959944  1
  O  O16  1  0.65434965  1.00000000  0.89967401  1
  O  O17  1  0.83354979  1.00000000  0.40473464  1
