# generated using pymatgen
data_V3(PO4)2
_symmetry_space_group_name_H-M   'P 1'
_cell_length_a   8.75898290
_cell_length_b   11.61878682
_cell_length_c   6.39548771
_cell_angle_alpha   90.00000000
_cell_angle_beta   99.40032558
_cell_angle_gamma   90.00000000
_symmetry_Int_Tables_number   1
_chemical_formula_structural   V3(PO4)2
_chemical_formula_sum   'V12 P8 O32'
_cell_volume   642.12056457
_cell_formula_units_Z   4
loop_
 _symmetry_equiv_pos_site_id
 _symmetry_equiv_pos_as_xyz
  1  'x, y, z'
loop_
 _atom_site_type_symbol
 _atom_site_label
 _atom_site_symmetry_multiplicity
 _atom_site_fract_x
 _atom_site_fract_y
 _atom_site_fract_z
 _atom_site_occupancy
  V  V0  1  0.06963616  0.61501962  0.63684348  1
  V  V1  1  0.06963616  0.88498038  0.13684348  1
  V  V2  1  0.27661385  0.91382690  0.66870389  1
  V  V3  1  0.27661385  0.58617310  0.16870389  1
  V  V4  1  0.36058341  0.31045740  0.61658948  1
  V  V5  1  0.36058341  0.18954260  0.11658948  1
  V  V6  1  0.63941659  0.81045740  0.88341052  1
  V  V7  1  0.63941659  0.68954260  0.38341052  1
  V  V8  1  0.72338615  0.41382690  0.83129611  1
  V  V9  1  0.72338615  0.08617310  0.33129611  1
  V  V10  1  0.93036384  0.11501962  0.86315652  1
  V  V11  1  0.93036384  0.38498038  0.36315652  1
  P  P12  1  0.08988526  0.36702250  0.88748030  1
  P  P13  1  0.08988526  0.13297750  0.38748030  1
  P  P14  1  0.39745567  0.58780079  0.69483249  1
  P  P15  1  0.39745567  0.91219921  0.19483249  1
  P  P16  1  0.60254433  0.08780079  0.80516751  1
  P  P17  1  0.60254433  0.41219921  0.30516751  1
  P  P18  1  0.91011474  0.86702250  0.61251970  1
  P  P19  1  0.91011474  0.63297750  0.11251970  1
  O  O20  1  0.06450269  0.80147412  0.60448322  1
  O  O21  1  0.07424192  0.43339644  0.67176587  1
  O  O22  1  0.06450269  0.69852588  0.10448322  1
  O  O23  1  0.07424192  0.06660356  0.17176587  1
  O  O24  1  0.13162597  0.06127060  0.59127767  1
  O  O25  1  0.13162597  0.43872940  0.09127767  1
  O  O26  1  0.22388263  0.28004054  0.87159371  1
  O  O27  1  0.27233458  0.92084896  0.99211300  1
  O  O28  1  0.22388263  0.21995946  0.37159371  1
  O  O29  1  0.29842897  0.62797189  0.86093477  1
  O  O30  1  0.27233458  0.57915104  0.49211300  1
  O  O31  1  0.29842897  0.87202811  0.36093477  1
  O  O32  1  0.47844252  0.46928261  0.74787487  1
  O  O33  1  0.48069950  0.18130716  0.83389909  1
  O  O34  1  0.47844252  0.03071739  0.24787487  1
  O  O35  1  0.51930050  0.68130716  0.66610091  1
  O  O36  1  0.48069950  0.31869284  0.33389909  1
  O  O37  1  0.52155748  0.96928261  0.75212513  1
  O  O38  1  0.51930050  0.81869284  0.16610091  1
  O  O39  1  0.52155748  0.53071739  0.25212513  1
  O  O40  1  0.70157103  0.12797189  0.63906523  1
  O  O41  1  0.72766542  0.42084896  0.50788700  1
  O  O42  1  0.70157103  0.37202811  0.13906523  1
  O  O43  1  0.77611737  0.78004054  0.62840629  1
  O  O44  1  0.72766542  0.07915104  0.00788700  1
  O  O45  1  0.77611737  0.71995946  0.12840629  1
  O  O46  1  0.86837403  0.56127060  0.90872233  1
  O  O47  1  0.86837403  0.93872940  0.40872233  1
  O  O48  1  0.92575808  0.93339644  0.82823413  1
  O  O49  1  0.93549731  0.30147412  0.89551678  1
  O  O50  1  0.92575808  0.56660356  0.32823413  1
  O  O51  1  0.93549731  0.19852588  0.39551678  1
