# generated using pymatgen
data_Mn3Co3(CuO8)2
_symmetry_space_group_name_H-M   'P 1'
_cell_length_a   5.67230766
_cell_length_b   5.68313616
_cell_length_c   8.87920628
_cell_angle_alpha   90.08427001
_cell_angle_beta   92.22209370
_cell_angle_gamma   120.04346619
_symmetry_Int_Tables_number   1
_chemical_formula_structural   Mn3Co3(CuO8)2
_chemical_formula_sum   'Mn3 Co3 Cu2 O16'
_cell_volume   247.51922537
_cell_formula_units_Z   1
loop_
 _symmetry_equiv_pos_site_id
 _symmetry_equiv_pos_as_xyz
  1  'x, y, z'
loop_
 _atom_site_type_symbol
 _atom_site_label
 _atom_site_symmetry_multiplicity
 _atom_site_fract_x
 _atom_site_fract_y
 _atom_site_fract_z
 _atom_site_occupancy
  Mn  Mn0  1  0.66043425  0.83048780  0.21394900  1
  Mn  Mn1  1  0.83434668  0.66373721  0.71222410  1
  Mn  Mn2  1  0.83469311  0.17059085  0.71221043  1
  Co  Co3  1  0.16455769  0.83206542  0.20733911  1
  Co  Co4  1  0.16455117  0.33238655  0.20729626  1
  Co  Co5  1  0.33275491  0.16614152  0.70634764  1
  Cu  Cu6  1  0.33300542  0.66660303  0.48674507  1
  Cu  Cu7  1  0.66892414  0.33453058  0.98920884  1
  O  O8  1  0.16522769  0.84054312  0.60539975  1
  O  O9  1  0.04891931  0.52467203  0.33313040  1
  O  O10  1  0.32331609  0.66151476  0.10142146  1
  O  O11  1  0.00936918  0.00494681  0.31695839  1
  O  O12  1  0.01058466  0.00535458  0.81811549  1
  O  O13  1  0.16523767  0.32377573  0.60556281  1
  O  O14  1  0.47878185  0.96543404  0.33500510  1
  O  O15  1  0.47860783  0.51443972  0.33534810  1
  O  O16  1  0.31109360  0.15554788  0.10787899  1
  O  O17  1  0.66739857  0.83352210  0.59988517  1
  O  O18  1  0.52176448  0.47473073  0.83851878  1
  O  O19  1  0.52199143  0.04725588  0.83859195  1
  O  O20  1  0.65950067  0.32942625  0.60019748  1
  O  O21  1  0.83422152  0.66877334  0.10409498  1
  O  O22  1  0.97639326  0.48841607  0.83623735  1
  O  O23  1  0.83432481  0.16530399  0.10405533  1
