# generated using pymatgen
data_LiMnBO3
_symmetry_space_group_name_H-M   'P 1'
_cell_length_a   13.02833067
_cell_length_b   6.02167393
_cell_length_c   5.83329930
_cell_angle_alpha   90.00000000
_cell_angle_beta   90.00000000
_cell_angle_gamma   90.00000000
_symmetry_Int_Tables_number   1
_chemical_formula_structural   LiMnBO3
_chemical_formula_sum   'Li8 Mn8 B8 O24'
_cell_volume   457.63609170
_cell_formula_units_Z   8
loop_
 _symmetry_equiv_pos_site_id
 _symmetry_equiv_pos_as_xyz
  1  'x, y, z'
loop_
 _atom_site_type_symbol
 _atom_site_label
 _atom_site_symmetry_multiplicity
 _atom_site_fract_x
 _atom_site_fract_y
 _atom_site_fract_z
 _atom_site_occupancy
  Li  Li0  1  0.24749007  0.21780397  0.51188679  1
  Li  Li1  1  0.24749007  0.28219603  0.01188679  1
  Li  Li2  1  0.25250993  0.71780397  0.51188679  1
  Li  Li3  1  0.25250993  0.78219603  0.01188679  1
  Li  Li4  1  0.74749007  0.21780397  0.98811321  1
  Li  Li5  1  0.74749007  0.28219603  0.48811321  1
  Li  Li6  1  0.75250993  0.71780397  0.98811321  1
  Li  Li7  1  0.75250993  0.78219603  0.48811321  1
  Mn  Mn8  1  0.06735883  0.00927236  0.25105026  1
  Mn  Mn9  1  0.06735883  0.49072764  0.75105026  1
  Mn  Mn10  1  0.43264117  0.99072764  0.75105026  1
  Mn  Mn11  1  0.43264117  0.50927236  0.25105026  1
  Mn  Mn12  1  0.56735883  0.00927236  0.24894974  1
  Mn  Mn13  1  0.56735883  0.49072764  0.74894974  1
  Mn  Mn14  1  0.93264117  0.50927236  0.24894974  1
  Mn  Mn15  1  0.93264117  0.99072764  0.74894974  1
  B  B16  1  0.14617191  0.51538142  0.25151217  1
  B  B17  1  0.14617191  0.98461858  0.75151217  1
  B  B18  1  0.35382809  0.01538142  0.25151217  1
  B  B19  1  0.35382809  0.48461858  0.75151217  1
  B  B20  1  0.64617191  0.51538142  0.24848783  1
  B  B21  1  0.64617191  0.98461858  0.74848783  1
  B  B22  1  0.85382809  0.01538142  0.24848783  1
  B  B23  1  0.85382809  0.48461858  0.74848783  1
  O  O24  1  0.09195705  0.64308869  0.41038912  1
  O  O25  1  0.09195705  0.85691131  0.91038912  1
  O  O26  1  0.09061855  0.12775965  0.60828797  1
  O  O27  1  0.09061855  0.37224035  0.10828797  1
  O  O28  1  0.24882983  0.02861726  0.23690238  1
  O  O29  1  0.24882983  0.47138274  0.73690238  1
  O  O30  1  0.25117017  0.52861726  0.23690238  1
  O  O31  1  0.25117017  0.97138274  0.73690238  1
  O  O32  1  0.40938145  0.62775965  0.60828797  1
  O  O33  1  0.40938145  0.87224035  0.10828797  1
  O  O34  1  0.40804295  0.14308869  0.41038912  1
  O  O35  1  0.40804295  0.35691131  0.91038912  1
  O  O36  1  0.59195705  0.64308869  0.08961088  1
  O  O37  1  0.59195705  0.85691131  0.58961088  1
  O  O38  1  0.59061855  0.12775965  0.89171203  1
  O  O39  1  0.59061855  0.37224035  0.39171203  1
  O  O40  1  0.74882983  0.02861726  0.26309762  1
  O  O41  1  0.74882983  0.47138274  0.76309762  1
  O  O42  1  0.75117017  0.52861726  0.26309762  1
  O  O43  1  0.75117017  0.97138274  0.76309762  1
  O  O44  1  0.90938145  0.62775965  0.89171203  1
  O  O45  1  0.90938145  0.87224035  0.39171203  1
  O  O46  1  0.90804295  0.14308869  0.08961088  1
  O  O47  1  0.90804295  0.35691131  0.58961088  1
