# generated using pymatgen
data_Li4V3Cu3(SbO8)2
_symmetry_space_group_name_H-M   'P 1'
_cell_length_a   6.05817950
_cell_length_b   5.92769571
_cell_length_c   9.81626391
_cell_angle_alpha   90.38819006
_cell_angle_beta   87.00461044
_cell_angle_gamma   120.29241890
_symmetry_Int_Tables_number   1
_chemical_formula_structural   Li4V3Cu3(SbO8)2
_chemical_formula_sum   'Li4 V3 Cu3 Sb2 O16'
_cell_volume   303.88681005
_cell_formula_units_Z   1
loop_
 _symmetry_equiv_pos_site_id
 _symmetry_equiv_pos_as_xyz
  1  'x, y, z'
loop_
 _atom_site_type_symbol
 _atom_site_label
 _atom_site_symmetry_multiplicity
 _atom_site_fract_x
 _atom_site_fract_y
 _atom_site_fract_z
 _atom_site_occupancy
  Li  Li0  1  0.33046302  0.65935070  0.91065925  1
  Li  Li1  1  0.98868479  0.99547946  0.99242240  1
  Li  Li2  1  0.00180910  0.99845876  0.47976678  1
  Li  Li3  1  0.69355611  0.35256804  0.40072036  1
  V  V4  1  0.65147220  0.82776729  0.22199522  1
  V  V5  1  0.82442076  0.65089792  0.72006620  1
  V  V6  1  0.81644282  0.15516592  0.71072912  1
  Cu  Cu7  1  0.17066911  0.82916385  0.20819492  1
  Cu  Cu8  1  0.17162746  0.34025669  0.20878644  1
  Cu  Cu9  1  0.33702447  0.16615095  0.70887760  1
  Sb  Sb10  1  0.33172702  0.67313384  0.48488786  1
  Sb  Sb11  1  0.65440056  0.32458822  0.99275614  1
  O  O12  1  0.15845485  0.83787465  0.59127477  1
  O  O13  1  0.05874289  0.53521099  0.34665401  1
  O  O14  1  0.35924414  0.68008413  0.11543185  1
  O  O15  1  0.98875353  0.99311424  0.29065364  1
  O  O16  1  0.98693813  0.98440452  0.79891035  1
  O  O17  1  0.13095754  0.33193968  0.59469813  1
  O  O18  1  0.53159867  0.98631946  0.35972189  1
  O  O19  1  0.52040195  0.54485924  0.36113960  1
  O  O20  1  0.30827987  0.14699684  0.08457148  1
  O  O21  1  0.65825509  0.82936217  0.60767804  1
  O  O22  1  0.52194931  0.47823038  0.84522112  1
  O  O23  1  0.54948577  0.03133819  0.84421977  1
  O  O24  1  0.68496023  0.35303261  0.61006005  1
  O  O25  1  0.80243090  0.65570113  0.08891130  1
  O  O26  1  0.95786960  0.48511239  0.83940610  1
  O  O27  1  0.80938011  0.15373775  0.08942462  1
