# generated using pymatgen
data_Li3CrPCO7
_symmetry_space_group_name_H-M   'P 1'
_cell_length_a   8.55450994
_cell_length_b   5.11580739
_cell_length_c   6.47225616
_cell_angle_alpha   90.00000000
_cell_angle_beta   90.00000000
_cell_angle_gamma   88.05663826
_symmetry_Int_Tables_number   1
_chemical_formula_structural   Li3CrPCO7
_chemical_formula_sum   'Li6 Cr2 P2 C2 O14'
_cell_volume   283.08389069
_cell_formula_units_Z   2
loop_
 _symmetry_equiv_pos_site_id
 _symmetry_equiv_pos_as_xyz
  1  'x, y, z'
loop_
 _atom_site_type_symbol
 _atom_site_label
 _atom_site_symmetry_multiplicity
 _atom_site_fract_x
 _atom_site_fract_y
 _atom_site_fract_z
 _atom_site_occupancy
  Li  Li0  1  0.00250491  0.03086671  0.51455025  1
  Li  Li1  1  0.18659769  0.44048362  0.19057397  1
  Li  Li2  1  0.52201177  0.44553636  0.41181388  1
  Li  Li3  1  0.47798823  0.55446364  0.91181388  1
  Li  Li4  1  0.81340231  0.55951638  0.69057397  1
  Li  Li5  1  0.99749509  0.96913329  0.01455025  1
  Cr  Cr6  1  0.27440979  0.02530234  0.75337734  1
  Cr  Cr7  1  0.72559021  0.97469766  0.25337734  1
  P  P8  1  0.33665544  0.95828082  0.25010845  1
  P  P9  1  0.66334456  0.04171918  0.75010845  1
  C  C10  1  0.12010491  0.52448016  0.73867113  1
  C  C11  1  0.87989509  0.47551984  0.23867113  1
  O  O12  1  0.01512231  0.35211355  0.71072855  1
  O  O13  1  0.07503908  0.77048935  0.75777846  1
  O  O14  1  0.23675176  0.07623482  0.06658940  1
  O  O15  1  0.23325082  0.00996929  0.44358859  1
  O  O16  1  0.26770737  0.45909971  0.75100707  1
  O  O17  1  0.37284707  0.66237061  0.21301356  1
  O  O18  1  0.48798571  0.11104157  0.27279935  1
  O  O19  1  0.51201429  0.88895843  0.77279935  1
  O  O20  1  0.62715293  0.33762939  0.71301356  1
  O  O21  1  0.73229263  0.54090029  0.25100707  1
  O  O22  1  0.76674918  0.99003071  0.94358859  1
  O  O23  1  0.76324824  0.92376518  0.56658940  1
  O  O24  1  0.92496092  0.22951065  0.25777846  1
  O  O25  1  0.98487769  0.64788645  0.21072855  1
