# generated using pymatgen
data_Li2VNiO4
_symmetry_space_group_name_H-M   'P 1'
_cell_length_a   5.10600452
_cell_length_b   10.28716645
_cell_length_c   9.84688068
_cell_angle_alpha   16.82357064
_cell_angle_beta   29.22987716
_cell_angle_gamma   33.35105406
_symmetry_Int_Tables_number   1
_chemical_formula_structural   Li2VNiO4
_chemical_formula_sum   'Li2 V1 Ni1 O4'
_cell_volume   73.09917080
_cell_formula_units_Z   1
loop_
 _symmetry_equiv_pos_site_id
 _symmetry_equiv_pos_as_xyz
  1  'x, y, z'
loop_
 _atom_site_type_symbol
 _atom_site_label
 _atom_site_symmetry_multiplicity
 _atom_site_fract_x
 _atom_site_fract_y
 _atom_site_fract_z
 _atom_site_occupancy
  Li  Li0  1  0.00000000  0.00000000  0.00000000  1
  Li  Li1  1  0.00000000  0.50000000  0.00000000  1
  V  V2  1  0.50000000  0.00000000  0.50000000  1
  Ni  Ni3  1  0.50000000  0.50000000  0.50000000  1
  O  O4  1  0.19531505  1.00000000  0.26440288  1
  O  O5  1  0.27294212  0.50000000  0.23024523  1
  O  O6  1  0.80468495  0.00000000  0.73559712  1
  O  O7  1  0.72705788  0.50000000  0.76975477  1
