# generated using pymatgen
data_Li5FeO4
_symmetry_space_group_name_H-M   'P 1'
_cell_length_a   8.56191266
_cell_length_b   9.56270389
_cell_length_c   5.24537535
_cell_angle_alpha   90.00000000
_cell_angle_beta   105.50140766
_cell_angle_gamma   90.00000000
_symmetry_Int_Tables_number   1
_chemical_formula_structural   Li5FeO4
_chemical_formula_sum   'Li20 Fe4 O16'
_cell_volume   413.84301485
_cell_formula_units_Z   4
loop_
 _symmetry_equiv_pos_site_id
 _symmetry_equiv_pos_as_xyz
  1  'x, y, z'
loop_
 _atom_site_type_symbol
 _atom_site_label
 _atom_site_symmetry_multiplicity
 _atom_site_fract_x
 _atom_site_fract_y
 _atom_site_fract_z
 _atom_site_occupancy
  Li  Li0  1  0.96053723  0.04542634  0.74993511  1
  Li  Li1  1  0.96053723  0.45457366  0.24993511  1
  Li  Li2  1  0.14185225  0.81330097  0.84230777  1
  Li  Li3  1  0.14185225  0.68669903  0.34230777  1
  Li  Li4  1  0.15152304  0.32146445  0.00189004  1
  Li  Li5  1  0.15152304  0.17853555  0.50189004  1
  Li  Li6  1  0.34482042  0.92618866  0.57455433  1
  Li  Li7  1  0.34482042  0.57381134  0.07455433  1
  Li  Li8  1  0.53686213  0.19701160  0.88031902  1
  Li  Li9  1  0.46313787  0.69701160  0.61968098  1
  Li  Li10  1  0.53686213  0.30298840  0.38031902  1
  Li  Li11  1  0.46313787  0.80298840  0.11968098  1
  Li  Li12  1  0.65517958  0.42618866  0.92544567  1
  Li  Li13  1  0.65517958  0.07381134  0.42544567  1
  Li  Li14  1  0.84847696  0.82146445  0.49810996  1
  Li  Li15  1  0.84847696  0.67853555  0.99810996  1
  Li  Li16  1  0.85814775  0.31330097  0.65769223  1
  Li  Li17  1  0.85814775  0.18669903  0.15769223  1
  Li  Li18  1  0.03946277  0.54542634  0.75006489  1
  Li  Li19  1  0.03946277  0.95457366  0.25006489  1
  Fe  Fe20  1  0.26828006  0.45269627  0.55724720  1
  Fe  Fe21  1  0.26828006  0.04730373  0.05724720  1
  Fe  Fe22  1  0.73171994  0.95269627  0.94275280  1
  Fe  Fe23  1  0.73171994  0.54730373  0.44275280  1
  O  O24  1  0.08922129  0.35183130  0.62808129  1
  O  O25  1  0.08922129  0.14816870  0.12808129  1
  O  O26  1  0.25880235  0.63697569  0.71192858  1
  O  O27  1  0.17629633  0.00493181  0.68911299  1
  O  O28  1  0.25880235  0.86302431  0.21192858  1
  O  O29  1  0.17629633  0.49506819  0.18911299  1
  O  O30  1  0.46555437  0.36272109  0.68047623  1
  O  O31  1  0.46555437  0.13727891  0.18047623  1
  O  O32  1  0.53444563  0.86272109  0.81952377  1
  O  O33  1  0.53444563  0.63727891  0.31952377  1
  O  O34  1  0.82370367  0.50493181  0.81088701  1
  O  O35  1  0.74119765  0.13697569  0.78807142  1
  O  O36  1  0.82370367  0.99506819  0.31088701  1
  O  O37  1  0.74119765  0.36302431  0.28807142  1
  O  O38  1  0.91077871  0.85183130  0.87191871  1
  O  O39  1  0.91077871  0.64816870  0.37191871  1
