# generated using pymatgen
data_Li2VGa3O8
_symmetry_space_group_name_H-M   'P 1'
_cell_length_a   5.44754682
_cell_length_b   6.70815656
_cell_length_c   5.19017187
_cell_angle_alpha   90.35145538
_cell_angle_beta   89.96638707
_cell_angle_gamma   90.14375186
_symmetry_Int_Tables_number   1
_chemical_formula_structural   Li2VGa3O8
_chemical_formula_sum   'Li2 V1 Ga3 O8'
_cell_volume   189.66023856
_cell_formula_units_Z   1
loop_
 _symmetry_equiv_pos_site_id
 _symmetry_equiv_pos_as_xyz
  1  'x, y, z'
loop_
 _atom_site_type_symbol
 _atom_site_label
 _atom_site_symmetry_multiplicity
 _atom_site_fract_x
 _atom_site_fract_y
 _atom_site_fract_z
 _atom_site_occupancy
  Li  Li0  1  0.57051792  0.86911395  0.49258159  1
  Li  Li1  1  0.91756156  0.38461436  0.00601078  1
  V  V2  1  0.07338284  0.12372438  0.49939093  1
  Ga  Ga3  1  0.42690950  0.62535586  0.99759010  1
  Ga  Ga4  1  0.57561500  0.38942071  0.48297425  1
  Ga  Ga5  1  0.91245476  0.85495709  0.01143537  1
  O  O6  1  0.03135546  0.10106623  0.16654033  1
  O  O7  1  0.09554324  0.63442754  0.07033807  1
  O  O8  1  0.38633605  0.15317757  0.57050972  1
  O  O9  1  0.48515324  0.61667031  0.64480398  1
  O  O10  1  0.58471739  0.40349194  0.13462422  1
  O  O11  1  0.59631783  0.84936203  0.12012482  1
  O  O12  1  0.90218761  0.32658864  0.60880194  1
  O  O13  1  0.94194560  0.91781038  0.64847292  1
