# generated using pymatgen
data_InGa5As4
_symmetry_space_group_name_H-M   'P 1'
_cell_length_a   4.11058369
_cell_length_b   4.11058369
_cell_length_c   17.52431536
_cell_angle_alpha   96.73528344
_cell_angle_beta   83.26471656
_cell_angle_gamma   120.00000011
_symmetry_Int_Tables_number   1
_chemical_formula_structural   InGa5As4
_chemical_formula_sum   'In1 Ga5 As4'
_cell_volume   254.07339268
_cell_formula_units_Z   1
loop_
 _symmetry_equiv_pos_site_id
 _symmetry_equiv_pos_as_xyz
  1  'x, y, z'
loop_
 _atom_site_type_symbol
 _atom_site_label
 _atom_site_symmetry_multiplicity
 _atom_site_fract_x
 _atom_site_fract_y
 _atom_site_fract_z
 _atom_site_occupancy
  In  In0  1  0.35408720  0.64591280  0.93773841  1
  Ga  Ga1  1  0.99195391  0.00804609  0.02413826  1
  Ga  Ga2  1  0.59577695  0.40422305  0.21266915  1
  Ga  Ga3  1  0.19925744  0.80074256  0.40222769  1
  Ga  Ga4  1  0.80278853  0.19721147  0.59163440  1
  Ga  Ga5  1  0.40607833  0.59392167  0.78176502  1
  As  As6  1  0.94524345  0.05475655  0.16426966  1
  As  As7  1  0.54818968  0.45181032  0.35543096  1
  As  As8  1  0.15145693  0.84854307  0.54562920  1
  As  As9  1  0.75516758  0.24483242  0.73449725  1
