# generated using pymatgen
data_Li3MnV4O12
_symmetry_space_group_name_H-M   'P 1'
_cell_length_a   5.41054274
_cell_length_b   10.78130408
_cell_length_c   9.51932435
_cell_angle_alpha   27.83021276
_cell_angle_beta   50.56327014
_cell_angle_gamma   56.43316727
_symmetry_Int_Tables_number   1
_chemical_formula_structural   Li3MnV4O12
_chemical_formula_sum   'Li3 Mn1 V4 O12'
_cell_volume   200.15604962
_cell_formula_units_Z   1
loop_
 _symmetry_equiv_pos_site_id
 _symmetry_equiv_pos_as_xyz
  1  'x, y, z'
loop_
 _atom_site_type_symbol
 _atom_site_label
 _atom_site_symmetry_multiplicity
 _atom_site_fract_x
 _atom_site_fract_y
 _atom_site_fract_z
 _atom_site_occupancy
  Li  Li0  1  0.27732155  0.50181179  0.28905739  1
  Li  Li1  1  0.78865579  0.00307097  0.78359623  1
  Li  Li2  1  0.78357933  0.49522589  0.78732431  1
  Mn  Mn3  1  0.29731604  0.00100295  0.29128180  1
  V  V4  1  0.01641226  0.99782488  0.00470523  1
  V  V5  1  0.98637925  0.49029836  0.01113244  1
  V  V6  1  0.48561354  0.99558101  0.52081451  1
  V  V7  1  0.51239915  0.50800716  0.48647533  1
  O  O8  1  0.36087752  0.29201824  0.11535734  1
  O  O9  1  0.22612525  0.11996462  0.61524283  1
  O  O10  1  0.11904612  0.30884282  0.72729395  1
  O  O11  1  0.84574845  0.19359034  0.22506928  1
  O  O12  1  0.35225307  0.80998705  0.10987379  1
  O  O13  1  0.73266794  0.38542770  0.34587800  1
  O  O14  1  0.21590017  0.63689185  0.60529242  1
  O  O15  1  0.59379712  0.17078299  0.88008702  1
  O  O16  1  0.13589281  0.82957733  0.69628960  1
  O  O17  1  0.85260269  0.69152886  0.23083398  1
  O  O18  1  0.74675203  0.87297885  0.35226150  1
  O  O19  1  0.60025891  0.69558733  0.85173204  1
