# generated using pymatgen
data_Li6Fe3Sb3O16
_symmetry_space_group_name_H-M   'P 1'
_cell_length_a   6.08324103
_cell_length_b   6.11935515
_cell_length_c   10.04007117
_cell_angle_alpha   90.00022835
_cell_angle_beta   89.57373932
_cell_angle_gamma   120.19684057
_symmetry_Int_Tables_number   1
_chemical_formula_structural   Li6Fe3Sb3O16
_chemical_formula_sum   'Li6 Fe3 Sb3 O16'
_cell_volume   323.01834106
_cell_formula_units_Z   1
loop_
 _symmetry_equiv_pos_site_id
 _symmetry_equiv_pos_as_xyz
  1  'x, y, z'
loop_
 _atom_site_type_symbol
 _atom_site_label
 _atom_site_symmetry_multiplicity
 _atom_site_fract_x
 _atom_site_fract_y
 _atom_site_fract_z
 _atom_site_occupancy
  Li  Li0  1  0.32990986  0.66496414  0.50122636  1
  Li  Li1  1  0.33555522  0.66779227  0.87517884  1
  Li  Li2  1  0.98198580  0.99099668  0.99912077  1
  Li  Li3  1  0.98589953  0.99295813  0.50458548  1
  Li  Li4  1  0.68410890  0.34207371  0.00019002  1
  Li  Li5  1  0.65344373  0.32673357  0.38922169  1
  Fe  Fe6  1  0.66477059  0.83241255  0.21789629  1
  Fe  Fe7  1  0.83467656  0.66509175  0.71634647  1
  Fe  Fe8  1  0.83468642  0.16961603  0.71634197  1
  Sb  Sb9  1  0.17025616  0.83191523  0.21537939  1
  Sb  Sb10  1  0.17026513  0.33835928  0.21537808  1
  Sb  Sb11  1  0.34129367  0.17065996  0.71464864  1
  O  O12  1  0.14655629  0.84273283  0.60950375  1
  O  O13  1  0.02351999  0.51176565  0.32691154  1
  O  O14  1  0.33040896  0.66521381  0.10021365  1
  O  O15  1  0.00610783  0.00306405  0.32323462  1
  O  O16  1  0.01739757  0.00870936  0.82204454  1
  O  O17  1  0.14655725  0.30384399  0.60950362  1
  O  O18  1  0.47742368  0.96900328  0.32487810  1
  O  O19  1  0.47742927  0.50844717  0.32487625  1
  O  O20  1  0.31086560  0.15543545  0.10428171  1
  O  O21  1  0.69832453  0.84917079  0.62175840  1
  O  O22  1  0.52448755  0.49109680  0.82240489  1
  O  O23  1  0.52448419  0.03341182  0.82240193  1
  O  O24  1  0.65473470  0.32737914  0.59827067  1
  O  O25  1  0.85546728  0.69406141  0.10944136  1
  O  O26  1  0.96390818  0.48196585  0.81316274  1
  O  O27  1  0.85547557  0.16142632  0.10943823  1
