# generated using pymatgen
data_Li2AlCoO4
_symmetry_space_group_name_H-M   'P 1'
_cell_length_a   6.35302926
_cell_length_b   10.84847977
_cell_length_c   5.12573747
_cell_angle_alpha   90.00000000
_cell_angle_beta   89.98801065
_cell_angle_gamma   90.00000000
_symmetry_Int_Tables_number   1
_chemical_formula_structural   Li2AlCoO4
_chemical_formula_sum   'Li8 Al4 Co4 O16'
_cell_volume   353.26945484
_cell_formula_units_Z   4
loop_
 _symmetry_equiv_pos_site_id
 _symmetry_equiv_pos_as_xyz
  1  'x, y, z'
loop_
 _atom_site_type_symbol
 _atom_site_label
 _atom_site_symmetry_multiplicity
 _atom_site_fract_x
 _atom_site_fract_y
 _atom_site_fract_z
 _atom_site_occupancy
  Li  Li0  1  0.00973745  0.83452880  0.68991586  1
  Li  Li1  1  0.24262666  0.07860609  0.70567991  1
  Li  Li2  1  0.25737334  0.57860609  0.79432009  1
  Li  Li3  1  0.49026255  0.33452880  0.81008414  1
  Li  Li4  1  0.50973745  0.66547120  0.18991586  1
  Li  Li5  1  0.74262666  0.42139391  0.20567991  1
  Li  Li6  1  0.75737334  0.92139391  0.29432009  1
  Li  Li7  1  0.99026255  0.16547120  0.31008414  1
  Al  Al8  1  0.24193432  0.41140013  0.31261297  1
  Al  Al9  1  0.25806568  0.91140013  0.18738703  1
  Al  Al10  1  0.74193432  0.08859987  0.81261297  1
  Al  Al11  1  0.75806568  0.58859987  0.68738703  1
  Co  Co12  1  0.00849244  0.66657333  0.18347677  1
  Co  Co13  1  0.49150756  0.16657333  0.31652323  1
  Co  Co14  1  0.50849244  0.83342667  0.68347677  1
  Co  Co15  1  0.99150756  0.33342667  0.81652323  1
  O  O16  1  0.01729543  0.33506795  0.18493165  1
  O  O17  1  0.02578945  0.83105937  0.28824912  1
  O  O18  1  0.25297267  0.06739485  0.29187669  1
  O  O19  1  0.22954442  0.40767269  0.65998947  1
  O  O20  1  0.27045558  0.90767269  0.84001053  1
  O  O21  1  0.24702733  0.56739485  0.20812331  1
  O  O22  1  0.47421055  0.33105937  0.21175088  1
  O  O23  1  0.48270457  0.83506795  0.31506835  1
  O  O24  1  0.51729543  0.16493205  0.68493165  1
  O  O25  1  0.52578945  0.66894063  0.78824912  1
  O  O26  1  0.75297267  0.43260515  0.79187669  1
  O  O27  1  0.72954442  0.09232731  0.15998947  1
  O  O28  1  0.77045558  0.59232731  0.34001053  1
  O  O29  1  0.74702733  0.93260515  0.70812331  1
  O  O30  1  0.97421055  0.16894063  0.71175088  1
  O  O31  1  0.98270457  0.66493205  0.81506835  1
