# generated using pymatgen
data_Sr2LaCl7
_symmetry_space_group_name_H-M   'P 1'
_cell_length_a   10.53960346
_cell_length_b   9.45398869
_cell_length_c   13.31078421
_cell_angle_alpha   90.00000000
_cell_angle_beta   90.00000000
_cell_angle_gamma   90.00000000
_symmetry_Int_Tables_number   1
_chemical_formula_structural   Sr2LaCl7
_chemical_formula_sum   'Sr8 La4 Cl28'
_cell_volume   1326.30373499
_cell_formula_units_Z   4
loop_
 _symmetry_equiv_pos_site_id
 _symmetry_equiv_pos_as_xyz
  1  'x, y, z'
loop_
 _atom_site_type_symbol
 _atom_site_label
 _atom_site_symmetry_multiplicity
 _atom_site_fract_x
 _atom_site_fract_y
 _atom_site_fract_z
 _atom_site_occupancy
  Sr  Sr0  1  0.13286126  0.25000000  0.74665882  1
  Sr  Sr1  1  0.18508769  0.75000000  0.91225863  1
  Sr  Sr2  1  0.31491131  0.25000000  0.41225863  1
  Sr  Sr3  1  0.36713874  0.75000000  0.24665882  1
  Sr  Sr4  1  0.63286126  0.25000000  0.75334118  1
  Sr  Sr5  1  0.68508869  0.75000000  0.58774137  1
  Sr  Sr6  1  0.81491131  0.25000000  0.08774137  1
  Sr  Sr7  1  0.86713874  0.75000000  0.25334118  1
  La  La8  1  0.18081453  0.75000000  0.55818224  1
  La  La9  1  0.31918547  0.25000000  0.05818224  1
  La  La10  1  0.68081453  0.75000000  0.94181776  1
  La  La11  1  0.81918547  0.25000000  0.44181776  1
  Cl  Cl12  1  0.06824591  0.25000000  0.52424326  1
  Cl  Cl13  1  0.07807179  0.25000000  0.13009683  1
  Cl  Cl14  1  0.11687182  0.75000000  0.13749512  1
  Cl  Cl15  1  0.11202661  0.55650396  0.70043171  1
  Cl  Cl16  1  0.11202661  0.94349604  0.70043171  1
  Cl  Cl17  1  0.25698429  0.94171418  0.40939684  1
  Cl  Cl18  1  0.25698429  0.55828582  0.40939684  1
  Cl  Cl19  1  0.24301571  0.05828582  0.90939684  1
  Cl  Cl20  1  0.24301571  0.44171418  0.90939684  1
  Cl  Cl21  1  0.38797339  0.05650396  0.20043171  1
  Cl  Cl22  1  0.38797339  0.44349704  0.20043171  1
  Cl  Cl23  1  0.38312818  0.25000000  0.63749512  1
  Cl  Cl24  1  0.42192821  0.75000000  0.63009683  1
  Cl  Cl25  1  0.43175409  0.75000000  0.02424326  1
  Cl  Cl26  1  0.56824591  0.25000000  0.97575674  1
  Cl  Cl27  1  0.57807179  0.25000000  0.36990317  1
  Cl  Cl28  1  0.61687182  0.75000000  0.36250488  1
  Cl  Cl29  1  0.61202661  0.55650396  0.79956829  1
  Cl  Cl30  1  0.61202661  0.94349604  0.79956829  1
  Cl  Cl31  1  0.75698429  0.55828582  0.09060316  1
  Cl  Cl32  1  0.75698429  0.94171418  0.09060316  1
  Cl  Cl33  1  0.74301571  0.05828582  0.59060316  1
  Cl  Cl34  1  0.74301571  0.44171418  0.59060316  1
  Cl  Cl35  1  0.88797339  0.05650396  0.29956829  1
  Cl  Cl36  1  0.88797339  0.44349704  0.29956829  1
  Cl  Cl37  1  0.88312818  0.25000000  0.86250488  1
  Cl  Cl38  1  0.92192821  0.75000000  0.86990317  1
  Cl  Cl39  1  0.93175409  0.75000000  0.47575674  1
