# generated using pymatgen
data_Li2CoCSO7
_symmetry_space_group_name_H-M   'P 1'
_cell_length_a   8.62747571
_cell_length_b   6.42442290
_cell_length_c   5.04229518
_cell_angle_alpha   90.00000000
_cell_angle_beta   87.54372810
_cell_angle_gamma   90.00000000
_symmetry_Int_Tables_number   1
_chemical_formula_structural   Li2CoCSO7
_chemical_formula_sum   'Li4 Co2 C2 S2 O14'
_cell_volume   279.22026075
_cell_formula_units_Z   2
loop_
 _symmetry_equiv_pos_site_id
 _symmetry_equiv_pos_as_xyz
  1  'x, y, z'
loop_
 _atom_site_type_symbol
 _atom_site_label
 _atom_site_symmetry_multiplicity
 _atom_site_fract_x
 _atom_site_fract_y
 _atom_site_fract_z
 _atom_site_occupancy
  Li  Li0  1  0.19696828  0.52109227  0.22997972  1
  Li  Li1  1  0.19696828  0.97890773  0.22997972  1
  Li  Li2  1  0.80303172  0.47890773  0.77002028  1
  Li  Li3  1  0.80303172  0.02109227  0.77002028  1
  Co  Co4  1  0.35142214  0.75000000  0.77936560  1
  Co  Co5  1  0.64857786  0.25000000  0.22063440  1
  C  C6  1  0.05992859  0.75000000  0.72636992  1
  C  C7  1  0.94007141  0.25000000  0.27363008  1
  S  S8  1  0.41990387  0.25000000  0.71355664  1
  S  S9  1  0.58009613  0.75000000  0.28644336  1
  O  O10  1  0.08782686  0.25000000  0.28293710  1
  O  O11  1  0.12883284  0.75000000  0.95396953  1
  O  O12  1  0.15264995  0.75000000  0.51361113  1
  O  O13  1  0.33200995  0.06565813  0.81329349  1
  O  O14  1  0.33200995  0.43434187  0.81329349  1
  O  O15  1  0.41926854  0.75000000  0.18694427  1
  O  O16  1  0.43199368  0.25000000  0.41612635  1
  O  O17  1  0.56800632  0.75000000  0.58387365  1
  O  O18  1  0.58073146  0.25000000  0.81305573  1
  O  O19  1  0.66799005  0.56565813  0.18670651  1
  O  O20  1  0.66799005  0.93434187  0.18670651  1
  O  O21  1  0.84735005  0.25000000  0.48638887  1
  O  O22  1  0.87116716  0.25000000  0.04603047  1
  O  O23  1  0.91217314  0.75000000  0.71706290  1
