# generated using pymatgen
data_Na2SnAsCO7
_symmetry_space_group_name_H-M   'P 1'
_cell_length_a   9.28934849
_cell_length_b   7.12103122
_cell_length_c   5.41863879
_cell_angle_alpha   90.00000000
_cell_angle_beta   90.78424504
_cell_angle_gamma   90.00000000
_symmetry_Int_Tables_number   1
_chemical_formula_structural   Na2SnAsCO7
_chemical_formula_sum   'Na4 Sn2 As2 C2 O14'
_cell_volume   358.40797371
_cell_formula_units_Z   2
loop_
 _symmetry_equiv_pos_site_id
 _symmetry_equiv_pos_as_xyz
  1  'x, y, z'
loop_
 _atom_site_type_symbol
 _atom_site_label
 _atom_site_symmetry_multiplicity
 _atom_site_fract_x
 _atom_site_fract_y
 _atom_site_fract_z
 _atom_site_occupancy
  Na  Na0  1  0.21335125  0.50018133  0.23158658  1
  Na  Na1  1  0.21335125  0.99981867  0.23158658  1
  Na  Na2  1  0.78664875  0.49981867  0.76841342  1
  Na  Na3  1  0.78664875  0.00018133  0.76841342  1
  Sn  Sn4  1  0.35706724  0.75000000  0.78291084  1
  Sn  Sn5  1  0.64293276  0.25000000  0.21708916  1
  As  As6  1  0.41361533  0.25000000  0.71015183  1
  As  As7  1  0.58638467  0.75000000  0.28984817  1
  C  C8  1  0.06757924  0.75000000  0.72766686  1
  C  C9  1  0.93242076  0.25000000  0.27233314  1
  O  O10  1  0.06771876  0.25000000  0.29325735  1
  O  O11  1  0.13464125  0.75000000  0.94501923  1
  O  O12  1  0.15363955  0.75000000  0.53439502  1
  O  O13  1  0.32563831  0.05428862  0.82168867  1
  O  O14  1  0.32563831  0.44571138  0.82168867  1
  O  O15  1  0.40665236  0.75000000  0.19060815  1
  O  O16  1  0.41456116  0.25000000  0.38937239  1
  O  O17  1  0.58543884  0.75000000  0.61062761  1
  O  O18  1  0.59334764  0.25000000  0.80939185  1
  O  O19  1  0.67436169  0.55428862  0.17831133  1
  O  O20  1  0.67436169  0.94571138  0.17831133  1
  O  O21  1  0.84636045  0.25000000  0.46560498  1
  O  O22  1  0.86535875  0.25000000  0.05498077  1
  O  O23  1  0.93228124  0.75000000  0.70674265  1
