# generated using pymatgen
data_Li6Fe3Co3O16
_symmetry_space_group_name_H-M   'P 1'
_cell_length_a   5.77218330
_cell_length_b   5.75005466
_cell_length_c   9.83798121
_cell_angle_alpha   90.36249687
_cell_angle_beta   89.33475100
_cell_angle_gamma   120.46122284
_symmetry_Int_Tables_number   1
_chemical_formula_structural   Li6Fe3Co3O16
_chemical_formula_sum   'Li6 Fe3 Co3 O16'
_cell_volume   281.43761061
_cell_formula_units_Z   1
loop_
 _symmetry_equiv_pos_site_id
 _symmetry_equiv_pos_as_xyz
  1  'x, y, z'
loop_
 _atom_site_type_symbol
 _atom_site_label
 _atom_site_symmetry_multiplicity
 _atom_site_fract_x
 _atom_site_fract_y
 _atom_site_fract_z
 _atom_site_occupancy
  Li  Li0  1  0.33476285  0.66273927  0.50162147  1
  Li  Li1  1  0.32875805  0.66702982  0.88891471  1
  Li  Li2  1  0.01525070  0.00296310  0.00024702  1
  Li  Li3  1  0.01266056  0.00560046  0.49869391  1
  Li  Li4  1  0.66688136  0.33433615  -0.00035768  1
  Li  Li5  1  0.66153032  0.33353464  0.38973414  1
  Fe  Fe6  1  0.66290206  0.83286266  0.21482673  1
  Fe  Fe7  1  0.82936540  0.66165204  0.71452981  1
  Fe  Fe8  1  0.82946650  0.16706539  0.71574351  1
  Co  Co9  1  0.16699152  0.83313402  0.21372362  1
  Co  Co10  1  0.17015431  0.33920151  0.21590629  1
  Co  Co11  1  0.33567202  0.16789461  0.71442387  1
  O  O12  1  0.15734753  0.84632560  0.61268127  1
  O  O13  1  0.02829509  0.51638242  0.31551702  1
  O  O14  1  0.30933471  0.65080482  0.10584147  1
  O  O15  1  0.02095270  0.01483982  0.31632468  1
  O  O16  1  0.00639773  0.98587958  0.81701482  1
  O  O17  1  0.16057423  0.30995875  0.61570234  1
  O  O18  1  0.47606328  0.96257636  0.31981846  1
  O  O19  1  0.47243813  0.50994493  0.31979820  1
  O  O20  1  0.31468301  0.15695699  0.11517017  1
  O  O21  1  0.69165005  0.84143567  0.61068490  1
  O  O22  1  0.51246925  0.48196862  0.81983256  1
  O  O23  1  0.50845809  0.03182273  0.81806746  1
  O  O24  1  0.66037359  0.34792511  0.60388157  1
  O  O25  1  0.84950274  0.69134867  0.11513019  1
  O  O26  1  0.96458276  0.48734059  0.82141690  1
  O  O27  1  0.85247947  0.15677467  0.11295259  1
