# generated using pymatgen
data_K3Np3Si2O13
_symmetry_space_group_name_H-M   'P 1'
_cell_length_a   3.95766273
_cell_length_b   9.83794385
_cell_length_c   9.80097008
_cell_angle_alpha   120.04629065
_cell_angle_beta   89.98588208
_cell_angle_gamma   90.03048670
_symmetry_Int_Tables_number   1
_chemical_formula_structural   K3Np3Si2O13
_chemical_formula_sum   'K3 Np3 Si2 O13'
_cell_volume   330.32389125
_cell_formula_units_Z   1
loop_
 _symmetry_equiv_pos_site_id
 _symmetry_equiv_pos_as_xyz
  1  'x, y, z'
loop_
 _atom_site_type_symbol
 _atom_site_label
 _atom_site_symmetry_multiplicity
 _atom_site_fract_x
 _atom_site_fract_y
 _atom_site_fract_z
 _atom_site_occupancy
  K  K0  1  0.49883193  0.21938678  0.99610556  1
  K  K1  1  0.49887883  0.77703516  0.78047207  1
  K  K2  1  0.49881368  0.00318215  0.22302176  1
  Np  Np3  1  0.00026345  0.42351346  0.40246210  1
  Np  Np4  1  0.00016908  0.97934149  0.57691126  1
  Np  Np5  1  0.00010648  0.59721651  0.02047442  1
  Si  Si6  1  0.49485446  0.33309319  0.66681908  1
  Si  Si7  1  0.55852166  0.66669465  0.33349000  1
  O  O8  1  0.00075307  0.23079623  0.21113881  1
  O  O9  1  0.00076070  0.98038650  0.76947165  1
  O  O10  1  0.00072111  0.78814205  0.01946127  1
  O  O11  1  0.99837436  0.59763019  0.60320002  1
  O  O12  1  0.99844362  0.00523914  0.40252862  1
  O  O13  1  0.99839468  0.39743235  0.99466648  1
  O  O14  1  0.49604264  0.32628270  0.49980911  1
  O  O15  1  0.49602289  0.17394730  0.67389837  1
  O  O16  1  0.49603687  0.50004225  0.82651510  1
  O  O17  1  0.49372744  0.83273268  0.50300939  1
  O  O18  1  0.49379104  0.49752994  0.32965155  1
  O  O19  1  0.49361219  0.67015110  0.16695710  1
  O  O20  1  0.98287983  0.66672417  0.33323631  1
