# generated using pymatgen
data_Mn3Co3(TeO8)2
_symmetry_space_group_name_H-M   'P 1'
_cell_length_a   5.93076753
_cell_length_b   5.97476968
_cell_length_c   9.27570498
_cell_angle_alpha   89.02898649
_cell_angle_beta   89.16206226
_cell_angle_gamma   119.76284232
_symmetry_Int_Tables_number   1
_chemical_formula_structural   Mn3Co3(TeO8)2
_chemical_formula_sum   'Mn3 Co3 Te2 O16'
_cell_volume   285.18530624
_cell_formula_units_Z   1
loop_
 _symmetry_equiv_pos_site_id
 _symmetry_equiv_pos_as_xyz
  1  'x, y, z'
loop_
 _atom_site_type_symbol
 _atom_site_label
 _atom_site_symmetry_multiplicity
 _atom_site_fract_x
 _atom_site_fract_y
 _atom_site_fract_z
 _atom_site_occupancy
  Mn  Mn0  1  0.65718932  0.82693534  0.20797877  1
  Mn  Mn1  1  0.82938390  0.65809861  0.71087891  1
  Mn  Mn2  1  0.83401195  0.16662636  0.70450304  1
  Co  Co3  1  0.16605643  0.82920277  0.21357168  1
  Co  Co4  1  0.16682686  0.33767626  0.21571871  1
  Co  Co5  1  0.33872268  0.16505557  0.71933696  1
  Te  Te6  1  0.33156520  0.66164670  0.48838055  1
  Te  Te7  1  0.66431184  0.33500050  0.98932307  1
  O  O8  1  0.17050488  0.82345374  0.59702373  1
  O  O9  1  0.04364650  0.52185131  0.35076580  1
  O  O10  1  0.33566900  0.67001620  0.11009676  1
  O  O11  1  -0.00715258  -0.00535590  0.29593728  1
  O  O12  1  -0.00388261  -0.00767264  0.79664113  1
  O  O13  1  0.17258834  0.33916324  0.59423888  1
  O  O14  1  0.49140862  0.95685030  0.34262727  1
  O  O15  1  0.49095322  0.53044699  0.34146021  1
  O  O16  1  0.33668733  0.17299530  0.09025985  1
  O  O17  1  0.64750248  0.80947664  0.59806528  1
  O  O18  1  0.52795389  0.48967365  0.84273579  1
  O  O19  1  0.53087516  0.04987320  0.84916238  1
  O  O20  1  0.67335803  0.34077444  0.61127965  1
  O  O21  1  0.81642799  0.65386530  0.09895561  1
  O  O22  1  0.96254053  0.50509614  0.84907280  1
  O  O23  1  0.82285003  0.16945001  0.09770788  1
