# generated using pymatgen
data_Li2Ni(PO3)4
_symmetry_space_group_name_H-M   'P 1'
_cell_length_a   7.12921969
_cell_length_b   7.58520916
_cell_length_c   4.92806506
_cell_angle_alpha   82.01967021
_cell_angle_beta   110.38277693
_cell_angle_gamma   115.45007579
_symmetry_Int_Tables_number   1
_chemical_formula_structural   Li2Ni(PO3)4
_chemical_formula_sum   'Li2 Ni1 P4 O12'
_cell_volume   225.54735781
_cell_formula_units_Z   1
loop_
 _symmetry_equiv_pos_site_id
 _symmetry_equiv_pos_as_xyz
  1  'x, y, z'
loop_
 _atom_site_type_symbol
 _atom_site_label
 _atom_site_symmetry_multiplicity
 _atom_site_fract_x
 _atom_site_fract_y
 _atom_site_fract_z
 _atom_site_occupancy
  Li  Li0  1  0.24117495  0.44415619  0.98236641  1
  Li  Li1  1  0.75882505  0.55584381  0.01763359  1
  Ni  Ni2  1  0.00000000  0.00000000  0.00000000  1
  P  P3  1  0.19139689  0.78804868  0.55822631  1
  P  P4  1  0.59736686  0.78429870  0.43784558  1
  P  P5  1  0.40263314  0.21570130  0.56215442  1
  P  P6  1  0.80860311  0.21195132  0.44177369  1
  O  O7  1  0.12265128  0.64070662  0.77381557  1
  O  O8  1  0.31333383  0.00343763  0.70905334  1
  O  O9  1  0.98280158  0.20566419  0.72334877  1
  O  O10  1  0.37779324  0.77005130  0.47195257  1
  O  O11  1  0.23926801  0.20800384  0.26329615  1
  O  O12  1  0.45887729  0.36857522  0.76945690  1
  O  O13  1  0.54112271  0.63142478  0.23054310  1
  O  O14  1  0.76073199  0.79199616  0.73670385  1
  O  O15  1  0.62220676  0.22994870  0.52804743  1
  O  O16  1  0.01719842  0.79433581  0.27665123  1
  O  O17  1  0.68666617  0.99656237  0.29094666  1
  O  O18  1  0.87734872  0.35929338  0.22618443  1
