# generated using pymatgen
data_VCr2O6
_symmetry_space_group_name_H-M   'P 1'
_cell_length_a   5.17159855
_cell_length_b   13.90745098
_cell_length_c   5.42387401
_cell_angle_alpha   90.00000000
_cell_angle_beta   90.00000000
_cell_angle_gamma   90.00000000
_symmetry_Int_Tables_number   1
_chemical_formula_structural   VCr2O6
_chemical_formula_sum   'V4 Cr8 O24'
_cell_volume   390.10537635
_cell_formula_units_Z   4
loop_
 _symmetry_equiv_pos_site_id
 _symmetry_equiv_pos_as_xyz
  1  'x, y, z'
loop_
 _atom_site_type_symbol
 _atom_site_label
 _atom_site_symmetry_multiplicity
 _atom_site_fract_x
 _atom_site_fract_y
 _atom_site_fract_z
 _atom_site_occupancy
  V  V0  1  0.25000000  0.00000000  0.34156570  1
  V  V1  1  0.25000000  0.50000000  0.84156570  1
  V  V2  1  0.75000000  0.00000000  0.65843430  1
  V  V3  1  0.75000000  0.50000000  0.15843430  1
  Cr  Cr4  1  0.99063433  0.17429929  0.14227748  1
  Cr  Cr5  1  0.99063433  0.32570071  0.64227748  1
  Cr  Cr6  1  0.00936567  0.67429929  0.35772252  1
  Cr  Cr7  1  0.00936567  0.82570071  0.85772252  1
  Cr  Cr8  1  0.49063433  0.32570071  0.35772252  1
  Cr  Cr9  1  0.50936567  0.67429929  0.64227748  1
  Cr  Cr10  1  0.49063433  0.17429929  0.85772252  1
  Cr  Cr11  1  0.50936567  0.82570071  0.14227748  1
  O  O12  1  0.06252512  0.56975543  0.10990059  1
  O  O13  1  0.19051739  0.59345602  0.61701018  1
  O  O14  1  0.19051739  0.90654398  0.11701018  1
  O  O15  1  0.06252512  0.93024457  0.60990059  1
  O  O16  1  0.15317962  0.25986721  0.37018070  1
  O  O17  1  0.15317962  0.24013279  0.87018070  1
  O  O18  1  0.34682038  0.74013279  0.37018070  1
  O  O19  1  0.34682038  0.75986721  0.87018070  1
  O  O20  1  0.30948261  0.09345602  0.11701018  1
  O  O21  1  0.43747488  0.06975543  0.60990059  1
  O  O22  1  0.43747488  0.43024457  0.10990059  1
  O  O23  1  0.30948261  0.40654398  0.61701018  1
  O  O24  1  0.69051739  0.59345602  0.38298982  1
  O  O25  1  0.56252512  0.56975543  0.89009941  1
  O  O26  1  0.56252512  0.93024457  0.39009941  1
  O  O27  1  0.69051739  0.90654398  0.88298982  1
  O  O28  1  0.65317962  0.24013279  0.12981930  1
  O  O29  1  0.65317962  0.25986721  0.62981930  1
  O  O30  1  0.84682038  0.75986721  0.12981930  1
  O  O31  1  0.84682038  0.74013279  0.62981930  1
  O  O32  1  0.80948261  0.09345602  0.88298982  1
  O  O33  1  0.93747488  0.43024457  0.89009941  1
  O  O34  1  0.80948261  0.40654398  0.38298982  1
  O  O35  1  0.93747488  0.06975543  0.39009941  1
