# generated using pymatgen
data_Mg4Sc3(SiO3)8
_symmetry_space_group_name_H-M   'P 1'
_cell_length_a   9.45088408
_cell_length_b   8.97921673
_cell_length_c   5.44018470
_cell_angle_alpha   90.00000000
_cell_angle_beta   89.84924490
_cell_angle_gamma   90.00000000
_symmetry_Int_Tables_number   1
_chemical_formula_structural   Mg4Sc3(SiO3)8
_chemical_formula_sum   'Mg4 Sc3 Si8 O24'
_cell_volume   461.66083384
_cell_formula_units_Z   1
loop_
 _symmetry_equiv_pos_site_id
 _symmetry_equiv_pos_as_xyz
  1  'x, y, z'
loop_
 _atom_site_type_symbol
 _atom_site_label
 _atom_site_symmetry_multiplicity
 _atom_site_fract_x
 _atom_site_fract_y
 _atom_site_fract_z
 _atom_site_occupancy
  Mg  Mg0  1  0.00000000  0.72887569  0.75000000  1
  Mg  Mg1  1  0.50000000  0.23632915  0.75000000  1
  Mg  Mg2  1  0.50000000  0.60270094  0.75000000  1
  Mg  Mg3  1  0.50000000  0.76435717  0.25000000  1
  Sc  Sc4  1  0.00000000  0.11692784  0.75000000  1
  Sc  Sc5  1  0.00000000  0.91176782  0.25000000  1
  Sc  Sc6  1  0.50000000  0.40507188  0.25000000  1
  Si  Si7  1  0.20570031  0.58894760  0.07302889  1
  Si  Si8  1  0.20805135  0.41079699  0.57226309  1
  Si  Si9  1  0.29481233  0.08650240  0.07061272  1
  Si  Si10  1  0.29715218  0.90908114  0.57510332  1
  Si  Si11  1  0.70518767  0.08650240  0.42938628  1
  Si  Si12  1  0.70284782  0.90908114  0.92489668  1
  Si  Si13  1  0.79194865  0.41079699  0.92773691  1
  Si  Si14  1  0.79429969  0.58894760  0.42697111  1
  O  O15  1  0.12416629  0.07985290  0.07142920  1
  O  O16  1  0.12366279  0.90048230  0.58857854  1
  O  O17  1  0.14459819  0.24751781  0.59455636  1
  O  O18  1  0.12043871  0.74584545  0.06434587  1
  O  O19  1  0.15782377  0.49305052  0.31533983  1
  O  O20  1  0.15076254  0.52133954  0.80153997  1
  O  O21  1  0.35514546  0.01694862  0.80205891  1
  O  O22  1  0.35078481  0.98123614  0.30420903  1
  O  O23  1  0.38141345  0.24271174  0.06669856  1
  O  O24  1  0.38259387  0.75368103  0.56441053  1
  O  O25  1  0.38377286  0.40922246  0.58968367  1
  O  O26  1  0.38062340  0.59781912  0.07370186  1
  O  O27  1  0.61622714  0.40922246  0.91031633  1
  O  O28  1  0.61937660  0.59781912  0.42629814  1
  O  O29  1  0.61858655  0.24271174  0.43330144  1
  O  O30  1  0.61740613  0.75368103  0.93558947  1
  O  O31  1  0.64485454  0.01694862  0.69794109  1
  O  O32  1  0.64921519  0.98123614  0.19579097  1
  O  O33  1  0.84217623  0.49305052  0.18466017  1
  O  O34  1  0.84923746  0.52133954  0.69846003  1
  O  O35  1  0.85540181  0.24751781  0.90544364  1
  O  O36  1  0.87956129  0.74584545  0.43565413  1
  O  O37  1  0.87583371  0.07985290  0.42857080  1
  O  O38  1  0.87633721  0.90048230  0.91142146  1
