# generated using pymatgen
data_Ga2WO6
_symmetry_space_group_name_H-M   'P 1'
_cell_length_a   10.43686002
_cell_length_b   9.53661060
_cell_length_c   10.43595201
_cell_angle_alpha   86.01262564
_cell_angle_beta   105.21824270
_cell_angle_gamma   151.22303112
_symmetry_Int_Tables_number   1
_chemical_formula_structural   Ga2WO6
_chemical_formula_sum   'Ga8 W4 O24'
_cell_volume   452.77125949
_cell_formula_units_Z   4
loop_
 _symmetry_equiv_pos_site_id
 _symmetry_equiv_pos_as_xyz
  1  'x, y, z'
loop_
 _atom_site_type_symbol
 _atom_site_label
 _atom_site_symmetry_multiplicity
 _atom_site_fract_x
 _atom_site_fract_y
 _atom_site_fract_z
 _atom_site_occupancy
  Ga  Ga0  1  0.40519123  0.24987551  0.15528101  1
  Ga  Ga1  1  0.94651193  0.25008516  0.69638423  1
  Ga  Ga2  1  0.90994143  0.96738675  0.20708177  1
  Ga  Ga3  1  0.26041475  0.46742496  0.05748186  1
  Ga  Ga4  1  0.73957567  0.53256984  0.94251695  1
  Ga  Ga5  1  0.09004317  0.03259671  0.79291354  1
  Ga  Ga6  1  0.05348946  0.74991813  0.30361592  1
  Ga  Ga7  1  0.59480363  0.75011875  0.84471668  1
  W  W8  1  0.54529467  0.05135396  0.15631123  1
  W  W9  1  0.60478850  0.44843966  0.49398940  1
  W  W10  1  0.39519680  0.55154855  0.50600981  1
  W  W11  1  0.45473107  0.94867230  0.84368895  1
  O  O12  1  0.91224346  0.05455331  0.03759933  1
  O  O13  1  0.74903195  0.19252166  0.04537359  1
  O  O14  1  0.69631327  0.43044481  0.10709709  1
  O  O15  1  0.89008821  0.41159222  0.31129579  1
  O  O16  1  0.39941924  0.08806981  0.47855778  1
  O  O17  1  0.17654126  0.06941077  0.26591528  1
  O  O18  1  0.51699476  0.55457992  0.14243715  1
  O  O19  1  0.75308914  0.55694452  0.35568754  1
  O  O20  1  0.70158304  0.05726645  0.80389272  1
  O  O21  1  0.93156910  0.74199411  0.66382082  1
  O  O22  1  0.57856046  0.24234839  0.81045206  1
  O  O23  1  0.35257842  0.30723475  0.55640052  1
  O  O24  1  0.64740519  0.69275170  0.44359814  1
  O  O25  1  0.42145498  0.75766966  0.18954556  1
  O  O26  1  0.06841434  0.25798639  0.33617653  1
  O  O27  1  0.29844873  0.94276121  0.19611721  1
  O  O28  1  0.24689849  0.44304221  0.64431300  1
  O  O29  1  0.48299174  0.44540858  0.85756606  1
  O  O30  1  0.82344159  0.93056961  0.73407907  1
  O  O31  1  0.60056642  0.91191940  0.52144500  1
  O  O32  1  0.10994230  0.58843442  0.68870478  1
  O  O33  1  0.30369176  0.56955841  0.89290392  1
  O  O34  1  0.25099735  0.80751011  0.95462909  1
  O  O35  1  0.08775147  0.94543628  0.96239760  1
