# generated using pymatgen
data_Li2Cr2O7
_symmetry_space_group_name_H-M   'P 1'
_cell_length_a   7.36213381
_cell_length_b   7.22374666
_cell_length_c   6.53780683
_cell_angle_alpha   109.15766143
_cell_angle_beta   90.10748220
_cell_angle_gamma   116.14463069
_symmetry_Int_Tables_number   1
_chemical_formula_structural   Li2Cr2O7
_chemical_formula_sum   'Li4 Cr4 O14'
_cell_volume   290.40264781
_cell_formula_units_Z   2
loop_
 _symmetry_equiv_pos_site_id
 _symmetry_equiv_pos_as_xyz
  1  'x, y, z'
loop_
 _atom_site_type_symbol
 _atom_site_label
 _atom_site_symmetry_multiplicity
 _atom_site_fract_x
 _atom_site_fract_y
 _atom_site_fract_z
 _atom_site_occupancy
  Li  Li0  1  0.17156193  0.05775673  0.29792698  1
  Li  Li1  1  0.30017726  0.57255853  0.70452904  1
  Li  Li2  1  0.69982274  0.42744147  0.29547096  1
  Li  Li3  1  0.82843807  0.94224327  0.70207302  1
  Cr  Cr4  1  0.17239892  0.49165026  0.21626394  1
  Cr  Cr5  1  0.61471262  0.90145870  0.20147101  1
  Cr  Cr6  1  0.38528738  0.09854130  0.79852899  1
  Cr  Cr7  1  0.82760108  0.50834974  0.78373606  1
  O  O8  1  0.05043304  0.62103505  0.35019684  1
  O  O9  1  0.01348233  0.28199442  0.00589753  1
  O  O10  1  0.37276895  0.65586201  0.09669769  1
  O  O11  1  0.26619409  0.40617634  0.37765064  1
  O  O12  1  0.41963853  0.87978266  0.68544127  1
  O  O13  1  0.23724755  0.11897086  0.62672545  1
  O  O14  1  0.28367427  0.08580728  0.01660567  1
  O  O15  1  0.71632573  0.91419272  0.98339433  1
  O  O16  1  0.76275245  0.88102914  0.37327455  1
  O  O17  1  0.58036147  0.12021734  0.31455873  1
  O  O18  1  0.73380591  0.59382366  0.62234936  1
  O  O19  1  0.62723105  0.34413799  0.90330231  1
  O  O20  1  0.98651767  0.71800558  0.99410247  1
  O  O21  1  0.94956696  0.37896495  0.64980316  1
