# generated using pymatgen
data_Mn3Sb(PO4)4
_symmetry_space_group_name_H-M   'P 1'
_cell_length_a   5.04097130
_cell_length_b   10.06642913
_cell_length_c   6.15350788
_cell_angle_alpha   90.00000000
_cell_angle_beta   90.00000000
_cell_angle_gamma   88.85730490
_symmetry_Int_Tables_number   1
_chemical_formula_structural   Mn3Sb(PO4)4
_chemical_formula_sum   'Mn3 Sb1 P4 O16'
_cell_volume   312.19507625
_cell_formula_units_Z   1
loop_
 _symmetry_equiv_pos_site_id
 _symmetry_equiv_pos_as_xyz
  1  'x, y, z'
loop_
 _atom_site_type_symbol
 _atom_site_label
 _atom_site_symmetry_multiplicity
 _atom_site_fract_x
 _atom_site_fract_y
 _atom_site_fract_z
 _atom_site_occupancy
  Mn  Mn0  1  0.08644531  0.71374672  0.75000000  1
  Mn  Mn1  1  0.42451199  0.20947398  0.75000000  1
  Mn  Mn2  1  0.58557332  0.78707226  0.25000000  1
  Sb  Sb3  1  0.95015819  0.28514902  0.25000000  1
  P  P4  1  0.10554455  0.61089956  0.25000000  1
  P  P5  1  0.41103185  0.08811265  0.25000000  1
  P  P6  1  0.58316263  0.89507430  0.75000000  1
  P  P7  1  0.89655632  0.40627867  0.75000000  1
  O  O8  1  0.18476518  0.46151493  0.25000000  1
  O  O9  1  0.23511665  0.68065879  0.05161848  1
  O  O10  1  0.23511665  0.68065879  0.44838152  1
  O  O11  1  0.19028511  0.36781294  0.75000000  1
  O  O12  1  0.27959491  0.87574253  0.75000000  1
  O  O13  1  0.26825784  0.16273333  0.05508156  1
  O  O14  1  0.26825784  0.16273333  0.44491844  1
  O  O15  1  0.34801233  0.94067794  0.25000000  1
  O  O16  1  0.63454206  0.04505985  0.75000000  1
  O  O17  1  0.72366221  0.82712716  0.55203514  1
  O  O18  1  0.72366221  0.82712716  0.94796486  1
  O  O19  1  0.71168727  0.10758400  0.25000000  1
  O  O20  1  0.80101396  0.62571549  0.25000000  1
  O  O21  1  0.74344832  0.34065964  0.55482866  1
  O  O22  1  0.74344832  0.34065964  0.94517134  1
  O  O23  1  0.86614298  0.55772631  0.75000000  1
