# generated using pymatgen
data_Fe10O11F9
_symmetry_space_group_name_H-M   'P 1'
_cell_length_a   4.71109411
_cell_length_b   4.70809696
_cell_length_c   15.43847490
_cell_angle_alpha   89.97656779
_cell_angle_beta   89.64077747
_cell_angle_gamma   90.43228458
_symmetry_Int_Tables_number   1
_chemical_formula_structural   Fe10O11F9
_chemical_formula_sum   'Fe10 O11 F9'
_cell_volume   342.41330583
_cell_formula_units_Z   1
loop_
 _symmetry_equiv_pos_site_id
 _symmetry_equiv_pos_as_xyz
  1  'x, y, z'
loop_
 _atom_site_type_symbol
 _atom_site_label
 _atom_site_symmetry_multiplicity
 _atom_site_fract_x
 _atom_site_fract_y
 _atom_site_fract_z
 _atom_site_occupancy
  Fe  Fe0  1  0.97795074  0.95659610  0.00514831  1
  Fe  Fe1  1  0.03196627  0.02692066  0.18879179  1
  Fe  Fe2  1  0.00053711  0.98174041  0.40319551  1
  Fe  Fe3  1  0.04292278  0.99800066  0.60093482  1
  Fe  Fe4  1  0.04509943  0.00237717  0.80305062  1
  Fe  Fe5  1  0.50585454  0.49365646  0.10193161  1
  Fe  Fe6  1  0.47143194  0.50799888  0.49337192  1
  Fe  Fe7  1  0.49571085  0.48661563  0.30552556  1
  Fe  Fe8  1  0.45839390  0.49342252  0.69833519  1
  Fe  Fe9  1  0.47584023  0.52034083  0.90110655  1
  O  O10  1  0.20026365  0.79104132  0.10093235  1
  O  O11  1  0.18715247  0.80805893  0.49846922  1
  O  O12  1  0.20232003  0.81713370  0.70122910  1
  O  O13  1  0.18048685  0.80485062  0.90397001  1
  O  O14  1  0.32706016  0.31585760  0.20144137  1
  O  O15  1  0.29418233  0.29473249  0.39662318  1
  O  O16  1  0.30606634  0.31556650  0.59672761  1
  O  O17  1  0.30807562  0.31873521  0.80281742  1
  O  O18  1  0.67575143  0.67393065  0.00243621  1
  O  O19  1  0.69369842  0.69347256  0.39675099  1
  O  O20  1  0.80234795  0.19042323  0.09898636  1
  F  F21  1  0.19862525  0.81085361  0.29593583  1
  F  F22  1  0.29194900  0.28920579  0.99995748  1
  F  F23  1  0.71267315  0.70236836  0.20558710  1
  F  F24  1  0.69920369  0.70584130  0.59820748  1
  F  F25  1  0.69904237  0.70944778  0.79991791  1
  F  F26  1  0.79810046  0.19735943  0.50068435  1
  F  F27  1  0.81817482  0.19039312  0.29768140  1
  F  F28  1  0.79352619  0.19542176  0.90043159  1
  F  F29  1  0.80559403  0.20763472  0.69982016  1
