# generated using pymatgen
data_Li2VSiCO7
_symmetry_space_group_name_H-M   'P 1'
_cell_length_a   8.58050290
_cell_length_b   6.32257716
_cell_length_c   5.07844036
_cell_angle_alpha   90.00000000
_cell_angle_beta   87.13123921
_cell_angle_gamma   90.00000000
_symmetry_Int_Tables_number   1
_chemical_formula_structural   Li2VSiCO7
_chemical_formula_sum   'Li4 V2 Si2 C2 O14'
_cell_volume   275.16464688
_cell_formula_units_Z   2
loop_
 _symmetry_equiv_pos_site_id
 _symmetry_equiv_pos_as_xyz
  1  'x, y, z'
loop_
 _atom_site_type_symbol
 _atom_site_label
 _atom_site_symmetry_multiplicity
 _atom_site_fract_x
 _atom_site_fract_y
 _atom_site_fract_z
 _atom_site_occupancy
  Li  Li0  1  0.22159392  0.50822979  0.23339562  1
  Li  Li1  1  0.22159392  0.99177021  0.23339562  1
  Li  Li2  1  0.77840608  0.49177021  0.76660438  1
  Li  Li3  1  0.77840608  0.00822979  0.76660438  1
  V  V4  1  0.34357306  0.75000000  0.80612991  1
  V  V5  1  0.65642694  0.25000000  0.19387009  1
  Si  Si6  1  0.42654400  0.25000000  0.69905112  1
  Si  Si7  1  0.57345600  0.75000000  0.30094888  1
  C  C8  1  0.05659751  0.75000000  0.73019196  1
  C  C9  1  0.94340249  0.25000000  0.26980804  1
  O  O10  1  0.08898060  0.25000000  0.29856474  1
  O  O11  1  0.11733938  0.75000000  0.96417513  1
  O  O12  1  0.16169793  0.75000000  0.53190373  1
  O  O13  1  0.32645043  0.04255357  0.80147708  1
  O  O14  1  0.32645043  0.45744643  0.80147708  1
  O  O15  1  0.40215631  0.75000000  0.17042443  1
  O  O16  1  0.44981580  0.25000000  0.37634414  1
  O  O17  1  0.55018420  0.75000000  0.62365586  1
  O  O18  1  0.59784369  0.25000000  0.82957557  1
  O  O19  1  0.67354957  0.54255357  0.19852292  1
  O  O20  1  0.67354957  0.95744643  0.19852292  1
  O  O21  1  0.83830207  0.25000000  0.46809627  1
  O  O22  1  0.88266062  0.25000000  0.03582487  1
  O  O23  1  0.91101940  0.75000000  0.70143526  1
