# generated using pymatgen
data_Nb6CdO16
_symmetry_space_group_name_H-M   'P 1'
_cell_length_a   17.14183482
_cell_length_b   7.91001275
_cell_length_c   9.18434900
_cell_angle_alpha   90.00000000
_cell_angle_beta   90.00000000
_cell_angle_gamma   90.00000000
_symmetry_Int_Tables_number   1
_chemical_formula_structural   Nb6CdO16
_chemical_formula_sum   'Nb24 Cd4 O64'
_cell_volume   1245.32546180
_cell_formula_units_Z   4
loop_
 _symmetry_equiv_pos_site_id
 _symmetry_equiv_pos_as_xyz
  1  'x, y, z'
loop_
 _atom_site_type_symbol
 _atom_site_label
 _atom_site_symmetry_multiplicity
 _atom_site_fract_x
 _atom_site_fract_y
 _atom_site_fract_z
 _atom_site_occupancy
  Nb  Nb0  1  0.06063887  0.00235514  0.81116790  1
  Nb  Nb1  1  0.06063887  0.49764486  0.81116790  1
  Nb  Nb2  1  0.13277451  0.99407659  0.39693705  1
  Nb  Nb3  1  0.13277451  0.50592341  0.39693705  1
  Nb  Nb4  1  0.25071556  0.50014946  0.68894429  1
  Nb  Nb5  1  0.25071556  0.99985054  0.68894429  1
  Nb  Nb6  1  0.24819801  0.00250246  0.05204964  1
  Nb  Nb7  1  0.24819801  0.49749754  0.05204964  1
  Nb  Nb8  1  0.36551753  0.99635291  0.39892903  1
  Nb  Nb9  1  0.36551753  0.50364709  0.39892903  1
  Nb  Nb10  1  0.43999725  0.00276319  0.81383135  1
  Nb  Nb11  1  0.43999725  0.49723681  0.81383135  1
  Nb  Nb12  1  0.56063887  0.00235514  0.18883210  1
  Nb  Nb13  1  0.56063887  0.49764486  0.18883210  1
  Nb  Nb14  1  0.63277451  0.99407659  0.60306295  1
  Nb  Nb15  1  0.63277451  0.50592341  0.60306295  1
  Nb  Nb16  1  0.75071556  0.99985054  0.31105571  1
  Nb  Nb17  1  0.74819801  0.00250246  0.94795036  1
  Nb  Nb18  1  0.74819801  0.49749754  0.94795036  1
  Nb  Nb19  1  0.75071556  0.50014946  0.31105571  1
  Nb  Nb20  1  0.86551753  0.99635291  0.60107097  1
  Nb  Nb21  1  0.86551753  0.50364709  0.60107097  1
  Nb  Nb22  1  0.93999725  0.00276319  0.18616865  1
  Nb  Nb23  1  0.93999725  0.49723681  0.18616865  1
  Cd  Cd24  1  0.00064213  0.25000000  0.50318856  1
  Cd  Cd25  1  0.40961048  0.75000000  0.09576826  1
  Cd  Cd26  1  0.50064213  0.25000000  0.49681144  1
  Cd  Cd27  1  0.90961048  0.75000000  0.90423174  1
  O  O28  1  0.99324234  0.99844924  0.99187989  1
  O  O29  1  0.99324234  0.50155076  0.99187989  1
  O  O30  1  0.02083844  0.00430951  0.33818199  1
  O  O31  1  0.02083844  0.49569049  0.33818199  1
  O  O32  1  0.06202516  0.25000000  0.81877592  1
  O  O33  1  0.04805104  0.75000000  0.81857266  1
  O  O34  1  0.12234099  0.25000000  0.41507177  1
  O  O35  1  0.12757060  0.75000000  0.40433898  1
  O  O36  1  0.13310705  0.99739331  0.62153613  1
  O  O37  1  0.13310705  0.50260669  0.62153613  1
  O  O38  1  0.16841418  0.00027317  0.19768170  1
  O  O39  1  0.16841418  0.49972683  0.19768170  1
  O  O40  1  0.17442089  0.99468364  0.87725179  1
  O  O41  1  0.17442089  0.50531636  0.87725179  1
  O  O42  1  0.25055958  0.49647844  0.45427607  1
  O  O43  1  0.25055798  0.75000000  0.68858552  1
  O  O44  1  0.25055958  0.00352156  0.45427607  1
  O  O45  1  0.25012858  0.25000000  0.69089633  1
  O  O46  1  0.25246421  0.25000000  0.05331088  1
  O  O47  1  0.25785132  0.75000000  0.04601194  1
  O  O48  1  0.32563794  0.00378007  0.87368556  1
  O  O49  1  0.32563794  0.49621993  0.87368556  1
  O  O50  1  0.33836106  0.98666670  0.18981740  1
  O  O51  1  0.33836106  0.51333330  0.18981740  1
  O  O52  1  0.36857857  0.99520561  0.61965891  1
  O  O53  1  0.36857857  0.50479439  0.61965891  1
  O  O54  1  0.37489865  0.25000000  0.41170230  1
  O  O55  1  0.37562889  0.75000000  0.39625320  1
  O  O56  1  0.44132272  0.25000000  0.81467615  1
  O  O57  1  0.43720599  0.75000000  0.83637796  1
  O  O58  1  0.47956084  0.01266801  0.34084252  1
  O  O59  1  0.47956084  0.48733199  0.34084252  1
  O  O60  1  0.49324234  0.99844924  0.00812011  1
  O  O61  1  0.49324234  0.50155076  0.00812011  1
  O  O62  1  0.52083844  0.00430951  0.66181801  1
  O  O63  1  0.52083844  0.49569049  0.66181801  1
  O  O64  1  0.56202516  0.25000000  0.18122408  1
  O  O65  1  0.54805104  0.75000000  0.18142734  1
  O  O66  1  0.62234099  0.25000000  0.58492823  1
  O  O67  1  0.62757060  0.75000000  0.59566102  1
  O  O68  1  0.63310705  0.99739331  0.37846387  1
  O  O69  1  0.63310705  0.50260669  0.37846387  1
  O  O70  1  0.66841418  0.00027317  0.80231830  1
  O  O71  1  0.66841418  0.49972683  0.80231830  1
  O  O72  1  0.67442089  0.99468364  0.12274821  1
  O  O73  1  0.67442089  0.50531636  0.12274821  1
  O  O74  1  0.75055958  0.00352156  0.54572393  1
  O  O75  1  0.75012858  0.25000000  0.30910367  1
  O  O76  1  0.75246421  0.25000000  0.94668912  1
  O  O77  1  0.75055958  0.49647844  0.54572393  1
  O  O78  1  0.75055798  0.75000000  0.31141448  1
  O  O79  1  0.75785132  0.75000000  0.95398806  1
  O  O80  1  0.82563794  0.00378007  0.12631444  1
  O  O81  1  0.82563794  0.49621993  0.12631444  1
  O  O82  1  0.83836106  0.98666670  0.81018260  1
  O  O83  1  0.83836106  0.51333330  0.81018260  1
  O  O84  1  0.86857857  0.99520561  0.38034109  1
  O  O85  1  0.86857857  0.50479439  0.38034109  1
  O  O86  1  0.87489865  0.25000000  0.58829770  1
  O  O87  1  0.87562889  0.75000000  0.60374680  1
  O  O88  1  0.94132272  0.25000000  0.18532385  1
  O  O89  1  0.93720599  0.75000000  0.16362204  1
  O  O90  1  0.97956084  0.01266801  0.65915748  1
  O  O91  1  0.97956084  0.48733199  0.65915748  1
