# generated using pymatgen
data_Li3V(PO4)2
_symmetry_space_group_name_H-M   'P 1'
_cell_length_a   5.06774430
_cell_length_b   12.31485737
_cell_length_c   18.00961961
_cell_angle_alpha   90.00000000
_cell_angle_beta   90.00000000
_cell_angle_gamma   90.00000000
_symmetry_Int_Tables_number   1
_chemical_formula_structural   Li3V(PO4)2
_chemical_formula_sum   'Li24 V8 P16 O64'
_cell_volume   1123.95421425
_cell_formula_units_Z   8
loop_
 _symmetry_equiv_pos_site_id
 _symmetry_equiv_pos_as_xyz
  1  'x, y, z'
loop_
 _atom_site_type_symbol
 _atom_site_label
 _atom_site_symmetry_multiplicity
 _atom_site_fract_x
 _atom_site_fract_y
 _atom_site_fract_z
 _atom_site_occupancy
  Li  Li0  1  0.05348609  0.35306736  0.24890785  1
  Li  Li1  1  0.05348609  0.14693264  0.74890785  1
  Li  Li2  1  0.06700750  0.46116701  0.06029650  1
  Li  Li3  1  0.06700750  0.03883299  0.56029650  1
  Li  Li4  1  0.03834586  0.71537213  0.41847352  1
  Li  Li5  1  0.03834586  0.78462787  0.91847352  1
  Li  Li6  1  0.45259182  0.03288852  0.82026651  1
  Li  Li7  1  0.45259182  0.46711148  0.32026651  1
  Li  Li8  1  0.41394183  0.79158517  0.17180208  1
  Li  Li9  1  0.41394183  0.70841483  0.67180208  1
  Li  Li10  1  0.45965917  0.60755555  0.48574733  1
  Li  Li11  1  0.45965917  0.89244445  0.98574733  1
  Li  Li12  1  0.54034083  0.10755555  0.48574733  1
  Li  Li13  1  0.54034083  0.39244445  0.98574733  1
  Li  Li14  1  0.58605817  0.20841483  0.67180208  1
  Li  Li15  1  0.58605817  0.29158517  0.17180208  1
  Li  Li16  1  0.54740818  0.53288852  0.82026651  1
  Li  Li17  1  0.54740818  0.96711148  0.32026651  1
  Li  Li18  1  0.96165414  0.28462787  0.91847352  1
  Li  Li19  1  0.96165414  0.21537213  0.41847352  1
  Li  Li20  1  0.93299250  0.96116701  0.06029650  1
  Li  Li21  1  0.93299250  0.53883299  0.56029650  1
  Li  Li22  1  0.94651391  0.85306736  0.24890785  1
  Li  Li23  1  0.94651391  0.64693264  0.74890785  1
  V  V24  1  0.08781009  0.09845674  0.23647786  1
  V  V25  1  0.08781009  0.40154326  0.73647786  1
  V  V26  1  0.43014459  0.15200482  0.99257556  1
  V  V27  1  0.43014459  0.34799518  0.49257556  1
  V  V28  1  0.56985541  0.65200482  0.99257556  1
  V  V29  1  0.56985541  0.84799518  0.49257556  1
  V  V30  1  0.91218991  0.59845674  0.23647786  1
  V  V31  1  0.91218991  0.90154326  0.73647786  1
  P  P32  1  0.00227244  0.71913935  0.08008287  1
  P  P33  1  0.00227244  0.78086065  0.58008287  1
  P  P34  1  0.04307200  0.96846107  0.40329331  1
  P  P35  1  0.04307200  0.53153893  0.90329331  1
  P  P36  1  0.44550648  0.72214357  0.32576505  1
  P  P37  1  0.44550648  0.77785643  0.82576505  1
  P  P38  1  0.48142946  0.53262011  0.14929699  1
  P  P39  1  0.48142946  0.96737989  0.64929699  1
  P  P40  1  0.51857054  0.03262011  0.14929699  1
  P  P41  1  0.51857054  0.46737989  0.64929699  1
  P  P42  1  0.55449352  0.22214357  0.32576505  1
  P  P43  1  0.55449352  0.27785643  0.82576505  1
  P  P44  1  0.95692800  0.03153893  0.90329331  1
  P  P45  1  0.95692800  0.46846107  0.40329331  1
  P  P46  1  0.99772756  0.21913935  0.08008287  1
  P  P47  1  0.99772756  0.28086065  0.58008287  1
  O  O48  1  0.00305153  0.48393687  0.31743872  1
  O  O49  1  0.00305153  0.01606313  0.81743872  1
  O  O50  1  0.02938068  0.73547956  0.16567905  1
  O  O51  1  0.02938068  0.76452044  0.66567905  1
  O  O52  1  0.09257795  0.10399023  0.05956584  1
  O  O53  1  0.09257795  0.39600977  0.55956584  1
  O  O54  1  0.07298865  0.56315315  0.44873970  1
  O  O55  1  0.07298865  0.93684685  0.94873970  1
  O  O56  1  0.11369415  0.36259062  0.41963576  1
  O  O57  1  0.11369415  0.13740938  0.91963576  1
  O  O58  1  0.14533816  0.70834119  0.30629629  1
  O  O59  1  0.14533816  0.79165881  0.80629629  1
  O  O60  1  0.20978045  0.29409268  0.04358802  1
  O  O61  1  0.20978045  0.20590732  0.54358802  1
  O  O62  1  0.20943055  0.50524568  0.18403937  1
  O  O63  1  0.20943055  0.99475432  0.68403937  1
  O  O64  1  0.27745753  0.74573263  0.04712827  1
  O  O65  1  0.27745753  0.75426737  0.54712827  1
  O  O66  1  0.30174316  0.54305965  0.68144984  1
  O  O67  1  0.30174316  0.95694035  0.18144984  1
  O  O68  1  0.34442941  0.54530795  0.91983024  1
  O  O69  1  0.34442941  0.95469205  0.41983024  1
  O  O70  1  0.39765022  0.11648680  0.31108616  1
  O  O71  1  0.39765022  0.38351320  0.81108616  1
  O  O72  1  0.43524308  0.18246234  0.78241023  1
  O  O73  1  0.43524308  0.31753766  0.28241023  1
  O  O74  1  0.44739245  0.98138811  0.56314766  1
  O  O75  1  0.44739245  0.51861189  0.06314766  1
  O  O76  1  0.45295793  0.73636667  0.41269140  1
  O  O77  1  0.45295793  0.76363333  0.91269140  1
  O  O78  1  0.42536878  0.14741924  0.17102804  1
  O  O79  1  0.42536878  0.35258076  0.67102804  1
  O  O80  1  0.57463122  0.64741924  0.17102804  1
  O  O81  1  0.57463122  0.85258076  0.67102804  1
  O  O82  1  0.54704207  0.26363333  0.91269140  1
  O  O83  1  0.54704207  0.23636667  0.41269140  1
  O  O84  1  0.55260755  0.48138811  0.56314766  1
  O  O85  1  0.55260755  0.01861189  0.06314766  1
  O  O86  1  0.56475692  0.68246234  0.78241023  1
  O  O87  1  0.56475692  0.81753766  0.28241023  1
  O  O88  1  0.60234978  0.61648680  0.31108616  1
  O  O89  1  0.60234978  0.88351320  0.81108616  1
  O  O90  1  0.65557059  0.04530795  0.91983024  1
  O  O91  1  0.65557059  0.45469205  0.41983024  1
  O  O92  1  0.69825684  0.45694035  0.18144984  1
  O  O93  1  0.69825684  0.04305965  0.68144984  1
  O  O94  1  0.72254247  0.25426737  0.54712827  1
  O  O95  1  0.72254247  0.24573263  0.04712827  1
  O  O96  1  0.79056945  0.49475432  0.68403937  1
  O  O97  1  0.79056945  0.00524568  0.18403937  1
  O  O98  1  0.79021955  0.79409268  0.04358802  1
  O  O99  1  0.79021955  0.70590732  0.54358802  1
  O  O100  1  0.85466184  0.20834119  0.30629629  1
  O  O101  1  0.85466184  0.29165881  0.80629629  1
  O  O102  1  0.88630585  0.63740938  0.91963576  1
  O  O103  1  0.88630585  0.86259062  0.41963576  1
  O  O104  1  0.92701135  0.43684685  0.94873970  1
  O  O105  1  0.92701135  0.06315315  0.44873970  1
  O  O106  1  0.90742205  0.60399023  0.05956584  1
  O  O107  1  0.90742205  0.89600977  0.55956584  1
  O  O108  1  0.97061932  0.23547956  0.16567905  1
  O  O109  1  0.97061932  0.26452044  0.66567905  1
  O  O110  1  0.99694847  0.51606313  0.81743872  1
  O  O111  1  0.99694847  0.98393687  0.31743872  1
