# generated using pymatgen
data_LiMnPO4
_symmetry_space_group_name_H-M   'P 1'
_cell_length_a   5.02228562
_cell_length_b   8.49912385
_cell_length_c   5.02228526
_cell_angle_alpha   107.18505737
_cell_angle_beta   60.00000427
_cell_angle_gamma   107.18506074
_symmetry_Int_Tables_number   1
_chemical_formula_structural   LiMnPO4
_chemical_formula_sum   'Li2 Mn2 P2 O8'
_cell_volume   174.51660744
_cell_formula_units_Z   2
loop_
 _symmetry_equiv_pos_site_id
 _symmetry_equiv_pos_as_xyz
  1  'x, y, z'
loop_
 _atom_site_type_symbol
 _atom_site_label
 _atom_site_symmetry_multiplicity
 _atom_site_fract_x
 _atom_site_fract_y
 _atom_site_fract_z
 _atom_site_occupancy
  Li  Li0  1  0.13628938  0.40886715  0.13628938  1
  Li  Li1  1  0.43916550  0.31749549  0.43916550  1
  Mn  Mn2  1  0.01188979  0.03567036  0.01188979  1
  Mn  Mn3  1  0.56359952  0.69079756  0.56359952  1
  P  P4  1  0.86339670  0.59018910  0.86339670  1
  P  P5  1  0.71197528  0.13592685  0.71197528  1
  O  O6  1  0.14968433  0.53008448  0.56052744  1
  O  O7  1  0.01500039  0.19647517  0.75571539  1
  O  O8  1  0.42575940  0.19647517  0.01500039  1
  O  O9  1  0.64741450  0.94224251  0.64741450  1
  O  O10  1  0.81987172  0.53008448  0.14968433  1
  O  O11  1  0.56052744  0.53008448  0.81987172  1
  O  O12  1  0.75571539  0.19647517  0.42575940  1
  O  O13  1  0.92824167  0.78472502  0.92824167  1
