# generated using pymatgen
data_Li5Mn3(NiO5)2
_symmetry_space_group_name_H-M   'P 1'
_cell_length_a   5.04554945
_cell_length_b   5.14504952
_cell_length_c   7.86087211
_cell_angle_alpha   107.34734512
_cell_angle_beta   102.97296690
_cell_angle_gamma   99.46297247
_symmetry_Int_Tables_number   1
_chemical_formula_structural   Li5Mn3(NiO5)2
_chemical_formula_sum   'Li5 Mn3 Ni2 O10'
_cell_volume   183.84688794
_cell_formula_units_Z   1
loop_
 _symmetry_equiv_pos_site_id
 _symmetry_equiv_pos_as_xyz
  1  'x, y, z'
loop_
 _atom_site_type_symbol
 _atom_site_label
 _atom_site_symmetry_multiplicity
 _atom_site_fract_x
 _atom_site_fract_y
 _atom_site_fract_z
 _atom_site_occupancy
  Li  Li0  1  0.19749112  0.93319805  0.42435842  1
  Li  Li1  1  0.39146964  0.28050585  0.76463682  1
  Li  Li2  1  0.50000000  0.50000000  0.50000000  1
  Li  Li3  1  0.60853036  0.71949415  0.23536318  1
  Li  Li4  1  0.80250888  0.06680195  0.57564158  1
  Mn  Mn5  1  0.00000000  0.50000000  0.00000000  1
  Mn  Mn6  1  0.69062513  0.89759067  0.89424924  1
  Mn  Mn7  1  0.30937487  0.10240933  0.10575076  1
  Ni  Ni8  1  0.09964531  0.68775208  0.68359094  1
  Ni  Ni9  1  0.90035469  0.31224792  0.31640906  1
  O  O10  1  0.03886369  0.11185285  0.87189118  1
  O  O11  1  0.36184865  0.73873964  0.95583907  1
  O  O12  1  0.14220030  0.30708957  0.55149247  1
  O  O13  1  0.23599070  0.45997619  0.21828245  1
  O  O14  1  0.47365780  0.90598930  0.67339863  1
  O  O15  1  0.52634220  0.09401070  0.32660137  1
  O  O16  1  0.76400930  0.54002381  0.78171755  1
  O  O17  1  0.85779970  0.69291043  0.44850753  1
  O  O18  1  0.63815135  0.26126036  0.04416093  1
  O  O19  1  0.96113631  0.88814715  0.12810882  1
