# generated using pymatgen
data_K2PSO8
_symmetry_space_group_name_H-M   'P 1'
_cell_length_a   7.20586035
_cell_length_b   7.87950563
_cell_length_c   7.39426130
_cell_angle_alpha   90.05591967
_cell_angle_beta   96.86670611
_cell_angle_gamma   89.31806169
_symmetry_Int_Tables_number   1
_chemical_formula_structural   K2PSO8
_chemical_formula_sum   'K4 P2 S2 O16'
_cell_volume   416.79487658
_cell_formula_units_Z   2
loop_
 _symmetry_equiv_pos_site_id
 _symmetry_equiv_pos_as_xyz
  1  'x, y, z'
loop_
 _atom_site_type_symbol
 _atom_site_label
 _atom_site_symmetry_multiplicity
 _atom_site_fract_x
 _atom_site_fract_y
 _atom_site_fract_z
 _atom_site_occupancy
  K  K0  1  0.08765028  0.30191305  0.72839070  1
  K  K1  1  0.58956391  0.19501529  0.22969515  1
  K  K2  1  0.91234972  0.69808695  0.27160930  1
  K  K3  1  0.41043609  0.80498471  0.77030485  1
  P  P4  1  0.59322871  0.29762354  0.75081523  1
  P  P5  1  0.40677129  0.70237646  0.24918477  1
  S  S6  1  0.09467700  0.20100932  0.25425904  1
  S  S7  1  0.90532300  0.79899068  0.74574096  1
  O  O8  1  0.47819690  0.15439955  0.82191676  1
  O  O9  1  0.98088436  0.34060161  0.32300653  1
  O  O10  1  0.52180310  0.84560045  0.17808324  1
  O  O11  1  0.01911564  0.65939839  0.67699347  1
  O  O12  1  0.69675219  0.22454597  0.59637002  1
  O  O13  1  0.18861133  0.26066808  0.09752706  1
  O  O14  1  0.30324781  0.77545403  0.40362998  1
  O  O15  1  0.81138867  0.73933192  0.90247294  1
  O  O16  1  0.73512102  0.37083311  0.90474050  1
  O  O17  1  0.23463125  0.13965714  0.40438039  1
  O  O18  1  0.26487898  0.62916689  0.09525950  1
  O  O19  1  0.76536875  0.86034286  0.59561961  1
  O  O20  1  0.46645954  0.45037081  0.68486299  1
  O  O21  1  0.97084001  0.05831003  0.18436933  1
  O  O22  1  0.53354046  0.54962919  0.31513701  1
  O  O23  1  0.02915999  0.94168997  0.81563067  1
