# generated using pymatgen
data_Na6Sn2O7
_symmetry_space_group_name_H-M   'P 1'
_cell_length_a   9.35190721
_cell_length_b   6.24318605
_cell_length_c   16.60417654
_cell_angle_alpha   90.00000000
_cell_angle_beta   93.99922454
_cell_angle_gamma   90.00000000
_symmetry_Int_Tables_number   1
_chemical_formula_structural   Na6Sn2O7
_chemical_formula_sum   'Na24 Sn8 O28'
_cell_volume   967.08580648
_cell_formula_units_Z   4
loop_
 _symmetry_equiv_pos_site_id
 _symmetry_equiv_pos_as_xyz
  1  'x, y, z'
loop_
 _atom_site_type_symbol
 _atom_site_label
 _atom_site_symmetry_multiplicity
 _atom_site_fract_x
 _atom_site_fract_y
 _atom_site_fract_z
 _atom_site_occupancy
  Na  Na0  1  0.03451803  0.36991142  0.38444332  1
  Na  Na1  1  0.04981341  0.69754257  0.04231092  1
  Na  Na2  1  0.12996524  0.66560357  0.25664864  1
  Na  Na3  1  0.20420974  0.27902707  0.80145111  1
  Na  Na4  1  0.19811447  0.01484651  0.37641576  1
  Na  Na5  1  0.22737616  0.64716408  0.48566620  1
  Na  Na6  1  0.29579026  0.77902707  0.69854889  1
  Na  Na7  1  0.27262384  0.14716408  0.01433380  1
  Na  Na8  1  0.30188553  0.51484651  0.12358424  1
  Na  Na9  1  0.37003476  0.16560357  0.24335136  1
  Na  Na10  1  0.45018659  0.19754257  0.45768908  1
  Na  Na11  1  0.46548197  0.86991142  0.11555668  1
  Na  Na12  1  0.53451803  0.13008858  0.88444332  1
  Na  Na13  1  0.54981341  0.80245743  0.54231092  1
  Na  Na14  1  0.62996524  0.83439643  0.75664864  1
  Na  Na15  1  0.69811447  0.48515349  0.87641576  1
  Na  Na16  1  0.72737616  0.85283592  0.98566620  1
  Na  Na17  1  0.70420974  0.22097293  0.30145111  1
  Na  Na18  1  0.77262384  0.35283592  0.51433380  1
  Na  Na19  1  0.80188553  0.98515349  0.62358424  1
  Na  Na20  1  0.79579026  0.72097293  0.19854889  1
  Na  Na21  1  0.87003476  0.33439643  0.74335136  1
  Na  Na22  1  0.95018659  0.30245743  0.95768908  1
  Na  Na23  1  0.96548197  0.63008858  0.61555668  1
  Sn  Sn24  1  0.01048013  0.17649793  0.16862681  1
  Sn  Sn25  1  0.14938224  0.15192183  0.58600225  1
  Sn  Sn26  1  0.35061776  0.65192183  0.91399775  1
  Sn  Sn27  1  0.51048013  0.32350207  0.66862681  1
  Sn  Sn28  1  0.48951987  0.67649793  0.33137319  1
  Sn  Sn29  1  0.64938224  0.34807817  0.08600225  1
  Sn  Sn30  1  0.85061776  0.84807817  0.41399775  1
  Sn  Sn31  1  0.98951987  0.82350207  0.83137319  1
  O  O32  1  0.00122132  0.86294842  0.15916155  1
  O  O33  1  0.03489176  0.73304751  0.38062844  1
  O  O34  1  0.09084753  0.32591890  0.07649487  1
  O  O35  1  0.14745846  0.83828941  0.58825711  1
  O  O36  1  0.13323296  0.27304318  0.26442960  1
  O  O37  1  0.19567639  0.71376712  0.82057034  1
  O  O38  1  0.21372418  0.27527791  0.48505802  1
  O  O39  1  0.30432361  0.21376712  0.67942966  1
  O  O40  1  0.35254154  0.33828941  0.91174289  1
  O  O41  1  0.28627582  0.77527791  0.01494198  1
  O  O42  1  0.36676704  0.77304318  0.23557040  1
  O  O43  1  0.40915247  0.82591890  0.42350513  1
  O  O44  1  0.50122132  0.63705158  0.65916155  1
  O  O45  1  0.46510824  0.23304751  0.11937156  1
  O  O46  1  0.53489176  0.76695249  0.88062844  1
  O  O47  1  0.49877868  0.36294842  0.34083845  1
  O  O48  1  0.59084753  0.17408110  0.57649487  1
  O  O49  1  0.63323296  0.22695682  0.76442960  1
  O  O50  1  0.71372418  0.22472209  0.98505802  1
  O  O51  1  0.64745846  0.66171059  0.08825711  1
  O  O52  1  0.69567639  0.78623288  0.32057034  1
  O  O53  1  0.78627582  0.72472209  0.51494198  1
  O  O54  1  0.80432361  0.28623288  0.17942966  1
  O  O55  1  0.86676704  0.72695682  0.73557040  1
  O  O56  1  0.85254154  0.16171059  0.41174289  1
  O  O57  1  0.90915247  0.67408110  0.92350513  1
  O  O58  1  0.96510824  0.26695249  0.61937156  1
  O  O59  1  0.99877868  0.13705158  0.84083845  1
