# generated using pymatgen
data_Hf2(TiGa)3
_symmetry_space_group_name_H-M   'P 1'
_cell_length_a   5.62278052
_cell_length_b   7.76778830
_cell_length_c   7.76778843
_cell_angle_alpha   60.00450398
_cell_angle_beta   90.00000000
_cell_angle_gamma   90.00000000
_symmetry_Int_Tables_number   1
_chemical_formula_structural   Hf2(TiGa)3
_chemical_formula_sum   'Hf4 Ti6 Ga6'
_cell_volume   293.83007155
_cell_formula_units_Z   2
loop_
 _symmetry_equiv_pos_site_id
 _symmetry_equiv_pos_as_xyz
  1  'x, y, z'
loop_
 _atom_site_type_symbol
 _atom_site_label
 _atom_site_symmetry_multiplicity
 _atom_site_fract_x
 _atom_site_fract_y
 _atom_site_fract_z
 _atom_site_occupancy
  Hf  Hf0  1  0.49999987  0.33337672  0.33337638  1
  Hf  Hf1  1  0.49999987  0.66662362  0.66662328  1
  Hf  Hf2  1  0.99999987  0.66662328  0.66662362  1
  Hf  Hf3  1  0.99999987  0.33337638  0.33337672  1
  Ti  Ti4  1  0.74999611  0.23704383  0.76295617  1
  Ti  Ti5  1  0.75000210  0.76271989  0.99991714  1
  Ti  Ti6  1  0.75000210  0.00008286  0.23728011  1
  Ti  Ti7  1  0.24999611  0.76295617  0.23704383  1
  Ti  Ti8  1  0.25000210  0.23728011  0.00008286  1
  Ti  Ti9  1  0.25000210  0.99991714  0.76271989  1
  Ga  Ga10  1  0.74999451  0.61361957  0.38638043  1
  Ga  Ga11  1  0.75000272  0.38651188  0.00002489  1
  Ga  Ga12  1  0.75000272  0.99997511  0.61348812  1
  Ga  Ga13  1  0.24999451  0.38638043  0.61361957  1
  Ga  Ga14  1  0.25000272  0.61348812  0.99997511  1
  Ga  Ga15  1  0.25000272  0.00002489  0.38651188  1
