# generated using pymatgen
data_Mn3(O2F)2
_symmetry_space_group_name_H-M   'P 1'
_cell_length_a   4.64193053
_cell_length_b   7.63547597
_cell_length_c   5.56864438
_cell_angle_alpha   93.46179260
_cell_angle_beta   91.02738909
_cell_angle_gamma   89.62130028
_symmetry_Int_Tables_number   1
_chemical_formula_structural   Mn3(O2F)2
_chemical_formula_sum   'Mn6 O8 F4'
_cell_volume   196.97656734
_cell_formula_units_Z   2
loop_
 _symmetry_equiv_pos_site_id
 _symmetry_equiv_pos_as_xyz
  1  'x, y, z'
loop_
 _atom_site_type_symbol
 _atom_site_label
 _atom_site_symmetry_multiplicity
 _atom_site_fract_x
 _atom_site_fract_y
 _atom_site_fract_z
 _atom_site_occupancy
  Mn  Mn0  1  0.50000000  0.00000000  0.50000000  1
  Mn  Mn1  1  0.53681904  0.65922156  0.15688743  1
  Mn  Mn2  1  0.46318096  0.34077844  0.84311257  1
  Mn  Mn3  1  0.00519243  0.68276277  0.67221232  1
  Mn  Mn4  1  0.99480757  0.31723723  0.32778768  1
  Mn  Mn5  1  0.00000000  0.00000000  0.00000000  1
  O  O6  1  0.81118078  0.77393170  0.95641307  1
  O  O7  1  0.80973740  0.09456795  0.29591386  1
  O  O8  1  0.69521563  0.76462609  0.46217328  1
  O  O9  1  0.69390599  0.42862775  0.12744343  1
  O  O10  1  0.30609401  0.57137225  0.87255657  1
  O  O11  1  0.30478437  0.23537391  0.53782672  1
  O  O12  1  0.18881922  0.22606830  0.04358693  1
  O  O13  1  0.19026260  0.90543205  0.70408614  1
  F  F14  1  0.81034545  0.43901846  0.63137430  1
  F  F15  1  0.68846918  0.11917602  0.80764233  1
  F  F16  1  0.31153082  0.88082398  0.19235767  1
  F  F17  1  0.18965455  0.56098154  0.36862570  1
