# generated using pymatgen
data_Fe4O3F5
_symmetry_space_group_name_H-M   'P 1'
_cell_length_a   5.70117042
_cell_length_b   10.07351273
_cell_length_c   5.69510859
_cell_angle_alpha   77.07862788
_cell_angle_beta   65.70008261
_cell_angle_gamma   96.33609848
_symmetry_Int_Tables_number   1
_chemical_formula_structural   Fe4O3F5
_chemical_formula_sum   'Fe8 O6 F10'
_cell_volume   282.90804712
_cell_formula_units_Z   2
loop_
 _symmetry_equiv_pos_site_id
 _symmetry_equiv_pos_as_xyz
  1  'x, y, z'
loop_
 _atom_site_type_symbol
 _atom_site_label
 _atom_site_symmetry_multiplicity
 _atom_site_fract_x
 _atom_site_fract_y
 _atom_site_fract_z
 _atom_site_occupancy
  Fe  Fe0  1  0.63643268  0.24383249  0.87155573  1
  Fe  Fe1  1  0.88483885  0.74457439  0.62650984  1
  Fe  Fe2  1  0.24422701  0.50484319  0.74323663  1
  Fe  Fe3  1  0.75031585  0.49926667  0.25022529  1
  Fe  Fe4  1  0.49405280  0.01137600  0.47909631  1
  Fe  Fe5  1  0.36826484  0.74376447  0.14453388  1
  Fe  Fe6  1  0.11758914  0.24429732  0.39695885  1
  Fe  Fe7  1  0.00418098  0.99577263  0.00891000  1
  O  O8  1  0.92667391  0.14736758  0.78345268  1
  O  O9  1  0.82624819  0.34765025  0.47773106  1
  O  O10  1  0.67079957  0.65006743  0.02122874  1
  O  O11  1  0.17225908  0.65502787  0.52289514  1
  O  O12  1  0.41753289  0.16129845  0.25577384  1
  O  O13  1  0.07895552  0.85031403  0.22923549  1
  F  F14  1  0.83364023  0.39859359  0.96420641  1
  F  F15  1  0.57297889  0.84985819  0.72260131  1
  F  F16  1  0.32186836  0.35195818  0.97042192  1
  F  F17  1  0.91022845  0.09855859  0.29369708  1
  F  F18  1  0.66088619  0.60106265  0.53715271  1
  F  F19  1  0.39236977  0.09889402  0.80864672  1
  F  F20  1  0.08772345  0.89821402  0.71517039  1
  F  F21  1  0.36200304  0.39994405  0.43689953  1
  F  F22  1  0.61377420  0.89801505  0.18708218  1
  F  F23  1  0.13939311  0.59937688  0.06442428  1
