# generated using pymatgen
data_Mn2OF3
_symmetry_space_group_name_H-M   'P 1'
_cell_length_a   4.85173510
_cell_length_b   5.81309816
_cell_length_c   5.81309816
_cell_angle_alpha   113.35248034
_cell_angle_beta   93.02369747
_cell_angle_gamma   86.97630253
_symmetry_Int_Tables_number   1
_chemical_formula_structural   Mn2OF3
_chemical_formula_sum   'Mn4 O2 F6'
_cell_volume   150.21993120
_cell_formula_units_Z   2
loop_
 _symmetry_equiv_pos_site_id
 _symmetry_equiv_pos_as_xyz
  1  'x, y, z'
loop_
 _atom_site_type_symbol
 _atom_site_label
 _atom_site_symmetry_multiplicity
 _atom_site_fract_x
 _atom_site_fract_y
 _atom_site_fract_z
 _atom_site_occupancy
  Mn  Mn0  1  0.50000000  0.00000000  0.50000000  1
  Mn  Mn1  1  0.50000000  0.50000000  0.00000000  1
  Mn  Mn2  1  0.00000000  0.50000000  0.50000000  1
  Mn  Mn3  1  0.00000000  0.00000000  0.00000000  1
  O  O4  1  0.69179140  0.65691111  0.34308889  1
  O  O5  1  0.30820860  0.34308889  0.65691111  1
  F  F6  1  0.80206113  0.64936521  0.84658948  1
  F  F7  1  0.80206113  0.15341052  0.35063479  1
  F  F8  1  0.69305801  0.15080762  0.84919238  1
  F  F9  1  0.30694199  0.84919238  0.15080762  1
  F  F10  1  0.19793887  0.35063479  0.15341052  1
  F  F11  1  0.19793887  0.84658948  0.64936521  1
