# generated using pymatgen
data_Mn3CrO8
_symmetry_space_group_name_H-M   'P 1'
_cell_length_a   8.25351981
_cell_length_b   8.24841589
_cell_length_c   8.25186401
_cell_angle_alpha   89.97937017
_cell_angle_beta   90.00828439
_cell_angle_gamma   90.08204693
_symmetry_Int_Tables_number   1
_chemical_formula_structural   Mn3CrO8
_chemical_formula_sum   'Mn12 Cr4 O32'
_cell_volume   561.77360830
_cell_formula_units_Z   4
loop_
 _symmetry_equiv_pos_site_id
 _symmetry_equiv_pos_as_xyz
  1  'x, y, z'
loop_
 _atom_site_type_symbol
 _atom_site_label
 _atom_site_symmetry_multiplicity
 _atom_site_fract_x
 _atom_site_fract_y
 _atom_site_fract_z
 _atom_site_occupancy
  Mn  Mn0  1  0.12413034  0.12616541  0.62536011  1
  Mn  Mn1  1  0.12470905  0.37555213  0.87424565  1
  Mn  Mn2  1  0.12554927  0.62462350  0.12417438  1
  Mn  Mn3  1  0.37478758  0.37488592  0.62433865  1
  Mn  Mn4  1  0.37532072  0.62428574  0.37429694  1
  Mn  Mn5  1  0.37549899  0.87436446  0.12479815  1
  Mn  Mn6  1  0.62427987  0.37415810  0.37481999  1
  Mn  Mn7  1  0.62524489  0.12398640  0.12558381  1
  Mn  Mn8  1  0.62608400  0.87524407  0.87576326  1
  Mn  Mn9  1  0.87414402  0.12527354  0.37572750  1
  Mn  Mn10  1  0.87473629  0.87589265  0.62581623  1
  Mn  Mn11  1  0.87555672  0.62555086  0.87497105  1
  Cr  Cr12  1  0.12478851  0.87515241  0.37527172  1
  Cr  Cr13  1  0.37524879  0.12516965  0.87504530  1
  Cr  Cr14  1  0.62525285  0.62494790  0.62517159  1
  Cr  Cr15  1  0.87457358  0.37487475  0.12484859  1
  O  O16  1  0.10781983  0.11040829  0.39106220  1
  O  O17  1  0.10866189  0.89202866  0.61063512  1
  O  O18  1  0.11060250  0.61113801  0.88915506  1
  O  O19  1  0.13786584  0.14195510  0.85909848  1
  O  O20  1  0.11030211  0.39027413  0.10808435  1
  O  O21  1  0.13968990  0.36119376  0.63895370  1
  O  O22  1  0.14130496  0.63942736  0.35777035  1
  O  O23  1  0.14234112  0.85885911  0.13940486  1
  O  O24  1  0.35798584  0.14014812  0.63995806  1
  O  O25  1  0.35897028  0.35960779  0.85849559  1
  O  O26  1  0.36077656  0.63917351  0.13901449  1
  O  O27  1  0.39022508  0.60945013  0.60863786  1
  O  O28  1  0.36082099  0.85793596  0.35866346  1
  O  O29  1  0.38891193  0.38894604  0.38947754  1
  O  O30  1  0.39108532  0.10883267  0.11013418  1
  O  O31  1  0.39215219  0.89055678  0.89021827  1
  O  O32  1  0.60810865  0.38887490  0.60904276  1
  O  O33  1  0.60948250  0.60792745  0.38932016  1
  O  O34  1  0.61062076  0.88911116  0.11107282  1
  O  O35  1  0.63958038  0.35843512  0.14058224  1
  O  O36  1  0.61220918  0.10934778  0.89230009  1
  O  O37  1  0.63919906  0.13896806  0.36072316  1
  O  O38  1  0.64058872  0.86104660  0.64211745  1
  O  O39  1  0.64164247  0.64081097  0.86073133  1
  O  O40  1  0.85798671  0.35948273  0.36086169  1
  O  O41  1  0.85971359  0.13982373  0.14177846  1
  O  O42  1  0.86107609  0.86066743  0.86090659  1
  O  O43  1  0.88928815  0.89100866  0.39222111  1
  O  O44  1  0.85969520  0.64142477  0.64030375  1
  O  O45  1  0.88908977  0.11087085  0.61080827  1
  O  O46  1  0.89079868  0.39198565  0.88905028  1
  O  O47  1  0.89149527  0.61029223  0.10932333  1
