# generated using pymatgen
data_Li2CrWO6
_symmetry_space_group_name_H-M   'P 1'
_cell_length_a   5.36144605
_cell_length_b   5.35992599
_cell_length_c   9.42926863
_cell_angle_alpha   28.41067812
_cell_angle_beta   51.50907036
_cell_angle_gamma   56.81395254
_symmetry_Int_Tables_number   1
_chemical_formula_structural   Li2CrWO6
_chemical_formula_sum   'Li2 Cr1 W1 O6'
_cell_volume   100.90934667
_cell_formula_units_Z   1
loop_
 _symmetry_equiv_pos_site_id
 _symmetry_equiv_pos_as_xyz
  1  'x, y, z'
loop_
 _atom_site_type_symbol
 _atom_site_label
 _atom_site_symmetry_multiplicity
 _atom_site_fract_x
 _atom_site_fract_y
 _atom_site_fract_z
 _atom_site_occupancy
  Li  Li0  1  0.28860361  0.00046859  0.28823572  1
  Li  Li1  1  0.77160232  0.00005559  0.77184993  1
  Cr  Cr2  1  0.00142025  0.00000135  0.00174458  1
  W  W3  1  0.50213098  0.00027658  0.50216568  1
  O  O4  1  0.36189369  0.60715441  0.13306324  1
  O  O5  1  0.24016669  0.23175149  0.63225777  1
  O  O6  1  0.13305522  0.62110535  0.74058633  1
  O  O7  1  0.86396902  0.39182208  0.24022585  1
  O  O8  1  0.74051100  0.77084957  0.36178665  1
  O  O9  1  0.63224623  0.37651400  0.86368326  1
