# generated using pymatgen
data_Na5Bi2P(CO4)4
_symmetry_space_group_name_H-M   'P 1'
_cell_length_a   10.45689426
_cell_length_b   10.25688903
_cell_length_c   10.45689426
_cell_angle_alpha   60.49356824
_cell_angle_beta   88.83764306
_cell_angle_gamma   119.50643176
_symmetry_Int_Tables_number   1
_chemical_formula_structural   Na5Bi2P(CO4)4
_chemical_formula_sum   'Na10 Bi4 P2 C8 O32'
_cell_volume   796.69387503
_cell_formula_units_Z   2
loop_
 _symmetry_equiv_pos_site_id
 _symmetry_equiv_pos_as_xyz
  1  'x, y, z'
loop_
 _atom_site_type_symbol
 _atom_site_label
 _atom_site_symmetry_multiplicity
 _atom_site_fract_x
 _atom_site_fract_y
 _atom_site_fract_z
 _atom_site_occupancy
  Na  Na0  1  0.92887089  0.24103535  0.32309934  1
  Na  Na1  1  0.67652973  0.36431433  0.07113569  1
  Na  Na2  1  0.67690066  0.74103535  0.07112911  1
  Na  Na3  1  0.93394091  0.25000000  0.93394091  1
  Na  Na4  1  0.92886431  0.86431433  0.32347027  1
  Na  Na5  1  0.06605909  0.75000000  0.06605909  1
  Na  Na6  1  0.07113569  0.13568567  0.67652973  1
  Na  Na7  1  0.32309934  0.25896465  0.92887089  1
  Na  Na8  1  0.32347027  0.63568567  0.92886431  1
  Na  Na9  1  0.07112911  0.75896465  0.67690066  1
  Bi  Bi10  1  0.50000000  0.00000000  0.00000000  1
  Bi  Bi11  1  0.50000000  0.00000000  0.50000000  1
  Bi  Bi12  1  0.50000000  0.50000000  0.50000000  1
  Bi  Bi13  1  0.00000000  0.50000000  0.50000000  1
  P  P14  1  0.12387193  0.25000000  0.12387193  1
  P  P15  1  0.87612807  0.75000000  0.87612807  1
  C  C16  1  0.72015288  0.05693757  0.72268622  1
  C  C17  1  0.72975020  0.44899501  0.33284063  1
  C  C18  1  0.72268622  0.44306243  0.72015288  1
  C  C19  1  0.33284063  0.05100499  0.72975020  1
  C  C20  1  0.66715937  0.94899501  0.27024980  1
  C  C21  1  0.27731378  0.55693757  0.27984712  1
  C  C22  1  0.27984712  0.94306243  0.27731378  1
  C  C23  1  0.27024980  0.55100499  0.66715937  1
  O  O24  1  0.67024485  0.06955479  0.13861689  1
  O  O25  1  0.85121911  0.18240381  0.60327271  1
  O  O26  1  0.71773563  0.31588315  0.33327282  1
  O  O27  1  0.40543488  0.05357414  0.28697930  1
  O  O28  1  0.86138311  0.56955479  0.32975515  1
  O  O29  1  0.30524438  0.37433927  0.05587707  1
  O  O30  1  0.06105362  0.12478401  0.06220516  1
  O  O31  1  0.71540326  0.04445131  0.85368204  1
  O  O32  1  0.61376297  0.46332739  0.33268731  1
  O  O33  1  0.33268731  0.03667261  0.61376297  1
  O  O34  1  0.85368204  0.45554869  0.71540326  1
  O  O35  1  0.06220516  0.37521599  0.06105362  1
  O  O36  1  0.05587707  0.12566073  0.30524438  1
  O  O37  1  0.66672718  0.81588315  0.28226437  1
  O  O38  1  0.39672729  0.68240381  0.14878089  1
  O  O39  1  0.71302070  0.55357414  0.59456512  1
  O  O40  1  0.28697930  0.44642586  0.40543488  1
  O  O41  1  0.33327282  0.18411685  0.71773563  1
  O  O42  1  0.60327271  0.31759619  0.85121911  1
  O  O43  1  0.94412293  0.87433927  0.69475562  1
  O  O44  1  0.93779484  0.62478401  0.93894638  1
  O  O45  1  0.14631796  0.54445131  0.28459674  1
  O  O46  1  0.66731269  0.96332739  0.38623703  1
  O  O47  1  0.28459674  0.95554869  0.14631796  1
  O  O48  1  0.38623703  0.53667261  0.66731269  1
  O  O49  1  0.93894638  0.87521599  0.93779484  1
  O  O50  1  0.69475562  0.62566073  0.94412293  1
  O  O51  1  0.13861689  0.43044521  0.67024485  1
  O  O52  1  0.59456512  0.94642586  0.71302070  1
  O  O53  1  0.28226437  0.68411685  0.66672718  1
  O  O54  1  0.14878089  0.81759619  0.39672729  1
  O  O55  1  0.32975515  0.93044521  0.86138311  1
