# generated using pymatgen
data_Li2MnV3O8
_symmetry_space_group_name_H-M   'P 1'
_cell_length_a   5.96385293
_cell_length_b   5.96385249
_cell_length_c   5.96385320
_cell_angle_alpha   59.36382076
_cell_angle_beta   59.36382616
_cell_angle_gamma   59.36381886
_symmetry_Int_Tables_number   1
_chemical_formula_structural   Li2MnV3O8
_chemical_formula_sum   'Li2 Mn1 V3 O8'
_cell_volume   147.81927843
_cell_formula_units_Z   1
loop_
 _symmetry_equiv_pos_site_id
 _symmetry_equiv_pos_as_xyz
  1  'x, y, z'
loop_
 _atom_site_type_symbol
 _atom_site_label
 _atom_site_symmetry_multiplicity
 _atom_site_fract_x
 _atom_site_fract_y
 _atom_site_fract_z
 _atom_site_occupancy
  Li  Li0  1  0.12765035  0.12765035  0.12765035  1
  Li  Li1  1  0.87234965  0.87234965  0.87234965  1
  Mn  Mn2  1  0.50000000  0.50000000  0.50000000  1
  V  V3  1  0.00000000  0.50000000  0.50000000  1
  V  V4  1  0.50000000  0.00000000  0.50000000  1
  V  V5  1  0.50000000  0.50000000  0.00000000  1
  O  O6  1  0.26353410  0.26353410  0.26353410  1
  O  O7  1  0.26706256  0.26706256  0.71392464  1
  O  O8  1  0.26706256  0.71392464  0.26706256  1
  O  O9  1  0.71392464  0.26706256  0.26706256  1
  O  O10  1  0.28607636  0.73293744  0.73293744  1
  O  O11  1  0.73293744  0.28607636  0.73293744  1
  O  O12  1  0.73293744  0.73293744  0.28607636  1
  O  O13  1  0.73646590  0.73646590  0.73646590  1
