# generated using pymatgen
data_Li2CoCuO4
_symmetry_space_group_name_H-M   'P 1'
_cell_length_a   5.10841386
_cell_length_b   5.10841445
_cell_length_c   5.10841427
_cell_angle_alpha   133.20389611
_cell_angle_beta   133.20389332
_cell_angle_gamma   68.33412274
_symmetry_Int_Tables_number   1
_chemical_formula_structural   Li2CoCuO4
_chemical_formula_sum   'Li2 Co1 Cu1 O4'
_cell_volume   69.57800778
_cell_formula_units_Z   1
loop_
 _symmetry_equiv_pos_site_id
 _symmetry_equiv_pos_as_xyz
  1  'x, y, z'
loop_
 _atom_site_type_symbol
 _atom_site_label
 _atom_site_symmetry_multiplicity
 _atom_site_fract_x
 _atom_site_fract_y
 _atom_site_fract_z
 _atom_site_occupancy
  Li  Li0  1  0.25000000  0.75000000  0.50000000  1
  Li  Li1  1  0.50000000  0.50000000  0.00000000  1
  Co  Co2  1  0.00000000  0.00000000  0.00000000  1
  Cu  Cu3  1  0.75000000  0.25000000  0.50000000  1
  O  O4  1  0.52150465  0.02150465  0.50000000  1
  O  O5  1  0.22872917  0.22872917  0.00000000  1
  O  O6  1  0.97849535  0.47849535  0.50000000  1
  O  O7  1  0.77127083  0.77127083  0.00000000  1
