# generated using pymatgen
data_LiMn2(BO3)2
_symmetry_space_group_name_H-M   'P 1'
_cell_length_a   5.32313127
_cell_length_b   9.04786614
_cell_length_c   10.36257117
_cell_angle_alpha   90.00000144
_cell_angle_beta   91.95852733
_cell_angle_gamma   89.99999904
_symmetry_Int_Tables_number   1
_chemical_formula_structural   LiMn2(BO3)2
_chemical_formula_sum   'Li4 Mn8 B8 O24'
_cell_volume   498.80074304
_cell_formula_units_Z   4
loop_
 _symmetry_equiv_pos_site_id
 _symmetry_equiv_pos_as_xyz
  1  'x, y, z'
loop_
 _atom_site_type_symbol
 _atom_site_label
 _atom_site_symmetry_multiplicity
 _atom_site_fract_x
 _atom_site_fract_y
 _atom_site_fract_z
 _atom_site_occupancy
  Li  Li0  1  0.86616217  0.00295088  0.91684048  1
  Li  Li1  1  0.62988158  0.48174687  0.66666317  1
  Li  Li2  1  0.62988158  0.51825313  0.16666317  1
  Li  Li3  1  0.86616217  0.99704912  0.41684048  1
  Mn  Mn4  1  0.35058026  0.19461168  0.87440428  1
  Mn  Mn5  1  0.65240211  0.14795893  0.62397806  1
  Mn  Mn6  1  0.14225524  0.30298577  0.13163467  1
  Mn  Mn7  1  0.84556347  0.34579260  0.38770124  1
  Mn  Mn8  1  0.14225524  0.69701423  0.63163467  1
  Mn  Mn9  1  0.84556347  0.65420740  0.88770124  1
  Mn  Mn10  1  0.35058026  0.80538832  0.37440428  1
  Mn  Mn11  1  0.65240211  0.85204107  0.12397806  1
  B  B12  1  0.34132915  0.14836757  0.37078557  1
  B  B13  1  0.15380197  0.35116915  0.63699827  1
  B  B14  1  0.67922995  0.18764952  0.11822820  1
  B  B15  1  0.82404032  0.31315418  0.87340374  1
  B  B16  1  0.15380197  0.64883085  0.13699827  1
  B  B17  1  0.34132915  0.85163243  0.87078557  1
  B  B18  1  0.82404032  0.68684582  0.37340374  1
  B  B19  1  0.67922995  0.81234948  0.61822820  1
  O  O20  1  0.21771591  0.01852070  0.38214030  1
  O  O21  1  0.28974175  0.22813113  0.68996656  1
  O  O22  1  0.43183055  0.19797106  0.06855308  1
  O  O23  1  0.80918639  0.06078707  0.11036896  1
  O  O24  1  0.59115960  0.16648693  0.41501976  1
  O  O25  1  0.06074985  0.30131763  0.93571371  1
  O  O26  1  0.21084738  0.27221943  0.31693174  1
  O  O27  1  0.70754688  0.17750808  0.83805146  1
  O  O28  1  0.27239585  0.48230384  0.62760058  1
  O  O29  1  0.78641191  0.31950102  0.16601018  1
  O  O30  1  0.90466220  0.32916311  0.59337833  1
  O  O31  1  0.27239585  0.51769616  0.12760058  1
  O  O32  1  0.71183051  0.44331756  0.85158365  1
  O  O33  1  0.06074985  0.69868237  0.43571371  1
  O  O34  1  0.21084738  0.72778057  0.81693174  1
  O  O35  1  0.71183051  0.55668244  0.35158365  1
  O  O36  1  0.28974175  0.77186887  0.18996656  1
  O  O37  1  0.78641191  0.68049898  0.66601018  1
  O  O38  1  0.90466220  0.67083689  0.09337833  1
  O  O39  1  0.43183055  0.80202894  0.56855308  1
  O  O40  1  0.21771591  0.98147930  0.88214030  1
  O  O41  1  0.59115960  0.83351307  0.91501976  1
  O  O42  1  0.70754688  0.82249192  0.33805146  1
  O  O43  1  0.80918639  0.93921293  0.61036896  1
