# generated using pymatgen
data_Li3Fe2F9
_symmetry_space_group_name_H-M   'P 1'
_cell_length_a   5.19663528
_cell_length_b   5.19640244
_cell_length_c   14.82706028
_cell_angle_alpha   90.01389476
_cell_angle_beta   89.98162392
_cell_angle_gamma   120.00315652
_symmetry_Int_Tables_number   1
_chemical_formula_structural   Li3Fe2F9
_chemical_formula_sum   'Li6 Fe4 F18'
_cell_volume   346.73434459
_cell_formula_units_Z   2
loop_
 _symmetry_equiv_pos_site_id
 _symmetry_equiv_pos_as_xyz
  1  'x, y, z'
loop_
 _atom_site_type_symbol
 _atom_site_label
 _atom_site_symmetry_multiplicity
 _atom_site_fract_x
 _atom_site_fract_y
 _atom_site_fract_z
 _atom_site_occupancy
  Li  Li0  1  0.33330990  0.66666823  0.47920503  1
  Li  Li1  1  0.33332795  0.66657571  0.24996719  1
  Li  Li2  1  0.33335564  0.66662510  0.02078527  1
  Li  Li3  1  0.66643932  0.33347157  0.97921847  1
  Li  Li4  1  0.66690007  0.33336091  0.52078410  1
  Li  Li5  1  0.66661888  0.33334282  0.74999842  1
  Fe  Fe6  1  0.00000089  0.99988323  0.14996843  1
  Fe  Fe7  1  0.00006504  0.99996712  0.35003445  1
  Fe  Fe8  1  0.00013663  0.00002330  0.64996754  1
  Fe  Fe9  1  0.99980526  0.00011111  0.85004063  1
  F  F10  1  0.98753291  0.71661945  0.75002213  1
  F  F11  1  0.30814151  0.97687161  0.08861851  1
  F  F12  1  0.30798021  0.97688416  0.41142956  1
  F  F13  1  0.02321699  0.33102391  0.08862071  1
  F  F14  1  0.02309986  0.33109530  0.41140916  1
  F  F15  1  0.28337703  0.27104187  0.74999711  1
  F  F16  1  0.27100275  0.28334454  0.24997708  1
  F  F17  1  0.33137640  0.02321568  0.58861151  1
  F  F18  1  0.33076966  0.02318868  0.91144932  1
  F  F19  1  0.66885541  0.69206094  0.41140222  1
  F  F20  1  0.66901732  0.69198198  0.08851246  1
  F  F21  1  0.72894205  0.01246237  0.74999254  1
  F  F22  1  0.69227657  0.66897433  0.58854587  1
  F  F23  1  0.69170920  0.66902338  0.91140627  1
  F  F24  1  0.01242049  0.72890991  0.24999900  1
  F  F25  1  0.97663726  0.30809731  0.91144668  1
  F  F26  1  0.97717535  0.30803852  0.58856800  1
  F  F27  1  0.71661145  0.98743896  0.25002132  1
