# generated using pymatgen
data_Mn12O7F17
_symmetry_space_group_name_H-M   'P 1'
_cell_length_a   5.05790236
_cell_length_b   5.68325141
_cell_length_c   15.35984027
_cell_angle_alpha   92.62109620
_cell_angle_beta   88.73274974
_cell_angle_gamma   93.75399822
_symmetry_Int_Tables_number   1
_chemical_formula_structural   Mn12O7F17
_chemical_formula_sum   'Mn12 O7 F17'
_cell_volume   440.03441931
_cell_formula_units_Z   1
loop_
 _symmetry_equiv_pos_site_id
 _symmetry_equiv_pos_as_xyz
  1  'x, y, z'
loop_
 _atom_site_type_symbol
 _atom_site_label
 _atom_site_symmetry_multiplicity
 _atom_site_fract_x
 _atom_site_fract_y
 _atom_site_fract_z
 _atom_site_occupancy
  Mn  Mn0  1  0.02972039  0.91047184  0.00174011  1
  Mn  Mn1  1  0.96988344  0.61380736  0.16710875  1
  Mn  Mn2  1  0.01710824  0.93397958  0.33991959  1
  Mn  Mn3  1  0.98507745  0.45661283  0.50345058  1
  Mn  Mn4  1  0.03001080  0.88630566  0.66947154  1
  Mn  Mn5  1  0.05292875  0.48144188  0.82060539  1
  Mn  Mn6  1  0.46353041  0.11868871  0.17106189  1
  Mn  Mn7  1  0.48603877  0.38475568  0.99499178  1
  Mn  Mn8  1  0.46739460  0.56542002  0.65860666  1
  Mn  Mn9  1  0.49417373  0.10030553  0.51125525  1
  Mn  Mn10  1  0.48307451  0.55653517  0.31902416  1
  Mn  Mn11  1  0.50991397  0.01464143  0.83172987  1
  O  O12  1  0.19097922  0.88440284  0.11268407  1
  O  O13  1  0.27899595  0.12219463  0.94151929  1
  O  O14  1  0.29059908  0.77291759  0.74781716  1
  O  O15  1  0.17713762  0.68420785  0.26820524  1
  O  O16  1  0.18003937  0.66160970  0.59009828  1
  O  O17  1  0.64948560  0.38427240  0.56976304  1
  O  O18  1  0.67727966  0.40574338  0.21925450  1
  F  F19  1  0.21592507  0.18689851  0.26861618  1
  F  F20  1  0.16306892  0.15400017  0.58150470  1
  F  F21  1  0.33487362  0.86606410  0.42139474  1
  F  F22  1  0.24571881  0.38172385  0.09969085  1
  F  F23  1  0.25273584  0.62167848  0.93360902  1
  F  F24  1  0.34998978  0.29447839  0.75515030  1
  F  F25  1  0.31120000  0.36812278  0.42688609  1
  F  F26  1  0.73850126  0.33858053  0.89620249  1
  F  F27  1  0.76842381  0.62758221  0.05307899  1
  F  F28  1  0.80841683  0.64014498  0.40162437  1
  F  F29  1  0.78569373  0.59995726  0.73119180  1
  F  F30  1  0.82363704  0.14259858  0.42954655  1
  F  F31  1  0.70245815  0.12303227  0.06513468  1
  F  F32  1  0.86188354  0.09790840  0.75220141  1
  F  F33  1  0.69678453  0.88170787  0.59730630  1
  F  F34  1  0.80397088  0.84376039  0.89939590  1
  F  F35  1  0.70334262  0.89344916  0.24915845  1
