# generated using pymatgen
data_Al6H16C5(Cl2O)6
_symmetry_space_group_name_H-M   'P 1'
_cell_length_a   8.98979188
_cell_length_b   10.16350667
_cell_length_c   19.21834029
_cell_angle_alpha   99.46154925
_cell_angle_beta   91.62276309
_cell_angle_gamma   112.25437362
_symmetry_Int_Tables_number   1
_chemical_formula_structural   Al6H16C5(Cl2O)6
_chemical_formula_sum   'Al12 H32 C10 Cl24 O12'
_cell_volume   1595.12327044
_cell_formula_units_Z   2
loop_
 _symmetry_equiv_pos_site_id
 _symmetry_equiv_pos_as_xyz
  1  'x, y, z'
loop_
 _atom_site_type_symbol
 _atom_site_label
 _atom_site_symmetry_multiplicity
 _atom_site_fract_x
 _atom_site_fract_y
 _atom_site_fract_z
 _atom_site_occupancy
  Al  Al0  1  0.12217995  0.78759619  0.96607060  1
  Al  Al1  1  0.03084035  0.58382781  0.80240787  1
  Al  Al2  1  0.20331140  0.95131045  0.34471016  1
  Al  Al3  1  0.37869784  0.67800161  0.88825803  1
  Al  Al4  1  0.57510212  0.98727538  0.34322657  1
  Al  Al5  1  0.52540066  0.72492743  0.62995529  1
  Al  Al6  1  0.47459934  0.27507257  0.37004471  1
  Al  Al7  1  0.42489788  0.01272462  0.65677343  1
  Al  Al8  1  0.62130216  0.32199839  0.11174197  1
  Al  Al9  1  0.79668860  0.04868955  0.65528984  1
  Al  Al10  1  0.96915965  0.41617219  0.19759213  1
  Al  Al11  1  0.87782005  0.21240381  0.03392940  1
  H  H12  1  0.06167134  0.91676327  0.82642778  1
  H  H13  1  0.21664709  0.66908144  0.35936067  1
  H  H14  1  0.11862055  0.31909139  0.82048332  1
  H  H15  1  0.16858201  0.38682269  0.73949250  1
  H  H16  1  0.33888522  0.77269596  0.44081940  1
  H  H17  1  0.32735225  0.80388074  0.07664867  1
  H  H18  1  0.11021573  0.22827206  0.40981304  1
  H  H19  1  0.12887012  0.23675484  0.19254414  1
  H  H20  1  0.07670693  0.12388523  0.10654826  1
  H  H21  1  0.29295636  0.61551831  0.05127090  1
  H  H22  1  0.12212330  0.11246376  0.46937994  1
  H  H23  1  0.42885863  0.71109603  0.36636407  1
  H  H24  1  0.32650263  0.40746717  0.80440265  1
  H  H25  1  0.27530608  0.29090548  0.47876388  1
  H  H26  1  0.48227513  0.75416699  0.03858563  1
  H  H27  1  0.51772487  0.24583301  0.96141437  1
  H  H28  1  0.72469392  0.70909452  0.52123612  1
  H  H29  1  0.67349737  0.59253283  0.19559735  1
  H  H30  1  0.57114137  0.28890397  0.63363593  1
  H  H31  1  0.87787670  0.88753624  0.53062006  1
  H  H32  1  0.70704364  0.38448169  0.94872910  1
  H  H33  1  0.92329307  0.87611477  0.89345174  1
  H  H34  1  0.87112988  0.76324516  0.80745586  1
  H  H35  1  0.88978427  0.77172794  0.59018696  1
  H  H36  1  0.67264775  0.19611926  0.92335133  1
  H  H37  1  0.66111478  0.22730404  0.55918060  1
  H  H38  1  0.83141799  0.61317731  0.26050750  1
  H  H39  1  0.88137945  0.68090861  0.17951668  1
  H  H40  1  0.78335291  0.33091856  0.64063933  1
  H  H41  1  0.93832866  0.08323673  0.17357222  1
  H  H42  1  0.43828127  0.84553977  0.72934736  1
  H  H43  1  0.56171873  0.15446023  0.27065264  1
  C  C44  1  0.02876110  0.16942190  0.15202407  1
  C  C45  1  0.20388781  0.40411365  0.79632375  1
  C  C46  1  0.33476373  0.75044715  0.38309569  1
  C  C47  1  0.35149150  0.72331886  0.03844827  1
  C  C48  1  0.19151297  0.19692984  0.44091685  1
  C  C49  1  0.80848703  0.80307016  0.55908315  1
  C  C50  1  0.64850850  0.27668114  0.96155173  1
  C  C51  1  0.66523627  0.24955285  0.61690431  1
  C  C52  1  0.79611219  0.59588635  0.20367625  1
  C  C53  1  0.97123890  0.83057810  0.84797593  1
  Cl  Cl54  1  0.16093356  0.95578044  0.23608013  1
  Cl  Cl55  1  0.06657483  0.64582226  0.70191089  1
  Cl  Cl56  1  0.27829068  0.95840795  0.55980043  1
  Cl  Cl57  1  0.06055820  0.32279239  0.97286090  1
  Cl  Cl58  1  0.00316541  0.17627851  0.61099431  1
  Cl  Cl59  1  0.18992488  0.59160879  0.19653558  1
  Cl  Cl60  1  0.45885840  0.86898021  0.84227496  1
  Cl  Cl61  1  0.36843683  0.59887338  0.53845814  1
  Cl  Cl62  1  0.22426047  0.01609006  0.99721207  1
  Cl  Cl63  1  0.42542655  0.39795036  0.30016363  1
  Cl  Cl64  1  0.54985612  0.59213046  0.91048330  1
  Cl  Cl65  1  0.35109829  0.11768063  0.74513680  1
  Cl  Cl66  1  0.64890171  0.88231937  0.25486320  1
  Cl  Cl67  1  0.45014388  0.40786954  0.08951670  1
  Cl  Cl68  1  0.57457345  0.60204964  0.69983637  1
  Cl  Cl69  1  0.77573953  0.98390994  0.00278793  1
  Cl  Cl70  1  0.63156317  0.40112662  0.46154186  1
  Cl  Cl71  1  0.54114160  0.13101979  0.15772504  1
  Cl  Cl72  1  0.81007512  0.40839121  0.80346442  1
  Cl  Cl73  1  0.99683459  0.82372149  0.38900569  1
  Cl  Cl74  1  0.93944180  0.67720761  0.02713910  1
  Cl  Cl75  1  0.72170932  0.04159205  0.44019957  1
  Cl  Cl76  1  0.93342517  0.35417774  0.29808911  1
  Cl  Cl77  1  0.83906644  0.04421956  0.76391987  1
  O  O78  1  0.04933370  0.73758171  0.87172254  1
  O  O79  1  0.28488499  0.72175212  0.96675222  1
  O  O80  1  0.20350808  0.54556735  0.83095060  1
  O  O81  1  0.36485292  0.88620863  0.35666983  1
  O  O82  1  0.45218985  0.85460595  0.67837709  1
  O  O83  1  0.28799590  0.14072191  0.39253945  1
  O  O84  1  0.71200410  0.85927809  0.60746055  1
  O  O85  1  0.54781015  0.14539405  0.32162291  1
  O  O86  1  0.63514708  0.11379137  0.64333017  1
  O  O87  1  0.79649192  0.45443265  0.16904940  1
  O  O88  1  0.71511501  0.27824788  0.03324778  1
  O  O89  1  0.95066630  0.26241829  0.12827746  1
