# generated using pymatgen
data_Li4Cr5SbO12
_symmetry_space_group_name_H-M   'P 1'
_cell_length_a   5.24282727
_cell_length_b   5.24282697
_cell_length_c   10.33278571
_cell_angle_alpha   87.75825209
_cell_angle_beta   87.75825128
_cell_angle_gamma   120.19003008
_symmetry_Int_Tables_number   1
_chemical_formula_structural   Li4Cr5SbO12
_chemical_formula_sum   'Li4 Cr5 Sb1 O12'
_cell_volume   244.73919818
_cell_formula_units_Z   1
loop_
 _symmetry_equiv_pos_site_id
 _symmetry_equiv_pos_as_xyz
  1  'x, y, z'
loop_
 _atom_site_type_symbol
 _atom_site_label
 _atom_site_symmetry_multiplicity
 _atom_site_fract_x
 _atom_site_fract_y
 _atom_site_fract_z
 _atom_site_occupancy
  Li  Li0  1  0.13483254  0.47105000  0.70933713  1
  Li  Li1  1  0.52895000  0.86516746  0.29066287  1
  Li  Li2  1  0.47105000  0.13483254  0.70933713  1
  Li  Li3  1  0.86516746  0.52895000  0.29066287  1
  Cr  Cr4  1  0.16334032  0.83665968  0.50000000  1
  Cr  Cr5  1  0.33449706  0.66550294  0.00000000  1
  Cr  Cr6  1  0.50000000  0.50000000  0.50000000  1
  Cr  Cr7  1  0.66550294  0.33449706  1.00000000  1
  Cr  Cr8  1  0.83665968  0.16334032  0.50000000  1
  Sb  Sb9  1  0.00000000  0.00000000  0.00000000  1
  O  O10  1  0.98488583  0.65251068  0.10066985  1
  O  O11  1  0.34748932  0.01511417  0.89933015  1
  O  O12  1  0.18212048  0.52697968  0.39623645  1
  O  O13  1  0.47302032  0.81787952  0.60376355  1
  O  O14  1  0.16223252  0.16223252  0.60468429  1
  O  O15  1  0.31682379  0.31682379  0.09694091  1
  O  O16  1  0.68317621  0.68317621  0.90305909  1
  O  O17  1  0.83776748  0.83776748  0.39531571  1
  O  O18  1  0.52697968  0.18212048  0.39623645  1
  O  O19  1  0.81787952  0.47302032  0.60376355  1
  O  O20  1  0.65251068  0.98488583  0.10066985  1
  O  O21  1  0.01511417  0.34748932  0.89933015  1
