# generated using pymatgen
data_Li4Ti3Mn4(FeO9)2
_symmetry_space_group_name_H-M   'P 1'
_cell_length_a   9.17193698
_cell_length_b   25.38955972
_cell_length_c   2.94015807
_cell_angle_alpha   89.99998678
_cell_angle_beta   90.00010401
_cell_angle_gamma   89.98271424
_symmetry_Int_Tables_number   1
_chemical_formula_structural   Li4Ti3Mn4(FeO9)2
_chemical_formula_sum   'Li8 Ti6 Mn8 Fe4 O36'
_cell_volume   684.67881773
_cell_formula_units_Z   2
loop_
 _symmetry_equiv_pos_site_id
 _symmetry_equiv_pos_as_xyz
  1  'x, y, z'
loop_
 _atom_site_type_symbol
 _atom_site_label
 _atom_site_symmetry_multiplicity
 _atom_site_fract_x
 _atom_site_fract_y
 _atom_site_fract_z
 _atom_site_occupancy
  Li  Li0  1  0.18092307  0.99273273  0.99999751  1
  Li  Li1  1  0.19455677  0.20856933  0.00000109  1
  Li  Li2  1  0.30544429  0.70842049  -0.00000020  1
  Li  Li3  1  0.31901525  0.49262487  0.00000238  1
  Li  Li4  1  0.68058774  0.49885608  -0.00000091  1
  Li  Li5  1  0.69767412  0.30868789  0.00000237  1
  Li  Li6  1  0.80265555  0.80854326  0.99999883  1
  Li  Li7  1  0.81933465  0.99869820  0.00000230  1
  Ti  Ti8  1  0.00067483  0.10526392  0.99999742  1
  Ti  Ti9  1  0.49931432  0.60519297  -0.00000107  1
  Ti  Ti10  1  0.49372828  0.39392742  0.99999855  1
  Ti  Ti11  1  0.65289142  0.69446479  0.49999957  1
  Ti  Ti12  1  0.84700418  0.19456213  0.49999940  1
  Ti  Ti13  1  0.00631030  0.89384490  0.99999828  1
  Mn  Mn14  1  0.01485696  0.31256343  0.00000264  1
  Mn  Mn15  1  0.14803221  0.58660140  0.49999375  1
  Mn  Mn16  1  0.35219655  0.08666968  0.49999717  1
  Mn  Mn17  1  0.48524438  0.81249947  0.00000617  1
  Mn  Mn18  1  0.50803291  0.18606475  -0.00000287  1
  Mn  Mn19  1  0.64443062  0.91382358  0.50000126  1
  Mn  Mn20  1  0.85561358  0.41384201  0.50000090  1
  Mn  Mn21  1  0.99184486  0.68592480  0.00003792  1
  Fe  Fe22  1  0.00069723  0.50027987  0.99999809  1
  Fe  Fe23  1  0.14710471  0.80364990  0.49999948  1
  Fe  Fe24  1  0.35305893  0.30374060  0.50000036  1
  Fe  Fe25  1  0.49910694  0.00020890  0.99999861  1
  O  O26  1  0.99309510  0.42050160  0.00000064  1
  O  O27  1  0.01048466  0.58078085  0.99999138  1
  O  O28  1  0.03992552  0.94261336  0.49999916  1
  O  O29  1  0.04539636  0.16136321  0.49999958  1
  O  O30  1  0.11951525  0.66105790  0.49999693  1
  O  O31  1  0.12064046  0.75351704  0.00000440  1
  O  O32  1  0.15429045  0.50856294  0.49999522  1
  O  O33  1  0.13261369  0.28593660  0.50000276  1
  O  O34  1  0.18348125  0.85998937  0.00000090  1
  O  O35  1  0.21418888  0.08731281  0.99999729  1
  O  O36  1  0.28585764  0.58721941  0.99999176  1
  O  O37  1  0.31660216  0.36002559  0.00000117  1
  O  O38  1  0.36754326  0.78591425  0.50000545  1
  O  O39  1  0.34563895  0.00858945  0.49999790  1
  O  O40  1  0.37942729  0.25365604  -0.00000049  1
  O  O41  1  0.38052864  0.16114480  0.49999367  1
  O  O42  1  0.45448252  0.66126743  0.49999800  1
  O  O43  1  0.45992145  0.44267480  0.49999903  1
  O  O44  1  0.48949498  0.08072473  0.99999819  1
  O  O45  1  0.50690378  0.92047430  -0.00000040  1
  O  O46  1  0.53831969  0.55917561  0.49999791  1
  O  O47  1  0.55475613  0.33999565  0.50000155  1
  O  O48  1  0.61442875  0.83852620  0.50000552  1
  O  O49  1  0.62425165  0.74235537  0.00000125  1
  O  O50  1  0.65256328  0.99162113  0.49999903  1
  O  O51  1  0.63602276  0.20633676  0.49999345  1
  O  O52  1  0.68248888  0.64144264  0.99999996  1
  O  O53  1  0.71844022  0.41363985  0.00000022  1
  O  O54  1  0.78151893  0.91352327  0.00000008  1
  O  O55  1  0.81749149  0.14155172  0.99999925  1
  O  O56  1  0.86386692  0.70629612  0.50000196  1
  O  O57  1  0.84736816  0.49169559  0.49999872  1
  O  O58  1  0.87551368  0.24249560  -0.00000032  1
  O  O59  1  0.88552011  0.33858262  0.50000173  1
  O  O60  1  0.94529666  0.83990953  0.50000050  1
  O  O61  1  0.96178574  0.05926449  0.49999764  1
