# generated using pymatgen
data_La2Nb2N2O5
_symmetry_space_group_name_H-M   'P 1'
_cell_length_a   4.00768839
_cell_length_b   13.74249387
_cell_length_c   5.77335768
_cell_angle_alpha   89.14490619
_cell_angle_beta   90.00000000
_cell_angle_gamma   98.38440096
_symmetry_Int_Tables_number   1
_chemical_formula_structural   La2Nb2N2O5
_chemical_formula_sum   'La4 Nb4 N4 O10'
_cell_volume   314.53708049
_cell_formula_units_Z   2
loop_
 _symmetry_equiv_pos_site_id
 _symmetry_equiv_pos_as_xyz
  1  'x, y, z'
loop_
 _atom_site_type_symbol
 _atom_site_label
 _atom_site_symmetry_multiplicity
 _atom_site_fract_x
 _atom_site_fract_y
 _atom_site_fract_z
 _atom_site_occupancy
  La  La0  1  0.28489007  0.56978113  0.54226210  1
  La  La1  1  0.44609058  0.89218216  0.93631846  1
  La  La2  1  0.54990580  0.09981060  0.47298580  1
  La  La3  1  0.71006412  0.42012824  0.03767562  1
  Nb  Nb4  1  0.06139921  0.12279842  0.97944104  1
  Nb  Nb5  1  0.15554394  0.31108687  0.49417441  1
  Nb  Nb6  1  0.83696763  0.67393525  0.98915856  1
  Nb  Nb7  1  0.94033720  0.88067541  0.44570596  1
  N  N8  1  0.09285386  0.18570772  0.66347614  1
  N  N9  1  0.11507998  0.23015995  0.17699957  1
  N  N10  1  0.78240693  0.56481386  0.78433114  1
  N  N11  1  0.90983658  0.81967316  0.15634951  1
  O  O12  1  0.01290233  0.02580565  0.27782929  1
  O  O13  1  0.21947905  0.43895811  0.27051925  1
  O  O14  1  0.20343733  0.40687565  0.75309388  1
  O  O15  1  0.45612249  0.91224398  0.46307442  1
  O  O16  1  0.34999844  0.69999688  0.95384071  1
  O  O17  1  0.54352350  0.08704799  0.96462198  1
  O  O18  1  0.79677186  0.59354371  0.26485694  1
  O  O19  1  0.65561935  0.31123970  0.45818568  1
  O  O20  1  0.88831958  0.77663916  0.67076238  1
  O  O21  1  0.98844920  0.97689739  0.76517219  1
