# generated using pymatgen
data_K3NaSi6(SnO10)2
_symmetry_space_group_name_H-M   'P 1'
_cell_length_a   6.57226492
_cell_length_b   11.63809702
_cell_length_c   13.00409904
_cell_angle_alpha   90.00000000
_cell_angle_beta   103.98198017
_cell_angle_gamma   90.00000000
_symmetry_Int_Tables_number   1
_chemical_formula_structural   K3NaSi6(SnO10)2
_chemical_formula_sum   'K6 Na2 Si12 Sn4 O40'
_cell_volume   965.19586691
_cell_formula_units_Z   2
loop_
 _symmetry_equiv_pos_site_id
 _symmetry_equiv_pos_as_xyz
  1  'x, y, z'
loop_
 _atom_site_type_symbol
 _atom_site_label
 _atom_site_symmetry_multiplicity
 _atom_site_fract_x
 _atom_site_fract_y
 _atom_site_fract_z
 _atom_site_occupancy
  K  K0  1  0.20486812  0.37870868  0.88445460  1
  K  K1  1  0.29513188  0.87870868  0.61554540  1
  K  K2  1  0.79529622  0.61878556  0.11496784  1
  K  K3  1  0.70470378  0.11878556  0.38503216  1
  K  K4  1  0.72839803  0.95694676  0.90873540  1
  K  K5  1  0.77160197  0.45694676  0.59126460  1
  Na  Na6  1  0.30008795  0.04497670  0.11667726  1
  Na  Na7  1  0.19991205  0.54497670  0.38332274  1
  Si  Si8  1  0.81713223  0.97722771  0.65956284  1
  Si  Si9  1  0.68286777  0.47722771  0.84043716  1
  Si  Si10  1  0.18232848  0.02375539  0.33804511  1
  Si  Si11  1  0.31767152  0.52375539  0.16195489  1
  Si  Si12  1  0.28059071  0.23860374  0.48191943  1
  Si  Si13  1  0.21940929  0.73860374  0.01808057  1
  Si  Si14  1  0.71544308  0.76494901  0.51703041  1
  Si  Si15  1  0.78455692  0.26494901  0.98296959  1
  Si  Si16  1  0.07604055  0.19366280  0.66077225  1
  Si  Si17  1  0.42395945  0.69366280  0.83922775  1
  Si  Si18  1  0.92655724  0.80425687  0.33991678  1
  Si  Si19  1  0.57344276  0.30425687  0.16008322  1
  Sn  Sn20  1  0.60375239  0.21984397  0.72081693  1
  Sn  Sn21  1  0.89624761  0.71984397  0.77918307  1
  Sn  Sn22  1  0.39584299  0.78008106  0.27926059  1
  Sn  Sn23  1  0.10415701  0.28008106  0.22073941  1
  O  O24  1  0.62819356  0.04713327  0.69176111  1
  O  O25  1  0.87180644  0.54713327  0.80823889  1
  O  O26  1  0.37171980  0.95437950  0.30549545  1
  O  O27  1  0.12828020  0.45437950  0.19450455  1
  O  O28  1  0.78597586  0.40210495  0.94758648  1
  O  O29  1  0.71402414  0.90210495  0.55241352  1
  O  O30  1  0.21833519  0.60244203  0.05662540  1
  O  O31  1  0.28166481  0.10244203  0.44337460  1
  O  O32  1  0.55608316  0.39335911  0.74671100  1
  O  O33  1  0.94391684  0.89335911  0.75328900  1
  O  O34  1  0.44499163  0.60620880  0.25647292  1
  O  O35  1  0.05500837  0.10620880  0.24352708  1
  O  O36  1  0.30521940  0.19147735  0.74315281  1
  O  O37  1  0.19478060  0.69147735  0.75684719  1
  O  O38  1  0.69726209  0.80870228  0.25648405  1
  O  O39  1  0.80273791  0.30870228  0.24351595  1
  O  O40  1  0.27116528  0.01046424  0.89043525  1
  O  O41  1  0.22883472  0.51046424  0.60956475  1
  O  O42  1  0.69584098  0.98305366  0.13438466  1
  O  O43  1  0.80415902  0.48305366  0.36561534  1
  O  O44  1  0.90861251  0.26314243  0.71044536  1
  O  O45  1  0.59138749  0.76314243  0.78955464  1
  O  O46  1  0.09373359  0.73006702  0.29309193  1
  O  O47  1  0.40626641  0.23006702  0.20690807  1
  O  O48  1  0.51055657  0.56221904  0.87481396  1
  O  O49  1  0.98944343  0.06221904  0.62518604  1
  O  O50  1  0.48429990  0.43560738  0.12696462  1
  O  O51  1  0.01570010  0.93560738  0.37303538  1
  O  O52  1  0.51045036  0.26124935  0.55993663  1
  O  O53  1  0.98954964  0.76124935  0.94006337  1
  O  O54  1  0.48717153  0.73923187  0.43948143  1
  O  O55  1  0.01282847  0.23923187  0.06051857  1
  O  O56  1  0.09240057  0.25268057  0.54632171  1
  O  O57  1  0.40759943  0.75268057  0.95367829  1
  O  O58  1  0.90477781  0.74786288  0.45379248  1
  O  O59  1  0.59522219  0.24786288  0.04620752  1
  O  O60  1  0.73089497  0.18384213  0.87893488  1
  O  O61  1  0.76910503  0.68384213  0.62106512  1
  O  O62  1  0.27100329  0.82297391  0.12048270  1
  O  O63  1  0.22899671  0.32297391  0.37951730  1
