# generated using pymatgen
data_Li4Mn3Co2Sn3O16
_symmetry_space_group_name_H-M   'P 1'
_cell_length_a   6.08491061
_cell_length_b   6.08904357
_cell_length_c   9.76504486
_cell_angle_alpha   89.95331940
_cell_angle_beta   89.64091067
_cell_angle_gamma   120.01115103
_symmetry_Int_Tables_number   1
_chemical_formula_structural   Li4Mn3Co2Sn3O16
_chemical_formula_sum   'Li4 Mn3 Co2 Sn3 O16'
_cell_volume   313.28983330
_cell_formula_units_Z   1
loop_
 _symmetry_equiv_pos_site_id
 _symmetry_equiv_pos_as_xyz
  1  'x, y, z'
loop_
 _atom_site_type_symbol
 _atom_site_label
 _atom_site_symmetry_multiplicity
 _atom_site_fract_x
 _atom_site_fract_y
 _atom_site_fract_z
 _atom_site_occupancy
  Li  Li0  1  0.34565454  0.67281607  0.88263928  1
  Li  Li1  1  0.97272564  0.98654632  0.99504116  1
  Li  Li2  1  0.97849137  0.98930959  0.50205145  1
  Li  Li3  1  0.67552233  0.33773066  0.39125764  1
  Mn  Mn4  1  0.66287595  0.83099078  0.21629720  1
  Mn  Mn5  1  0.83229387  0.66248659  0.71523963  1
  Mn  Mn6  1  0.83212139  0.17018979  0.71489449  1
  Co  Co7  1  0.33662711  0.66856379  0.49745122  1
  Co  Co8  1  0.67263069  0.33579847  0.99039286  1
  Sn  Sn9  1  0.17092861  0.83219944  0.21462976  1
  Sn  Sn10  1  0.17078677  0.33851875  0.21488378  1
  Sn  Sn11  1  0.33925292  0.16958367  0.71457108  1
  O  O12  1  0.14685396  0.83323619  0.60253864  1
  O  O13  1  0.03491129  0.51733732  0.34099993  1
  O  O14  1  0.35709584  0.67839426  0.09968653  1
  O  O15  1  0.97946773  0.98961797  0.31805074  1
  O  O16  1  0.97881117  0.98948648  0.81111898  1
  O  O17  1  0.14719842  0.31396093  0.60259778  1
  O  O18  1  0.49658442  0.96730168  0.33505002  1
  O  O19  1  0.49700498  0.52931860  0.33513517  1
  O  O20  1  0.31251362  0.15645519  0.09263049  1
  O  O21  1  0.67949957  0.83996416  0.61193056  1
  O  O22  1  0.53265089  0.49491647  0.83294140  1
  O  O23  1  0.53273911  0.03777836  0.83295573  1
  O  O24  1  0.69073941  0.34553090  0.60659883  1
  O  O25  1  0.82973858  0.68074182  0.10452058  1
  O  O26  1  0.96462433  0.48266418  0.82710187  1
  O  O27  1  0.82965748  0.14886159  0.10463519  1
