# generated using pymatgen
data_Li2VF6
_symmetry_space_group_name_H-M   'P 1'
_cell_length_a   5.55098783
_cell_length_b   8.40838268
_cell_length_c   5.61415645
_cell_angle_alpha   90.00000000
_cell_angle_beta   90.00000000
_cell_angle_gamma   70.72597198
_symmetry_Int_Tables_number   1
_chemical_formula_structural   Li2VF6
_chemical_formula_sum   'Li4 V2 F12'
_cell_volume   247.35264382
_cell_formula_units_Z   2
loop_
 _symmetry_equiv_pos_site_id
 _symmetry_equiv_pos_as_xyz
  1  'x, y, z'
loop_
 _atom_site_type_symbol
 _atom_site_label
 _atom_site_symmetry_multiplicity
 _atom_site_fract_x
 _atom_site_fract_y
 _atom_site_fract_z
 _atom_site_occupancy
  Li  Li0  1  0.13488029  0.73023942  0.75000000  1
  Li  Li1  1  0.83394091  0.33211718  0.75000000  1
  Li  Li2  1  0.16605909  0.66788282  0.25000000  1
  Li  Li3  1  0.86511971  0.26976058  0.25000000  1
  V  V4  1  0.62152466  0.75695067  0.25000000  1
  V  V5  1  0.37847534  0.24304933  0.75000000  1
  F  F6  1  0.48936966  0.02126068  0.75000000  1
  F  F7  1  0.37131749  0.74251497  0.02048339  1
  F  F8  1  0.37131749  0.74251497  0.47951661  1
  F  F9  1  0.88616754  0.74251497  0.02048339  1
  F  F10  1  0.88616754  0.74251497  0.47951661  1
  F  F11  1  0.73985177  0.52029645  0.25000000  1
  F  F12  1  0.26014823  0.47970355  0.75000000  1
  F  F13  1  0.62868251  0.25748503  0.97951661  1
  F  F14  1  0.11383246  0.25748503  0.52048339  1
  F  F15  1  0.11383246  0.25748503  0.97951661  1
  F  F16  1  0.62868251  0.25748503  0.52048339  1
  F  F17  1  0.51063034  0.97873932  0.25000000  1
