# generated using pymatgen
data_Li4Ti3Mn4(CoO9)2
_symmetry_space_group_name_H-M   'P 1'
_cell_length_a   8.91335976
_cell_length_b   25.07124394
_cell_length_c   2.90734432
_cell_angle_alpha   89.99999179
_cell_angle_beta   90.00003666
_cell_angle_gamma   90.00702871
_symmetry_Int_Tables_number   1
_chemical_formula_structural   Li4Ti3Mn4(CoO9)2
_chemical_formula_sum   'Li8 Ti6 Mn8 Co4 O36'
_cell_volume   649.70137169
_cell_formula_units_Z   2
loop_
 _symmetry_equiv_pos_site_id
 _symmetry_equiv_pos_as_xyz
  1  'x, y, z'
loop_
 _atom_site_type_symbol
 _atom_site_label
 _atom_site_symmetry_multiplicity
 _atom_site_fract_x
 _atom_site_fract_y
 _atom_site_fract_z
 _atom_site_occupancy
  Li  Li0  1  0.18799239  0.99050972  0.99999871  1
  Li  Li1  1  0.20072201  0.21272912  0.99999941  1
  Li  Li2  1  0.29933761  0.71263325  0.99999906  1
  Li  Li3  1  0.31193652  0.49053533  0.00000002  1
  Li  Li4  1  0.68134511  0.50070303  0.99999945  1
  Li  Li5  1  0.68614230  0.29872903  0.99999888  1
  Li  Li6  1  0.81360066  0.79873723  0.99999893  1
  Li  Li7  1  0.81871524  0.00071433  -0.00000002  1
  Ti  Ti8  1  0.00547714  0.10361375  0.99999756  1
  Ti  Ti9  1  0.49453916  0.60360901  0.99999873  1
  Ti  Ti10  1  0.49318169  0.39160479  0.99999901  1
  Ti  Ti11  1  0.64049579  0.69590613  0.49999919  1
  Ti  Ti12  1  0.85957472  0.19589003  0.49999828  1
  Ti  Ti13  1  0.00681020  0.89159118  0.99999879  1
  Mn  Mn14  1  0.04004243  0.31476150  0.99999696  1
  Mn  Mn15  1  0.13373394  0.58509808  0.49999736  1
  Mn  Mn16  1  0.36624414  0.08505895  0.50000079  1
  Mn  Mn17  1  0.45993635  0.81473732  -0.00000018  1
  Mn  Mn18  1  0.51613597  0.19088555  -0.00000215  1
  Mn  Mn19  1  0.63539193  0.91500459  0.50000564  1
  Mn  Mn20  1  0.86464767  0.41500750  0.50000397  1
  Mn  Mn21  1  0.98389814  0.69089598  -0.00000451  1
  Co  Co22  1  0.99718159  0.50052633  0.00000049  1
  Co  Co23  1  0.14459614  0.80614953  0.50000133  1
  Co  Co24  1  0.35534121  0.30615894  0.49999984  1
  Co  Co25  1  0.50281515  0.00049660  0.99999892  1
  O  O26  1  0.00511355  0.42450904  0.00000763  1
  O  O27  1  0.99326049  0.57727321  0.99999838  1
  O  O28  1  0.04803600  0.94027607  0.49999926  1
  O  O29  1  0.05651763  0.15944637  0.50000015  1
  O  O30  1  0.10696535  0.66181680  0.50000137  1
  O  O31  1  0.10544929  0.75937506  0.00000130  1
  O  O32  1  0.14146567  0.50769406  0.49999905  1
  O  O33  1  0.15304178  0.28096124  0.49999848  1
  O  O34  1  0.19203294  0.85573888  0.00000136  1
  O  O35  1  0.22271605  0.08452733  0.00000070  1
  O  O36  1  0.27724636  0.58459025  0.99999840  1
  O  O37  1  0.30791679  0.35573716  0.00000066  1
  O  O38  1  0.34688096  0.78095572  0.50000244  1
  O  O39  1  0.35852329  0.00764715  0.49999913  1
  O  O40  1  0.39456995  0.25939190  0.99999938  1
  O  O41  1  0.39310224  0.16178564  0.49999714  1
  O  O42  1  0.44355737  0.65943691  0.49999962  1
  O  O43  1  0.45209646  0.44030265  0.50000135  1
  O  O44  1  0.50670429  0.07724452  0.00000052  1
  O  O45  1  0.49493229  0.92447108  0.00000123  1
  O  O46  1  0.53985120  0.55701128  0.49999907  1
  O  O47  1  0.55628863  0.33870294  0.50000169  1
  O  O48  1  0.59191030  0.84002334  0.50000365  1
  O  O49  1  0.60450753  0.74347176  0.00000039  1
  O  O50  1  0.64730142  0.99251255  0.49999922  1
  O  O51  1  0.64615040  0.21468263  0.49999519  1
  O  O52  1  0.68042689  0.64247225  0.00000098  1
  O  O53  1  0.72129268  0.41341388  0.00000781  1
  O  O54  1  0.77876728  0.91343112  0.00000115  1
  O  O55  1  0.81959163  0.14244733  0.99999842  1
  O  O56  1  0.85388789  0.71465754  0.50000088  1
  O  O57  1  0.85270507  0.49251671  0.50000189  1
  O  O58  1  0.89558271  0.24344311  0.99999828  1
  O  O59  1  0.90809989  0.34004139  0.50000094  1
  O  O60  1  0.94364126  0.83867331  0.49999959  1
  O  O61  1  0.96003128  0.05703104  0.49999885  1
