# generated using pymatgen
data_Li4NbCo3O8
_symmetry_space_group_name_H-M   'P 1'
_cell_length_a   5.63832256
_cell_length_b   6.53820916
_cell_length_c   5.13303745
_cell_angle_alpha   90.41560847
_cell_angle_beta   90.03295822
_cell_angle_gamma   89.92954034
_symmetry_Int_Tables_number   1
_chemical_formula_structural   Li4NbCo3O8
_chemical_formula_sum   'Li4 Nb1 Co3 O8'
_cell_volume   189.22187279
_cell_formula_units_Z   1
loop_
 _symmetry_equiv_pos_site_id
 _symmetry_equiv_pos_as_xyz
  1  'x, y, z'
loop_
 _atom_site_type_symbol
 _atom_site_label
 _atom_site_symmetry_multiplicity
 _atom_site_fract_x
 _atom_site_fract_y
 _atom_site_fract_z
 _atom_site_occupancy
  Li  Li0  1  0.09244157  0.61029312  0.99259202  1
  Li  Li1  1  0.42096663  0.13731761  0.49914272  1
  Li  Li2  1  0.56028972  0.87473172  0.99346043  1
  Li  Li3  1  0.90687117  0.37621314  0.49925020  1
  Nb  Nb4  1  0.91615820  0.87600180  0.50470583  1
  Co  Co5  1  0.09168411  0.14480964  0.98932845  1
  Co  Co6  1  0.42555270  0.60969643  0.50439993  1
  Co  Co7  1  0.58557070  0.37230279  0.99379233  1
  O  O8  1  0.07231343  0.11041525  0.38236167  1
  O  O9  1  0.08109242  0.64081508  0.39011989  1
  O  O10  1  0.41785883  0.13621004  0.88395749  1
  O  O11  1  0.42451312  0.61145636  0.88166091  1
  O  O12  1  0.58254445  0.37402300  0.36295388  1
  O  O13  1  0.59830459  0.87116860  0.39059593  1
  O  O14  1  0.90334412  0.37669891  0.88630485  1
  O  O15  1  0.92049423  0.87784751  0.87177545  1
