# generated using pymatgen
data_Mn5FeO12
_symmetry_space_group_name_H-M   'P 1'
_cell_length_a   5.86088668
_cell_length_b   5.86088668
_cell_length_c   13.17078752
_cell_angle_alpha   103.33977799
_cell_angle_beta   103.33977799
_cell_angle_gamma   90.04103983
_symmetry_Int_Tables_number   1
_chemical_formula_structural   Mn5FeO12
_chemical_formula_sum   'Mn10 Fe2 O24'
_cell_volume   427.63643965
_cell_formula_units_Z   2
loop_
 _symmetry_equiv_pos_site_id
 _symmetry_equiv_pos_as_xyz
  1  'x, y, z'
loop_
 _atom_site_type_symbol
 _atom_site_label
 _atom_site_symmetry_multiplicity
 _atom_site_fract_x
 _atom_site_fract_y
 _atom_site_fract_z
 _atom_site_occupancy
  Mn  Mn0  1  0.00000000  0.50000000  0.00000000  1
  Mn  Mn1  1  0.33285104  0.33321768  0.16703762  1
  Mn  Mn2  1  0.33305911  0.83341045  0.16714196  1
  Mn  Mn3  1  0.66658955  0.16694089  0.33285804  1
  Mn  Mn4  1  0.16678232  0.16714896  0.33296238  1
  Mn  Mn5  1  0.00000000  0.50000000  0.50000000  1
  Mn  Mn6  1  0.33341045  0.83305911  0.66714196  1
  Mn  Mn7  1  0.83321768  0.83285104  0.66703762  1
  Mn  Mn8  1  0.66714896  0.66678232  0.83296238  1
  Mn  Mn9  1  0.66694089  0.16658955  0.83285804  1
  Fe  Fe10  1  0.50000000  0.50000000  0.00000000  1
  Fe  Fe11  1  0.00000000  0.00000000  0.50000000  1
  O  O12  1  0.24763115  0.28246201  0.01159882  1
  O  O13  1  0.24962497  0.72732092  0.01141171  1
  O  O14  1  0.54621395  0.58002137  0.15985515  1
  O  O15  1  0.10984518  0.57838284  0.15612847  1
  O  O16  1  0.55721010  0.08828791  0.17746015  1
  O  O17  1  0.12047618  0.08799547  0.17720756  1
  O  O18  1  0.41200453  0.37952382  0.32279244  1
  O  O19  1  0.41171209  0.94278990  0.32253985  1
  O  O20  1  0.91997863  0.95378605  0.34014485  1
  O  O21  1  0.92161716  0.39015482  0.34387153  1
  O  O22  1  0.21753799  0.25236885  0.48840118  1
  O  O23  1  0.77267908  0.25037503  0.48858829  1
  O  O24  1  0.22732092  0.74962497  0.51141171  1
  O  O25  1  0.78246201  0.74763115  0.51159882  1
  O  O26  1  0.07838284  0.60984518  0.65612847  1
  O  O27  1  0.08002137  0.04621395  0.65985515  1
  O  O28  1  0.58799547  0.62047618  0.67720756  1
  O  O29  1  0.58828791  0.05721010  0.67746015  1
  O  O30  1  0.87952382  0.91200453  0.82279244  1
  O  O31  1  0.44278990  0.91171209  0.82253985  1
  O  O32  1  0.45378605  0.41997863  0.84014485  1
  O  O33  1  0.89015482  0.42161716  0.84387153  1
  O  O34  1  0.75236885  0.71753799  0.98840118  1
  O  O35  1  0.75037503  0.27267908  0.98858829  1
