# generated using pymatgen
data_Ti2N2O
_symmetry_space_group_name_H-M   'P 1'
_cell_length_a   2.99051808
_cell_length_b   5.17154317
_cell_length_c   15.37127681
_cell_angle_alpha   92.49512467
_cell_angle_beta   95.58234206
_cell_angle_gamma   106.80600215
_symmetry_Int_Tables_number   1
_chemical_formula_structural   Ti2N2O
_chemical_formula_sum   'Ti8 N8 O4'
_cell_volume   225.85161609
_cell_formula_units_Z   4
loop_
 _symmetry_equiv_pos_site_id
 _symmetry_equiv_pos_as_xyz
  1  'x, y, z'
loop_
 _atom_site_type_symbol
 _atom_site_label
 _atom_site_symmetry_multiplicity
 _atom_site_fract_x
 _atom_site_fract_y
 _atom_site_fract_z
 _atom_site_occupancy
  Ti  Ti0  1  0.67638853  0.18896907  0.16380700  1
  Ti  Ti1  1  0.66896462  0.41961323  0.91831502  1
  Ti  Ti2  1  0.65428748  0.63443046  0.67414350  1
  Ti  Ti3  1  0.33103538  0.08038677  0.58168498  1
  Ti  Ti4  1  0.32361147  0.31103093  0.33619300  1
  Ti  Ti5  1  0.99043596  0.97323140  0.00764051  1
  Ti  Ti6  1  0.34571252  0.86556954  0.82585650  1
  Ti  Ti7  1  0.00956404  0.52676860  0.49235949  1
  N  N8  1  0.63741859  0.23978196  0.03505523  1
  N  N9  1  0.36258141  0.26021804  0.46494477  1
  N  N10  1  0.69924909  0.59743411  0.80106307  1
  N  N11  1  0.67288738  0.80156390  0.54420986  1
  N  N12  1  0.99002670  0.35906004  0.62099336  1
  N  N13  1  0.00997330  0.14093996  0.87900664  1
  N  N14  1  0.30075091  0.90256589  0.69893693  1
  N  N15  1  0.32711262  0.69843610  0.95579014  1
  O  O16  1  0.69145499  0.08893116  0.29397983  1
  O  O17  1  0.30854501  0.41106884  0.20602017  1
  O  O18  1  0.02737646  0.92528920  0.12946273  1
  O  O19  1  0.97262354  0.57471080  0.37053727  1
