# generated using pymatgen
data_Li3Sb(PO4)2
_symmetry_space_group_name_H-M   'P 1'
_cell_length_a   19.59609185
_cell_length_b   5.24913333
_cell_length_c   12.94690463
_cell_angle_alpha   90.00000000
_cell_angle_beta   71.15618208
_cell_angle_gamma   90.00000000
_symmetry_Int_Tables_number   1
_chemical_formula_structural   Li3Sb(PO4)2
_chemical_formula_sum   'Li24 Sb8 P16 O64'
_cell_volume   1260.37247455
_cell_formula_units_Z   8
loop_
 _symmetry_equiv_pos_site_id
 _symmetry_equiv_pos_as_xyz
  1  'x, y, z'
loop_
 _atom_site_type_symbol
 _atom_site_label
 _atom_site_symmetry_multiplicity
 _atom_site_fract_x
 _atom_site_fract_y
 _atom_site_fract_z
 _atom_site_occupancy
  Li  Li0  1  0.03803924  0.76387536  0.31928719  1
  Li  Li1  1  0.12781495  0.29457769  0.20632439  1
  Li  Li2  1  0.19336552  0.70255307  0.05665494  1
  Li  Li3  1  0.03803924  0.73612464  0.81928719  1
  Li  Li4  1  0.12781495  0.20542231  0.70632439  1
  Li  Li5  1  0.19336552  0.79744693  0.55665494  1
  Li  Li6  1  0.30836506  0.21126383  0.24811546  1
  Li  Li7  1  0.37262705  0.79429962  0.32858447  1
  Li  Li8  1  0.30836506  0.28873617  0.74811546  1
  Li  Li9  1  0.45873049  0.26496477  0.35843304  1
  Li  Li10  1  0.37262705  0.70570038  0.82858447  1
  Li  Li11  1  0.54126951  0.76496477  0.14156696  1
  Li  Li12  1  0.45873049  0.23503523  0.85843304  1
  Li  Li13  1  0.62737295  0.29429962  0.17141553  1
  Li  Li14  1  0.54126951  0.73503523  0.64156696  1
  Li  Li15  1  0.69163494  0.71126383  0.25188454  1
  Li  Li16  1  0.62737295  0.20570038  0.67141553  1
  Li  Li17  1  0.69163494  0.78873617  0.75188454  1
  Li  Li18  1  0.80663448  0.20255307  0.44334506  1
  Li  Li19  1  0.87218505  0.79457769  0.29367561  1
  Li  Li20  1  0.96196076  0.26387536  0.18071281  1
  Li  Li21  1  0.80663448  0.29744693  0.94334506  1
  Li  Li22  1  0.87218505  0.70542231  0.79367561  1
  Li  Li23  1  0.96196076  0.23612464  0.68071281  1
  Sb  Sb24  1  0.12512436  0.31497808  0.46108755  1
  Sb  Sb25  1  0.12512436  0.18502192  0.96108755  1
  Sb  Sb26  1  0.37554444  0.68630625  0.08581714  1
  Sb  Sb27  1  0.37554444  0.81369375  0.58581714  1
  Sb  Sb28  1  0.62445556  0.18630625  0.41418286  1
  Sb  Sb29  1  0.62445556  0.31369375  0.91418286  1
  Sb  Sb30  1  0.87487564  0.81497808  0.03891245  1
  Sb  Sb31  1  0.87487564  0.68502192  0.53891245  1
  P  P32  1  0.04041031  0.72571572  0.08536821  1
  P  P33  1  0.04041031  0.77428428  0.58536821  1
  P  P34  1  0.20964723  0.78420782  0.28708827  1
  P  P35  1  0.20964723  0.71579218  0.78708827  1
  P  P36  1  0.29089265  0.28730289  0.49854476  1
  P  P37  1  0.46177840  0.22496582  0.12316824  1
  P  P38  1  0.29089265  0.21269711  0.99854476  1
  P  P39  1  0.46177840  0.27503418  0.62316824  1
  P  P40  1  0.53822160  0.72496582  0.37683176  1
  P  P41  1  0.70910735  0.78730289  0.00145524  1
  P  P42  1  0.53822160  0.77503418  0.87683176  1
  P  P43  1  0.70910735  0.71269711  0.50145524  1
  P  P44  1  0.79035277  0.28420782  0.21291173  1
  P  P45  1  0.79035277  0.21579218  0.71291173  1
  P  P46  1  0.95958969  0.22571572  0.41463179  1
  P  P47  1  0.95958969  0.27428428  0.91463179  1
  O  O48  1  0.08154920  0.47459790  0.09361782  1
  O  O49  1  0.09141854  0.95238529  0.10059702  1
  O  O50  1  0.02829662  0.23440234  0.31530434  1
  O  O51  1  0.03134377  0.74335758  0.47301222  1
  O  O52  1  0.20935607  0.29810880  0.02027518  1
  O  O53  1  0.16658147  0.64748443  0.22380989  1
  O  O54  1  0.08154920  0.02540210  0.59361782  1
  O  O55  1  0.09141854  0.54761471  0.60059702  1
  O  O56  1  0.02829662  0.26559766  0.81530434  1
  O  O57  1  0.20087402  0.07774963  0.28654184  1
  O  O58  1  0.03134377  0.75664242  0.97301222  1
  O  O59  1  0.18765576  0.68072925  0.40637588  1
  O  O60  1  0.29337382  0.91901122  0.00315185  1
  O  O61  1  0.31126200  0.32825166  0.09565393  1
  O  O62  1  0.20935607  0.20189120  0.52027518  1
  O  O63  1  0.16658147  0.85251557  0.72380989  1
  O  O64  1  0.29406430  0.72955564  0.23903683  1
  O  O65  1  0.20087402  0.42225037  0.78654184  1
  O  O66  1  0.18765576  0.81927075  0.90637588  1
  O  O67  1  0.29337382  0.58098878  0.50315185  1
  O  O68  1  0.33880569  0.17098385  0.38998665  1
  O  O69  1  0.31126200  0.17174834  0.59565393  1
  O  O70  1  0.41428056  0.98755692  0.17600625  1
  O  O71  1  0.41620495  0.46169512  0.18655188  1
  O  O72  1  0.29406430  0.77044436  0.73903683  1
  O  O73  1  0.47035192  0.25223919  0.00206316  1
  O  O74  1  0.46878963  0.71510053  0.34668515  1
  O  O75  1  0.33880569  0.32901615  0.88998665  1
  O  O76  1  0.53121037  0.21510053  0.15331485  1
  O  O77  1  0.41428056  0.51244308  0.67600625  1
  O  O78  1  0.41620495  0.03830488  0.68655188  1
  O  O79  1  0.47035192  0.24776081  0.50206316  1
  O  O80  1  0.52964808  0.75223919  0.49793684  1
  O  O81  1  0.58379505  0.96169512  0.31344812  1
  O  O82  1  0.58571944  0.48755692  0.32399375  1
  O  O83  1  0.46878963  0.78489947  0.84668515  1
  O  O84  1  0.66119431  0.67098385  0.11001335  1
  O  O85  1  0.53121037  0.28489947  0.65331485  1
  O  O86  1  0.52964808  0.74776081  0.99793684  1
  O  O87  1  0.70593570  0.22955564  0.26096317  1
  O  O88  1  0.58379505  0.53830488  0.81344812  1
  O  O89  1  0.58571944  0.01244308  0.82399375  1
  O  O90  1  0.68873800  0.82825166  0.40434607  1
  O  O91  1  0.66119431  0.82901615  0.61001335  1
  O  O92  1  0.70662618  0.41901122  0.49684815  1
  O  O93  1  0.81234424  0.18072925  0.09362412  1
  O  O94  1  0.79912598  0.57774963  0.21345816  1
  O  O95  1  0.70593570  0.27044436  0.76096317  1
  O  O96  1  0.83341853  0.14748443  0.27619011  1
  O  O97  1  0.79064393  0.79810880  0.47972482  1
  O  O98  1  0.68873800  0.67174834  0.90434607  1
  O  O99  1  0.70662618  0.08098878  0.99684815  1
  O  O100  1  0.81234424  0.31927075  0.59362412  1
  O  O101  1  0.96865623  0.24335758  0.02698778  1
  O  O102  1  0.79912598  0.92225037  0.71345816  1
  O  O103  1  0.97170338  0.73440234  0.18469566  1
  O  O104  1  0.90858146  0.45238529  0.39940298  1
  O  O105  1  0.91845080  0.97459790  0.40638218  1
  O  O106  1  0.83341853  0.35251557  0.77619011  1
  O  O107  1  0.79064393  0.70189120  0.97972482  1
  O  O108  1  0.96865623  0.25664242  0.52698778  1
  O  O109  1  0.97170338  0.76559766  0.68469566  1
  O  O110  1  0.90858146  0.04761471  0.89940298  1
  O  O111  1  0.91845080  0.52540210  0.90638218  1
