# generated using pymatgen
data_K12Ag4As8CSe20O
_symmetry_space_group_name_H-M   'P 1'
_cell_length_a   9.40180389
_cell_length_b   11.87172706
_cell_length_c   13.20831850
_cell_angle_alpha   90.19142648
_cell_angle_beta   106.74271558
_cell_angle_gamma   90.19464664
_symmetry_Int_Tables_number   1
_chemical_formula_structural   K12Ag4As8CSe20O
_chemical_formula_sum   'K12 Ag4 As8 C1 Se20 O1'
_cell_volume   1411.73591052
_cell_formula_units_Z   1
loop_
 _symmetry_equiv_pos_site_id
 _symmetry_equiv_pos_as_xyz
  1  'x, y, z'
loop_
 _atom_site_type_symbol
 _atom_site_label
 _atom_site_symmetry_multiplicity
 _atom_site_fract_x
 _atom_site_fract_y
 _atom_site_fract_z
 _atom_site_occupancy
  K  K0  1  0.53820380  0.28548400  0.57347118  1
  K  K1  1  0.44560553  0.79779270  0.91724800  1
  K  K2  1  0.46286127  0.70391414  0.41681100  1
  K  K3  1  0.52786637  0.19982421  0.08037252  1
  K  K4  1  0.85967497  0.85061776  0.76367358  1
  K  K5  1  0.13902377  0.36404611  0.70802656  1
  K  K6  1  0.13353103  0.12446816  0.19443636  1
  K  K7  1  0.86165999  0.62632922  0.30134382  1
  K  K8  1  0.84997192  0.25169735  0.39633634  1
  K  K9  1  0.14500750  0.74887743  0.10536063  1
  K  K10  1  0.15490840  0.74347277  0.60345168  1
  K  K11  1  0.83751768  0.25753553  0.87879740  1
  Ag  Ag12  1  0.66531138  0.99256945  0.53370685  1
  Ag  Ag13  1  0.32719656  0.49249126  0.96604028  1
  Ag  Ag14  1  0.33112972  0.00740685  0.46076157  1
  Ag  Ag15  1  0.66522620  0.50873914  0.03926161  1
  As  As16  1  0.50157117  0.07917219  0.75133122  1
  As  As17  1  0.49474548  0.56855179  0.74922881  1
  As  As18  1  0.50577302  0.92509974  0.25450658  1
  As  As19  1  0.48786650  0.42781282  0.24682488  1
  As  As20  1  0.09081342  0.05484321  0.61522839  1
  As  As21  1  0.89555921  0.55337943  0.87965826  1
  As  As22  1  0.91651470  0.94281750  0.39285403  1
  As  As23  1  0.07987096  0.44417317  0.10945999  1
  C  C24  1  0.90975588  0.04091986  0.97632700  1
  Se  Se25  1  0.80905837  0.80901330  0.48562116  1
  Se  Se26  1  0.18353478  0.31189925  0.01385434  1
  Se  Se27  1  0.19038015  0.18557798  0.51702701  1
  Se  Se28  1  0.79625861  0.68800947  0.97504800  1
  Se  Se29  1  0.87616761  0.14248136  0.65007328  1
  Se  Se30  1  0.11185668  0.63915536  0.84694264  1
  Se  Se31  1  0.12727517  0.85248004  0.35346375  1
  Se  Se32  1  0.86660109  0.35434284  0.14675481  1
  Se  Se33  1  0.49739388  0.90340149  0.65540025  1
  Se  Se34  1  0.50093092  0.39719145  0.84999875  1
  Se  Se35  1  0.51186229  0.10186893  0.35039018  1
  Se  Se36  1  0.48594975  0.60278764  0.14947509  1
  Se  Se37  1  0.73121471  0.99126075  0.95182016  1
  Se  Se38  1  0.34120397  0.51940577  0.56724320  1
  Se  Se39  1  0.34604115  0.96659585  0.08342044  1
  Se  Se40  1  0.65006603  0.46959069  0.41739475  1
  Se  Se41  1  0.27676299  0.06606234  0.79985934  1
  Se  Se42  1  0.72101514  0.56573165  0.69387818  1
  Se  Se43  1  0.74154593  0.92961940  0.20978035  1
  Se  Se44  1  0.25028675  0.43410016  0.29212400  1
  O  O45  1  0.15742760  0.52538849  0.57591178  1
