# generated using pymatgen
data_NbO2
_symmetry_space_group_name_H-M   'P 1'
_cell_length_a   9.95467111
_cell_length_b   5.05623762
_cell_length_c   5.35745540
_cell_angle_alpha   90.00093540
_cell_angle_beta   90.00743753
_cell_angle_gamma   89.99946185
_symmetry_Int_Tables_number   1
_chemical_formula_structural   NbO2
_chemical_formula_sum   'Nb8 O16'
_cell_volume   269.65777851
_cell_formula_units_Z   8
loop_
 _symmetry_equiv_pos_site_id
 _symmetry_equiv_pos_as_xyz
  1  'x, y, z'
loop_
 _atom_site_type_symbol
 _atom_site_label
 _atom_site_symmetry_multiplicity
 _atom_site_fract_x
 _atom_site_fract_y
 _atom_site_fract_z
 _atom_site_occupancy
  Nb  Nb0  1  0.14272067  0.55399945  0.85404151  1
  Nb  Nb1  1  0.14273646  0.94603259  0.35404989  1
  Nb  Nb2  1  0.35727349  0.44597388  0.35404584  1
  Nb  Nb3  1  0.35728543  0.05407359  0.85402766  1
  Nb  Nb4  1  0.64279699  0.94592108  0.14591297  1
  Nb  Nb5  1  0.64278755  0.55411619  0.64591178  1
  Nb  Nb6  1  0.85725263  0.44595210  0.14591378  1
  Nb  Nb7  1  0.85725835  0.05408509  0.64591466  1
  O  O8  1  0.03127014  0.82367601  0.65647010  1
  O  O9  1  0.03127383  0.67631404  0.15640235  1
  O  O10  1  0.21418294  0.24268170  0.10087837  1
  O  O11  1  0.21418158  0.25727823  0.60101533  1
  O  O12  1  0.28572223  0.74278556  0.10084409  1
  O  O13  1  0.28572458  0.75720200  0.60099335  1
  O  O14  1  0.46872582  0.17624910  0.15641123  1
  O  O15  1  0.46874521  0.32373307  0.65651245  1
  O  O16  1  0.53119348  0.67624423  0.34361570  1
  O  O17  1  0.53118698  0.82374498  0.84353066  1
  O  O18  1  0.71419400  0.24274399  0.39915187  1
  O  O19  1  0.71419087  0.25722800  0.89903269  1
  O  O20  1  0.78582546  0.74273233  0.39913226  1
  O  O21  1  0.78581971  0.75723858  0.89900235  1
  O  O22  1  0.96881971  0.17624280  0.34363749  1
  O  O23  1  0.96883187  0.32375141  0.84355161  1
