# generated using pymatgen
data_Na4Sb2C4SO16
_symmetry_space_group_name_H-M   'P 1'
_cell_length_a   10.21309999
_cell_length_b   10.19855769
_cell_length_c   17.83363238
_cell_angle_alpha   89.88094357
_cell_angle_beta   72.50648185
_cell_angle_gamma   119.17153395
_symmetry_Int_Tables_number   1
_chemical_formula_structural   Na4Sb2C4SO16
_chemical_formula_sum   'Na16 Sb8 C16 S4 O64'
_cell_volume   1522.09212065
_cell_formula_units_Z   4
loop_
 _symmetry_equiv_pos_site_id
 _symmetry_equiv_pos_as_xyz
  1  'x, y, z'
loop_
 _atom_site_type_symbol
 _atom_site_label
 _atom_site_symmetry_multiplicity
 _atom_site_fract_x
 _atom_site_fract_y
 _atom_site_fract_z
 _atom_site_occupancy
  Na  Na0  1  0.92200188  0.41456398  0.16415701  1
  Na  Na1  1  0.68033317  0.78427607  0.03483464  1
  Na  Na2  1  0.33962977  0.11855963  0.45953262  1
  Na  Na3  1  0.91777297  0.68948729  0.45997727  1
  Na  Na4  1  0.91887001  0.00284275  0.16564565  1
  Na  Na5  1  0.33140745  0.41574748  0.16527653  1
  Na  Na6  1  0.91685597  0.49882407  0.66071805  1
  Na  Na7  1  0.91883586  0.20988421  0.95984610  1
  Na  Na8  1  0.07357738  0.08831948  0.33950743  1
  Na  Na9  1  0.92356706  0.91313180  0.66854956  1
  Na  Na10  1  0.68021044  0.89323004  0.53505284  1
  Na  Na11  1  0.32154125  0.70107465  0.46024046  1
  Na  Na12  1  0.32966536  0.21204331  0.95804290  1
  Na  Na13  1  0.32885213  0.62132481  0.96159606  1
  Na  Na14  1  0.32982034  0.92015713  0.66601788  1
  Na  Na15  1  0.06786857  0.59018067  0.84006183  1
  Sb  Sb16  1  0.49327969  0.00566948  0.00005830  1
  Sb  Sb17  1  0.51205982  0.25204979  0.24662185  1
  Sb  Sb18  1  0.49254567  0.49144094  0.49986053  1
  Sb  Sb19  1  0.50077517  0.25124020  0.75021256  1
  Sb  Sb20  1  0.49471900  0.74999272  0.25568575  1
  Sb  Sb21  1  0.99934888  0.74024302  0.24761652  1
  Sb  Sb22  1  0.50674056  0.74956019  0.75239388  1
  Sb  Sb23  1  0.99987276  0.24401442  0.74796653  1
  C  C24  1  0.67138121  0.08255066  0.13509025  1
  C  C25  1  0.27596322  0.08821567  0.14114923  1
  C  C26  1  0.71905078  0.42243664  0.35744269  1
  C  C27  1  0.71994252  0.60890318  0.17111125  1
  C  C28  1  0.71899226  0.10635155  0.67155748  1
  C  C29  1  0.34258421  0.42056856  0.36033451  1
  C  C30  1  0.71943272  0.80021240  0.36108742  1
  C  C31  1  0.71803527  0.29781270  0.85945878  1
  C  C32  1  0.28201971  0.69041977  0.13795789  1
  C  C33  1  0.27724391  0.19081191  0.63799497  1
  C  C34  1  0.67087182  0.58990717  0.63682796  1
  C  C35  1  0.27052272  0.88878474  0.33560557  1
  C  C36  1  0.27200989  0.39050634  0.83535378  1
  C  C37  1  0.28002149  0.59079047  0.63967710  1
  C  C38  1  0.71991469  0.92087909  0.85948133  1
  C  C39  1  0.34218471  0.92232249  0.85997707  1
  S  S40  1  0.87402371  0.18345483  0.43746599  1
  S  S41  1  0.12526952  0.31235600  0.06247804  1
  S  S42  1  0.87485072  0.68783978  0.93745176  1
  S  S43  1  0.12514630  0.81198101  0.56258616  1
  O  O44  1  0.67132008  0.13243392  0.06856521  1
  O  O45  1  0.93471275  0.20768048  0.34761016  1
  O  O46  1  0.93292629  0.08555882  0.46589044  1
  O  O47  1  0.67227873  0.15956737  0.19397946  1
  O  O48  1  0.29413553  0.03976436  0.07284725  1
  O  O49  1  0.69441365  0.08968173  0.46895550  1
  O  O50  1  0.93410883  0.32832324  0.46734372  1
  O  O51  1  0.84948667  0.49010204  0.29470758  1
  O  O52  1  0.84445647  0.99287351  0.79442604  1
  O  O53  1  0.71235204  0.47734463  0.17528521  1
  O  O54  1  0.39195540  0.21218888  0.14984037  1
  O  O55  1  0.84444621  0.22629690  0.67590382  1
  O  O56  1  0.59617582  0.29787140  0.35403330  1
  O  O57  1  0.84727128  0.72978456  0.17374722  1
  O  O58  1  0.28779330  0.02375657  0.33694732  1
  O  O59  1  0.30410409  0.40108098  0.03229858  1
  O  O60  1  0.06656801  0.16391786  0.03296619  1
  O  O61  1  0.60105592  0.61935514  0.16616816  1
  O  O62  1  0.59258505  0.11171321  0.67525906  1
  O  O63  1  0.71132902  0.48233743  0.42145250  1
  O  O64  1  0.33222760  0.34847192  0.30074420  1
  O  O65  1  0.85486873  0.81279682  0.35627031  1
  O  O66  1  0.85141305  0.30970632  0.85784566  1
  O  O67  1  0.06500875  0.28228514  0.15197839  1
  O  O68  1  0.06534479  0.40256140  0.03291058  1
  O  O69  1  0.67186570  0.46513999  0.64614190  1
  O  O70  1  0.67469441  0.95758106  0.14416334  1
  O  O71  1  0.39822444  0.75550578  0.06950503  1
  O  O72  1  0.39110920  0.25680232  0.56874997  1
  O  O73  1  0.34693049  0.36207675  0.42395380  1
  O  O74  1  0.70567774  0.84910753  0.29788264  1
  O  O75  1  0.71066141  0.35438143  0.79657773  1
  O  O76  1  0.67141764  0.64114466  0.56982220  1
  O  O77  1  0.29887009  0.13455005  0.69496069  1
  O  O78  1  0.29956250  0.63229335  0.19612597  1
  O  O79  1  0.35253943  0.05429186  0.85377382  1
  O  O80  1  0.59859584  0.73792205  0.42788147  1
  O  O81  1  0.35260730  0.55318822  0.35731895  1
  O  O82  1  0.59011624  0.22681964  0.92324663  1
  O  O83  1  0.93658664  0.59736026  0.96565878  1
  O  O84  1  0.93621685  0.71713105  0.84763767  1
  O  O85  1  0.14566416  0.68098924  0.14661915  1
  O  O86  1  0.13901698  0.17797247  0.64835726  1
  O  O87  1  0.67379998  0.66919058  0.69505010  1
  O  O88  1  0.29472084  0.53964883  0.57283830  1
  O  O89  1  0.38825811  0.87010983  0.33639468  1
  O  O90  1  0.38874105  0.37256654  0.83562784  1
  O  O91  1  0.93122069  0.83614284  0.96797248  1
  O  O92  1  0.69522768  0.60076948  0.96844681  1
  O  O93  1  0.71609236  0.97730053  0.66524154  1
  O  O94  1  0.13761899  0.77318780  0.33556743  1
  O  O95  1  0.39885963  0.71740515  0.64624227  1
  O  O96  1  0.13731250  0.27656581  0.83636734  1
  O  O97  1  0.59523841  0.79597166  0.85660616  1
  O  O98  1  0.28940560  0.52745968  0.83611588  1
  O  O99  1  0.14613439  0.51788328  0.69961973  1
  O  O100  1  0.13935895  0.01274840  0.19904096  1
  O  O101  1  0.30423448  0.89973409  0.53228749  1
  O  O102  1  0.06666886  0.66360566  0.53308622  1
  O  O103  1  0.71617809  0.97278657  0.92569664  1
  O  O104  1  0.32916877  0.84434310  0.80240345  1
  O  O105  1  0.06525164  0.90219880  0.53315439  1
  O  O106  1  0.06530548  0.78161877  0.65205023  1
  O  O107  1  0.34889888  0.86854114  0.92427285  1
