# generated using pymatgen
data_Na4Sb2C4SO16
_symmetry_space_group_name_H-M   'P 1'
_cell_length_a   10.23742966
_cell_length_b   10.21319061
_cell_length_c   10.34526673
_cell_angle_alpha   120.27296461
_cell_angle_beta   59.49543312
_cell_angle_gamma   119.22246851
_symmetry_Int_Tables_number   1
_chemical_formula_structural   Na4Sb2C4SO16
_chemical_formula_sum   'Na8 Sb4 C8 S2 O32'
_cell_volume   764.63585743
_cell_formula_units_Z   2
loop_
 _symmetry_equiv_pos_site_id
 _symmetry_equiv_pos_as_xyz
  1  'x, y, z'
loop_
 _atom_site_type_symbol
 _atom_site_label
 _atom_site_symmetry_multiplicity
 _atom_site_fract_x
 _atom_site_fract_y
 _atom_site_fract_z
 _atom_site_occupancy
  Na  Na0  1  0.91838183  0.16838183  0.33161817  1
  Na  Na1  1  0.91853888  0.16853888  0.91853888  1
  Na  Na2  1  0.92037022  0.57962978  0.32962978  1
  Na  Na3  1  0.32962978  0.17037022  0.92037022  1
  Na  Na4  1  0.67842869  0.82157131  0.07157131  1
  Na  Na5  1  0.33161817  0.58161817  0.91838183  1
  Na  Na6  1  0.33146112  0.58146112  0.33146112  1
  Na  Na7  1  0.07157131  0.42842869  0.67842869  1
  Sb  Sb8  1  0.49528499  0.00601892  0.00033143  1
  Sb  Sb9  1  0.49398108  0.00471501  0.51040349  1
  Sb  Sb10  1  0.51040349  0.49966857  0.49398108  1
  Sb  Sb11  1  0.00033143  0.98959651  0.49528499  1
  C  C12  1  0.71695730  0.15736482  0.72055526  1
  C  C13  1  0.67100668  0.21707923  0.27080322  1
  C  C14  1  0.27080322  0.22473067  0.67100668  1
  C  C15  1  0.27526933  0.22919678  0.28292077  1
  C  C16  1  0.72055526  0.78014674  0.71695730  1
  C  C17  1  0.71985326  0.77944474  0.34263518  1
  C  C18  1  0.34263518  0.78304270  0.71985326  1
  C  C19  1  0.28292077  0.82899332  0.27526933  1
  S  S20  1  0.87500000  0.62500000  0.87500000  1
  S  S21  1  0.12500000  0.37500000  0.12500000  1
  O  O22  1  0.85114198  0.16653075  0.71444924  1
  O  O23  1  0.67388026  0.10079309  0.28780724  1
  O  O24  1  0.70751022  0.15247847  0.59777898  1
  O  O25  1  0.67024048  0.19947544  0.13817155  1
  O  O26  1  0.59008773  0.14969615  0.84861190  1
  O  O27  1  0.93704501  0.56299485  0.69565951  1
  O  O28  1  0.93700515  0.56295499  0.93028933  1
  O  O29  1  0.67287644  0.35398674  0.38800629  1
  O  O30  1  0.29310401  0.11199371  0.14601326  1
  O  O31  1  0.38800629  0.20689599  0.67287644  1
  O  O32  1  0.69565951  0.56971067  0.93704501  1
  O  O33  1  0.93028933  0.80434049  0.93700515  1
  O  O34  1  0.84861190  0.78900348  0.59008773  1
  O  O35  1  0.71099652  0.65138810  0.35030385  1
  O  O36  1  0.39106341  0.36182845  0.30052456  1
  O  O37  1  0.13817155  0.10893659  0.67024048  1
  O  O38  1  0.59777898  0.65280973  0.70751022  1
  O  O39  1  0.84719027  0.90222102  0.34752153  1
  O  O40  1  0.28780724  0.36089542  0.67388026  1
  O  O41  1  0.13910458  0.21219276  0.39920691  1
  O  O42  1  0.30356536  0.43342658  0.06477835  1
  O  O43  1  0.06657342  0.19643464  0.06508287  1
  O  O44  1  0.60093953  0.78555076  0.33346925  1
  O  O45  1  0.71444924  0.89906047  0.85114198  1
  O  O46  1  0.33346925  0.64885802  0.60093953  1
  O  O47  1  0.06477835  0.43491713  0.30356536  1
  O  O48  1  0.06508287  0.43522165  0.06657342  1
  O  O49  1  0.39920691  0.82611974  0.13910458  1
  O  O50  1  0.34752153  0.79248978  0.84719027  1
  O  O51  1  0.30052456  0.82975952  0.39106341  1
  O  O52  1  0.35030385  0.90991227  0.71099652  1
  O  O53  1  0.14601326  0.82712356  0.29310401  1
