# generated using pymatgen
data_Na6Sn2O7
_symmetry_space_group_name_H-M   'P 1'
_cell_length_a   6.62888341
_cell_length_b   6.63152992
_cell_length_c   11.05000405
_cell_angle_alpha   79.24502238
_cell_angle_beta   90.00000007
_cell_angle_gamma   60.01320579
_symmetry_Int_Tables_number   1
_chemical_formula_structural   Na6Sn2O7
_chemical_formula_sum   'Na12 Sn4 O14'
_cell_volume   410.85056684
_cell_formula_units_Z   2
loop_
 _symmetry_equiv_pos_site_id
 _symmetry_equiv_pos_as_xyz
  1  'x, y, z'
loop_
 _atom_site_type_symbol
 _atom_site_label
 _atom_site_symmetry_multiplicity
 _atom_site_fract_x
 _atom_site_fract_y
 _atom_site_fract_z
 _atom_site_occupancy
  Na  Na0  1  0.46994100  0.85616972  0.62213490  1
  Na  Na1  1  0.92401635  0.86099344  0.59663398  1
  Na  Na2  1  0.67388928  0.85616972  0.12213490  1
  Na  Na3  1  0.21499022  0.86099344  0.09663398  1
  Na  Na4  1  0.32805501  0.59724293  0.88054597  1
  Na  Na5  1  0.07470105  0.59724293  0.38054597  1
  Na  Na6  1  0.92529895  0.40275707  0.61945403  1
  Na  Na7  1  0.67194499  0.40275707  0.11945403  1
  Na  Na8  1  0.78500978  0.13900656  0.90336602  1
  Na  Na9  1  0.32611072  0.14383028  0.87786510  1
  Na  Na10  1  0.07598365  0.13900656  0.40336602  1
  Na  Na11  1  0.53005900  0.14383028  0.37786510  1
  Sn  Sn12  1  0.82420681  0.64552956  0.87372172  1
  Sn  Sn13  1  0.53026363  0.64552956  0.37372172  1
  Sn  Sn14  1  0.46973637  0.35447044  0.62627828  1
  Sn  Sn15  1  0.17579319  0.35447044  0.12627828  1
  O  O16  1  0.53087431  0.74598264  0.95861306  1
  O  O17  1  0.72314305  0.74598264  0.45861306  1
  O  O18  1  0.28115743  0.71488453  0.50346097  1
  O  O19  1  0.07852800  0.52764334  0.75846316  1
  O  O20  1  0.60617234  0.47235666  0.74153684  1
  O  O21  1  0.00395804  0.71488453  0.00346097  1
  O  O22  1  0.99604196  0.28511547  0.99653903  1
  O  O23  1  0.39382766  0.52764334  0.25846316  1
  O  O24  1  0.92147200  0.47235666  0.24153684  1
  O  O25  1  0.71884257  0.28511547  0.49653903  1
  O  O26  1  0.27685695  0.25401736  0.54138694  1
  O  O27  1  0.65614790  1.00000000  0.75000000  1
  O  O28  1  0.46912569  0.25401736  0.04138694  1
  O  O29  1  0.34385210  0.00000000  0.25000000  1
