# generated using pymatgen
data_LiMn2(BO3)2
_symmetry_space_group_name_H-M   'P 1'
_cell_length_a   9.15849413
_cell_length_b   9.10563217
_cell_length_c   10.32021068
_cell_angle_alpha   89.56139644
_cell_angle_beta   91.47231530
_cell_angle_gamma   60.04296207
_symmetry_Int_Tables_number   1
_chemical_formula_structural   LiMn2(BO3)2
_chemical_formula_sum   'Li6 Mn12 B12 O36'
_cell_volume   745.20593643
_cell_formula_units_Z   6
loop_
 _symmetry_equiv_pos_site_id
 _symmetry_equiv_pos_as_xyz
  1  'x, y, z'
loop_
 _atom_site_type_symbol
 _atom_site_label
 _atom_site_symmetry_multiplicity
 _atom_site_fract_x
 _atom_site_fract_y
 _atom_site_fract_z
 _atom_site_occupancy
  Li  Li0  1  0.41853278  0.30164271  0.67282864  1
  Li  Li1  1  0.10326124  0.93071903  0.10974159  1
  Li  Li2  1  0.42296326  0.30579298  0.16230221  1
  Li  Li3  1  0.90568259  0.03987342  0.40122068  1
  Li  Li4  1  0.75738548  0.60297613  0.67755945  1
  Li  Li5  1  0.78000076  0.62372792  0.15240332  1
  Mn  Mn6  1  0.21915851  0.04670527  0.87814464  1
  Mn  Mn7  1  0.09652291  0.26503482  0.13498663  1
  Mn  Mn8  1  0.08992852  0.65278014  0.62163361  1
  Mn  Mn9  1  0.53684208  0.07079789  0.38230605  1
  Mn  Mn10  1  0.25552370  0.68239533  0.37587040  1
  Mn  Mn11  1  0.57732304  0.39141525  0.87875427  1
  Mn  Mn12  1  0.45375125  0.62200585  0.12328019  1
  Mn  Mn13  1  0.41691954  0.96554992  0.63232403  1
  Mn  Mn14  1  0.80746158  0.24297802  0.63904451  1
  Mn  Mn15  1  0.88990875  0.40543190  0.39111617  1
  Mn  Mn16  1  0.89524850  0.71426140  0.88308245  1
  Mn  Mn17  1  0.75731238  0.95593319  0.12648785  1
  B  B18  1  0.21055279  0.05017040  0.37831475  1
  B  B19  1  0.10326597  0.30275132  0.63267480  1
  B  B20  1  0.11071576  0.60558366  0.14064503  1
  B  B21  1  0.21881513  0.71620942  0.88036280  1
  B  B22  1  0.55435940  0.05358121  0.86897773  1
  B  B23  1  0.45607890  0.60183228  0.63118729  1
  B  B24  1  0.57136991  0.38855950  0.37133956  1
  B  B25  1  0.44658189  0.95150497  0.12911493  1
  B  B26  1  0.77871755  0.27519677  0.12033589  1
  B  B27  1  0.89390647  0.37549288  0.88835591  1
  B  B28  1  0.77300283  0.93299775  0.61605222  1
  B  B29  1  0.88946613  0.74439453  0.36133703  1
  O  O30  1  0.05554723  0.28680462  0.94796416  1
  O  O31  1  0.17833568  0.13052932  0.67500078  1
  O  O32  1  0.12822850  0.21592935  0.32161272  1
  O  O33  1  0.27409242  0.02883950  0.09866326  1
  O  O34  1  0.18893628  0.38707879  0.62445365  1
  O  O35  1  0.04237118  0.69057600  0.43184926  1
  O  O36  1  0.18323790  0.43587569  0.14114061  1
  O  O37  1  0.13162342  0.65473281  0.80586833  1
  O  O38  1  0.51157975  0.05678732  0.16728883  1
  O  O39  1  0.19967948  0.68787185  0.18695130  1
  O  O40  1  0.14254178  0.87798734  0.92047629  1
  O  O41  1  0.49745985  0.21864191  0.84636542  1
  O  O42  1  0.60013415  0.02383664  0.58693318  1
  O  O43  1  0.14537723  0.94704674  0.36710409  1
  O  O44  1  0.30157187  0.64561095  0.56581452  1
  O  O45  1  0.47821533  0.31314535  0.34793676  1
  O  O46  1  0.38233715  0.60422117  0.92499047  1
  O  O47  1  0.54122096  0.43632094  0.68668391  1
  O  O48  1  0.49538957  0.56442868  0.33806200  1
  O  O49  1  0.60818438  0.35933214  0.07425040  1
  O  O50  1  0.36244458  0.00477567  0.44613510  1
  O  O51  1  0.87444405  0.99958027  0.59698143  1
  O  O52  1  0.51759098  0.70789357  0.63801585  1
  O  O53  1  0.73500639  0.30349729  0.42249738  1
  O  O54  1  0.54714692  0.78237710  0.12148678  1
  O  O55  1  0.86857195  0.10384954  0.13270117  1
  O  O56  1  0.47202620  0.96853158  0.81796087  1
  O  O57  1  0.82099141  0.27697684  0.84995421  1
  O  O58  1  0.84524831  0.37963290  0.15479807  1
  O  O59  1  0.81440575  0.54371784  0.86347773  1
  O  O60  1  0.93089150  0.37973425  0.59706160  1
  O  O61  1  0.82949139  0.64073631  0.33553638  1
  O  O62  1  0.70267107  0.95021079  0.94384317  1
  O  O63  1  0.84615137  0.76231661  0.65957996  1
  O  O64  1  0.80283889  0.91573525  0.31741196  1
  O  O65  1  0.94570353  0.71080121  0.09122577  1
