# generated using pymatgen
data_Fe10O11F9
_symmetry_space_group_name_H-M   'P 1'
_cell_length_a   4.73994422
_cell_length_b   4.74086799
_cell_length_c   15.35227568
_cell_angle_alpha   89.81748817
_cell_angle_beta   90.04477649
_cell_angle_gamma   93.50621387
_symmetry_Int_Tables_number   1
_chemical_formula_structural   Fe10O11F9
_chemical_formula_sum   'Fe10 O11 F9'
_cell_volume   344.34032806
_cell_formula_units_Z   1
loop_
 _symmetry_equiv_pos_site_id
 _symmetry_equiv_pos_as_xyz
  1  'x, y, z'
loop_
 _atom_site_type_symbol
 _atom_site_label
 _atom_site_symmetry_multiplicity
 _atom_site_fract_x
 _atom_site_fract_y
 _atom_site_fract_z
 _atom_site_occupancy
  Fe  Fe0  1  0.00647144  0.98706950  0.99837616  1
  Fe  Fe1  1  0.01099869  0.99304784  0.20422076  1
  Fe  Fe2  1  0.99337204  0.95124363  0.39904208  1
  Fe  Fe3  1  0.01010081  0.98996712  0.59292404  1
  Fe  Fe4  1  0.04139407  0.01777827  0.80462023  1
  Fe  Fe5  1  0.50648854  0.49234600  0.10067514  1
  Fe  Fe6  1  0.48490032  0.53401726  0.50416305  1
  Fe  Fe7  1  0.48224037  0.53008634  0.29479633  1
  Fe  Fe8  1  0.50141702  0.48232908  0.69458560  1
  Fe  Fe9  1  0.46602190  0.52009809  0.90658506  1
  O  O10  1  0.18385257  0.80327754  0.29737093  1
  O  O11  1  0.18620677  0.80257670  0.49828925  1
  O  O12  1  0.19261311  0.81650829  0.90169058  1
  O  O13  1  0.30327916  0.30301253  0.00661001  1
  O  O14  1  0.30884236  0.30292956  0.19448280  1
  O  O15  1  0.30201212  0.29901931  0.59973025  1
  O  O16  1  0.32009166  0.32301319  0.80101544  1
  O  O17  1  0.69417124  0.69234700  0.00504050  1
  O  O18  1  0.69789007  0.69317573  0.19296904  1
  O  O19  1  0.67326469  0.68434754  0.39771985  1
  O  O20  1  0.70096967  0.69927223  0.60432393  1
  F  F21  1  0.19488687  0.80388747  0.10034940  1
  F  F22  1  0.20388042  0.81066156  0.70329092  1
  F  F23  1  0.28520417  0.29512055  0.39649221  1
  F  F24  1  0.71022814  0.71300303  0.80135868  1
  F  F25  1  0.81400808  0.18453311  0.10019177  1
  F  F26  1  0.79958867  0.19168264  0.49613468  1
  F  F27  1  0.80029642  0.19216210  0.29897409  1
  F  F28  1  0.80729463  0.20079652  0.90006177  1
  F  F29  1  0.81801398  0.19069025  0.70391645  1
