# generated using pymatgen
data_Na2FeO2
_symmetry_space_group_name_H-M   'P 1'
_cell_length_a   15.94450747
_cell_length_b   6.91263266
_cell_length_c   5.95859452
_cell_angle_alpha   90.00000000
_cell_angle_beta   90.00000000
_cell_angle_gamma   90.00000000
_symmetry_Int_Tables_number   1
_chemical_formula_structural   Na2FeO2
_chemical_formula_sum   'Na16 Fe8 O16'
_cell_volume   656.74748766
_cell_formula_units_Z   8
loop_
 _symmetry_equiv_pos_site_id
 _symmetry_equiv_pos_as_xyz
  1  'x, y, z'
loop_
 _atom_site_type_symbol
 _atom_site_label
 _atom_site_symmetry_multiplicity
 _atom_site_fract_x
 _atom_site_fract_y
 _atom_site_fract_z
 _atom_site_occupancy
  Na  Na0  1  0.00000000  0.08507713  0.25000000  1
  Na  Na1  1  0.00000000  0.64490651  0.25000000  1
  Na  Na2  1  0.00000000  0.35509349  0.75000000  1
  Na  Na3  1  0.00000000  0.91492287  0.75000000  1
  Na  Na4  1  0.16193521  0.12382222  0.59099117  1
  Na  Na5  1  0.16193521  0.87617778  0.09099117  1
  Na  Na6  1  0.33806479  0.37617778  0.09099117  1
  Na  Na7  1  0.33806479  0.62382222  0.59099117  1
  Na  Na8  1  0.50000000  0.14490651  0.25000000  1
  Na  Na9  1  0.50000000  0.41492287  0.75000000  1
  Na  Na10  1  0.50000000  0.58507713  0.25000000  1
  Na  Na11  1  0.50000000  0.85509349  0.75000000  1
  Na  Na12  1  0.66193521  0.37617778  0.40900883  1
  Na  Na13  1  0.66193521  0.62382222  0.90900883  1
  Na  Na14  1  0.83806479  0.12382222  0.90900883  1
  Na  Na15  1  0.83806479  0.87617778  0.40900883  1
  Fe  Fe16  1  0.12919949  0.37131673  0.07850446  1
  Fe  Fe17  1  0.12919949  0.62868327  0.57850446  1
  Fe  Fe18  1  0.37080051  0.12868327  0.57850446  1
  Fe  Fe19  1  0.37080051  0.87131673  0.07850446  1
  Fe  Fe20  1  0.62919949  0.12868327  0.92149554  1
  Fe  Fe21  1  0.62919949  0.87131673  0.42149554  1
  Fe  Fe22  1  0.87080051  0.37131673  0.42149554  1
  Fe  Fe23  1  0.87080051  0.62868327  0.92149554  1
  O  O24  1  0.09592814  0.85973287  0.43497290  1
  O  O25  1  0.09592814  0.14026713  0.93497290  1
  O  O26  1  0.11934204  0.39588493  0.39992431  1
  O  O27  1  0.11934204  0.60411507  0.89992431  1
  O  O28  1  0.38065796  0.10411507  0.89992431  1
  O  O29  1  0.38065796  0.89588493  0.39992431  1
  O  O30  1  0.40407186  0.35973287  0.43497290  1
  O  O31  1  0.40407186  0.64026713  0.93497290  1
  O  O32  1  0.59592814  0.35973287  0.06502710  1
  O  O33  1  0.59592814  0.64026713  0.56502710  1
  O  O34  1  0.61934204  0.10411507  0.60007569  1
  O  O35  1  0.61934204  0.89588493  0.10007569  1
  O  O36  1  0.88065796  0.39588493  0.10007569  1
  O  O37  1  0.88065796  0.60411507  0.60007569  1
  O  O38  1  0.90407186  0.14026713  0.56502710  1
  O  O39  1  0.90407186  0.85973287  0.06502710  1
