# generated using pymatgen
data_LiMn2(BO3)2
_symmetry_space_group_name_H-M   'P 1'
_cell_length_a   5.29183314
_cell_length_b   13.76401627
_cell_length_c   11.56228161
_cell_angle_alpha   66.51401631
_cell_angle_beta   78.78212421
_cell_angle_gamma   91.35035125
_symmetry_Int_Tables_number   1
_chemical_formula_structural   LiMn2(BO3)2
_chemical_formula_sum   'Li6 Mn12 B12 O36'
_cell_volume   752.83808586
_cell_formula_units_Z   6
loop_
 _symmetry_equiv_pos_site_id
 _symmetry_equiv_pos_as_xyz
  1  'x, y, z'
loop_
 _atom_site_type_symbol
 _atom_site_label
 _atom_site_symmetry_multiplicity
 _atom_site_fract_x
 _atom_site_fract_y
 _atom_site_fract_z
 _atom_site_occupancy
  Li  Li0  1  0.11840599  0.03500365  0.05997571  1
  Li  Li1  1  0.04921747  0.77628156  0.56421015  1
  Li  Li2  1  0.26283472  0.61614440  0.22135420  1
  Li  Li3  1  0.28895939  0.85692952  0.72737251  1
  Li  Li4  1  0.41489380  0.44010462  0.89568176  1
  Li  Li5  1  0.58161583  0.27958194  0.54633267  1
  Mn  Mn6  1  0.00719562  0.82518464  0.29738193  1
  Mn  Mn7  1  0.06624033  0.43592869  0.17805678  1
  Mn  Mn8  1  0.32901967  0.85411403  0.01901984  1
  Mn  Mn9  1  0.28114056  0.23526515  0.13383131  1
  Mn  Mn10  1  0.34117581  0.47301329  0.64175532  1
  Mn  Mn11  1  0.38104485  0.08986410  0.53218209  1
  Mn  Mn12  1  0.59741675  0.89506146  0.46874971  1
  Mn  Mn13  1  0.67810665  0.49843808  0.37067399  1
  Mn  Mn14  1  0.73568739  0.76583959  0.86910987  1
  Mn  Mn15  1  0.68530728  0.15459913  0.97069463  1
  Mn  Mn16  1  0.96200374  0.57933948  0.78993346  1
  Mn  Mn17  1  0.99416520  0.17234919  0.69591642  1
  B  B18  1  0.10899792  0.39614816  0.46907159  1
  B  B19  1  0.15490979  0.01204778  0.35920396  1
  B  B20  1  0.18433315  0.66445820  0.96210636  1
  B  B21  1  0.23844574  0.25503390  0.87292958  1
  B  B22  1  0.56853897  0.93111237  0.19076853  1
  B  B23  1  0.50382879  0.31927232  0.30470618  1
  B  B24  1  0.48557701  0.67805826  0.69610319  1
  B  B25  1  0.42415721  0.07944271  0.79602515  1
  B  B26  1  0.76264709  0.72757823  0.15443784  1
  B  B27  1  0.83335385  0.35607902  0.01044631  1
  B  B28  1  0.83708360  0.98411194  0.64476368  1
  B  B29  1  0.89336110  0.59587186  0.53264956  1
  O  O30  1  0.00669452  0.75631711  0.17726138  1
  O  O31  1  0.07363588  0.36150867  0.04475502  1
  O  O32  1  0.01470142  0.90838585  0.40775888  1
  O  O33  1  0.06267675  0.47474693  0.35422727  1
  O  O34  1  0.00315298  0.69677403  0.45877285  1
  O  O35  1  0.10356652  0.09527613  0.26113545  1
  O  O36  1  0.22466861  0.59000891  0.07271176  1
  O  O37  1  0.31853117  0.91894022  0.16651520  1
  O  O38  1  0.03970793  0.21663253  0.83375362  1
  O  O39  1  0.31949518  0.31695990  0.23440224  1
  O  O40  1  0.35186936  0.40693886  0.49884861  1
  O  O41  1  0.25861178  0.99894745  0.88874370  1
  O  O42  1  0.34944412  0.01484474  0.42538939  1
  O  O43  1  0.37066211  0.76359827  0.62457385  1
  O  O44  1  0.35354899  0.57500117  0.75636614  1
  O  O45  1  0.32721988  0.76596492  0.90038644  1
  O  O46  1  0.61023518  0.63725570  0.24048912  1
  O  O47  1  0.37218069  0.14238885  0.67091693  1
  O  O48  1  0.69425276  0.79286467  0.04136575  1
  O  O49  1  0.27583603  0.18334898  0.99613793  1
  O  O50  1  0.67898536  0.25832402  0.06397505  1
  O  O51  1  0.38099984  0.34940184  0.80531822  1
  O  O52  1  0.62182553  0.85855059  0.30548421  1
  O  O53  1  0.53308798  0.23459726  0.41028259  1
  O  O54  1  0.65836085  0.41716180  0.26387143  1
  O  O55  1  0.59533774  0.97108566  0.61578087  1
  O  O56  1  0.74700390  0.01086952  0.10209067  1
  O  O57  1  0.69307950  0.54588929  0.50644407  1
  O  O58  1  0.73389358  0.69387726  0.71319596  1
  O  O59  1  0.65181766  0.11631350  0.81368603  1
  O  O60  1  0.75351554  0.44504264  0.92793409  1
  O  O61  1  0.92996156  0.31372757  0.55092625  1
  O  O62  1  0.94649534  0.89849489  0.71461712  1
  O  O63  1  0.97369709  0.53468115  0.64728094  1
  O  O64  1  0.96900722  0.08765719  0.59273485  1
  O  O65  1  0.98568921  0.64907462  0.90384584  1
