# generated using pymatgen
data_Fe2AsSO9
_symmetry_space_group_name_H-M   'P 1'
_cell_length_a   5.28047320
_cell_length_b   5.19874719
_cell_length_c   8.12196095
_cell_angle_alpha   103.23099993
_cell_angle_beta   114.18866574
_cell_angle_gamma   94.00864992
_symmetry_Int_Tables_number   1
_chemical_formula_structural   Fe2AsSO9
_chemical_formula_sum   'Fe2 As1 S1 O9'
_cell_volume   194.59521625
_cell_formula_units_Z   1
loop_
 _symmetry_equiv_pos_site_id
 _symmetry_equiv_pos_as_xyz
  1  'x, y, z'
loop_
 _atom_site_type_symbol
 _atom_site_label
 _atom_site_symmetry_multiplicity
 _atom_site_fract_x
 _atom_site_fract_y
 _atom_site_fract_z
 _atom_site_occupancy
  Fe  Fe0  1  0.02582507  0.06524263  0.55248515  1
  Fe  Fe1  1  0.02411639  0.47292470  0.95184048  1
  As  As2  1  0.36144417  0.12335475  0.25505638  1
  S  S3  1  0.62324269  0.86002121  0.74338839  1
  O  O4  1  0.29864630  0.39789989  0.17044223  1
  O  O5  1  0.67559534  0.63628942  0.83318745  1
  O  O6  1  0.22011902  0.84256794  0.06762462  1
  O  O7  1  0.73678505  0.12584017  0.88703099  1
  O  O8  1  0.72260228  0.15200770  0.35613948  1
  O  O9  1  0.30830041  0.82269232  0.64313529  1
  O  O10  1  0.24915025  0.15010003  0.42581974  1
  O  O11  1  0.74840277  0.83021187  0.60709715  1
  O  O12  1  0.12377026  0.34684737  0.76075266  1
