# generated using pymatgen
data_Li4CrTe(WO6)2
_symmetry_space_group_name_H-M   'P 1'
_cell_length_a   5.46808285
_cell_length_b   10.93939316
_cell_length_c   9.63966571
_cell_angle_alpha   28.34858215
_cell_angle_beta   51.35492662
_cell_angle_gamma   56.68397840
_symmetry_Int_Tables_number   1
_chemical_formula_structural   Li4CrTe(WO6)2
_chemical_formula_sum   'Li4 Cr1 Te1 W2 O12'
_cell_volume   213.84538095
_cell_formula_units_Z   1
loop_
 _symmetry_equiv_pos_site_id
 _symmetry_equiv_pos_as_xyz
  1  'x, y, z'
loop_
 _atom_site_type_symbol
 _atom_site_label
 _atom_site_symmetry_multiplicity
 _atom_site_fract_x
 _atom_site_fract_y
 _atom_site_fract_z
 _atom_site_occupancy
  Li  Li0  1  0.32309544  0.00196171  0.26488080  1
  Li  Li1  1  0.25296999  0.49650855  0.31423268  1
  Li  Li2  1  0.76112073  0.99392317  0.80580506  1
  Li  Li3  1  0.77976216  0.50855774  0.73256941  1
  Cr  Cr4  1  0.00342057  0.00152107  0.99680268  1
  Te  Te5  1  0.00187646  0.49741306  0.00755948  1
  W  W6  1  0.50608117  0.99546315  0.50586455  1
  W  W7  1  0.49619252  0.50264555  0.50045247  1
  O  O8  1  0.38855617  0.31128243  0.11477087  1
  O  O9  1  0.25762246  0.11930733  0.61844653  1
  O  O10  1  0.14625927  0.31536950  0.73268479  1
  O  O11  1  0.88314174  0.17087882  0.25874994  1
  O  O12  1  0.36694142  0.79067110  0.14467076  1
  O  O13  1  0.74130193  0.36578739  0.38494582  1
  O  O14  1  0.23812759  0.63120409  0.61667843  1
  O  O15  1  0.63601364  0.20186478  0.84859166  1
  O  O16  1  0.11504030  0.83147106  0.72868481  1
  O  O17  1  0.85259264  0.69675338  0.24144754  1
  O  O18  1  0.72059228  0.88833257  0.36937001  1
  O  O19  1  0.60049051  0.67908653  0.88399072  1
