# generated using pymatgen
data_Ba3YF9
_symmetry_space_group_name_H-M   'P 1'
_cell_length_a   10.31785451
_cell_length_b   6.08865233
_cell_length_c   15.81337223
_cell_angle_alpha   90.00000000
_cell_angle_beta   90.00000000
_cell_angle_gamma   90.00000000
_symmetry_Int_Tables_number   1
_chemical_formula_structural   Ba3YF9
_chemical_formula_sum   'Ba12 Y4 F36'
_cell_volume   993.42496461
_cell_formula_units_Z   4
loop_
 _symmetry_equiv_pos_site_id
 _symmetry_equiv_pos_as_xyz
  1  'x, y, z'
loop_
 _atom_site_type_symbol
 _atom_site_label
 _atom_site_symmetry_multiplicity
 _atom_site_fract_x
 _atom_site_fract_y
 _atom_site_fract_z
 _atom_site_occupancy
  Ba  Ba0  1  0.05394503  0.75000000  0.90888714  1
  Ba  Ba1  1  0.16639141  0.75000000  0.47276267  1
  Ba  Ba2  1  0.24155534  0.25000000  0.67154286  1
  Ba  Ba3  1  0.25844466  0.75000000  0.17154286  1
  Ba  Ba4  1  0.33360859  0.25000000  0.97276267  1
  Ba  Ba5  1  0.44605497  0.25000000  0.40888714  1
  Ba  Ba6  1  0.55394503  0.75000000  0.59111286  1
  Ba  Ba7  1  0.66639141  0.75000000  0.02723733  1
  Ba  Ba8  1  0.74155534  0.25000000  0.82845714  1
  Ba  Ba9  1  0.75844466  0.75000000  0.32845714  1
  Ba  Ba10  1  0.83360859  0.25000000  0.52723733  1
  Ba  Ba11  1  0.94605497  0.25000000  0.09111286  1
  Y  Y12  1  0.03823092  0.25000000  0.31700128  1
  Y  Y13  1  0.46176908  0.75000000  0.81700128  1
  Y  Y14  1  0.53823092  0.25000000  0.18299872  1
  Y  Y15  1  0.96176908  0.75000000  0.68299872  1
  F  F16  1  0.04523243  0.49606015  0.59632041  1
  F  F17  1  0.04523243  0.00393985  0.59632041  1
  F  F18  1  0.07128273  0.00813244  0.21971487  1
  F  F19  1  0.07128273  0.49186756  0.21971487  1
  F  F20  1  0.15785456  0.75000000  0.73716529  1
  F  F21  1  0.21070433  0.25000000  0.83663416  1
  F  F22  1  0.14537153  0.49740155  0.03708775  1
  F  F23  1  0.14537153  0.00259845  0.03708775  1
  F  F24  1  0.18897484  0.25000000  0.41234640  1
  F  F25  1  0.31102516  0.75000000  0.91234640  1
  F  F26  1  0.35462847  0.99740155  0.53708775  1
  F  F27  1  0.35462847  0.50259845  0.53708775  1
  F  F28  1  0.28929567  0.75000000  0.33663416  1
  F  F29  1  0.34214544  0.25000000  0.23716529  1
  F  F30  1  0.42871727  0.99186756  0.71971487  1
  F  F31  1  0.42871727  0.50813244  0.71971487  1
  F  F32  1  0.45476757  0.99606015  0.09632041  1
  F  F33  1  0.45476757  0.50393985  0.09632041  1
  F  F34  1  0.54523243  0.49606015  0.90367959  1
  F  F35  1  0.54523243  0.00393985  0.90367959  1
  F  F36  1  0.57128273  0.00813244  0.28028513  1
  F  F37  1  0.57128273  0.49186756  0.28028513  1
  F  F38  1  0.65785456  0.75000000  0.76283471  1
  F  F39  1  0.71070433  0.25000000  0.66336584  1
  F  F40  1  0.64537153  0.49740155  0.46291225  1
  F  F41  1  0.64537153  0.00259845  0.46291225  1
  F  F42  1  0.68897484  0.25000000  0.08765360  1
  F  F43  1  0.81102516  0.75000000  0.58765360  1
  F  F44  1  0.85462847  0.99740155  0.96291225  1
  F  F45  1  0.85462847  0.50259845  0.96291225  1
  F  F46  1  0.78929567  0.75000000  0.16336584  1
  F  F47  1  0.84214544  0.25000000  0.26283471  1
  F  F48  1  0.92871727  0.50813244  0.78028513  1
  F  F49  1  0.92871727  0.99186756  0.78028513  1
  F  F50  1  0.95476757  0.99606015  0.40367959  1
  F  F51  1  0.95476757  0.50393985  0.40367959  1
