# generated using pymatgen
data_LiVF4
_symmetry_space_group_name_H-M   'P 1'
_cell_length_a   4.07900121
_cell_length_b   6.68375623
_cell_length_c   6.64613933
_cell_angle_alpha   73.74209317
_cell_angle_beta   89.78508320
_cell_angle_gamma   72.01446002
_symmetry_Int_Tables_number   1
_chemical_formula_structural   LiVF4
_chemical_formula_sum   'Li2 V2 F8'
_cell_volume   164.76832757
_cell_formula_units_Z   2
loop_
 _symmetry_equiv_pos_site_id
 _symmetry_equiv_pos_as_xyz
  1  'x, y, z'
loop_
 _atom_site_type_symbol
 _atom_site_label
 _atom_site_symmetry_multiplicity
 _atom_site_fract_x
 _atom_site_fract_y
 _atom_site_fract_z
 _atom_site_occupancy
  Li  Li0  1  0.08761050  0.82644341  0.20346506  1
  Li  Li1  1  0.91258473  0.17624481  0.79512039  1
  V  V2  1  0.20185732  0.59341963  0.79731879  1
  V  V3  1  0.79456702  0.40793990  0.20155897  1
  F  F4  1  0.06964154  0.85759470  0.88262513  1
  F  F5  1  0.13296287  0.72517472  0.50907934  1
  F  F6  1  0.72172482  0.55372588  0.85723559  1
  F  F7  1  0.64145425  0.70702876  0.20348992  1
  F  F8  1  0.35271775  0.29391329  0.79615412  1
  F  F9  1  0.27438474  0.44775970  0.14083138  1
  F  F10  1  0.86672969  0.27516684  0.48963690  1
  F  F11  1  0.92662679  0.14393936  0.11609541  1
