# generated using pymatgen
data_Li2FeF4
_symmetry_space_group_name_H-M   'P 1'
_cell_length_a   9.46873412
_cell_length_b   10.26799660
_cell_length_c   2.88914782
_cell_angle_alpha   90.00063566
_cell_angle_beta   89.99895115
_cell_angle_gamma   89.99796351
_symmetry_Int_Tables_number   1
_chemical_formula_structural   Li2FeF4
_chemical_formula_sum   'Li8 Fe4 F16'
_cell_volume   280.89719372
_cell_formula_units_Z   4
loop_
 _symmetry_equiv_pos_site_id
 _symmetry_equiv_pos_as_xyz
  1  'x, y, z'
loop_
 _atom_site_type_symbol
 _atom_site_label
 _atom_site_symmetry_multiplicity
 _atom_site_fract_x
 _atom_site_fract_y
 _atom_site_fract_z
 _atom_site_occupancy
  Li  Li0  1  0.08050415  0.60268534  0.74999904  1
  Li  Li1  1  0.06212147  0.12173290  0.75000076  1
  Li  Li2  1  0.43790881  0.62172594  0.25000137  1
  Li  Li3  1  0.41947148  0.10268590  0.25000056  1
  Li  Li4  1  0.58052424  0.89733802  0.75000046  1
  Li  Li5  1  0.56204182  0.37824660  0.74999824  1
  Li  Li6  1  0.93789348  0.87826738  0.25000374  1
  Li  Li7  1  0.91951731  0.39732889  0.25000181  1
  Fe  Fe8  1  0.26041050  0.34286890  0.75003049  1
  Fe  Fe9  1  0.23958653  0.84284843  0.25000881  1
  Fe  Fe10  1  0.76045172  0.15716615  0.74999657  1
  Fe  Fe11  1  0.73955216  0.65712562  0.24998216  1
  F  F12  1  0.06129766  0.72353287  0.25000140  1
  F  F13  1  0.10130335  0.93671741  0.75000635  1
  F  F14  1  0.12574992  0.45373673  0.24999620  1
  F  F15  1  0.19487118  0.19321644  0.25000587  1
  F  F16  1  0.30518619  0.69321327  0.74999673  1
  F  F17  1  0.37424805  0.95371593  0.74998980  1
  F  F18  1  0.39865649  0.43673565  0.25000598  1
  F  F19  1  0.43869755  0.22353101  0.75000063  1
  F  F20  1  0.56127033  0.77647003  0.24999886  1
  F  F21  1  0.60130473  0.56324512  0.74998231  1
  F  F22  1  0.62575486  0.04628965  0.24999485  1
  F  F23  1  0.69483198  0.30677202  0.24997967  1
  F  F24  1  0.80514864  0.80676031  0.75000500  1
  F  F25  1  0.87424849  0.54627570  0.75000893  1
  F  F26  1  0.89869210  0.06328685  0.25000497  1
  F  F27  1  0.93875480  0.27648095  0.74999846  1
