# generated using pymatgen
data_LiFeF4
_symmetry_space_group_name_H-M   'P 1'
_cell_length_a   7.49990713
_cell_length_b   7.61970100
_cell_length_c   10.34364900
_cell_angle_alpha   90.00000000
_cell_angle_beta   90.00000000
_cell_angle_gamma   90.00000000
_symmetry_Int_Tables_number   1
_chemical_formula_structural   LiFeF4
_chemical_formula_sum   'Li8 Fe8 F32'
_cell_volume   591.10902512
_cell_formula_units_Z   8
loop_
 _symmetry_equiv_pos_site_id
 _symmetry_equiv_pos_as_xyz
  1  'x, y, z'
loop_
 _atom_site_type_symbol
 _atom_site_label
 _atom_site_symmetry_multiplicity
 _atom_site_fract_x
 _atom_site_fract_y
 _atom_site_fract_z
 _atom_site_occupancy
  Li  Li0  1  0.00000000  0.25378750  0.22987349  1
  Li  Li1  1  0.00000000  0.82578439  0.22454634  1
  Li  Li2  1  0.00000000  0.02255265  0.73487612  1
  Li  Li3  1  0.00000000  0.56599321  0.71929747  1
  Li  Li4  1  0.50000000  0.06599321  0.28070253  1
  Li  Li5  1  0.50000000  0.32578439  0.77545366  1
  Li  Li6  1  0.50000000  0.52255265  0.26512388  1
  Li  Li7  1  0.50000000  0.75378750  0.77012651  1
  Fe  Fe8  1  0.24653897  0.49596522  0.99620913  1
  Fe  Fe9  1  0.24984607  0.74279987  0.49510611  1
  Fe  Fe10  1  0.25015393  0.24279987  0.50489389  1
  Fe  Fe11  1  0.25346103  0.99596522  0.00379087  1
  Fe  Fe12  1  0.74653897  0.99596522  0.00379087  1
  Fe  Fe13  1  0.74984607  0.24279987  0.50489389  1
  Fe  Fe14  1  0.75015393  0.74279987  0.49510611  1
  Fe  Fe15  1  0.75346103  0.49596522  0.99620913  1
  F  F16  1  0.00000000  0.20812253  0.42960950  1
  F  F17  1  0.00000000  0.78723162  0.41837247  1
  F  F18  1  0.00000000  0.03506305  0.93268298  1
  F  F19  1  0.00000000  0.47370524  0.91237336  1
  F  F20  1  0.16716317  0.43899419  0.16012390  1
  F  F21  1  0.17608261  0.19874817  0.67591754  1
  F  F22  1  0.16298309  0.77143019  0.66411891  1
  F  F23  1  0.16924757  0.02655666  0.17743144  1
  F  F24  1  0.18980190  0.49214861  0.52464762  1
  F  F25  1  0.19051633  0.74451250  0.03049123  1
  F  F26  1  0.30948367  0.24451250  0.96950877  1
  F  F27  1  0.31019810  0.99214861  0.47535238  1
  F  F28  1  0.33075243  0.52655666  0.82256856  1
  F  F29  1  0.33701691  0.27143019  0.33588109  1
  F  F30  1  0.32391739  0.69874817  0.32408246  1
  F  F31  1  0.33283683  0.93899419  0.83987610  1
  F  F32  1  0.50000000  0.28723162  0.58162753  1
  F  F33  1  0.50000000  0.53506305  0.06731702  1
  F  F34  1  0.50000000  0.97370524  0.08762664  1
  F  F35  1  0.50000000  0.70812253  0.57039050  1
  F  F36  1  0.66716317  0.93899419  0.83987610  1
  F  F37  1  0.67608261  0.69874817  0.32408246  1
  F  F38  1  0.66298309  0.27143019  0.33588109  1
  F  F39  1  0.66924757  0.52655666  0.82256856  1
  F  F40  1  0.68980190  0.99214861  0.47535238  1
  F  F41  1  0.69051633  0.24451250  0.96950877  1
  F  F42  1  0.80948367  0.74451250  0.03049123  1
  F  F43  1  0.81019810  0.49214861  0.52464762  1
  F  F44  1  0.83075243  0.02655666  0.17743144  1
  F  F45  1  0.83701691  0.77143019  0.66411891  1
  F  F46  1  0.82391739  0.19874817  0.67591754  1
  F  F47  1  0.83283683  0.43899419  0.16012390  1
