# generated using pymatgen
data_CeMn7Ni5
_symmetry_space_group_name_H-M   'P 1'
_cell_length_a   4.76508101
_cell_length_b   6.38956202
_cell_length_c   6.38956202
_cell_angle_alpha   97.68143154
_cell_angle_beta   111.89334600
_cell_angle_gamma   68.10665400
_symmetry_Int_Tables_number   1
_chemical_formula_structural   CeMn7Ni5
_chemical_formula_sum   'Ce1 Mn7 Ni5'
_cell_volume   167.48936141
_cell_formula_units_Z   1
loop_
 _symmetry_equiv_pos_site_id
 _symmetry_equiv_pos_as_xyz
  1  'x, y, z'
loop_
 _atom_site_type_symbol
 _atom_site_label
 _atom_site_symmetry_multiplicity
 _atom_site_fract_x
 _atom_site_fract_y
 _atom_site_fract_z
 _atom_site_occupancy
  Ce  Ce0  1  0.00843479  0.99156521  0.00843479  1
  Mn  Mn1  1  0.50433765  -0.00021193  0.50446061  1
  Mn  Mn2  1  0.00033489  -0.00021193  0.50446061  1
  Mn  Mn3  1  0.50433765  0.49553939  0.00021193  1
  Mn  Mn4  1  0.00033489  0.49553939  0.00021193  1
  Mn  Mn5  1  0.26843438  0.23156562  0.76843438  1
  Mn  Mn6  1  0.50169362  0.76284463  0.76623187  1
  Mn  Mn7  1  0.50169362  0.23376813  0.23715537  1
  Ni  Ni8  1  0.65122271  0.34877729  0.65122271  1
  Ni  Ni9  1  0.35052414  0.64947586  0.35052414  1
  Ni  Ni10  1  0.99632711  0.35797029  0.35062450  1
  Ni  Ni11  1  0.99632711  0.64937550  0.64202971  1
  Ni  Ni12  1  0.71599744  0.78400256  0.21599744  1
