# generated using pymatgen
data_LiFeF4
_symmetry_space_group_name_H-M   'P 1'
_cell_length_a   11.06675526
_cell_length_b   7.49964663
_cell_length_c   7.71362342
_cell_angle_alpha   90.00000000
_cell_angle_beta   90.00000000
_cell_angle_gamma   90.00000000
_symmetry_Int_Tables_number   1
_chemical_formula_structural   LiFeF4
_chemical_formula_sum   'Li8 Fe8 F32'
_cell_volume   640.20570382
_cell_formula_units_Z   8
loop_
 _symmetry_equiv_pos_site_id
 _symmetry_equiv_pos_as_xyz
  1  'x, y, z'
loop_
 _atom_site_type_symbol
 _atom_site_label
 _atom_site_symmetry_multiplicity
 _atom_site_fract_x
 _atom_site_fract_y
 _atom_site_fract_z
 _atom_site_occupancy
  Li  Li0  1  0.01054110  0.75000000  0.47329186  1
  Li  Li1  1  0.00026555  0.75000000  0.02311063  1
  Li  Li2  1  0.49973445  0.25000000  0.52311063  1
  Li  Li3  1  0.48945890  0.25000000  0.97329186  1
  Li  Li4  1  0.51054110  0.75000000  0.02670814  1
  Li  Li5  1  0.50026555  0.75000000  0.47688937  1
  Li  Li6  1  -0.00026555  0.25000000  0.97688937  1
  Li  Li7  1  0.98945890  0.25000000  0.52670814  1
  Fe  Fe8  1  0.25625048  0.99989658  0.11090639  1
  Fe  Fe9  1  0.25625048  0.50010342  0.11090639  1
  Fe  Fe10  1  0.24374952  0.00010342  0.61090639  1
  Fe  Fe11  1  0.24374952  0.49989658  0.61090639  1
  Fe  Fe12  1  0.75625048  0.99989658  0.38909361  1
  Fe  Fe13  1  0.75625048  0.50010342  0.38909361  1
  Fe  Fe14  1  0.74374952  0.49989658  0.88909361  1
  Fe  Fe15  1  0.74374952  0.00010342  0.88909361  1
  F  F16  1  0.09500562  0.06803093  0.07222337  1
  F  F17  1  0.09500562  0.43196907  0.07222337  1
  F  F18  1  0.07901277  0.06727616  0.63419546  1
  F  F19  1  0.07901277  0.43272384  0.63419546  1
  F  F20  1  0.32279748  0.25000000  0.05838883  1
  F  F21  1  0.30943991  0.25000000  0.64899679  1
  F  F22  1  0.26463289  0.55688070  0.85769053  1
  F  F23  1  0.26463289  0.94311930  0.85769053  1
  F  F24  1  0.23536711  0.05688070  0.35769053  1
  F  F25  1  0.23536711  0.44311930  0.35769053  1
  F  F26  1  0.19056009  0.75000000  0.14899679  1
  F  F27  1  0.17720252  0.75000000  0.55838883  1
  F  F28  1  0.42098723  0.93272384  0.13419546  1
  F  F29  1  0.42098723  0.56727616  0.13419546  1
  F  F30  1  0.40499438  0.93196907  0.57222337  1
  F  F31  1  0.40499438  0.56803093  0.57222337  1
  F  F32  1  0.59500562  0.06803093  0.42777663  1
  F  F33  1  0.59500562  0.43196907  0.42777663  1
  F  F34  1  0.57901277  0.43272384  0.86580454  1
  F  F35  1  0.57901277  0.06727616  0.86580454  1
  F  F36  1  0.82279748  0.25000000  0.44161117  1
  F  F37  1  0.80943991  0.25000000  0.85100321  1
  F  F38  1  0.76463289  0.55688070  0.64230947  1
  F  F39  1  0.76463289  0.94311930  0.64230947  1
  F  F40  1  0.73536711  0.05688070  0.14230947  1
  F  F41  1  0.73536711  0.44311930  0.14230947  1
  F  F42  1  0.69056009  0.75000000  0.35100321  1
  F  F43  1  0.67720252  0.75000000  0.94161117  1
  F  F44  1  0.92098723  0.93272384  0.36580454  1
  F  F45  1  0.92098723  0.56727616  0.36580454  1
  F  F46  1  0.90499438  0.56803093  0.92777663  1
  F  F47  1  0.90499438  0.93196907  0.92777663  1
