# generated using pymatgen
data_Mn7Fe(PO4)12
_symmetry_space_group_name_H-M   'P 1'
_cell_length_a   8.50277480
_cell_length_b   8.50179123
_cell_length_c   11.84341122
_cell_angle_alpha   89.99883616
_cell_angle_beta   89.99743450
_cell_angle_gamma   90.00558677
_symmetry_Int_Tables_number   1
_chemical_formula_structural   Mn7Fe(PO4)12
_chemical_formula_sum   'Mn7 Fe1 P12 O48'
_cell_volume   856.14617260
_cell_formula_units_Z   1
loop_
 _symmetry_equiv_pos_site_id
 _symmetry_equiv_pos_as_xyz
  1  'x, y, z'
loop_
 _atom_site_type_symbol
 _atom_site_label
 _atom_site_symmetry_multiplicity
 _atom_site_fract_x
 _atom_site_fract_y
 _atom_site_fract_z
 _atom_site_occupancy
  Mn  Mn0  1  0.24997716  0.96504952  0.61730019  1
  Mn  Mn1  1  0.25062895  0.53509525  0.38202365  1
  Mn  Mn2  1  0.24980045  0.03542113  0.11760557  1
  Mn  Mn3  1  0.24997484  0.46451447  0.88265152  1
  Mn  Mn4  1  0.75047635  0.53579436  0.11785765  1
  Mn  Mn5  1  0.75017108  0.96459208  0.88247769  1
  Mn  Mn6  1  0.74928728  0.03604152  0.38218728  1
  Fe  Fe7  1  0.74991942  0.46342785  0.61843752  1
  P  P8  1  0.03877161  0.24969316  0.49907602  1
  P  P9  1  0.46299740  0.75004648  0.00009176  1
  P  P10  1  0.53723109  0.24998642  -0.00001204  1
  P  P11  1  0.96371864  0.75167613  0.49973044  1
  P  P12  1  0.10700425  0.39190732  0.14548396  1
  P  P13  1  0.10688525  0.10792854  0.85459184  1
  P  P14  1  0.39114315  0.60802333  0.64569580  1
  P  P15  1  0.39280772  0.89218360  0.35439489  1
  P  P16  1  0.60719105  0.10655011  0.64640210  1
  P  P17  1  0.60592704  0.39148049  0.35354380  1
  P  P18  1  0.89355858  0.60808893  0.85599472  1
  P  P19  1  0.89301309  0.89204323  0.14554568  1
  O  O20  1  0.05894382  0.64088762  0.42340260  1
  O  O21  1  0.06033496  0.85991806  0.57673762  1
  O  O22  1  0.07442953  0.90076526  0.15908906  1
  O  O23  1  0.07518892  0.60097308  0.84218613  1
  O  O24  1  0.14876357  0.15864644  0.58050898  1
  O  O25  1  0.14742913  0.34016838  0.41715287  1
  O  O26  1  0.15900855  0.43784526  0.02680009  1
  O  O27  1  0.15899328  0.06162712  0.97317720  1
  O  O28  1  0.15332692  0.22273179  0.17656855  1
  O  O29  1  0.15334279  0.27714242  0.82358777  1
  O  O30  1  0.17906582  0.51403242  0.22742575  1
  O  O31  1  0.17880584  0.98657159  0.77227268  1
  O  O32  1  0.32115029  0.01410334  0.27219857  1
  O  O33  1  0.31835244  0.48574518  0.72712514  1
  O  O34  1  0.34482325  0.77791938  0.67684285  1
  O  O35  1  0.34630627  0.72308037  0.32319711  1
  O  O36  1  0.33994237  0.56232037  0.52667347  1
  O  O37  1  0.34088622  0.93809013  0.47309457  1
  O  O38  1  0.35343118  0.84062912  0.08142329  1
  O  O39  1  0.35379102  0.65926756  0.91857700  1
  O  O40  1  0.42547275  0.09800940  0.65899507  1
  O  O41  1  0.42449114  0.40007475  0.33986977  1
  O  O42  1  0.44116333  0.14060042  0.07648800  1
  O  O43  1  0.44126834  0.35945409  0.92344994  1
  O  O44  1  0.55888613  0.64061269  0.07655486  1
  O  O45  1  0.55887089  0.85949985  0.92369796  1
  O  O46  1  0.57026439  0.60348869  0.65979071  1
  O  O47  1  0.57427987  0.90071833  0.34141247  1
  O  O48  1  0.64685249  0.34059247  0.08132739  1
  O  O49  1  0.64618085  0.15921703  0.91838548  1
  O  O50  1  0.65918383  0.06181147  0.52694709  1
  O  O51  1  0.65763958  0.43798137  0.47049087  1
  O  O52  1  0.65324024  0.22222296  0.32239111  1
  O  O53  1  0.65210195  0.27329737  0.67804202  1
  O  O54  1  0.67825850  0.51390690  0.27143728  1
  O  O55  1  0.67982329  0.98370036  0.72759037  1
  O  O56  1  0.82102320  0.01405857  0.22765694  1
  O  O57  1  0.82207191  0.48732266  0.77596756  1
  O  O58  1  0.84651779  0.72301675  0.17693405  1
  O  O59  1  0.84692859  0.77727985  0.82389295  1
  O  O60  1  0.84129763  0.56278636  0.97481562  1
  O  O61  1  0.84096714  0.93821204  0.02701946  1
  O  O62  1  0.85474405  0.66271172  0.57983328  1
  O  O63  1  0.85419933  0.84149192  0.41784744  1
  O  O64  1  0.92569586  0.09919404  0.84129283  1
  O  O65  1  0.92572413  0.40082723  0.15912905  1
  O  O66  1  0.94158971  0.14030286  0.42293136  1
  O  O67  1  0.94446351  0.35559100  0.57668573  1
