# generated using pymatgen
data_GdCu5Te4
_symmetry_space_group_name_H-M   'P 1'
_cell_length_a   4.29638266
_cell_length_b   8.40415067
_cell_length_c   7.35999425
_cell_angle_alpha   62.36042335
_cell_angle_beta   89.99999705
_cell_angle_gamma   104.80977868
_symmetry_Int_Tables_number   1
_chemical_formula_structural   GdCu5Te4
_chemical_formula_sum   'Gd1 Cu5 Te4'
_cell_volume   225.41110271
_cell_formula_units_Z   1
loop_
 _symmetry_equiv_pos_site_id
 _symmetry_equiv_pos_as_xyz
  1  'x, y, z'
loop_
 _atom_site_type_symbol
 _atom_site_label
 _atom_site_symmetry_multiplicity
 _atom_site_fract_x
 _atom_site_fract_y
 _atom_site_fract_z
 _atom_site_occupancy
  Gd  Gd0  1  0.50000000  -0.00000000  0.50000000  1
  Cu  Cu1  1  -0.00000000  -0.00000000  0.00000000  1
  Cu  Cu2  1  0.19416893  0.38833786  0.46650845  1
  Cu  Cu3  1  0.69498284  0.38996567  0.96947723  1
  Cu  Cu4  1  0.80583107  0.61166214  0.53349155  1
  Cu  Cu5  1  0.30501716  0.61003433  0.03052277  1
  Te  Te6  1  0.87592703  0.75185406  0.80297966  1
  Te  Te7  1  0.38194247  0.76388494  0.27262670  1
  Te  Te8  1  0.12407297  0.24814594  0.19702034  1
  Te  Te9  1  0.61805753  0.23611506  0.72737330  1
