# generated using pymatgen
data_Na3VO3
_symmetry_space_group_name_H-M   'P 1'
_cell_length_a   8.76571770
_cell_length_b   8.76571770
_cell_length_c   6.19709998
_cell_angle_alpha   70.24146863
_cell_angle_beta   109.75853137
_cell_angle_gamma   103.69238249
_symmetry_Int_Tables_number   1
_chemical_formula_structural   Na3VO3
_chemical_formula_sum   'Na12 V4 O12'
_cell_volume   417.70516663
_cell_formula_units_Z   4
loop_
 _symmetry_equiv_pos_site_id
 _symmetry_equiv_pos_as_xyz
  1  'x, y, z'
loop_
 _atom_site_type_symbol
 _atom_site_label
 _atom_site_symmetry_multiplicity
 _atom_site_fract_x
 _atom_site_fract_y
 _atom_site_fract_z
 _atom_site_occupancy
  Na  Na0  1  0.17672075  0.99444730  0.55413279  1
  Na  Na1  1  0.00555270  0.82327925  0.05413279  1
  Na  Na2  1  0.23213276  0.63488601  0.92384412  1
  Na  Na3  1  0.36511399  0.76786724  0.42384412  1
  Na  Na4  1  0.43785163  0.43785163  0.75000000  1
  Na  Na5  1  0.71980194  0.71980194  0.75000000  1
  Na  Na6  1  0.28019806  0.28019806  0.25000000  1
  Na  Na7  1  0.56214837  0.56214837  0.25000000  1
  Na  Na8  1  0.63488601  0.23213276  0.57615588  1
  Na  Na9  1  0.76786724  0.36511399  0.07615588  1
  Na  Na10  1  0.99444730  0.17672075  0.94586721  1
  Na  Na11  1  0.82327925  0.00555270  0.44586721  1
  V  V12  1  0.57585412  0.91387378  0.90712612  1
  V  V13  1  0.08612622  0.42414588  0.40712612  1
  V  V14  1  0.91387378  0.57585412  0.59287388  1
  V  V15  1  0.42414588  0.08612622  0.09287388  1
  O  O16  1  0.09366497  0.43537088  0.72477054  1
  O  O17  1  0.48233303  0.71053184  0.83750479  1
  O  O18  1  0.77299884  0.99043396  0.81525279  1
  O  O19  1  0.56462912  0.90633503  0.22477054  1
  O  O20  1  0.28946816  0.51766697  0.33750479  1
  O  O21  1  0.00956604  0.22700116  0.31525279  1
  O  O22  1  0.99043396  0.77299884  0.68474721  1
  O  O23  1  0.71053184  0.48233303  0.66249521  1
  O  O24  1  0.43537088  0.09366497  0.77522946  1
  O  O25  1  0.22700116  0.00956604  0.18474721  1
  O  O26  1  0.51766697  0.28946816  0.16249521  1
  O  O27  1  0.90633503  0.56462912  0.27522946  1
