# generated using pymatgen
data_LiMnP2(HO4)2
_symmetry_space_group_name_H-M   'P 1'
_cell_length_a   5.22199811
_cell_length_b   8.74056689
_cell_length_c   14.38386779
_cell_angle_alpha   90.00000000
_cell_angle_beta   98.79956957
_cell_angle_gamma   90.00000000
_symmetry_Int_Tables_number   1
_chemical_formula_structural   LiMnP2(HO4)2
_chemical_formula_sum   'Li4 Mn4 P8 H8 O32'
_cell_volume   648.79847580
_cell_formula_units_Z   4
loop_
 _symmetry_equiv_pos_site_id
 _symmetry_equiv_pos_as_xyz
  1  'x, y, z'
loop_
 _atom_site_type_symbol
 _atom_site_label
 _atom_site_symmetry_multiplicity
 _atom_site_fract_x
 _atom_site_fract_y
 _atom_site_fract_z
 _atom_site_occupancy
  Li  Li0  1  0.37542319  0.50469072  0.66933088  1
  Li  Li1  1  0.37542319  0.99530928  0.16933088  1
  Li  Li2  1  0.62457681  0.00469072  0.83066912  1
  Li  Li3  1  0.62457681  0.49530928  0.33066912  1
  Mn  Mn4  1  0.26723957  0.03598056  0.64853486  1
  Mn  Mn5  1  0.26723957  0.46401944  0.14853486  1
  Mn  Mn6  1  0.73276043  0.53598056  0.85146514  1
  Mn  Mn7  1  0.73276043  0.96401944  0.35146514  1
  P  P8  1  0.21976615  0.76375689  0.80829680  1
  P  P9  1  0.26579799  0.33846882  0.94416082  1
  P  P10  1  0.21976615  0.73624311  0.30829680  1
  P  P11  1  0.26579799  0.16153118  0.44416082  1
  P  P12  1  0.73420201  0.83846882  0.55583918  1
  P  P13  1  0.78023385  0.26375689  0.69170320  1
  P  P14  1  0.73420201  0.66153118  0.05583918  1
  P  P15  1  0.78023385  0.23624311  0.19170320  1
  H  H16  1  0.14441248  0.18720480  0.82887499  1
  H  H17  1  0.28740379  0.72187565  0.96384275  1
  H  H18  1  0.14441248  0.31279520  0.32887499  1
  H  H19  1  0.28740379  0.77812435  0.46384275  1
  H  H20  1  0.71259621  0.22187565  0.53615725  1
  H  H21  1  0.85558752  0.68720480  0.67112501  1
  H  H22  1  0.71259621  0.27812435  0.03615725  1
  H  H23  1  0.85558752  0.81279520  0.17112501  1
  O  O24  1  0.06590814  0.22757133  0.72505215  1
  O  O25  1  0.08147431  0.46001865  0.89463516  1
  O  O26  1  0.06590814  0.27242867  0.22505215  1
  O  O27  1  0.08147431  0.03998135  0.39463516  1
  O  O28  1  0.19068315  0.17446292  0.90050601  1
  O  O29  1  0.26596404  0.80580447  0.91599525  1
  O  O30  1  0.30869037  0.91432737  0.76511723  1
  O  O31  1  0.19068315  0.32553708  0.40050601  1
  O  O32  1  0.23784053  0.18277947  0.54908966  1
  O  O33  1  0.26596404  0.69419553  0.41599525  1
  O  O34  1  0.30869037  0.58567263  0.26511723  1
  O  O35  1  0.23784053  0.31722053  0.04908966  1
  O  O36  1  0.39631012  0.63080816  0.78400563  1
  O  O37  1  0.45152423  0.87314148  0.56706215  1
  O  O38  1  0.39631012  0.86919184  0.28400563  1
  O  O39  1  0.54847577  0.37314148  0.93293785  1
  O  O40  1  0.45152423  0.62685852  0.06706215  1
  O  O41  1  0.60368988  0.13080816  0.71599437  1
  O  O42  1  0.54847577  0.12685852  0.43293785  1
  O  O43  1  0.60368988  0.36919184  0.21599437  1
  O  O44  1  0.76215947  0.68277947  0.95091034  1
  O  O45  1  0.69130963  0.41432737  0.73488277  1
  O  O46  1  0.73403596  0.30580447  0.58400475  1
  O  O47  1  0.76215947  0.81722053  0.45091034  1
  O  O48  1  0.80931685  0.67446292  0.59949399  1
  O  O49  1  0.69130963  0.08567263  0.23488277  1
  O  O50  1  0.73403596  0.19419553  0.08400475  1
  O  O51  1  0.80931685  0.82553708  0.09949399  1
  O  O52  1  0.91852569  0.96001865  0.60536484  1
  O  O53  1  0.93409186  0.72757133  0.77494785  1
  O  O54  1  0.91852569  0.53998135  0.10536484  1
  O  O55  1  0.93409186  0.77242867  0.27494785  1
