# generated using pymatgen
data_Li2FeF4
_symmetry_space_group_name_H-M   'P 1'
_cell_length_a   5.84737561
_cell_length_b   4.87226922
_cell_length_c   6.90018297
_cell_angle_alpha   90.00000000
_cell_angle_beta   126.81327415
_cell_angle_gamma   90.00000000
_symmetry_Int_Tables_number   1
_chemical_formula_structural   Li2FeF4
_chemical_formula_sum   'Li4 Fe2 F8'
_cell_volume   157.38539596
_cell_formula_units_Z   2
loop_
 _symmetry_equiv_pos_site_id
 _symmetry_equiv_pos_as_xyz
  1  'x, y, z'
loop_
 _atom_site_type_symbol
 _atom_site_label
 _atom_site_symmetry_multiplicity
 _atom_site_fract_x
 _atom_site_fract_y
 _atom_site_fract_z
 _atom_site_occupancy
  Li  Li0  1  0.16465770  0.73044776  0.60095539  1
  Li  Li1  1  0.33534230  0.23044776  0.89904461  1
  Li  Li2  1  0.66465770  0.76955224  0.10095539  1
  Li  Li3  1  0.83534230  0.26955224  0.39904461  1
  Fe  Fe4  1  0.00000000  0.00000000  0.00000000  1
  Fe  Fe5  1  0.50000000  0.50000000  0.50000000  1
  F  F6  1  0.25892614  0.82063507  0.90618025  1
  F  F7  1  0.13368817  0.75677732  0.29301162  1
  F  F8  1  0.24107386  0.32063507  0.59381975  1
  F  F9  1  0.36631183  0.25677732  0.20698838  1
  F  F10  1  0.63368817  0.74322268  0.79301162  1
  F  F11  1  0.75892614  0.67936493  0.40618025  1
  F  F12  1  0.86631183  0.24322268  0.70698838  1
  F  F13  1  0.74107386  0.17936493  0.09381975  1
