# generated using pymatgen
data_Mn6O5F7
_symmetry_space_group_name_H-M   'P 1'
_cell_length_a   4.70650263
_cell_length_b   5.73417757
_cell_length_c   15.59472061
_cell_angle_alpha   90.00000000
_cell_angle_beta   88.80810654
_cell_angle_gamma   90.00000000
_symmetry_Int_Tables_number   1
_chemical_formula_structural   Mn6O5F7
_chemical_formula_sum   'Mn12 O10 F14'
_cell_volume   420.77803963
_cell_formula_units_Z   2
loop_
 _symmetry_equiv_pos_site_id
 _symmetry_equiv_pos_as_xyz
  1  'x, y, z'
loop_
 _atom_site_type_symbol
 _atom_site_label
 _atom_site_symmetry_multiplicity
 _atom_site_fract_x
 _atom_site_fract_y
 _atom_site_fract_z
 _atom_site_occupancy
  Mn  Mn0  1  0.05634879  0.16010965  0.41369098  1
  Mn  Mn1  1  0.99247822  0.84290056  0.24523252  1
  Mn  Mn2  1  0.02267276  0.13776845  0.07891582  1
  Mn  Mn3  1  0.99247822  0.15709944  0.74523252  1
  Mn  Mn4  1  0.02267276  0.86223155  0.57891582  1
  Mn  Mn5  1  0.05634879  0.83989035  0.91369098  1
  Mn  Mn6  1  0.49246389  0.33426231  0.58820274  1
  Mn  Mn7  1  0.48597321  0.34735794  0.92474254  1
  Mn  Mn8  1  0.49508060  0.34856275  0.25105773  1
  Mn  Mn9  1  0.49246389  0.66573769  0.08820274  1
  Mn  Mn10  1  0.48597321  0.65264206  0.42474254  1
  Mn  Mn11  1  0.49508060  0.65143725  0.75105773  1
  O  O12  1  0.22557034  0.10922443  0.30192090  1
  O  O13  1  0.21332013  0.11074930  0.63661209  1
  O  O14  1  0.23271606  0.10903186  0.97224703  1
  O  O15  1  0.21332013  0.88925070  0.13661209  1
  O  O16  1  0.23271606  0.89096814  0.47224703  1
  O  O17  1  0.22557034  0.89077557  0.80192090  1
  O  O18  1  0.29638115  0.39080089  0.47995210  1
  O  O19  1  0.29638115  0.60919911  0.97995210  1
  O  O20  1  0.70200584  0.62315129  0.19552120  1
  O  O21  1  0.70200584  0.37684871  0.69552120  1
  F  F22  1  0.25264108  0.38915338  0.14305628  1
  F  F23  1  0.24888815  0.59989798  0.31189908  1
  F  F24  1  0.25264108  0.61084662  0.64305628  1
  F  F25  1  0.24888815  0.40010202  0.81189908  1
  F  F26  1  0.75071237  0.37687951  0.03426772  1
  F  F27  1  0.74500374  0.38952225  0.36365121  1
  F  F28  1  0.75071237  0.62312049  0.53426772  1
  F  F29  1  0.74500374  0.61047775  0.86365121  1
  F  F30  1  0.75566817  0.12346359  0.18322362  1
  F  F31  1  0.77558709  0.12993778  0.51671828  1
  F  F32  1  0.75648740  0.87705223  0.35908918  1
  F  F33  1  0.77558709  0.87006222  0.01671828  1
  F  F34  1  0.75648740  0.12294777  0.85908918  1
  F  F35  1  0.75566817  0.87653641  0.68322362  1
