# generated using pymatgen
data_Na5Bi2P(CO4)4
_symmetry_space_group_name_H-M   'P 1'
_cell_length_a   10.42886712
_cell_length_b   10.45678589
_cell_length_c   10.42886712
_cell_angle_alpha   59.17936105
_cell_angle_beta   91.57283433
_cell_angle_gamma   120.82063895
_symmetry_Int_Tables_number   1
_chemical_formula_structural   Na5Bi2P(CO4)4
_chemical_formula_sum   'Na10 Bi4 P2 C8 O32'
_cell_volume   795.00567261
_cell_formula_units_Z   2
loop_
 _symmetry_equiv_pos_site_id
 _symmetry_equiv_pos_as_xyz
  1  'x, y, z'
loop_
 _atom_site_type_symbol
 _atom_site_label
 _atom_site_symmetry_multiplicity
 _atom_site_fract_x
 _atom_site_fract_y
 _atom_site_fract_z
 _atom_site_occupancy
  Na  Na0  1  0.69100279  0.36587229  0.06923802  1
  Na  Na1  1  0.92868945  0.23954965  0.93576453  1
  Na  Na2  1  0.93076198  0.86587229  0.30899721  1
  Na  Na3  1  0.32468582  0.26045035  0.31086020  1
  Na  Na4  1  0.06423547  0.73954965  0.07131055  1
  Na  Na5  1  0.06488869  0.13412771  0.67487050  1
  Na  Na6  1  0.68913980  0.76045035  0.67531418  1
  Na  Na7  1  0.31790737  0.25000000  0.93209263  1
  Na  Na8  1  0.32512950  0.63412771  0.93511131  1
  Na  Na9  1  0.06790737  0.75000000  0.68209263  1
  Bi  Bi10  1  0.50140299  0.99272049  0.00364703  1
  Bi  Bi11  1  0.50868250  0.00727951  0.49636751  1
  Bi  Bi12  1  0.50363249  0.50727951  0.49131750  1
  Bi  Bi13  1  0.99635297  0.49272049  0.49859701  1
  P  P14  1  0.12832116  0.25000000  0.12167884  1
  P  P15  1  0.87832116  0.75000000  0.87167884  1
  C  C16  1  0.72059642  0.05478524  0.72776716  1
  C  C17  1  0.71744760  0.44521476  0.33418882  1
  C  C18  1  0.72322123  0.44361390  0.72227064  1
  C  C19  1  0.33411445  0.05638610  0.72039267  1
  C  C20  1  0.66581118  0.94521476  0.28255240  1
  C  C21  1  0.27223284  0.55478524  0.27940358  1
  C  C22  1  0.27772936  0.94361390  0.27677877  1
  C  C23  1  0.27960733  0.55638610  0.66588455  1
  O  O24  1  0.66902106  0.06944978  0.15162850  1
  O  O25  1  0.85179245  0.17645348  0.61172559  1
  O  O26  1  0.71182092  0.32354652  0.32466103  1
  O  O27  1  0.39847285  0.06564356  0.28746341  1
  O  O28  1  0.84837150  0.56944978  0.33097894  1
  O  O29  1  0.31405958  0.37283882  0.06004717  1
  O  O30  1  0.06711401  0.12716118  0.05877924  1
  O  O31  1  0.71173559  0.06016550  0.84874512  1
  O  O32  1  0.59108938  0.43983450  0.34842891  1
  O  O33  1  0.33178098  0.04384624  0.60273932  1
  O  O34  1  0.85341444  0.45615376  0.71206525  1
  O  O35  1  0.07247311  0.37679419  0.05112994  1
  O  O36  1  0.07207587  0.12320581  0.30432108  1
  O  O37  1  0.67533897  0.82354652  0.28817908  1
  O  O38  1  0.38827441  0.67645348  0.14820755  1
  O  O39  1  0.71253659  0.56564356  0.60152715  1
  O  O40  1  0.27892272  0.43055022  0.40042871  1
  O  O41  1  0.33616839  0.18750532  0.70846553  1
  O  O42  1  0.60402815  0.31249468  0.85133793  1
  O  O43  1  0.93995283  0.87283882  0.68594042  1
  O  O44  1  0.94122076  0.62716118  0.93288599  1
  O  O45  1  0.15125488  0.56016550  0.28826441  1
  O  O46  1  0.65157109  0.93983450  0.40891062  1
  O  O47  1  0.28793475  0.95615376  0.14658556  1
  O  O48  1  0.39726068  0.54384624  0.66821902  1
  O  O49  1  0.94887006  0.87679419  0.92752689  1
  O  O50  1  0.69567892  0.62320581  0.92792413  1
  O  O51  1  0.14689403  0.43435744  0.66717071  1
  O  O52  1  0.59957129  0.93055022  0.72107728  1
  O  O53  1  0.29153447  0.68750532  0.66383261  1
  O  O54  1  0.14866207  0.81249468  0.39597185  1
  O  O55  1  0.33282929  0.93435644  0.85310597  1
