# generated using pymatgen
data_BaYF5
_symmetry_space_group_name_H-M   'P 1'
_cell_length_a   7.44469806
_cell_length_b   8.66691520
_cell_length_c   11.37676387
_cell_angle_alpha   78.54620115
_cell_angle_beta   87.10929192
_cell_angle_gamma   75.68848786
_symmetry_Int_Tables_number   1
_chemical_formula_structural   BaYF5
_chemical_formula_sum   'Ba6 Y6 F30'
_cell_volume   697.11163199
_cell_formula_units_Z   6
loop_
 _symmetry_equiv_pos_site_id
 _symmetry_equiv_pos_as_xyz
  1  'x, y, z'
loop_
 _atom_site_type_symbol
 _atom_site_label
 _atom_site_symmetry_multiplicity
 _atom_site_fract_x
 _atom_site_fract_y
 _atom_site_fract_z
 _atom_site_occupancy
  Ba  Ba0  1  0.26840517  0.38025415  0.92747153  1
  Ba  Ba1  1  0.25815279  0.71952852  0.59743131  1
  Ba  Ba2  1  0.34375735  0.03622213  0.26475968  1
  Ba  Ba3  1  0.65624265  0.96377787  0.73524032  1
  Ba  Ba4  1  0.74184721  0.28047148  0.40256869  1
  Ba  Ba5  1  0.73159483  0.61974585  0.07252847  1
  Y  Y6  1  0.20585143  0.27796478  0.56816591  1
  Y  Y7  1  0.21739076  0.54876741  0.25858178  1
  Y  Y8  1  0.79505500  0.16730544  0.01334433  1
  Y  Y9  1  0.20494500  0.83269456  0.98665567  1
  Y  Y10  1  0.78260924  0.45123259  0.74141822  1
  Y  Y11  1  0.79414857  0.72203522  0.43183409  1
  F  F12  1  0.13481323  0.12453662  0.44619225  1
  F  F13  1  0.09098597  0.41037201  0.14906038  1
  F  F14  1  0.51637751  0.13253405  0.05809421  1
  F  F15  1  0.42353429  0.31277646  0.27785099  1
  F  F16  1  0.98720940  0.26677783  0.87510841  1
  F  F17  1  0.99014976  0.54363750  0.60635574  1
  F  F18  1  0.10014643  0.05591923  0.07164845  1
  F  F19  1  0.08169272  0.74906902  0.36557216  1
  F  F20  1  0.28177168  0.05666263  0.71106524  1
  F  F21  1  0.33570470  0.47760146  0.44965008  1
  F  F22  1  0.34779627  0.77085411  0.17828168  1
  F  F23  1  0.31677828  0.39456261  0.70031728  1
  F  F24  1  0.65087859  0.43027217  0.93959940  1
  F  F25  1  0.78182535  0.28865481  0.16485313  1
  F  F26  1  0.50522261  0.15927793  0.53981450  1
  F  F27  1  0.49477739  0.84072207  0.46018550  1
  F  F28  1  0.21817465  0.71134519  0.83514687  1
  F  F29  1  0.34912141  0.56972783  0.06040060  1
  F  F30  1  0.68322172  0.60543739  0.29968272  1
  F  F31  1  0.65220373  0.22914589  0.82171832  1
  F  F32  1  0.66429530  0.52239854  0.55034992  1
  F  F33  1  0.71822832  0.94333737  0.28893476  1
  F  F34  1  0.91830728  0.25093098  0.63442784  1
  F  F35  1  0.89985357  0.94408077  0.92835155  1
  F  F36  1  0.00985024  0.45636250  0.39364426  1
  F  F37  1  0.01279060  0.73322217  0.12489159  1
  F  F38  1  0.57646571  0.68722354  0.72214901  1
  F  F39  1  0.48362249  0.86746595  0.94190579  1
  F  F40  1  0.90901403  0.58962799  0.85093962  1
  F  F41  1  0.86518677  0.87546338  0.55380775  1
