# generated using pymatgen
data_MnH6(S2O9)2
_symmetry_space_group_name_H-M   'P 1'
_cell_length_a   7.40598258
_cell_length_b   20.77426696
_cell_length_c   10.22492636
_cell_angle_alpha   90.00000000
_cell_angle_beta   90.00000000
_cell_angle_gamma   90.00000000
_symmetry_Int_Tables_number   1
_chemical_formula_structural   MnH6(S2O9)2
_chemical_formula_sum   'Mn4 H24 S16 O72'
_cell_volume   1573.14438071
_cell_formula_units_Z   4
loop_
 _symmetry_equiv_pos_site_id
 _symmetry_equiv_pos_as_xyz
  1  'x, y, z'
loop_
 _atom_site_type_symbol
 _atom_site_label
 _atom_site_symmetry_multiplicity
 _atom_site_fract_x
 _atom_site_fract_y
 _atom_site_fract_z
 _atom_site_occupancy
  Mn  Mn0  1  0.25000000  0.25000000  0.15565258  1
  Mn  Mn1  1  0.25000000  0.25000000  0.65565258  1
  Mn  Mn2  1  0.75000000  0.75000000  0.34434742  1
  Mn  Mn3  1  0.75000000  0.75000000  0.84434742  1
  H  H4  1  0.04812050  0.77318583  0.43641240  1
  H  H5  1  0.04812050  0.72681417  0.93641240  1
  H  H6  1  0.06787894  0.71028904  0.34494948  1
  H  H7  1  0.06787894  0.78971096  0.84494948  1
  H  H8  1  0.09693272  0.56772267  0.06032539  1
  H  H9  1  0.09693272  0.93227733  0.56032539  1
  H  H10  1  0.40306728  0.56772267  0.56032539  1
  H  H11  1  0.40306728  0.93227733  0.06032539  1
  H  H12  1  0.43212106  0.71028904  0.84494948  1
  H  H13  1  0.43212106  0.78971096  0.34494948  1
  H  H14  1  0.45187950  0.72681417  0.43641240  1
  H  H15  1  0.45187950  0.77318583  0.93641240  1
  H  H16  1  0.54812050  0.22681417  0.06358760  1
  H  H17  1  0.54812050  0.27318583  0.56358760  1
  H  H18  1  0.56787894  0.21028904  0.65505052  1
  H  H19  1  0.56787894  0.28971096  0.15505052  1
  H  H20  1  0.59693272  0.06772267  0.93967461  1
  H  H21  1  0.59693272  0.43227733  0.43967461  1
  H  H22  1  0.90306728  0.06772267  0.43967461  1
  H  H23  1  0.90306728  0.43227733  0.93967461  1
  H  H24  1  0.93212106  0.28971096  0.65505052  1
  H  H25  1  0.93212106  0.21028904  0.15505052  1
  H  H26  1  0.95187950  0.22681417  0.56358760  1
  H  H27  1  0.95187950  0.27318583  0.06358760  1
  S  S28  1  0.13289234  0.16538745  0.40826542  1
  S  S29  1  0.13289234  0.33461255  0.90826542  1
  S  S30  1  0.23727625  0.57126481  0.38854008  1
  S  S31  1  0.23727625  0.92873519  0.88854008  1
  S  S32  1  0.26272375  0.92873519  0.38854008  1
  S  S33  1  0.26272375  0.57126481  0.88854008  1
  S  S34  1  0.36710766  0.16538745  0.90826542  1
  S  S35  1  0.36710766  0.33461255  0.40826542  1
  S  S36  1  0.63289234  0.66538745  0.59173458  1
  S  S37  1  0.63289234  0.83461255  0.09173458  1
  S  S38  1  0.73727625  0.07126481  0.61145992  1
  S  S39  1  0.73727625  0.42873519  0.11145992  1
  S  S40  1  0.76272375  0.07126481  0.11145992  1
  S  S41  1  0.76272375  0.42873519  0.61145992  1
  S  S42  1  0.86710766  0.66538745  0.09173458  1
  S  S43  1  0.86710766  0.83461255  0.59173458  1
  O  O44  1  0.03584869  0.70175818  0.08176733  1
  O  O45  1  0.03584869  0.79824182  0.58176733  1
  O  O46  1  0.01617821  0.75449981  0.34680762  1
  O  O47  1  0.01617821  0.74550019  0.84680762  1
  O  O48  1  0.09323034  0.57641210  0.81506556  1
  O  O49  1  0.09323034  0.92358790  0.31506556  1
  O  O50  1  0.11059081  0.09582177  0.40770132  1
  O  O51  1  0.11059081  0.40417823  0.90770132  1
  O  O52  1  0.11682098  0.52179557  0.33752204  1
  O  O53  1  0.11682098  0.97820443  0.83752204  1
  O  O54  1  0.14675515  0.63444779  0.38916753  1
  O  O55  1  0.14675515  0.86555221  0.88916753  1
  O  O56  1  0.22048747  0.55218474  0.03300065  1
  O  O57  1  0.22048747  0.94781526  0.53300065  1
  O  O58  1  0.23697625  0.31828901  0.78467940  1
  O  O59  1  0.23697625  0.18171099  0.28467940  1
  O  O60  1  0.25764740  0.31754381  0.02262193  1
  O  O61  1  0.25764740  0.18245619  0.52262193  1
  O  O62  1  0.24235260  0.18245619  0.02262193  1
  O  O63  1  0.24235260  0.31754381  0.52262193  1
  O  O64  1  0.26302375  0.18171099  0.78467940  1
  O  O65  1  0.26302375  0.31828901  0.28467940  1
  O  O66  1  0.27951253  0.55218474  0.53300065  1
  O  O67  1  0.27951253  0.94781526  0.03300065  1
  O  O68  1  0.35324485  0.86555221  0.38916753  1
  O  O69  1  0.35324485  0.63444779  0.88916753  1
  O  O70  1  0.38317902  0.52179557  0.83752204  1
  O  O71  1  0.38317902  0.97820443  0.33752204  1
  O  O72  1  0.38940919  0.09582177  0.90770132  1
  O  O73  1  0.38940919  0.40417823  0.40770132  1
  O  O74  1  0.40676966  0.57641210  0.31506556  1
  O  O75  1  0.40676966  0.92358790  0.81506556  1
  O  O76  1  0.48382179  0.74550019  0.34680762  1
  O  O77  1  0.48382179  0.75449981  0.84680762  1
  O  O78  1  0.46415131  0.79824182  0.08176733  1
  O  O79  1  0.46415131  0.70175818  0.58176733  1
  O  O80  1  0.53584869  0.20175818  0.91823267  1
  O  O81  1  0.53584869  0.29824182  0.41823267  1
  O  O82  1  0.51617821  0.25449981  0.65319238  1
  O  O83  1  0.51617821  0.24550019  0.15319238  1
  O  O84  1  0.59323034  0.07641210  0.18493444  1
  O  O85  1  0.59323034  0.42358790  0.68493444  1
  O  O86  1  0.61059081  0.59582177  0.59229868  1
  O  O87  1  0.61059081  0.90417823  0.09229868  1
  O  O88  1  0.61682098  0.02179557  0.66247796  1
  O  O89  1  0.61682098  0.47820443  0.16247796  1
  O  O90  1  0.64675515  0.13444779  0.61083247  1
  O  O91  1  0.64675515  0.36555221  0.11083247  1
  O  O92  1  0.72048747  0.05218474  0.96699935  1
  O  O93  1  0.72048747  0.44781526  0.46699935  1
  O  O94  1  0.73697625  0.81828901  0.21532060  1
  O  O95  1  0.73697625  0.68171099  0.71532060  1
  O  O96  1  0.75764740  0.68245619  0.47737807  1
  O  O97  1  0.75764740  0.81754381  0.97737807  1
  O  O98  1  0.74235260  0.81754381  0.47737807  1
  O  O99  1  0.74235260  0.68245619  0.97737807  1
  O  O100  1  0.76302375  0.68171099  0.21532060  1
  O  O101  1  0.76302375  0.81828901  0.71532060  1
  O  O102  1  0.77951253  0.05218474  0.46699935  1
  O  O103  1  0.77951253  0.44781526  0.96699935  1
  O  O104  1  0.85324485  0.13444779  0.11083247  1
  O  O105  1  0.85324485  0.36555221  0.61083247  1
  O  O106  1  0.88317902  0.47820443  0.66247796  1
  O  O107  1  0.88317902  0.02179557  0.16247796  1
  O  O108  1  0.88940919  0.59582177  0.09229868  1
  O  O109  1  0.88940919  0.90417823  0.59229868  1
  O  O110  1  0.90676966  0.07641210  0.68493444  1
  O  O111  1  0.90676966  0.42358790  0.18493444  1
  O  O112  1  0.98382179  0.24550019  0.65319238  1
  O  O113  1  0.98382179  0.25449981  0.15319238  1
  O  O114  1  0.96415131  0.20175818  0.41823267  1
  O  O115  1  0.96415131  0.29824182  0.91823267  1
