# generated using pymatgen
data_LiMnF3
_symmetry_space_group_name_H-M   'P 1'
_cell_length_a   6.57832757
_cell_length_b   9.34508837
_cell_length_c   6.76339221
_cell_angle_alpha   83.19125961
_cell_angle_beta   81.08257234
_cell_angle_gamma   65.53204551
_symmetry_Int_Tables_number   1
_chemical_formula_structural   LiMnF3
_chemical_formula_sum   'Li6 Mn6 F18'
_cell_volume   373.18205833
_cell_formula_units_Z   6
loop_
 _symmetry_equiv_pos_site_id
 _symmetry_equiv_pos_as_xyz
  1  'x, y, z'
loop_
 _atom_site_type_symbol
 _atom_site_label
 _atom_site_symmetry_multiplicity
 _atom_site_fract_x
 _atom_site_fract_y
 _atom_site_fract_z
 _atom_site_occupancy
  Li  Li0  1  0.38985343  0.26236056  0.43902372  1
  Li  Li1  1  0.79611196  0.98213778  0.30378034  1
  Li  Li2  1  0.27685988  0.69993534  0.89760229  1
  Li  Li3  1  0.72314012  0.30006466  0.10239771  1
  Li  Li4  1  0.20388804  0.01786222  0.69621966  1
  Li  Li5  1  0.61014657  0.73763944  0.56097628  1
  Mn  Mn6  1  0.19471423  0.59350373  0.36188415  1
  Mn  Mn7  1  0.24423428  0.33520025  0.92725024  1
  Mn  Mn8  1  0.27432146  0.99829598  0.20043619  1
  Mn  Mn9  1  0.72567854  0.00170402  0.79956381  1
  Mn  Mn10  1  0.75576572  0.66479975  0.07274976  1
  Mn  Mn11  1  0.80528577  0.40649627  0.63811585  1
  F  F12  1  0.98262438  0.18622913  0.58504112  1
  F  F13  1  0.27034590  0.23393530  0.22112014  1
  F  F14  1  0.13375462  0.57057512  0.04774419  1
  F  F15  1  0.16941784  0.41623743  0.61873069  1
  F  F16  1  0.33271587  0.08745202  0.88088099  1
  F  F17  1  0.61836806  0.09044558  0.52537300  1
  F  F18  1  0.06186844  0.89441043  0.83559010  1
  F  F19  1  0.40110707  0.73823955  0.11974372  1
  F  F20  1  0.50692003  0.41460922  0.30964680  1
  F  F21  1  0.49307997  0.58539078  0.69035320  1
  F  F22  1  0.59889293  0.26176045  0.88025628  1
  F  F23  1  0.93813156  0.10558957  0.16440990  1
  F  F24  1  0.38163194  0.90955442  0.47462700  1
  F  F25  1  0.66728413  0.91254798  0.11911901  1
  F  F26  1  0.83058216  0.58376257  0.38126931  1
  F  F27  1  0.86624538  0.42942488  0.95225581  1
  F  F28  1  0.72965410  0.76606470  0.77887986  1
  F  F29  1  0.01737562  0.81377087  0.41495888  1
