# generated using pymatgen
data_Li2Fe(BO3)2
_symmetry_space_group_name_H-M   'P 1'
_cell_length_a   3.06169326
_cell_length_b   14.81940229
_cell_length_c   9.15564371
_cell_angle_alpha   90.00000000
_cell_angle_beta   92.59500649
_cell_angle_gamma   90.00000000
_symmetry_Int_Tables_number   1
_chemical_formula_structural   Li2Fe(BO3)2
_chemical_formula_sum   'Li8 Fe4 B8 O24'
_cell_volume   414.98811690
_cell_formula_units_Z   4
loop_
 _symmetry_equiv_pos_site_id
 _symmetry_equiv_pos_as_xyz
  1  'x, y, z'
loop_
 _atom_site_type_symbol
 _atom_site_label
 _atom_site_symmetry_multiplicity
 _atom_site_fract_x
 _atom_site_fract_y
 _atom_site_fract_z
 _atom_site_occupancy
  Li  Li0  1  0.28619612  0.95614331  0.88194816  1
  Li  Li1  1  0.29285934  0.74528111  0.89222491  1
  Li  Li2  1  0.28619612  0.54385669  0.38194816  1
  Li  Li3  1  0.29285934  0.75471889  0.39222491  1
  Li  Li4  1  0.70714066  0.24528111  0.60777509  1
  Li  Li5  1  0.71380388  0.45614331  0.61805184  1
  Li  Li6  1  0.70714066  0.25471889  0.10777509  1
  Li  Li7  1  0.71380388  0.04385669  0.11805184  1
  Fe  Fe8  1  0.18889870  0.36846986  0.87272955  1
  Fe  Fe9  1  0.18889870  0.13153014  0.37272955  1
  Fe  Fe10  1  0.81110130  0.86846986  0.62727045  1
  Fe  Fe11  1  0.81110130  0.63153014  0.12727045  1
  B  B12  1  0.15619089  0.57593471  0.83536636  1
  B  B13  1  0.13423030  0.15734326  0.89592576  1
  B  B14  1  0.15619089  0.92406529  0.33536636  1
  B  B15  1  0.13423030  0.34265674  0.39592576  1
  B  B16  1  0.86576970  0.65734326  0.60407424  1
  B  B17  1  0.84380911  0.07593471  0.66463364  1
  B  B18  1  0.86576970  0.84265674  0.10407424  1
  B  B19  1  0.84380911  0.42406529  0.16463364  1
  O  O20  1  0.98339805  0.15194076  0.74904014  1
  O  O21  1  0.16956694  0.49299629  0.77818507  1
  O  O22  1  0.98339805  0.34805924  0.24904014  1
  O  O23  1  0.16956694  0.00700371  0.27818507  1
  O  O24  1  0.19254023  0.24098899  0.96112519  1
  O  O25  1  0.27529292  0.60026778  0.97892066  1
  O  O26  1  0.19254023  0.25901101  0.46112519  1
  O  O27  1  0.22634515  0.08439705  0.97924587  1
  O  O28  1  0.32449456  0.84054121  0.74748647  1
  O  O29  1  0.27529292  0.89973222  0.47892066  1
  O  O30  1  0.22634515  0.41560295  0.47924587  1
  O  O31  1  0.32449456  0.65945879  0.24748647  1
  O  O32  1  0.67550544  0.34054121  0.75251353  1
  O  O33  1  0.77365485  0.58439705  0.52075413  1
  O  O34  1  0.72470708  0.10026778  0.52107934  1
  O  O35  1  0.67550544  0.15945879  0.25251353  1
  O  O36  1  0.77365485  0.91560295  0.02075413  1
  O  O37  1  0.80745977  0.74098899  0.53887481  1
  O  O38  1  0.72470708  0.39973222  0.02107934  1
  O  O39  1  0.80745977  0.75901101  0.03887481  1
  O  O40  1  0.83043306  0.99299629  0.72181493  1
  O  O41  1  0.01660195  0.65194076  0.75095986  1
  O  O42  1  0.83043306  0.50700371  0.22181493  1
  O  O43  1  0.01660195  0.84805924  0.25095986  1
