# generated using pymatgen
data_LiFe4(BO3)4
_symmetry_space_group_name_H-M   'P 1'
_cell_length_a   5.31995206
_cell_length_b   9.04984677
_cell_length_c   10.09316463
_cell_angle_alpha   90.00000107
_cell_angle_beta   90.52663432
_cell_angle_gamma   89.99999869
_symmetry_Int_Tables_number   1
_chemical_formula_structural   LiFe4(BO3)4
_chemical_formula_sum   'Li2 Fe8 B8 O24'
_cell_volume   485.91237150
_cell_formula_units_Z   2
loop_
 _symmetry_equiv_pos_site_id
 _symmetry_equiv_pos_as_xyz
  1  'x, y, z'
loop_
 _atom_site_type_symbol
 _atom_site_label
 _atom_site_symmetry_multiplicity
 _atom_site_fract_x
 _atom_site_fract_y
 _atom_site_fract_z
 _atom_site_occupancy
  Li  Li0  1  0.35135994  0.00413143  0.84614472  1
  Li  Li1  1  0.85135994  0.49586857  0.34614472  1
  Fe  Fe2  1  0.16075463  0.16455259  0.12162361  1
  Fe  Fe3  1  0.83666359  0.15667610  0.37061570  1
  Fe  Fe4  1  0.33666359  0.34332390  0.87061570  1
  Fe  Fe5  1  0.66075463  0.33544741  0.62162361  1
  Fe  Fe6  1  0.34224264  0.66773012  0.37498079  1
  Fe  Fe7  1  0.15434886  0.82945212  0.62257258  1
  Fe  Fe8  1  0.65434886  0.67054788  0.12257258  1
  Fe  Fe9  1  0.84224264  0.83226988  0.87498079  1
  B  B10  1  0.16077523  0.17073982  0.62742149  1
  B  B11  1  0.32419332  0.32703559  0.36982470  1
  B  B12  1  0.82419332  0.17296441  0.86982470  1
  B  B13  1  0.66077523  0.32926018  0.12742149  1
  B  B14  1  0.33675728  0.66986167  0.87334987  1
  B  B15  1  0.66612569  0.66784179  0.62032783  1
  B  B16  1  0.16612569  0.83215821  0.12032783  1
  B  B17  1  0.83675728  0.83013833  0.37334987  1
  O  O18  1  0.24432462  0.03248105  0.65276531  1
  O  O19  1  0.07873943  0.18886564  0.91451137  1
  O  O20  1  0.70592839  0.04266967  0.87124602  1
  O  O21  1  0.20088097  0.19785664  0.32305587  1
  O  O22  1  0.30393308  0.29315167  0.66822373  1
  O  O23  1  0.80393308  0.20684833  0.16822373  1
  O  O24  1  0.92715355  0.19682327  0.56608028  1
  O  O25  1  0.42715355  0.30317673  0.06608028  1
  O  O26  1  0.20592839  0.45733033  0.37124602  1
  O  O27  1  0.57873943  0.31113436  0.41451137  1
  O  O28  1  0.70088097  0.30214336  0.82305587  1
  O  O29  1  0.22021296  0.53592399  0.86439622  1
  O  O30  1  0.74432462  0.46751895  0.15276531  1
  O  O31  1  0.30829744  0.71594198  0.16894595  1
  O  O32  1  0.42100842  0.69239081  0.57987888  1
  O  O33  1  0.76701991  0.52922483  0.60631727  1
  O  O34  1  0.57307480  0.68143299  0.93000824  1
  O  O35  1  0.07307480  0.81856701  0.43000824  1
  O  O36  1  0.22437228  0.79984226  0.82554857  1
  O  O37  1  0.72437228  0.70015774  0.32554857  1
  O  O38  1  0.80829744  0.78405802  0.66894595  1
  O  O39  1  0.26701991  0.97077517  0.10631727  1
  O  O40  1  0.92100842  0.80760919  0.07987888  1
  O  O41  1  0.72021296  0.96407601  0.36439622  1
