# generated using pymatgen
data_LiFeP2H5O9
_symmetry_space_group_name_H-M   'P 1'
_cell_length_a   7.63334675
_cell_length_b   7.55861015
_cell_length_c   8.01196169
_cell_angle_alpha   65.10436701
_cell_angle_beta   82.36331929
_cell_angle_gamma   68.75314923
_symmetry_Int_Tables_number   1
_chemical_formula_structural   LiFeP2H5O9
_chemical_formula_sum   'Li2 Fe2 P4 H10 O18'
_cell_volume   390.70674119
_cell_formula_units_Z   2
loop_
 _symmetry_equiv_pos_site_id
 _symmetry_equiv_pos_as_xyz
  1  'x, y, z'
loop_
 _atom_site_type_symbol
 _atom_site_label
 _atom_site_symmetry_multiplicity
 _atom_site_fract_x
 _atom_site_fract_y
 _atom_site_fract_z
 _atom_site_occupancy
  Li  Li0  1  0.16611830  0.78331711  0.24077850  1
  Li  Li1  1  0.83388170  0.21668289  0.75922150  1
  Fe  Fe2  1  0.26020686  0.22681066  0.03550285  1
  Fe  Fe3  1  0.73979314  0.77318934  0.96449715  1
  P  P4  1  0.08159948  0.68583661  0.72476722  1
  P  P5  1  0.36669817  0.04109191  0.74229521  1
  P  P6  1  0.63330183  0.95890809  0.25770479  1
  P  P7  1  0.91840052  0.31416339  0.27523278  1
  H  H8  1  0.13930567  0.29209975  0.43156173  1
  H  H9  1  0.20564383  0.91936154  0.54506955  1
  H  H10  1  0.42132610  0.36290856  0.27148438  1
  H  H11  1  0.45181219  0.30839744  0.54545285  1
  H  H12  1  0.52654714  0.50323338  0.27106480  1
  H  H13  1  0.47345286  0.49676662  0.72893520  1
  H  H14  1  0.54818781  0.69160256  0.45454715  1
  H  H15  1  0.57867390  0.63709144  0.72851562  1
  H  H16  1  0.79435617  0.08063846  0.45493045  1
  H  H17  1  0.86069433  0.70790025  0.56843827  1
  O  O18  1  0.04066642  0.16234838  0.19184353  1
  O  O19  1  0.04189454  0.41121516  0.33217669  1
  O  O20  1  0.25868731  0.08076275  0.57438008  1
  O  O21  1  0.23521935  0.06348622  0.90161787  1
  O  O22  1  0.24249552  0.50921138  0.84991883  1
  O  O23  1  0.16628159  0.80537371  0.53665940  1
  O  O24  1  0.47470811  0.17211898  0.18972672  1
  O  O25  1  0.40955074  0.47132684  0.31746296  1
  O  O26  1  0.46784787  0.21242460  0.68073488  1
  O  O27  1  0.53215213  0.78757540  0.31926512  1
  O  O28  1  0.59044926  0.52867316  0.68253704  1
  O  O29  1  0.52529189  0.82788102  0.81027328  1
  O  O30  1  0.83371841  0.19462629  0.46333960  1
  O  O31  1  0.75750448  0.49078862  0.15008117  1
  O  O32  1  0.76478065  0.93651378  0.09838213  1
  O  O33  1  0.74131269  0.91923725  0.42561992  1
  O  O34  1  0.95810546  0.58878484  0.66782331  1
  O  O35  1  0.95933358  0.83765162  0.80815647  1
