# generated using pymatgen
data_Ni3OF5
_symmetry_space_group_name_H-M   'P 1'
_cell_length_a   7.28441010
_cell_length_b   5.62698274
_cell_length_c   5.62699698
_cell_angle_alpha   73.13766162
_cell_angle_beta   72.78724814
_cell_angle_gamma   72.78751842
_symmetry_Int_Tables_number   1
_chemical_formula_structural   Ni3OF5
_chemical_formula_sum   'Ni6 O2 F10'
_cell_volume   205.20066273
_cell_formula_units_Z   2
loop_
 _symmetry_equiv_pos_site_id
 _symmetry_equiv_pos_as_xyz
  1  'x, y, z'
loop_
 _atom_site_type_symbol
 _atom_site_label
 _atom_site_symmetry_multiplicity
 _atom_site_fract_x
 _atom_site_fract_y
 _atom_site_fract_z
 _atom_site_occupancy
  Ni  Ni0  1  0.83250352  0.66790232  0.66790285  1
  Ni  Ni1  1  0.32982019  0.65775978  0.65775509  1
  Ni  Ni2  1  0.66667021  0.33333220  0.33333120  1
  Ni  Ni3  1  0.16667360  0.33333547  0.33333644  1
  Ni  Ni4  1  0.50081937  0.99876056  0.99875988  1
  Ni  Ni5  1  0.00351512  0.00891313  0.00891685  1
  O  O6  1  0.96224012  0.23694798  0.23694822  1
  O  O7  1  0.37110910  0.42972467  0.42972537  1
  F  F8  1  0.33132071  0.35990138  0.96498418  1
  F  F9  1  0.66666414  0.02951837  0.63714303  1
  F  F10  1  0.63039391  0.56685729  0.56685453  1
  F  F11  1  0.30114773  0.89272249  0.89272544  1
  F  F12  1  0.03218339  0.77393889  0.77393864  1
  F  F13  1  0.70293528  0.09980880  0.09980967  1
  F  F14  1  0.00200944  0.30676485  0.70168192  1
  F  F15  1  0.33132151  0.96498448  0.35990080  1
  F  F16  1  0.66666458  0.63714574  0.02951769  1
  F  F17  1  0.00201107  0.70167959  0.30676719  1
