# generated using pymatgen
data_Na9Cu2O7
_symmetry_space_group_name_H-M   'P 1'
_cell_length_a   9.53569937
_cell_length_b   9.92635497
_cell_length_c   10.21998530
_cell_angle_alpha   90.00000000
_cell_angle_beta   90.00000000
_cell_angle_gamma   90.00000000
_symmetry_Int_Tables_number   1
_chemical_formula_structural   Na9Cu2O7
_chemical_formula_sum   'Na36 Cu8 O28'
_cell_volume   967.37001902
_cell_formula_units_Z   4
loop_
 _symmetry_equiv_pos_site_id
 _symmetry_equiv_pos_as_xyz
  1  'x, y, z'
loop_
 _atom_site_type_symbol
 _atom_site_label
 _atom_site_symmetry_multiplicity
 _atom_site_fract_x
 _atom_site_fract_y
 _atom_site_fract_z
 _atom_site_occupancy
  Na  Na0  1  0.01338950  0.74343932  0.13073449  1
  Na  Na1  1  0.02054148  0.16246746  0.88486870  1
  Na  Na2  1  0.07050226  0.66749894  0.85671311  1
  Na  Na3  1  0.07205381  0.04554740  0.15303551  1
  Na  Na4  1  0.08907217  0.51412994  0.59054150  1
  Na  Na5  1  0.15431711  0.55397473  0.29787580  1
  Na  Na6  1  0.16402228  0.10784799  0.48248453  1
  Na  Na7  1  0.21375217  0.77386240  0.55621335  1
  Na  Na8  1  0.22372759  0.28895420  0.22700381  1
  Na  Na9  1  0.27627241  0.28895420  0.72700381  1
  Na  Na10  1  0.28624783  0.77386240  0.05621335  1
  Na  Na11  1  0.33597772  0.10784799  0.98248453  1
  Na  Na12  1  0.34568289  0.55397473  0.79787580  1
  Na  Na13  1  0.41092783  0.51412994  0.09054150  1
  Na  Na14  1  0.42794619  0.04554740  0.65303551  1
  Na  Na15  1  0.42949774  0.66749894  0.35671311  1
  Na  Na16  1  0.47945852  0.16246746  0.38486870  1
  Na  Na17  1  0.48661050  0.74343932  0.63073449  1
  Na  Na18  1  0.51338950  0.25656068  0.13073449  1
  Na  Na19  1  0.52054148  0.83753254  0.88486870  1
  Na  Na20  1  0.57050226  0.33250106  0.85671311  1
  Na  Na21  1  0.57205381  0.95445260  0.15303551  1
  Na  Na22  1  0.58907217  0.48587006  0.59054150  1
  Na  Na23  1  0.65431711  0.44602527  0.29787580  1
  Na  Na24  1  0.66402228  0.89215201  0.48248453  1
  Na  Na25  1  0.71375217  0.22613760  0.55621335  1
  Na  Na26  1  0.72372759  0.71104580  0.22700381  1
  Na  Na27  1  0.77627241  0.71104580  0.72700381  1
  Na  Na28  1  0.78624783  0.22613760  0.05621335  1
  Na  Na29  1  0.83597772  0.89215201  0.98248453  1
  Na  Na30  1  0.84568289  0.44602527  0.79787580  1
  Na  Na31  1  0.91092783  0.48587006  0.09054150  1
  Na  Na32  1  0.92794619  0.95445260  0.65303551  1
  Na  Na33  1  0.92949774  0.33250106  0.35671311  1
  Na  Na34  1  0.97945852  0.83753254  0.38486870  1
  Na  Na35  1  0.98661050  0.25656068  0.63073449  1
  Cu  Cu36  1  0.15536139  0.39588137  0.97389468  1
  Cu  Cu37  1  0.18952909  0.93299096  0.80598177  1
  Cu  Cu38  1  0.31047091  0.93299096  0.30598177  1
  Cu  Cu39  1  0.34463861  0.39588137  0.47389468  1
  Cu  Cu40  1  0.65536139  0.60411863  0.97389468  1
  Cu  Cu41  1  0.68952909  0.06700904  0.80598177  1
  Cu  Cu42  1  0.81047091  0.06700904  0.30598177  1
  Cu  Cu43  1  0.84463861  0.60411863  0.47389468  1
  O  O44  1  0.03275749  0.27647635  0.08600540  1
  O  O45  1  0.08283481  0.92262100  0.96404068  1
  O  O46  1  0.09479411  0.42604684  0.79730853  1
  O  O47  1  0.15470032  0.33687848  0.44436230  1
  O  O48  1  0.15398432  0.08691846  0.70744004  1
  O  O49  1  0.16296028  0.56661482  0.06178600  1
  O  O50  1  0.19741780  0.78287702  0.29757179  1
  O  O51  1  0.30258220  0.78287702  0.79757179  1
  O  O52  1  0.33703972  0.56661482  0.56178600  1
  O  O53  1  0.34601568  0.08691846  0.20744004  1
  O  O54  1  0.34529968  0.33687848  0.94436230  1
  O  O55  1  0.40520589  0.42604684  0.29730853  1
  O  O56  1  0.41716519  0.92262100  0.46404068  1
  O  O57  1  0.46724251  0.27647635  0.58600540  1
  O  O58  1  0.53275749  0.72352365  0.08600540  1
  O  O59  1  0.58283481  0.07737900  0.96404068  1
  O  O60  1  0.59479411  0.57395316  0.79730853  1
  O  O61  1  0.65470032  0.66312152  0.44436230  1
  O  O62  1  0.65398432  0.91308154  0.70744004  1
  O  O63  1  0.66296028  0.43338518  0.06178600  1
  O  O64  1  0.69741780  0.21712298  0.29757179  1
  O  O65  1  0.80258220  0.21712298  0.79757179  1
  O  O66  1  0.83703972  0.43338518  0.56178600  1
  O  O67  1  0.84601568  0.91308154  0.20744004  1
  O  O68  1  0.84529968  0.66312152  0.94436230  1
  O  O69  1  0.90520589  0.57395316  0.29730853  1
  O  O70  1  0.91716519  0.07737900  0.46404068  1
  O  O71  1  0.96724251  0.72352365  0.58600540  1
