# generated using pymatgen
data_Li9Bi5O13
_symmetry_space_group_name_H-M   'P 1'
_cell_length_a   13.63360666
_cell_length_b   5.28741461
_cell_length_c   22.66149042
_cell_angle_alpha   90.00000000
_cell_angle_beta   70.17591434
_cell_angle_gamma   90.00000000
_symmetry_Int_Tables_number   1
_chemical_formula_structural   Li9Bi5O13
_chemical_formula_sum   'Li36 Bi20 O52'
_cell_volume   1536.77899924
_cell_formula_units_Z   4
loop_
 _symmetry_equiv_pos_site_id
 _symmetry_equiv_pos_as_xyz
  1  'x, y, z'
loop_
 _atom_site_type_symbol
 _atom_site_label
 _atom_site_symmetry_multiplicity
 _atom_site_fract_x
 _atom_site_fract_y
 _atom_site_fract_z
 _atom_site_occupancy
  Li  Li0  1  0.09247658  0.27625181  0.10438431  1
  Li  Li1  1  0.04861278  0.17590250  0.22172744  1
  Li  Li2  1  0.05266725  0.17451537  0.35928824  1
  Li  Li3  1  0.19186894  0.66986212  0.32199318  1
  Li  Li4  1  0.28253265  0.18775467  0.04918913  1
  Li  Li5  1  0.21746735  0.68775467  0.45081087  1
  Li  Li6  1  0.07927169  0.33057562  0.80233829  1
  Li  Li7  1  0.15781992  0.82026114  0.57939794  1
  Li  Li8  1  0.30813106  0.16986212  0.17800682  1
  Li  Li9  1  0.17755819  0.83030621  0.70215842  1
  Li  Li10  1  0.29230429  0.17015623  0.50670770  1
  Li  Li11  1  0.44733275  0.67451537  0.14071176  1
  Li  Li12  1  0.45138722  0.67590250  0.27827256  1
  Li  Li13  1  0.20769571  0.67015623  0.99329230  1
  Li  Li14  1  0.40752342  0.77625181  0.39561569  1
  Li  Li15  1  0.32244181  0.33030621  0.79784158  1
  Li  Li16  1  0.34218008  0.32026114  0.92060206  1
  Li  Li17  1  0.42072831  0.83057562  0.69766171  1
  Li  Li18  1  0.57927169  0.16942438  0.30233829  1
  Li  Li19  1  0.65781992  0.67973886  0.07939794  1
  Li  Li20  1  0.67755819  0.66969379  0.20215842  1
  Li  Li21  1  0.59247658  0.22374819  0.60438431  1
  Li  Li22  1  0.79230429  0.32984377  0.00670770  1
  Li  Li23  1  0.54861278  0.32409750  0.72172744  1
  Li  Li24  1  0.55266725  0.32548463  0.85928824  1
  Li  Li25  1  0.70769571  0.82984377  0.49329230  1
  Li  Li26  1  0.82244181  0.16969379  0.29784158  1
  Li  Li27  1  0.69186894  0.83013788  0.82199318  1
  Li  Li28  1  0.84218008  0.17973886  0.42060206  1
  Li  Li29  1  0.92072831  0.66942438  0.19766171  1
  Li  Li30  1  0.78253265  0.31224533  0.54918913  1
  Li  Li31  1  0.71746735  0.81224533  0.95081087  1
  Li  Li32  1  0.80813106  0.33013788  0.67800682  1
  Li  Li33  1  0.94733275  0.82548463  0.64071176  1
  Li  Li34  1  0.95138722  0.82409750  0.77827256  1
  Li  Li35  1  0.90752342  0.72374819  0.89561569  1
  Bi  Bi36  1  0.05972777  0.24368907  0.52574314  1
  Bi  Bi37  1  0.19923968  0.70196679  0.14797868  1
  Bi  Bi38  1  0.05704800  0.30577051  0.67792926  1
  Bi  Bi39  1  0.08174612  0.25451177  0.95917769  1
  Bi  Bi40  1  0.30076032  0.20196679  0.35202132  1
  Bi  Bi41  1  0.16786163  0.75867745  0.85518247  1
  Bi  Bi42  1  0.33213837  0.25867745  0.64481753  1
  Bi  Bi43  1  0.55972777  0.25631093  0.02574314  1
  Bi  Bi44  1  0.41825388  0.75451177  0.54082231  1
  Bi  Bi45  1  0.55704800  0.19422949  0.17792926  1
  Bi  Bi46  1  0.44295200  0.80577051  0.82207074  1
  Bi  Bi47  1  0.58174612  0.24548823  0.45917769  1
  Bi  Bi48  1  0.44027223  0.74368907  0.97425686  1
  Bi  Bi49  1  0.66786163  0.74132255  0.35518247  1
  Bi  Bi50  1  0.83213837  0.24132255  0.14481753  1
  Bi  Bi51  1  0.69923968  0.79803321  0.64797868  1
  Bi  Bi52  1  0.91825388  0.74548823  0.04082231  1
  Bi  Bi53  1  0.94295200  0.69422949  0.32207074  1
  Bi  Bi54  1  0.80076032  0.29803321  0.85202132  1
  Bi  Bi55  1  0.94027223  0.75631093  0.47425686  1
  O  O56  1  0.04500354  0.78667978  0.23032693  1
  O  O57  1  0.05031488  0.79957747  0.36720272  1
  O  O58  1  0.20036144  0.29111554  0.14355713  1
  O  O59  1  0.07152254  0.83854358  0.52283426  1
  O  O60  1  0.28177043  0.80374399  0.04787422  1
  O  O61  1  0.06836383  0.70261173  0.66877687  1
  O  O62  1  0.18693732  0.29934155  0.31582528  1
  O  O63  1  0.17074898  0.20339209  0.58861921  1
  O  O64  1  0.31306268  0.79934155  0.18417472  1
  O  O65  1  0.03949804  0.69134898  0.82402309  1
  O  O66  1  0.07721028  0.66544317  0.96267460  1
  O  O67  1  0.21822957  0.30374399  0.45212578  1
  O  O68  1  0.29963856  0.79111554  0.35644287  1
  O  O69  1  0.17446187  0.20225265  0.72172443  1
  O  O70  1  0.17880060  0.34874888  0.85763275  1
  O  O71  1  0.44968512  0.29957747  0.13279728  1
  O  O72  1  0.45499646  0.28667978  0.26967307  1
  O  O73  1  0.32073505  0.79665430  0.48829013  1
  O  O74  1  0.17926495  0.29665430  0.01170887  1
  O  O75  1  0.32119940  0.84874888  0.64236725  1
  O  O76  1  0.57152254  0.66145642  0.02283426  1
  O  O77  1  0.32553813  0.70225265  0.77827557  1
  O  O78  1  0.56836383  0.79738827  0.16877687  1
  O  O79  1  0.42278972  0.16544317  0.53732540  1
  O  O80  1  0.46050196  0.19134898  0.67597691  1
  O  O81  1  0.32925102  0.70339209  0.91138079  1
  O  O82  1  0.67074898  0.29660791  0.08861921  1
  O  O83  1  0.53949804  0.80865102  0.32402309  1
  O  O84  1  0.57721028  0.83455683  0.46267460  1
  O  O85  1  0.43163617  0.20261173  0.83122313  1
  O  O86  1  0.67446187  0.29774735  0.22172443  1
  O  O87  1  0.42847746  0.33854358  0.97716574  1
  O  O88  1  0.67880060  0.15125112  0.35763275  1
  O  O89  1  0.82073505  0.70334570  0.98829113  1
  O  O90  1  0.67926495  0.20334570  0.51170887  1
  O  O91  1  0.54500354  0.71332022  0.73032693  1
  O  O92  1  0.55031488  0.70042253  0.86720272  1
  O  O93  1  0.82119940  0.65125112  0.14236725  1
  O  O94  1  0.82553813  0.79774735  0.27827557  1
  O  O95  1  0.70036144  0.20888446  0.64355713  1
  O  O96  1  0.78177043  0.69625601  0.54787422  1
  O  O97  1  0.92278972  0.33455683  0.03732540  1
  O  O98  1  0.96050196  0.30865102  0.17597691  1
  O  O99  1  0.68693732  0.20065845  0.81582528  1
  O  O100  1  0.82925102  0.79660791  0.41138079  1
  O  O101  1  0.81306268  0.70065845  0.68417472  1
  O  O102  1  0.93163617  0.29738827  0.33122313  1
  O  O103  1  0.71822957  0.19625601  0.95212578  1
  O  O104  1  0.92847746  0.16145642  0.47716574  1
  O  O105  1  0.79963856  0.70888446  0.85644287  1
  O  O106  1  0.94968512  0.20042253  0.63279728  1
  O  O107  1  0.95499646  0.21332022  0.76967307  1
