# generated using pymatgen
data_Fe6O7F5
_symmetry_space_group_name_H-M   'P 1'
_cell_length_a   4.71066092
_cell_length_b   7.76846516
_cell_length_c   5.59639651
_cell_angle_alpha   94.10242099
_cell_angle_beta   89.22231896
_cell_angle_gamma   90.56448943
_symmetry_Int_Tables_number   1
_chemical_formula_structural   Fe6O7F5
_chemical_formula_sum   'Fe6 O7 F5'
_cell_volume   204.24626530
_cell_formula_units_Z   1
loop_
 _symmetry_equiv_pos_site_id
 _symmetry_equiv_pos_as_xyz
  1  'x, y, z'
loop_
 _atom_site_type_symbol
 _atom_site_label
 _atom_site_symmetry_multiplicity
 _atom_site_fract_x
 _atom_site_fract_y
 _atom_site_fract_z
 _atom_site_occupancy
  Fe  Fe0  1  0.55745703  0.65142044  0.17972441  1
  Fe  Fe1  1  0.48437148  0.00203319  0.49946493  1
  Fe  Fe2  1  0.51156044  0.34537971  0.81499537  1
  Fe  Fe3  1  0.97525108  0.68494300  0.66028456  1
  Fe  Fe4  1  0.98028810  0.31615608  0.35226249  1
  Fe  Fe5  1  0.99123727  0.98797812  0.00111348  1
  O  O6  1  0.80352972  0.44446119  0.62497633  1
  O  O7  1  0.80192167  0.76668559  0.96566288  1
  O  O8  1  0.80523210  0.09315243  0.29506414  1
  O  O9  1  0.68561539  0.77728502  0.46215814  1
  O  O10  1  0.70294272  0.42228913  0.12453521  1
  O  O11  1  0.30727261  0.23633175  0.54095161  1
  O  O12  1  0.18689872  0.90513361  0.70403370  1
  F  F13  1  0.69654041  0.10621307  0.80120263  1
  F  F14  1  0.30183091  0.56816654  0.87597849  1
  F  F15  1  0.30337353  0.89461644  0.19609646  1
  F  F16  1  0.20282412  0.22876535  0.03678941  1
  F  F17  1  0.20185172  0.56898934  0.36470577  1
