# generated using pymatgen
data_Li5(FeO2)4
_symmetry_space_group_name_H-M   'P 1'
_cell_length_a   6.02493321
_cell_length_b   6.02769722
_cell_length_c   9.89216278
_cell_angle_alpha   90.03112182
_cell_angle_beta   90.14606464
_cell_angle_gamma   119.91468429
_symmetry_Int_Tables_number   1
_chemical_formula_structural   Li5(FeO2)4
_chemical_formula_sum   'Li10 Fe8 O16'
_cell_volume   311.38372426
_cell_formula_units_Z   2
loop_
 _symmetry_equiv_pos_site_id
 _symmetry_equiv_pos_as_xyz
  1  'x, y, z'
loop_
 _atom_site_type_symbol
 _atom_site_label
 _atom_site_symmetry_multiplicity
 _atom_site_fract_x
 _atom_site_fract_y
 _atom_site_fract_z
 _atom_site_occupancy
  Li  Li0  1  0.18932111  0.79315237  0.04281006  1
  Li  Li1  1  0.60584524  0.79852131  0.03966965  1
  Li  Li2  1  0.33799688  0.66749791  0.26044470  1
  Li  Li3  1  0.19555963  0.38801305  0.04332183  1
  Li  Li4  1  0.79311206  0.60091220  0.53827111  1
  Li  Li5  1  0.38487518  0.19307513  0.54370142  1
  Li  Li6  1  0.00000520  0.99921542  0.47312847  1
  Li  Li7  1  0.66481559  0.33267762  0.76023554  1
  Li  Li8  1  0.00168539  0.00189530  0.97332987  1
  Li  Li9  1  0.79224956  0.18642618  0.54347762  1
  Fe  Fe10  1  0.33806024  0.67663998  0.51563256  1
  Fe  Fe11  1  0.67792758  0.33987915  0.01561399  1
  Fe  Fe12  1  0.17092974  0.83238663  0.77282274  1
  Fe  Fe13  1  0.66431422  0.83239365  0.77512065  1
  Fe  Fe14  1  0.17046377  0.34002958  0.77179042  1
  Fe  Fe15  1  0.83388374  0.66471844  0.27496403  1
  Fe  Fe16  1  0.34004295  0.17082660  0.27170550  1
  Fe  Fe17  1  0.83350371  0.17286426  0.27305704  1
  O  O18  1  0.17457978  0.84042404  0.39661022  1
  O  O19  1  0.47940831  0.98191422  0.64820737  1
  O  O20  1  0.31768642  0.65726941  0.89275428  1
  O  O21  1  0.66497042  0.84400151  0.40063497  1
  O  O22  1  0.01786787  0.51052299  0.64925884  1
  O  O23  1  0.48193057  0.50425389  0.64648662  1
  O  O24  1  0.84487931  0.66641115  0.90079747  1
  O  O25  1  0.16628104  0.33228427  0.39317082  1
  O  O26  1  0.50540271  0.48357634  0.14666939  1
  O  O27  1  0.33308104  0.16673055  0.89290257  1
  O  O28  1  0.65702751  0.31750277  0.39285479  1
  O  O29  1  0.00972413  0.01799294  0.16185223  1
  O  O30  1  0.98351704  0.48097133  0.14799789  1
  O  O31  1  0.51121476  0.01996490  0.14931754  1
  O  O32  1  0.84038053  0.17473274  0.89683155  1
  O  O33  1  0.01709579  0.01032716  0.66164624  1
