# generated using pymatgen
data_Li7Cr3Co(PO4)6
_symmetry_space_group_name_H-M   'P 1'
_cell_length_a   8.79420945
_cell_length_b   8.76164729
_cell_length_c   8.66206043
_cell_angle_alpha   59.29453320
_cell_angle_beta   120.72583742
_cell_angle_gamma   119.83936299
_symmetry_Int_Tables_number   1
_chemical_formula_structural   Li7Cr3Co(PO4)6
_chemical_formula_sum   'Li7 Cr3 Co1 P6 O24'
_cell_volume   467.32385831
_cell_formula_units_Z   1
loop_
 _symmetry_equiv_pos_site_id
 _symmetry_equiv_pos_as_xyz
  1  'x, y, z'
loop_
 _atom_site_type_symbol
 _atom_site_label
 _atom_site_symmetry_multiplicity
 _atom_site_fract_x
 _atom_site_fract_y
 _atom_site_fract_z
 _atom_site_occupancy
  Li  Li0  1  0.55382717  0.69743178  0.60507009  1
  Li  Li1  1  0.30338085  0.25122114  0.60603569  1
  Li  Li2  1  0.15478439  0.66278200  0.28644788  1
  Li  Li3  1  0.00677403  0.99181476  0.01986885  1
  Li  Li4  1  0.74720089  0.44579718  0.60464142  1
  Li  Li5  1  0.79378338  0.84578314  0.28672518  1
  Li  Li6  1  0.33945874  0.20405685  0.28802323  1
  Cr  Cr7  1  0.85970347  0.14068748  0.57871517  1
  Cr  Cr8  1  0.35779954  0.64191668  0.07329906  1
  Cr  Cr9  1  0.64297054  0.35702813  0.92834107  1
  Co  Co10  1  0.14567534  0.85304871  0.44284040  1
  P  P11  1  0.25020212  0.45657268  0.75116374  1
  P  P12  1  0.95512507  0.74925517  0.75251373  1
  P  P13  1  0.54649456  0.04378166  0.75231929  1
  P  P14  1  0.45790991  0.96300101  0.24529077  1
  P  P15  1  0.03809519  0.24763109  0.24802147  1
  P  P16  1  0.75059071  0.54205005  0.24516934  1
  O  O17  1  0.11476543  0.68870707  0.93114297  1
  O  O18  1  0.50646850  0.88471678  0.93125310  1
  O  O19  1  0.31021749  0.49500737  0.93057321  1
  O  O20  1  0.08324301  0.27292079  0.75658270  1
  O  O21  1  0.40909021  0.42812473  0.74249724  1
  O  O22  1  0.21795881  0.62560963  0.56349280  1
  O  O23  1  0.94560421  0.91637055  0.76098956  1
  O  O24  1  0.76024051  0.58964419  0.74480692  1
  O  O25  1  0.57332144  0.23983872  0.74380338  1
  O  O26  1  0.62425645  0.97335294  0.43610626  1
  O  O27  1  0.27896042  0.96588642  0.23934001  1
  O  O28  1  0.02708579  0.21424812  0.43713056  1
  O  O29  1  0.96491606  0.78367854  0.56385764  1
  O  O30  1  0.73108586  0.05427719  0.76006772  1
  O  O31  1  0.38071826  0.03298231  0.56379758  1
  O  O32  1  0.41041045  0.76071611  0.25503997  1
  O  O33  1  0.23849105  0.39223157  0.25512884  1
  O  O34  1  0.03717969  0.06895665  0.24676530  1
  O  O35  1  0.78533584  0.37526073  0.43608946  1
  O  O36  1  0.60607321  0.58996037  0.25432048  1
  O  O37  1  0.92654643  0.72079519  0.24087189  1
  O  O38  1  0.68812600  0.49785498  0.07120514  1
  O  O39  1  0.50241304  0.11901966  0.07111749  1
  O  O40  1  0.88126291  0.30843291  0.07217439  1
