# generated using pymatgen
data_Na2Ni2O3
_symmetry_space_group_name_H-M   'P 1'
_cell_length_a   5.86489936
_cell_length_b   5.72293013
_cell_length_c   6.14082151
_cell_angle_alpha   90.00000000
_cell_angle_beta   119.83697895
_cell_angle_gamma   90.00000000
_symmetry_Int_Tables_number   1
_chemical_formula_structural   Na2Ni2O3
_chemical_formula_sum   'Na4 Ni4 O6'
_cell_volume   178.79163314
_cell_formula_units_Z   2
loop_
 _symmetry_equiv_pos_site_id
 _symmetry_equiv_pos_as_xyz
  1  'x, y, z'
loop_
 _atom_site_type_symbol
 _atom_site_label
 _atom_site_symmetry_multiplicity
 _atom_site_fract_x
 _atom_site_fract_y
 _atom_site_fract_z
 _atom_site_occupancy
  Na  Na0  1  0.14122778  0.65768920  0.89916236  1
  Na  Na1  1  0.14122778  0.84231080  0.39916236  1
  Na  Na2  1  0.85877222  0.15768920  0.60083764  1
  Na  Na3  1  0.85877222  0.34231080  0.10083764  1
  Ni  Ni4  1  0.34134967  0.36927388  0.57937950  1
  Ni  Ni5  1  0.65865033  0.86927388  0.92062050  1
  Ni  Ni6  1  0.34134967  0.13072612  0.07937950  1
  Ni  Ni7  1  0.65865033  0.63072612  0.42062050  1
  O  O8  1  0.00000000  0.50000000  0.50000000  1
  O  O9  1  0.00000000  0.00000000  0.00000000  1
  O  O10  1  0.35129679  0.08122970  0.75735235  1
  O  O11  1  0.35129679  0.41877030  0.25735235  1
  O  O12  1  0.64870321  0.58122970  0.74264765  1
  O  O13  1  0.64870321  0.91877030  0.24264765  1
