# generated using pymatgen
data_Ni3OF5
_symmetry_space_group_name_H-M   'P 1'
_cell_length_a   10.53987265
_cell_length_b   6.63818945
_cell_length_c   3.08301527
_cell_angle_alpha   90.00000000
_cell_angle_beta   90.00000000
_cell_angle_gamma   108.44786041
_symmetry_Int_Tables_number   1
_chemical_formula_structural   Ni3OF5
_chemical_formula_sum   'Ni6 O2 F10'
_cell_volume   204.62057538
_cell_formula_units_Z   2
loop_
 _symmetry_equiv_pos_site_id
 _symmetry_equiv_pos_as_xyz
  1  'x, y, z'
loop_
 _atom_site_type_symbol
 _atom_site_label
 _atom_site_symmetry_multiplicity
 _atom_site_fract_x
 _atom_site_fract_y
 _atom_site_fract_z
 _atom_site_occupancy
  Ni  Ni0  1  0.99666876  0.00410624  0.00000000  1
  Ni  Ni1  1  0.00338765  0.49276417  0.50000000  1
  Ni  Ni2  1  0.33127112  0.16562039  0.50000000  1
  Ni  Ni3  1  0.66691113  0.33422850  0.00000000  1
  Ni  Ni4  1  0.34204669  0.67171588  0.00000000  1
  Ni  Ni5  1  0.66250691  0.83128698  0.50000000  1
  O  O6  1  0.00145972  0.30358492  0.00000000  1
  O  O7  1  0.46382780  0.73252349  0.50000000  1
  F  F8  1  0.12971139  0.06310647  0.50000000  1
  F  F9  1  0.66668771  0.03219774  0.00000000  1
  F  F10  1  0.00112337  0.69868921  0.00000000  1
  F  F11  1  0.33250368  0.36232727  0.00000000  1
  F  F12  1  0.20632941  0.60246532  0.50000000  1
  F  F13  1  0.53424956  0.26725074  0.50000000  1
  F  F14  1  0.79825015  0.40036030  0.50000000  1
  F  F15  1  0.66486862  0.63452485  0.00000000  1
  F  F16  1  0.33392358  0.97156094  0.00000000  1
  F  F17  1  0.86427275  0.93168760  0.50000000  1
