# generated using pymatgen
data_Fe6O7F5
_symmetry_space_group_name_H-M   'P 1'
_cell_length_a   4.76264536
_cell_length_b   4.76264536
_cell_length_c   9.11406999
_cell_angle_alpha   89.81261530
_cell_angle_beta   90.18738470
_cell_angle_gamma   94.03642040
_symmetry_Int_Tables_number   1
_chemical_formula_structural   Fe6O7F5
_chemical_formula_sum   'Fe6 O7 F5'
_cell_volume   206.21768395
_cell_formula_units_Z   1
loop_
 _symmetry_equiv_pos_site_id
 _symmetry_equiv_pos_as_xyz
  1  'x, y, z'
loop_
 _atom_site_type_symbol
 _atom_site_label
 _atom_site_symmetry_multiplicity
 _atom_site_fract_x
 _atom_site_fract_y
 _atom_site_fract_z
 _atom_site_occupancy
  Fe  Fe0  1  0.98768075  0.00134834  0.00599822  1
  Fe  Fe1  1  0.02611169  0.02611169  0.33333300  1
  Fe  Fe2  1  0.00134834  0.98768075  0.66066878  1
  Fe  Fe3  1  0.52751609  0.45397635  0.15857119  1
  Fe  Fe4  1  0.49734974  0.49734974  0.83333300  1
  Fe  Fe5  1  0.45397635  0.52751609  0.50809581  1
  O  O6  1  0.18307814  0.81944232  0.49952926  1
  O  O7  1  0.30721634  0.29516109  0.98938525  1
  O  O8  1  0.32084977  0.32084977  0.33333300  1
  O  O9  1  0.29516109  0.30721634  0.67728175  1
  O  O10  1  0.69556553  0.68477908  0.99163087  1
  O  O11  1  0.68477908  0.69556553  0.67503613  1
  O  O12  1  0.81944232  0.18307814  0.16713774  1
  F  F13  1  0.20218177  0.80293627  0.16614790  1
  F  F14  1  0.18462446  0.80510878  0.83510321  1
  F  F15  1  0.70507049  0.70507049  0.33333300  1
  F  F16  1  0.80510878  0.18462446  0.83156379  1
  F  F17  1  0.80293627  0.20218177  0.50051910  1
