# generated using pymatgen
data_SrLiLa7Fe3O16
_symmetry_space_group_name_H-M   'P 1'
_cell_length_a   5.50097885
_cell_length_b   5.50097885
_cell_length_c   12.79508832
_cell_angle_alpha   90.00000000
_cell_angle_beta   90.00000000
_cell_angle_gamma   90.00000000
_symmetry_Int_Tables_number   1
_chemical_formula_structural   SrLiLa7Fe3O16
_chemical_formula_sum   'Sr1 Li1 La7 Fe3 O16'
_cell_volume   387.18920313
_cell_formula_units_Z   1
loop_
 _symmetry_equiv_pos_site_id
 _symmetry_equiv_pos_as_xyz
  1  'x, y, z'
loop_
 _atom_site_type_symbol
 _atom_site_label
 _atom_site_symmetry_multiplicity
 _atom_site_fract_x
 _atom_site_fract_y
 _atom_site_fract_z
 _atom_site_occupancy
  Sr  Sr0  1  0.50000000  0.50000000  0.35578936  1
  Li  Li1  1  0.00000000  0.00000000  0.99915448  1
  La  La2  1  0.00000000  0.50000000  0.13680937  1
  La  La3  1  0.00000000  0.00000000  0.35823114  1
  La  La4  1  0.00000000  0.00000000  0.64275475  1
  La  La5  1  0.00000000  0.50000000  0.86554062  1
  La  La6  1  0.50000000  0.00000000  0.13680937  1
  La  La7  1  0.50000000  0.50000000  0.64063058  1
  La  La8  1  0.50000000  0.00000000  0.86554062  1
  Fe  Fe9  1  0.00000000  0.50000000  0.49739320  1
  Fe  Fe10  1  0.50000000  0.50000000  0.00452413  1
  Fe  Fe11  1  0.50000000  0.00000000  0.49739320  1
  O  O12  1  0.00000000  0.00000000  0.18269317  1
  O  O13  1  0.00000000  0.50000000  0.31943056  1
  O  O14  1  0.00000000  0.00000000  0.81787458  1
  O  O15  1  0.00000000  0.50000000  0.68102338  1
  O  O16  1  0.25031577  0.25031577  0.50405030  1
  O  O17  1  0.25031577  0.74968423  0.50405030  1
  O  O18  1  0.25039050  0.25039050  0.99843984  1
  O  O19  1  0.25039050  0.74960950  0.99843984  1
  O  O20  1  0.50000000  0.50000000  0.16570660  1
  O  O21  1  0.50000000  0.00000000  0.68102338  1
  O  O22  1  0.50000000  0.50000000  0.82228438  1
  O  O23  1  0.50000000  0.00000000  0.31943056  1
  O  O24  1  0.74960950  0.25039050  0.99843984  1
  O  O25  1  0.74960950  0.74960950  0.99843984  1
  O  O26  1  0.74968423  0.25031577  0.50405030  1
  O  O27  1  0.74968423  0.74968423  0.50405030  1
