# generated using pymatgen
data_LiCoOF2
_symmetry_space_group_name_H-M   'P 1'
_cell_length_a   5.09979905
_cell_length_b   8.89102541
_cell_length_c   9.44460967
_cell_angle_alpha   93.09907180
_cell_angle_beta   90.00000000
_cell_angle_gamma   90.00000000
_symmetry_Int_Tables_number   1
_chemical_formula_structural   LiCoOF2
_chemical_formula_sum   'Li8 Co8 O8 F16'
_cell_volume   427.61539136
_cell_formula_units_Z   8
loop_
 _symmetry_equiv_pos_site_id
 _symmetry_equiv_pos_as_xyz
  1  'x, y, z'
loop_
 _atom_site_type_symbol
 _atom_site_label
 _atom_site_symmetry_multiplicity
 _atom_site_fract_x
 _atom_site_fract_y
 _atom_site_fract_z
 _atom_site_occupancy
  Li  Li0  1  0.18029840  0.16557932  0.99666398  1
  Li  Li1  1  0.16035985  0.82952599  0.79760542  1
  Li  Li2  1  0.33964015  0.32952599  0.29760542  1
  Li  Li3  1  0.31970160  0.66557932  0.49666398  1
  Li  Li4  1  0.67450684  0.35645198  0.99206946  1
  Li  Li5  1  0.66497243  0.66137570  0.79508066  1
  Li  Li6  1  0.83502757  0.16137570  0.29508066  1
  Li  Li7  1  0.82549316  0.85645198  0.49206946  1
  Co  Co8  1  0.19934468  0.46949981  0.80037944  1
  Co  Co9  1  0.22757199  0.13325592  0.58774951  1
  Co  Co10  1  0.27242801  0.63325592  0.08774951  1
  Co  Co11  1  0.30065532  0.96949981  0.30037944  1
  Co  Co12  1  0.65506262  0.01608986  0.80056118  1
  Co  Co13  1  0.65411744  0.33730266  0.56649652  1
  Co  Co14  1  0.84588256  0.83730266  0.06649652  1
  Co  Co15  1  0.84493738  0.51608986  0.30056118  1
  O  O16  1  0.06515092  0.02295026  0.43400909  1
  O  O17  1  0.00500521  0.69311273  0.95372124  1
  O  O18  1  0.15652414  0.82578979  0.17156781  1
  O  O19  1  0.13818811  0.50179377  0.20373847  1
  O  O20  1  0.36181189  0.00179377  0.70373847  1
  O  O21  1  0.34347586  0.32578979  0.67156781  1
  O  O22  1  0.49499479  0.19311273  0.45372124  1
  O  O23  1  0.43484908  0.52295026  0.93400909  1
  F  F24  1  0.01688980  0.33391198  0.92465988  1
  F  F25  1  0.18087868  0.15515968  0.19479287  1
  F  F26  1  0.31912132  0.65515968  0.69479287  1
  F  F27  1  0.48311020  0.83391198  0.42465988  1
  F  F28  1  0.52818009  0.16977916  0.93758054  1
  F  F29  1  0.52854674  0.50003709  0.42733037  1
  F  F30  1  0.54259755  0.84263537  0.93251294  1
  F  F31  1  0.64608926  0.66064727  0.17961684  1
  F  F32  1  0.66920631  0.34173096  0.19441730  1
  F  F33  1  0.66158837  0.98336870  0.19822547  1
  F  F34  1  0.83841163  0.48336870  0.69822547  1
  F  F35  1  0.83079369  0.84173096  0.69441730  1
  F  F36  1  0.85391074  0.16064727  0.67961684  1
  F  F37  1  0.95740245  0.34263537  0.43251294  1
  F  F38  1  0.97145326  0.00003709  0.92733037  1
  F  F39  1  0.97181991  0.66977916  0.43758054  1
