# generated using pymatgen
data_LiCr(PO3)3
_symmetry_space_group_name_H-M   'P 1'
_cell_length_a   5.21590834
_cell_length_b   12.49905612
_cell_length_c   12.49311699
_cell_angle_alpha   90.00000000
_cell_angle_beta   90.00000000
_cell_angle_gamma   90.00000000
_symmetry_Int_Tables_number   1
_chemical_formula_structural   LiCr(PO3)3
_chemical_formula_sum   'Li4 Cr4 P12 O36'
_cell_volume   814.47540775
_cell_formula_units_Z   4
loop_
 _symmetry_equiv_pos_site_id
 _symmetry_equiv_pos_as_xyz
  1  'x, y, z'
loop_
 _atom_site_type_symbol
 _atom_site_label
 _atom_site_symmetry_multiplicity
 _atom_site_fract_x
 _atom_site_fract_y
 _atom_site_fract_z
 _atom_site_occupancy
  Li  Li0  1  0.05664395  0.08364853  0.25000000  1
  Li  Li1  1  0.05664395  0.41635147  0.75000000  1
  Li  Li2  1  0.94335605  0.58364853  0.25000000  1
  Li  Li3  1  0.94335605  0.91635147  0.75000000  1
  Cr  Cr4  1  0.00000000  0.00000000  0.00000000  1
  Cr  Cr5  1  0.00000000  0.50000000  0.00000000  1
  Cr  Cr6  1  0.00000000  0.00000000  0.50000000  1
  Cr  Cr7  1  0.00000000  0.50000000  0.50000000  1
  P  P8  1  0.22994644  0.75000000  0.00000000  1
  P  P9  1  0.22994644  0.75000000  0.50000000  1
  P  P10  1  0.50423548  0.07942504  0.63439886  1
  P  P11  1  0.50423548  0.42057496  0.13439886  1
  P  P12  1  0.50423548  0.07942504  0.86560114  1
  P  P13  1  0.50423548  0.42057496  0.36560114  1
  P  P14  1  0.49576452  0.57942504  0.63439886  1
  P  P15  1  0.49576452  0.92057496  0.36560114  1
  P  P16  1  0.49576452  0.92057496  0.13439886  1
  P  P17  1  0.49576452  0.57942504  0.86560114  1
  P  P18  1  0.77005456  0.25000000  0.00000000  1
  P  P19  1  0.77005456  0.25000000  0.50000000  1
  O  O20  1  0.08980885  0.67767759  0.07562150  1
  O  O21  1  0.08980885  0.67767759  0.42437850  1
  O  O22  1  0.08980885  0.82232241  0.57562150  1
  O  O23  1  0.08980885  0.82232241  0.92437850  1
  O  O24  1  0.22599046  0.45223798  0.12689821  1
  O  O25  1  0.22599046  0.04776202  0.62689821  1
  O  O26  1  0.22599046  0.45223798  0.37310179  1
  O  O27  1  0.22599046  0.04776202  0.87310179  1
  O  O28  1  0.29721859  0.00727022  0.11678168  1
  O  O29  1  0.29721859  0.00727022  0.38321832  1
  O  O30  1  0.29721859  0.49272978  0.61678168  1
  O  O31  1  0.29721859  0.49272978  0.88321832  1
  O  O32  1  0.44904151  0.86887918  0.25000000  1
  O  O33  1  0.44904151  0.63112082  0.75000000  1
  O  O34  1  0.44760778  0.68124014  0.56337992  1
  O  O35  1  0.44760778  0.81875986  0.06337992  1
  O  O36  1  0.44760778  0.68124014  0.93662008  1
  O  O37  1  0.44760778  0.81875986  0.43662008  1
  O  O38  1  0.55239222  0.18124014  0.56337992  1
  O  O39  1  0.55239222  0.31875986  0.43662008  1
  O  O40  1  0.55239222  0.31875986  0.06337992  1
  O  O41  1  0.55239222  0.18124014  0.93662008  1
  O  O42  1  0.55095849  0.13112082  0.75000000  1
  O  O43  1  0.55095849  0.36887918  0.25000000  1
  O  O44  1  0.70278141  0.50727022  0.38321832  1
  O  O45  1  0.70278141  0.99272978  0.61678168  1
  O  O46  1  0.70278141  0.50727022  0.11678168  1
  O  O47  1  0.70278141  0.99272978  0.88321832  1
  O  O48  1  0.77400954  0.54776202  0.87310179  1
  O  O49  1  0.77400954  0.54776202  0.62689821  1
  O  O50  1  0.77400954  0.95223798  0.12689821  1
  O  O51  1  0.77400954  0.95223798  0.37310179  1
  O  O52  1  0.91019115  0.17767759  0.42437850  1
  O  O53  1  0.91019115  0.32232241  0.57562150  1
  O  O54  1  0.91019115  0.17767759  0.07562150  1
  O  O55  1  0.91019115  0.32232241  0.92437850  1
