# generated using pymatgen
data_Li9(FeO4)2
_symmetry_space_group_name_H-M   'P 1'
_cell_length_a   5.53851228
_cell_length_b   6.77415525
_cell_length_c   10.87106141
_cell_angle_alpha   90.69319314
_cell_angle_beta   78.48159924
_cell_angle_gamma   89.48025755
_symmetry_Int_Tables_number   1
_chemical_formula_structural   Li9(FeO4)2
_chemical_formula_sum   'Li18 Fe4 O16'
_cell_volume   399.59761834
_cell_formula_units_Z   2
loop_
 _symmetry_equiv_pos_site_id
 _symmetry_equiv_pos_as_xyz
  1  'x, y, z'
loop_
 _atom_site_type_symbol
 _atom_site_label
 _atom_site_symmetry_multiplicity
 _atom_site_fract_x
 _atom_site_fract_y
 _atom_site_fract_z
 _atom_site_occupancy
  Li  Li0  1  0.11960685  0.16561429  0.28852965  1
  Li  Li1  1  0.04336514  0.25283270  0.66206725  1
  Li  Li2  1  0.09047316  0.53408952  0.80179973  1
  Li  Li3  1  0.28838604  0.95798917  0.06926150  1
  Li  Li4  1  0.21151891  0.47666191  0.43008010  1
  Li  Li5  1  0.30295431  0.52098885  0.05809226  1
  Li  Li6  1  0.39784097  0.70352643  0.21587832  1
  Li  Li7  1  0.51404032  0.25197040  0.15773013  1
  Li  Li8  1  0.54187558  0.97537316  0.31305030  1
  Li  Li9  1  0.46052496  0.76228719  0.82022331  1
  Li  Li10  1  0.57720802  0.25323544  0.77071881  1
  Li  Li11  1  0.81340295  0.98402935  0.55578085  1
  Li  Li12  1  0.80050729  0.54269807  0.57156273  1
  Li  Li13  1  0.68579405  0.47845757  0.92750894  1
  Li  Li14  1  0.90507960  0.45494070  0.19702244  1
  Li  Li15  1  0.71507049  0.02871763  0.92194420  1
  Li  Li16  1  0.97834741  0.76358385  0.33495531  1
  Li  Li17  1  0.90053198  0.79167581  0.71696374  1
  Fe  Fe18  1  0.81805308  0.75339519  0.06569640  1
  Fe  Fe19  1  0.17031811  0.23895650  0.93543924  1
  Fe  Fe20  1  0.32593024  0.77677365  0.56119235  1
  Fe  Fe21  1  0.67928866  0.26677945  0.43193922  1
  O  O22  1  0.09362428  0.72481058  0.14583329  1
  O  O23  1  0.15625664  0.25305718  0.11336235  1
  O  O24  1  0.11626381  0.97726352  0.61960058  1
  O  O25  1  0.12230515  0.55369186  0.62083508  1
  O  O26  1  0.32249198  0.75736917  0.39035313  1
  O  O27  1  0.42373148  0.25724831  0.34961011  1
  O  O28  1  0.36518367  0.46974268  0.87790776  1
  O  O29  1  0.39256097  0.03168986  0.88560301  1
  O  O30  1  0.58987936  0.95786857  0.13033029  1
  O  O31  1  0.62797345  0.51884511  0.11165479  1
  O  O32  1  0.60500413  0.77264865  0.63418002  1
  O  O33  1  0.71399509  0.26387119  0.59428474  1
  O  O34  1  0.83022000  0.02677962  0.37997335  1
  O  O35  1  0.88134343  0.47771466  0.38001033  1
  O  O36  1  0.84282836  0.74334510  0.88880603  1
  O  O37  1  0.90029306  0.26657814  0.85117132  1
