# generated using pymatgen
data_FeCuSeS
_symmetry_space_group_name_H-M   'P 1'
_cell_length_a   5.34820453
_cell_length_b   5.37407750
_cell_length_c   6.52030471
_cell_angle_alpha   65.66297379
_cell_angle_beta   65.78767588
_cell_angle_gamma   90.00000000
_symmetry_Int_Tables_number   1
_chemical_formula_structural   FeCuSeS
_chemical_formula_sum   'Fe2 Cu2 Se2 S2'
_cell_volume   152.47547976
_cell_formula_units_Z   2
loop_
 _symmetry_equiv_pos_site_id
 _symmetry_equiv_pos_as_xyz
  1  'x, y, z'
loop_
 _atom_site_type_symbol
 _atom_site_label
 _atom_site_symmetry_multiplicity
 _atom_site_fract_x
 _atom_site_fract_y
 _atom_site_fract_z
 _atom_site_occupancy
  Fe  Fe0  1  0.23779516  0.73779516  0.52440967  1
  Fe  Fe1  1  0.51220484  0.51220484  0.97559033  1
  Cu  Cu2  1  0.73818731  0.23818731  0.52362539  1
  Cu  Cu3  1  0.01181269  0.01181269  0.97637461  1
  Se  Se4  1  0.13523539  0.12500000  0.25000000  1
  Se  Se5  1  0.61476461  0.62500000  0.25000000  1
  S  S6  1  0.37500000  0.86966305  0.75000000  1
  S  S7  1  0.87500000  0.38033695  0.75000000  1
