# generated using pymatgen
data_Na4Fe2As(CO4)4
_symmetry_space_group_name_H-M   'P 1'
_cell_length_a   10.01363361
_cell_length_b   9.84077468
_cell_length_c   10.01363360
_cell_angle_alpha   60.80388223
_cell_angle_beta   92.36355847
_cell_angle_gamma   60.80388565
_symmetry_Int_Tables_number   1
_chemical_formula_structural   Na4Fe2As(CO4)4
_chemical_formula_sum   'Na8 Fe4 As2 C8 O32'
_cell_volume   699.67973060
_cell_formula_units_Z   2
loop_
 _symmetry_equiv_pos_site_id
 _symmetry_equiv_pos_as_xyz
  1  'x, y, z'
loop_
 _atom_site_type_symbol
 _atom_site_label
 _atom_site_symmetry_multiplicity
 _atom_site_fract_x
 _atom_site_fract_y
 _atom_site_fract_z
 _atom_site_occupancy
  Na  Na0  1  0.08897860  0.82204281  0.83897860  1
  Na  Na1  1  0.08895966  0.25000000  0.83895966  1
  Na  Na2  1  0.33895966  0.75000000  0.58895966  1
  Na  Na3  1  0.33897860  0.32204281  0.58897860  1
  Na  Na4  1  0.66102140  0.67795719  0.41102140  1
  Na  Na5  1  0.66104034  0.25000000  0.41104034  1
  Na  Na6  1  0.91104034  0.75000000  0.16104034  1
  Na  Na7  1  0.91102140  0.17795719  0.16102140  1
  Fe  Fe8  1  0.00000000  0.50000000  0.00000000  1
  Fe  Fe9  1  0.50000000  0.00000000  0.50000000  1
  Fe  Fe10  1  0.50000000  0.50000000  0.00000000  1
  Fe  Fe11  1  0.50000000  0.00000000  0.00000000  1
  As  As12  1  0.12500000  0.75000000  0.37500000  1
  As  As13  1  0.87500000  0.25000000  0.62500000  1
  C  C14  1  0.36074051  0.92764157  0.77995520  1
  C  C15  1  0.27995520  0.42764157  0.86074051  1
  C  C16  1  0.71161692  0.92764157  0.79240323  1
  C  C17  1  0.70759677  0.57235843  0.78838308  1
  C  C18  1  0.29240323  0.42764157  0.21161692  1
  C  C19  1  0.28838308  0.07235843  0.20759677  1
  C  C20  1  0.72004480  0.57235843  0.13925949  1
  C  C21  1  0.63925949  0.07235843  0.22004480  1
  O  O22  1  0.35562381  0.78834504  0.88907267  1
  O  O23  1  0.06085544  0.89811680  0.43851128  1
  O  O24  1  0.36552343  0.95314511  0.64124159  1
  O  O25  1  0.14124159  0.45314511  0.86552343  1
  O  O26  1  0.68133146  0.95314511  0.90561331  1
  O  O27  1  0.30849329  0.54582270  0.85577807  1
  O  O28  1  0.04102776  0.89811680  0.16337192  1
  O  O29  1  0.06148872  0.60188320  0.43914556  1
  O  O30  1  0.40160077  0.95417730  0.35431599  1
  O  O31  1  0.59438669  0.54685489  0.81866854  1
  O  O32  1  0.38907267  0.28834504  0.85562381  1
  O  O33  1  0.33662808  0.60188320  0.45897224  1
  O  O34  1  0.85603115  0.78834504  0.82258129  1
  O  O35  1  0.67741871  0.71165496  0.64396885  1
  O  O36  1  0.35577807  0.04582270  0.80849329  1
  O  O37  1  0.14568401  0.54582270  0.09839923  1
  O  O38  1  0.85431599  0.45417730  0.90160077  1
  O  O39  1  0.64422193  0.95417730  0.19150671  1
  O  O40  1  0.32258129  0.28834504  0.35603115  1
  O  O41  1  0.14396885  0.21165496  0.17741871  1
  O  O42  1  0.66337192  0.39811680  0.54102776  1
  O  O43  1  0.61092733  0.71165496  0.14437619  1
  O  O44  1  0.40561331  0.45314511  0.18133146  1
  O  O45  1  0.59839923  0.04582270  0.64568401  1
  O  O46  1  0.93851128  0.39811680  0.56085544  1
  O  O47  1  0.95897224  0.10188320  0.83662808  1
  O  O48  1  0.69150671  0.45417730  0.14422193  1
  O  O49  1  0.31866854  0.04685489  0.09438669  1
  O  O50  1  0.85875841  0.54685489  0.13447657  1
  O  O51  1  0.63447657  0.04685489  0.35875841  1
  O  O52  1  0.93914456  0.10188320  0.56148872  1
  O  O53  1  0.64437619  0.21165496  0.11092733  1
