# generated using pymatgen
data_Fe10O11F9
_symmetry_space_group_name_H-M   'P 1'
_cell_length_a   4.71009100
_cell_length_b   4.70241331
_cell_length_c   15.47620831
_cell_angle_alpha   89.78419753
_cell_angle_beta   89.87613345
_cell_angle_gamma   89.48468796
_symmetry_Int_Tables_number   1
_chemical_formula_structural   Fe10O11F9
_chemical_formula_sum   'Fe10 O11 F9'
_cell_volume   342.76228815
_cell_formula_units_Z   1
loop_
 _symmetry_equiv_pos_site_id
 _symmetry_equiv_pos_as_xyz
  1  'x, y, z'
loop_
 _atom_site_type_symbol
 _atom_site_label
 _atom_site_symmetry_multiplicity
 _atom_site_fract_x
 _atom_site_fract_y
 _atom_site_fract_z
 _atom_site_occupancy
  Fe  Fe0  1  0.98586589  0.96091757  0.00625946  1
  Fe  Fe1  1  0.01429991  0.98990381  0.19403177  1
  Fe  Fe2  1  0.01637145  0.97326127  0.39804602  1
  Fe  Fe3  1  0.04170012  0.00107712  0.59937719  1
  Fe  Fe4  1  0.04663872  0.00566306  0.80258142  1
  Fe  Fe5  1  0.51972632  0.49748734  0.09582016  1
  Fe  Fe6  1  0.47683014  0.50407629  0.49563479  1
  Fe  Fe7  1  0.47824137  0.51659705  0.31070475  1
  Fe  Fe8  1  0.45979733  0.49572194  0.69830975  1
  Fe  Fe9  1  0.48087995  0.52287756  0.89872796  1
  O  O10  1  0.20370592  0.78733724  0.10227593  1
  O  O11  1  0.18659391  0.80888054  0.29539420  1
  O  O12  1  0.19278740  0.80739370  0.49936387  1
  O  O13  1  0.20177424  0.81998884  0.70068283  1
  O  O14  1  0.18653046  0.81001246  0.90325275  1
  O  O15  1  0.29453987  0.29691555  0.39953485  1
  O  O16  1  0.30801394  0.31488381  0.59743752  1
  O  O17  1  0.30967256  0.31978398  0.80185937  1
  O  O18  1  0.68455381  0.68020601  0.99818761  1
  O  O19  1  0.69477803  0.69546007  0.40127569  1
  O  O20  1  0.80514912  0.18641301  0.10185490  1
  F  F21  1  0.29833616  0.29320141  0.00006293  1
  F  F22  1  0.31328121  0.30681691  0.20082653  1
  F  F23  1  0.69292037  0.68720055  0.20269468  1
  F  F24  1  0.70153383  0.70313084  0.60055667  1
  F  F25  1  0.70127626  0.71018889  0.79871501  1
  F  F26  1  0.80256479  0.19556429  0.50131388  1
  F  F27  1  0.79753796  0.20005765  0.29542773  1
  F  F28  1  0.79796791  0.19991096  0.89979565  1
  F  F29  1  0.80613008  0.20906928  0.69999211  1
