# generated using pymatgen
data_LiMn2(BO3)2
_symmetry_space_group_name_H-M   'P 1'
_cell_length_a   5.79367844
_cell_length_b   5.29448528
_cell_length_c   17.94741775
_cell_angle_alpha   97.79914943
_cell_angle_beta   83.83727805
_cell_angle_gamma   113.91445295
_symmetry_Int_Tables_number   1
_chemical_formula_structural   LiMn2(BO3)2
_chemical_formula_sum   'Li4 Mn8 B8 O24'
_cell_volume   497.77823854
_cell_formula_units_Z   4
loop_
 _symmetry_equiv_pos_site_id
 _symmetry_equiv_pos_as_xyz
  1  'x, y, z'
loop_
 _atom_site_type_symbol
 _atom_site_label
 _atom_site_symmetry_multiplicity
 _atom_site_fract_x
 _atom_site_fract_y
 _atom_site_fract_z
 _atom_site_occupancy
  Li  Li0  1  0.90253985  0.93433178  0.76683345  1
  Li  Li1  1  0.84888721  0.57657594  0.48548288  1
  Li  Li2  1  0.34818855  0.57330246  0.98665473  1
  Li  Li3  1  0.10099597  0.07813495  0.23628284  1
  Mn  Mn4  1  0.89351154  0.46429331  0.85155534  1
  Mn  Mn5  1  0.85467132  0.03701710  0.40284288  1
  Mn  Mn6  1  0.34830462  0.03653809  0.90246388  1
  Mn  Mn7  1  0.59019632  0.52936137  0.65810089  1
  Mn  Mn8  1  0.40731932  0.47073967  0.34823314  1
  Mn  Mn9  1  0.65840739  0.96965868  0.09646790  1
  Mn  Mn10  1  0.15502103  0.96310374  0.59733441  1
  Mn  Mn11  1  0.10251018  0.53808508  0.15406356  1
  B  B12  1  0.69417132  0.05200471  0.56406781  1
  B  B13  1  0.93934165  0.54650140  0.31535622  1
  B  B14  1  0.80687472  0.94389610  0.93039022  1
  B  B15  1  0.43713962  0.55568142  0.82088046  1
  B  B16  1  0.56097952  0.45104708  0.18171979  1
  B  B17  1  0.18599084  0.04705088  0.06601730  1
  B  B18  1  0.06004741  0.45306737  0.68805084  1
  B  B19  1  0.31113681  0.94928944  0.43174405  1
  O  O20  1  0.98170586  0.30435773  0.74785167  1
  O  O21  1  0.71317612  0.13496234  0.91516085  1
  O  O22  1  0.96563868  0.65409347  0.67653803  1
  O  O23  1  0.98516270  0.90297750  0.87372535  1
  O  O24  1  0.78192880  0.20100533  0.50261000  1
  O  O25  1  0.71684907  0.79177513  0.98886001  1
  O  O26  1  0.54504612  0.13753445  0.61941885  1
  O  O27  1  0.80237918  0.62749126  0.37668825  1
  O  O28  1  0.51135382  0.35115719  0.83414686  1
  O  O29  1  0.75661177  0.83142273  0.57429848  1
  O  O30  1  0.74834385  0.40554490  0.13130605  1
  O  O31  1  0.53284330  0.70630872  0.76018505  1
  O  O32  1  0.46313088  0.30475715  0.24130948  1
  O  O33  1  0.27897325  0.62449034  0.87825165  1
  O  O34  1  0.21791453  0.13742934  0.41293008  1
  O  O35  1  0.46690141  0.63769162  0.16200469  1
  O  O36  1  0.23451349  0.40416384  0.63370953  1
  O  O37  1  0.49885337  0.90476382  0.38161183  1
  O  O38  1  0.25619379  0.19485087  0.00480340  1
  O  O39  1  0.21184893  0.79888449  0.49078373  1
  O  O40  1  0.04865430  0.12569105  0.12788527  1
  O  O41  1  0.99973741  0.32169877  0.32053051  1
  O  O42  1  0.25289893  0.82609372  0.07149669  1
  O  O43  1  0.02044123  0.70044871  0.25498610  1
