# generated using pymatgen
data_Na6B4Sb2SO16
_symmetry_space_group_name_H-M   'P 1'
_cell_length_a   10.13884206
_cell_length_b   10.13884212
_cell_length_c   10.13884231
_cell_angle_alpha   60.00000266
_cell_angle_beta   60.00000080
_cell_angle_gamma   60.00000020
_symmetry_Int_Tables_number   1
_chemical_formula_structural   Na6B4Sb2SO16
_chemical_formula_sum   'Na12 B8 Sb4 S2 O32'
_cell_volume   736.97049457
_cell_formula_units_Z   2
loop_
 _symmetry_equiv_pos_site_id
 _symmetry_equiv_pos_as_xyz
  1  'x, y, z'
loop_
 _atom_site_type_symbol
 _atom_site_label
 _atom_site_symmetry_multiplicity
 _atom_site_fract_x
 _atom_site_fract_y
 _atom_site_fract_z
 _atom_site_occupancy
  Na  Na0  1  0.08690663  0.66309337  0.08690663  1
  Na  Na1  1  0.08690663  0.08690663  0.66309337  1
  Na  Na2  1  0.08690663  0.66309337  0.66309337  1
  Na  Na3  1  0.66309337  0.08690663  0.08690663  1
  Na  Na4  1  0.33690663  0.33690663  0.91309337  1
  Na  Na5  1  0.33690663  0.91309337  0.33690663  1
  Na  Na6  1  0.66309337  0.66309337  0.08690663  1
  Na  Na7  1  0.66309337  0.08690663  0.66309337  1
  Na  Na8  1  0.91309337  0.33690663  0.33690663  1
  Na  Na9  1  0.33690663  0.91309337  0.91309337  1
  Na  Na10  1  0.91309337  0.33690663  0.91309337  1
  Na  Na11  1  0.91309337  0.91309337  0.33690663  1
  B  B12  1  0.28174824  0.28174824  0.28174824  1
  B  B13  1  0.28174824  0.28174824  0.65475427  1
  B  B14  1  0.28174824  0.65475427  0.28174824  1
  B  B15  1  0.65475427  0.28174824  0.28174824  1
  B  B16  1  0.34524573  0.71825176  0.71825176  1
  B  B17  1  0.71825176  0.34524573  0.71825176  1
  B  B18  1  0.71825176  0.71825176  0.34524573  1
  B  B19  1  0.71825176  0.71825176  0.71825176  1
  Sb  Sb20  1  0.00000000  0.50000000  0.50000000  1
  Sb  Sb21  1  0.50000000  0.50000000  0.00000000  1
  Sb  Sb22  1  0.50000000  0.00000000  0.50000000  1
  Sb  Sb23  1  0.50000000  0.50000000  0.50000000  1
  S  S24  1  0.12500000  0.12500000  0.12500000  1
  S  S25  1  0.87500000  0.87500000  0.87500000  1
  O  O26  1  0.06471602  0.06471602  0.06471602  1
  O  O27  1  0.06471602  0.30585194  0.06471602  1
  O  O28  1  0.06471602  0.06471602  0.30585194  1
  O  O29  1  0.30585194  0.06471602  0.06471602  1
  O  O30  1  0.13364098  0.40519562  0.30304774  1
  O  O31  1  0.30304774  0.13364098  0.40519562  1
  O  O32  1  0.13364098  0.30304774  0.65811666  1
  O  O33  1  0.40519562  0.30304774  0.13364098  1
  O  O34  1  0.13364098  0.65811666  0.40519562  1
  O  O35  1  0.30304774  0.65811666  0.13364098  1
  O  O36  1  0.40519562  0.13364098  0.65811666  1
  O  O37  1  0.30304774  0.40519562  0.65811666  1
  O  O38  1  0.65811666  0.13364098  0.30304774  1
  O  O39  1  0.40519562  0.65811666  0.30304774  1
  O  O40  1  0.65811666  0.40519562  0.13364098  1
  O  O41  1  0.34188334  0.69695226  0.59480438  1
  O  O42  1  0.65811666  0.30304774  0.40519562  1
  O  O43  1  0.34188334  0.59480438  0.86635902  1
  O  O44  1  0.59480438  0.34188334  0.69695226  1
  O  O45  1  0.34188334  0.86635902  0.69695226  1
  O  O46  1  0.69695226  0.59480438  0.34188334  1
  O  O47  1  0.59480438  0.86635902  0.34188334  1
  O  O48  1  0.69695226  0.34188334  0.86635902  1
  O  O49  1  0.86635902  0.34188334  0.59480438  1
  O  O50  1  0.59480438  0.69695226  0.86635902  1
  O  O51  1  0.86635902  0.69695226  0.34188334  1
  O  O52  1  0.69695226  0.86635902  0.59480438  1
  O  O53  1  0.86635902  0.59480438  0.69695226  1
  O  O54  1  0.69414806  0.93528398  0.93528398  1
  O  O55  1  0.93528398  0.69414806  0.93528398  1
  O  O56  1  0.93528398  0.93528398  0.69414806  1
  O  O57  1  0.93528398  0.93528398  0.93528398  1
