# generated using pymatgen
data_LiFe3(OF3)2
_symmetry_space_group_name_H-M   'P 1'
_cell_length_a   7.54998019
_cell_length_b   7.15166073
_cell_length_c   5.17885166
_cell_angle_alpha   90.26962688
_cell_angle_beta   90.81239254
_cell_angle_gamma   78.92283345
_symmetry_Int_Tables_number   1
_chemical_formula_structural   LiFe3(OF3)2
_chemical_formula_sum   'Li2 Fe6 O4 F12'
_cell_volume   274.39368792
_cell_formula_units_Z   2
loop_
 _symmetry_equiv_pos_site_id
 _symmetry_equiv_pos_as_xyz
  1  'x, y, z'
loop_
 _atom_site_type_symbol
 _atom_site_label
 _atom_site_symmetry_multiplicity
 _atom_site_fract_x
 _atom_site_fract_y
 _atom_site_fract_z
 _atom_site_occupancy
  Li  Li0  1  0.16311996  0.16079384  0.78612332  1
  Li  Li1  1  0.83688004  0.83920616  0.21387668  1
  Fe  Fe2  1  0.17856071  0.66131328  0.71377776  1
  Fe  Fe3  1  0.32445562  0.83187182  0.24203854  1
  Fe  Fe4  1  0.68007535  0.68264253  0.73980449  1
  Fe  Fe5  1  0.31992465  0.31735747  0.26019551  1
  Fe  Fe6  1  0.67554438  0.16812818  0.75796146  1
  Fe  Fe7  1  0.82143929  0.33868672  0.28622224  1
  O  O8  1  0.29963087  0.57718138  0.40362004  1
  O  O9  1  0.68923182  0.92219166  0.88459984  1
  O  O10  1  0.31076818  0.07780834  0.11540016  1
  O  O11  1  0.70036913  0.42281862  0.59637996  1
  F  F12  1  0.19144108  0.92060429  0.57672566  1
  F  F13  1  0.09153447  0.80354171  0.04147129  1
  F  F14  1  0.42566951  0.68702570  0.90431105  1
  F  F15  1  0.19313993  0.42774881  0.91698195  1
  F  F16  1  0.06963870  0.31384168  0.42522192  1
  F  F17  1  0.56986553  0.79772483  0.40785467  1
  F  F18  1  0.43013447  0.20227517  0.59214533  1
  F  F19  1  0.93036130  0.68615832  0.57477808  1
  F  F20  1  0.80686007  0.57225119  0.08301805  1
  F  F21  1  0.57433049  0.31297430  0.09568895  1
  F  F22  1  0.90846553  0.19645829  0.95852871  1
  F  F23  1  0.80855892  0.07939571  0.42327434  1
