# generated using pymatgen
data_Co3O5F
_symmetry_space_group_name_H-M   'P 1'
_cell_length_a   4.51436568
_cell_length_b   13.53853270
_cell_length_c   2.91112318
_cell_angle_alpha   90.00000000
_cell_angle_beta   90.00000000
_cell_angle_gamma   93.00879668
_symmetry_Int_Tables_number   1
_chemical_formula_structural   Co3O5F
_chemical_formula_sum   'Co6 O10 F2'
_cell_volume   177.67643125
_cell_formula_units_Z   2
loop_
 _symmetry_equiv_pos_site_id
 _symmetry_equiv_pos_as_xyz
  1  'x, y, z'
loop_
 _atom_site_type_symbol
 _atom_site_label
 _atom_site_symmetry_multiplicity
 _atom_site_fract_x
 _atom_site_fract_y
 _atom_site_fract_z
 _atom_site_occupancy
  Co  Co0  1  0.00000000  0.00000000  0.00000000  1
  Co  Co1  1  0.97723304  0.34344037  0.00000000  1
  Co  Co2  1  0.02276696  0.65655963  0.00000000  1
  Co  Co3  1  0.52377037  0.15798989  0.50000000  1
  Co  Co4  1  0.50000000  0.50000000  0.50000000  1
  Co  Co5  1  0.47623063  0.84201011  0.50000000  1
  O  O6  1  0.18000632  0.93778233  0.50000000  1
  O  O7  1  0.21711589  0.59515425  0.50000000  1
  O  O8  1  0.30812383  0.76971379  0.00000000  1
  O  O9  1  0.31303995  0.09933612  0.00000000  1
  O  O10  1  0.30310558  0.43654818  0.00000000  1
  O  O11  1  0.69689442  0.56345182  0.00000000  1
  O  O12  1  0.69187617  0.23028621  0.00000000  1
  O  O13  1  0.68696005  0.90066388  0.00000000  1
  O  O14  1  0.81999368  0.06221767  0.50000000  1
  O  O15  1  0.78288411  0.40484575  0.50000000  1
  F  F16  1  0.18754771  0.26989034  0.50000000  1
  F  F17  1  0.81245229  0.73010966  0.50000000  1
