# generated using pymatgen
data_LiMnSiO4
_symmetry_space_group_name_H-M   'P 1'
_cell_length_a   4.79483318
_cell_length_b   6.29146496
_cell_length_c   10.19406784
_cell_angle_alpha   90.00000000
_cell_angle_beta   90.00000000
_cell_angle_gamma   90.00000000
_symmetry_Int_Tables_number   1
_chemical_formula_structural   LiMnSiO4
_chemical_formula_sum   'Li4 Mn4 Si4 O16'
_cell_volume   307.51960175
_cell_formula_units_Z   4
loop_
 _symmetry_equiv_pos_site_id
 _symmetry_equiv_pos_as_xyz
  1  'x, y, z'
loop_
 _atom_site_type_symbol
 _atom_site_label
 _atom_site_symmetry_multiplicity
 _atom_site_fract_x
 _atom_site_fract_y
 _atom_site_fract_z
 _atom_site_occupancy
  Li  Li0  1  0.03760913  0.00369417  0.21833937  1
  Li  Li1  1  0.46239087  0.00369417  0.71833937  1
  Li  Li2  1  0.53760913  0.50369417  0.28166063  1
  Li  Li3  1  0.96239087  0.50369417  0.78166063  1
  Mn  Mn4  1  0.99966825  0.25687767  0.50038613  1
  Mn  Mn5  1  0.50033175  0.25687767  0.00038613  1
  Mn  Mn6  1  0.49966825  0.75687767  0.99961387  1
  Mn  Mn7  1  0.00033175  0.75687767  0.49961387  1
  Si  Si8  1  0.09249792  0.50690686  0.09107847  1
  Si  Si9  1  0.40750208  0.50690686  0.59107847  1
  Si  Si10  1  0.59249792  0.00690686  0.40892153  1
  Si  Si11  1  0.90750208  0.00690686  0.90892153  1
  O  O12  1  0.25690870  0.50634834  0.94147710  1
  O  O13  1  0.24155125  0.28867472  0.14857660  1
  O  O14  1  0.24023053  0.72631251  0.14744986  1
  O  O15  1  0.25721834  0.00688573  0.40779615  1
  O  O16  1  0.24278166  0.00688573  0.90779615  1
  O  O17  1  0.25976947  0.72631251  0.64744986  1
  O  O18  1  0.25844875  0.28867472  0.64857660  1
  O  O19  1  0.24309130  0.50634834  0.44147710  1
  O  O20  1  0.75690870  0.00634834  0.55852290  1
  O  O21  1  0.74155125  0.78867472  0.35142340  1
  O  O22  1  0.74023053  0.22631251  0.35255014  1
  O  O23  1  0.75721834  0.50688573  0.09220385  1
  O  O24  1  0.74278166  0.50688573  0.59220385  1
  O  O25  1  0.75976947  0.22631251  0.85255014  1
  O  O26  1  0.75844875  0.78867472  0.85142340  1
  O  O27  1  0.74309130  0.00634834  0.05852290  1
