# generated using pymatgen
data_Li4V3Cr2O10
_symmetry_space_group_name_H-M   'P 1'
_cell_length_a   5.15615774
_cell_length_b   5.13063667
_cell_length_c   7.94864271
_cell_angle_alpha   110.02401917
_cell_angle_beta   100.86849619
_cell_angle_gamma   100.21149093
_symmetry_Int_Tables_number   1
_chemical_formula_structural   Li4V3Cr2O10
_chemical_formula_sum   'Li4 V3 Cr2 O10'
_cell_volume   187.23788387
_cell_formula_units_Z   1
loop_
 _symmetry_equiv_pos_site_id
 _symmetry_equiv_pos_as_xyz
  1  'x, y, z'
loop_
 _atom_site_type_symbol
 _atom_site_label
 _atom_site_symmetry_multiplicity
 _atom_site_fract_x
 _atom_site_fract_y
 _atom_site_fract_z
 _atom_site_occupancy
  Li  Li0  1  0.22329650  0.93586665  0.43204539  1
  Li  Li1  1  0.50026510  0.48482974  0.50633132  1
  Li  Li2  1  0.61860494  0.71660908  0.23190590  1
  Li  Li3  1  0.79846930  0.08896453  0.58919733  1
  V  V4  1  0.00195534  0.49880923  0.99892189  1
  V  V5  1  0.68027233  0.88068316  0.88491006  1
  V  V6  1  0.30980357  0.11163200  0.10742634  1
  Cr  Cr7  1  0.10053572  0.69992201  0.68810640  1
  Cr  Cr8  1  0.90103469  0.30309125  0.30733239  1
  O  O9  1  0.02951877  0.08613157  0.86018999  1
  O  O10  1  0.33181734  0.71979195  0.94190309  1
  O  O11  1  0.12233592  0.31601344  0.53636130  1
  O  O12  1  0.23196102  0.48315007  0.22941709  1
  O  O13  1  0.46304471  0.88147606  0.67034905  1
  O  O14  1  0.54326632  0.10705331  0.32930007  1
  O  O15  1  0.77594883  0.53663374  0.77228070  1
  O  O16  1  0.86960348  0.68931373  0.45596084  1
  O  O17  1  0.67688084  0.27876921  0.05401664  1
  O  O18  1  0.94043028  0.89966329  0.13464520  1
