# generated using pymatgen
data_LiMn2(BO3)2
_symmetry_space_group_name_H-M   'P 1'
_cell_length_a   5.23662954
_cell_length_b   9.08575471
_cell_length_c   10.34468366
_cell_angle_alpha   91.47525130
_cell_angle_beta   90.66451947
_cell_angle_gamma   88.50569660
_symmetry_Int_Tables_number   1
_chemical_formula_structural   LiMn2(BO3)2
_chemical_formula_sum   'Li4 Mn8 B8 O24'
_cell_volume   491.82705821
_cell_formula_units_Z   4
loop_
 _symmetry_equiv_pos_site_id
 _symmetry_equiv_pos_as_xyz
  1  'x, y, z'
loop_
 _atom_site_type_symbol
 _atom_site_label
 _atom_site_symmetry_multiplicity
 _atom_site_fract_x
 _atom_site_fract_y
 _atom_site_fract_z
 _atom_site_occupancy
  Li  Li0  1  0.94482849  0.93326856  0.31830548  1
  Li  Li1  1  0.88887090  0.92593959  0.85076726  1
  Li  Li2  1  0.58656968  0.57906256  0.06168111  1
  Li  Li3  1  0.59091709  0.56295297  0.59906654  1
  Mn  Mn4  1  0.90800423  0.27629601  0.37894671  1
  Mn  Mn5  1  0.96804917  0.58215133  0.86837672  1
  Mn  Mn6  1  0.54809611  0.92365032  0.11871655  1
  Mn  Mn7  1  0.58782714  0.22323403  0.62049612  1
  Mn  Mn8  1  0.43507293  0.73187234  0.36516200  1
  Mn  Mn9  1  0.38189492  0.11000057  0.87574586  1
  Mn  Mn10  1  0.10746904  0.39518054  0.12203739  1
  Mn  Mn11  1  0.07240763  0.76676793  0.61176988  1
  B  B12  1  0.92830385  0.58057338  0.37939203  1
  B  B13  1  0.88146056  0.24860130  0.86567412  1
  B  B14  1  0.60950321  0.25728660  0.13252903  1
  B  B15  1  0.56187313  0.91721699  0.63339468  1
  B  B16  1  0.42169897  0.07442478  0.37129188  1
  B  B17  1  0.42234786  0.75968763  0.88270283  1
  B  B18  1  0.08626471  0.74134721  0.11415619  1
  B  B19  1  0.08652864  0.42356548  0.62239052  1
  O  O20  1  0.93494106  0.85989640  0.13999752  1
  O  O21  1  0.91852349  0.31963039  0.56734033  1
  O  O22  1  0.98396228  0.61014893  0.06075003  1
  O  O23  1  0.95931236  0.55016473  0.67870940  1
  O  O24  1  0.84636446  0.24141620  0.19524362  1
  O  O25  1  0.81313846  0.92030634  0.66483301  1
  O  O26  1  0.67800908  0.56240449  0.40590368  1
  O  O27  1  0.64349841  0.26001406  0.80355307  1
  O  O28  1  0.54995279  0.95170786  0.30875975  1
  O  O29  1  0.52707007  0.89524473  0.92823634  1
  O  O30  1  0.59133050  0.17120705  0.43436676  1
  O  O31  1  0.56964900  0.63621748  0.87577133  1
  O  O32  1  0.49574462  0.39045903  0.11463088  1
  O  O33  1  0.45263952  0.79238080  0.57780924  1
  O  O34  1  0.49489199  0.13175186  0.08142799  1
  O  O35  1  0.40756304  0.04373966  0.66087912  1
  O  O36  1  0.35243302  0.73646744  0.14330259  1
  O  O37  1  0.34011268  0.40933741  0.61718947  1
  O  O38  1  0.16804872  0.09138174  0.37161526  1
  O  O39  1  0.16136703  0.76563472  0.84770143  1
  O  O40  1  0.07573559  0.45903443  0.33362136  1
  O  O41  1  0.99399044  0.37589980  0.91390982  1
  O  O42  1  0.04586945  0.71548620  0.40275995  1
  O  O43  1  0.99853865  0.11766113  0.88717617  1
