# generated using pymatgen
data_Fe10O11F9
_symmetry_space_group_name_H-M   'P 1'
_cell_length_a   4.70765188
_cell_length_b   4.70563574
_cell_length_c   15.49676771
_cell_angle_alpha   89.71922249
_cell_angle_beta   89.84044524
_cell_angle_gamma   89.45376535
_symmetry_Int_Tables_number   1
_chemical_formula_structural   Fe10O11F9
_chemical_formula_sum   'Fe10 O11 F9'
_cell_volume   343.27105940
_cell_formula_units_Z   1
loop_
 _symmetry_equiv_pos_site_id
 _symmetry_equiv_pos_as_xyz
  1  'x, y, z'
loop_
 _atom_site_type_symbol
 _atom_site_label
 _atom_site_symmetry_multiplicity
 _atom_site_fract_x
 _atom_site_fract_y
 _atom_site_fract_z
 _atom_site_occupancy
  Fe  Fe0  1  0.03116909  0.00746878  0.00643629  1
  Fe  Fe1  1  0.00711829  0.98342040  0.19443543  1
  Fe  Fe2  1  0.01563521  0.97388144  0.39762993  1
  Fe  Fe3  1  0.03968415  0.00138277  0.59880435  1
  Fe  Fe4  1  0.03984219  0.99433935  0.80201332  1
  Fe  Fe5  1  0.50120980  0.47972189  0.09655216  1
  Fe  Fe6  1  0.47411664  0.50359370  0.49511153  1
  Fe  Fe7  1  0.47964523  0.51731313  0.31022833  1
  Fe  Fe8  1  0.45980993  0.49371066  0.69772731  1
  Fe  Fe9  1  0.45977716  0.49930870  0.89904887  1
  O  O10  1  0.20785846  0.79129656  0.10262471  1
  O  O11  1  0.18349884  0.80522646  0.29516645  1
  O  O12  1  0.19172167  0.80814444  0.49893187  1
  O  O13  1  0.19697779  0.81443266  0.69974412  1
  O  O14  1  0.19476678  0.81444337  0.90362018  1
  O  O15  1  0.31446925  0.30788731  0.00115163  1
  O  O16  1  0.29384437  0.29669119  0.39905891  1
  O  O17  1  0.30634182  0.31342042  0.59665413  1
  O  O18  1  0.30213336  0.31245080  0.79981384  1
  O  O19  1  0.69447025  0.69605784  0.40091961  1
  O  O20  1  0.80843902  0.19121549  0.10291316  1
  F  F21  1  0.30912677  0.30318606  0.20277713  1
  F  F22  1  0.70239683  0.69714401  0.99920130  1
  F  F23  1  0.68732386  0.68383849  0.20113119  1
  F  F24  1  0.69918423  0.70278277  0.60044133  1
  F  F25  1  0.69773258  0.70401814  0.80149772  1
  F  F26  1  0.80145941  0.19647835  0.50081024  1
  F  F27  1  0.79532839  0.19693434  0.29528524  1
  F  F28  1  0.80284911  0.20553555  0.90094865  1
  F  F29  1  0.80206749  0.20467595  0.69932009  1
