# generated using pymatgen
data_Fe10O9F11
_symmetry_space_group_name_H-M   'P 1'
_cell_length_a   4.78247627
_cell_length_b   4.77972378
_cell_length_c   15.44881168
_cell_angle_alpha   90.12402835
_cell_angle_beta   90.02599392
_cell_angle_gamma   93.30841717
_symmetry_Int_Tables_number   1
_chemical_formula_structural   Fe10O9F11
_chemical_formula_sum   'Fe10 O9 F11'
_cell_volume   352.55363043
_cell_formula_units_Z   1
loop_
 _symmetry_equiv_pos_site_id
 _symmetry_equiv_pos_as_xyz
  1  'x, y, z'
loop_
 _atom_site_type_symbol
 _atom_site_label
 _atom_site_symmetry_multiplicity
 _atom_site_fract_x
 _atom_site_fract_y
 _atom_site_fract_z
 _atom_site_occupancy
  Fe  Fe0  1  0.00900740  0.98742724  0.00552073  1
  Fe  Fe1  1  0.97792542  0.95497278  0.19646531  1
  Fe  Fe2  1  0.99917597  0.99812465  0.39938832  1
  Fe  Fe3  1  0.03673594  0.01664485  0.60329615  1
  Fe  Fe4  1  0.03754808  0.01631232  0.79656036  1
  Fe  Fe5  1  0.47666366  0.53708861  0.09588081  1
  Fe  Fe6  1  0.49818395  0.48729687  0.49169470  1
  Fe  Fe7  1  0.51033213  0.49786072  0.30482677  1
  Fe  Fe8  1  0.45100493  0.51985621  0.69955786  1
  Fe  Fe9  1  0.50302435  0.47767994  0.90769844  1
  O  O10  1  0.18107374  0.80467066  0.10055199  1
  O  O11  1  0.19402874  0.82114414  0.70069004  1
  O  O12  1  0.29752959  0.30044932  0.00008398  1
  O  O13  1  0.30821286  0.29905138  0.39881047  1
  O  O14  1  0.31494769  0.31855120  0.59953186  1
  O  O15  1  0.31635312  0.31980023  0.80215077  1
  O  O16  1  0.69361155  0.70190247  0.99574961  1
  O  O17  1  0.67651438  0.67785717  0.19938190  1
  O  O18  1  0.69868397  0.68905266  0.40169801  1
  F  F19  1  0.19401559  0.78736390  0.29235581  1
  F  F20  1  0.20522240  0.80065769  0.50878679  1
  F  F21  1  0.19621442  0.80974783  0.89729131  1
  F  F22  1  0.28182435  0.28891951  0.19999387  1
  F  F23  1  0.70514054  0.71061654  0.60223605  1
  F  F24  1  0.70722666  0.71178917  0.79946814  1
  F  F25  1  0.79807404  0.18683218  0.10010457  1
  F  F26  1  0.80578216  0.19756276  0.51179483  1
  F  F27  1  0.79578145  0.18688981  0.29015422  1
  F  F28  1  0.81516404  0.19041749  0.89645626  1
  F  F29  1  0.81499688  0.20346067  0.70182008  1
