# generated using pymatgen
data_LiMn2(BO3)2
_symmetry_space_group_name_H-M   'P 1'
_cell_length_a   5.77864549
_cell_length_b   5.28782317
_cell_length_c   22.10295556
_cell_angle_alpha   89.32095411
_cell_angle_beta   90.69244928
_cell_angle_gamma   113.70688764
_symmetry_Int_Tables_number   1
_chemical_formula_structural   LiMn2(BO3)2
_chemical_formula_sum   'Li5 Mn10 B10 O30'
_cell_volume   618.33167384
_cell_formula_units_Z   5
loop_
 _symmetry_equiv_pos_site_id
 _symmetry_equiv_pos_as_xyz
  1  'x, y, z'
loop_
 _atom_site_type_symbol
 _atom_site_label
 _atom_site_symmetry_multiplicity
 _atom_site_fract_x
 _atom_site_fract_y
 _atom_site_fract_z
 _atom_site_occupancy
  Li  Li0  1  0.94805273  0.38420546  0.38763450  1
  Li  Li1  1  0.85355431  0.02112676  0.81215534  1
  Li  Li2  1  0.14890568  0.98571729  0.18837092  1
  Li  Li3  1  0.34727988  0.57959625  0.98847065  1
  Li  Li4  1  0.05264657  0.61734290  0.61265124  1
  Mn  Mn5  1  0.86682615  0.52173571  0.87881200  1
  Mn  Mn6  1  0.72248575  0.27207424  0.52354021  1
  Mn  Mn7  1  0.93384690  0.87755719  0.32224996  1
  Mn  Mn8  1  0.47631088  0.32855871  0.27886074  1
  Mn  Mn9  1  0.67742694  0.92893641  0.07763967  1
  Mn  Mn10  1  0.33167306  0.07519560  0.92117719  1
  Mn  Mn11  1  0.52232226  0.67229129  0.72304202  1
  Mn  Mn12  1  0.06540347  0.12321394  0.67827274  1
  Mn  Mn13  1  0.27635558  0.72438394  0.47720693  1
  Mn  Mn14  1  0.13274999  0.47806509  0.12295461  1
  B  B15  1  0.99927008  0.57621668  0.74780375  1
  B  B16  1  0.60190780  0.22365843  0.65434211  1
  B  B17  1  0.80577100  0.82579796  0.45067663  1
  B  B18  1  0.59697724  0.37656372  0.14595378  1
  B  B19  1  0.79576532  0.97162816  0.94444839  1
  B  B20  1  0.20035042  0.02383967  0.05245177  1
  B  B21  1  0.40302978  0.62767404  0.85636282  1
  B  B22  1  0.19402046  0.17370827  0.54961715  1
  B  B23  1  0.39728221  0.77526260  0.34608706  1
  B  B24  1  0.00237637  0.42398334  0.25218351  1
  O  O25  1  0.87757661  0.00383366  0.40194913  1
  O  O26  1  0.94256132  0.40298103  0.79604205  1
  O  O27  1  0.87862773  0.47980212  0.30175048  1
  O  O28  1  0.69897447  0.02711485  0.66822549  1
  O  O29  1  0.88113640  0.60690124  0.45766069  1
  O  O30  1  0.70402254  0.17432295  0.93262444  1
  O  O31  1  0.93166148  0.80126911  0.74337128  1
  O  O32  1  0.77250243  0.35185097  0.10508602  1
  O  O33  1  0.95744483  0.94575942  0.89865782  1
  O  O34  1  0.68653870  0.40154160  0.60629903  1
  O  O35  1  0.51218615  0.20305010  0.19356313  1
  O  O36  1  0.71530537  0.79621547  0.99154906  1
  O  O37  1  0.42855422  0.25117137  0.69490753  1
  O  O38  1  0.66200861  0.87635027  0.49503231  1
  O  O39  1  0.48478441  0.41923765  0.86707982  1
  O  O40  1  0.49910453  0.57346582  0.13130613  1
  O  O41  1  0.34425376  0.13002211  0.50539368  1
  O  O42  1  0.57210879  0.75063660  0.30524053  1
  O  O43  1  0.25768671  0.19582176  0.00341768  1
  O  O44  1  0.48571438  0.80346449  0.80881965  1
  O  O45  1  0.31272414  0.59737256  0.39306990  1
  O  O46  1  0.07597793  0.07796153  0.10231981  1
  O  O47  1  0.25071722  0.66420689  0.90250574  1
  O  O48  1  0.06464903  0.19669054  0.25641486  1
  O  O49  1  0.26777120  0.79934268  0.05716362  1
  O  O50  1  0.11300364  0.39088945  0.54194994  1
  O  O51  1  0.30010812  0.97307571  0.33240457  1
  O  O52  1  0.12389067  0.52447323  0.69751694  1
  O  O53  1  0.06852757  0.60228308  0.20390633  1
  O  O54  1  0.12251526  0.99707210  0.59805863  1
