# generated using pymatgen
data_Co2OF3
_symmetry_space_group_name_H-M   'P 1'
_cell_length_a   4.73604845
_cell_length_b   10.39074847
_cell_length_c   5.71663486
_cell_angle_alpha   83.39828445
_cell_angle_beta   90.00000000
_cell_angle_gamma   90.00000000
_symmetry_Int_Tables_number   1
_chemical_formula_structural   Co2OF3
_chemical_formula_sum   'Co8 O4 F12'
_cell_volume   279.45646804
_cell_formula_units_Z   4
loop_
 _symmetry_equiv_pos_site_id
 _symmetry_equiv_pos_as_xyz
  1  'x, y, z'
loop_
 _atom_site_type_symbol
 _atom_site_label
 _atom_site_symmetry_multiplicity
 _atom_site_fract_x
 _atom_site_fract_y
 _atom_site_fract_z
 _atom_site_occupancy
  Co  Co0  1  0.50000000  0.00000000  0.50000000  1
  Co  Co1  1  0.50000000  0.50000000  0.00000000  1
  Co  Co2  1  0.53123113  0.73109262  0.25890813  1
  Co  Co3  1  0.46876787  0.26890738  0.74109187  1
  Co  Co4  1  0.03123213  0.76890738  0.74109187  1
  Co  Co5  1  0.00000000  0.50000000  0.50000000  1
  Co  Co6  1  0.96876887  0.23109262  0.25890813  1
  Co  Co7  1  0.00000000  0.00000000  0.00000000  1
  O  O8  1  0.80019401  0.07529416  0.28110717  1
  O  O9  1  0.69980599  0.57529416  0.28110717  1
  O  O10  1  0.30019401  0.42470584  0.71889283  1
  O  O11  1  0.19980599  0.92470584  0.71889283  1
  F  F12  1  0.79965807  0.32074550  0.52179012  1
  F  F13  1  0.81473923  0.58805521  0.77573391  1
  F  F14  1  0.80094017  0.82412134  0.01548538  1
  F  F15  1  0.70034193  0.82074550  0.52179012  1
  F  F16  1  0.68526077  0.08805521  0.77573391  1
  F  F17  1  0.69905983  0.32412134  0.01548538  1
  F  F18  1  0.31473923  0.91194479  0.22426609  1
  F  F19  1  0.30094017  0.67587866  0.98451462  1
  F  F20  1  0.29965807  0.17925450  0.47820988  1
  F  F21  1  0.19905983  0.17587866  0.98451462  1
  F  F22  1  0.20034193  0.67925450  0.47820988  1
  F  F23  1  0.18526077  0.41194479  0.22426609  1
