# generated using pymatgen
data_Fe9PO12
_symmetry_space_group_name_H-M   'P 1'
_cell_length_a   3.10432132
_cell_length_b   6.00777326
_cell_length_c   13.64119294
_cell_angle_alpha   77.27880665
_cell_angle_beta   90.00000000
_cell_angle_gamma   90.00000000
_symmetry_Int_Tables_number   1
_chemical_formula_structural   Fe9PO12
_chemical_formula_sum   'Fe9 P1 O12'
_cell_volume   248.16410919
_cell_formula_units_Z   1
loop_
 _symmetry_equiv_pos_site_id
 _symmetry_equiv_pos_as_xyz
  1  'x, y, z'
loop_
 _atom_site_type_symbol
 _atom_site_label
 _atom_site_symmetry_multiplicity
 _atom_site_fract_x
 _atom_site_fract_y
 _atom_site_fract_z
 _atom_site_occupancy
  Fe  Fe0  1  0.00000000  0.49599849  0.00800301  1
  Fe  Fe1  1  0.00000000  0.32722435  0.34555129  1
  Fe  Fe2  1  -0.00000000  0.67617980  0.64764040  1
  Fe  Fe3  1  0.50000000  0.66770411  0.17645617  1
  Fe  Fe4  1  0.50000000  0.33048861  0.82923946  1
  Fe  Fe5  1  0.50000000  0.84027193  0.82923946  1
  Fe  Fe6  1  0.50000000  0.15583972  0.17645617  1
  Fe  Fe7  1  0.00000000  0.00006397  0.99987205  1
  Fe  Fe8  1  0.50000000  0.79353378  0.41293244  1
  P  P9  1  0.50000000  0.20323898  0.59352205  1
  O  O10  1  0.50000000  0.57043012  0.33470725  1
  O  O11  1  0.50000000  0.38764497  0.65818082  1
  O  O12  1  0.50000000  0.95417422  0.65818082  1
  O  O13  1  0.50000000  0.09486264  0.33470725  1
  O  O14  1  0.50000000  0.74540218  0.99588140  1
  O  O15  1  0.50000000  0.25871642  0.99588140  1
  O  O16  1  0.00000000  0.59804748  0.80390504  1
  O  O17  1  0.00000000  0.41414408  0.17171185  1
  O  O18  1  0.00000000  0.07681192  0.84637616  1
  O  O19  1  0.00000000  0.92525834  0.14948332  1
  O  O20  1  0.00000000  0.23292714  0.53414572  1
  O  O21  1  0.00000000  0.75103675  0.49792650  1
