# generated using pymatgen
data_Li4Cu2Ni3Sb3O16
_symmetry_space_group_name_H-M   'P 1'
_cell_length_a   6.06375013
_cell_length_b   6.02916156
_cell_length_c   9.66925869
_cell_angle_alpha   90.01521895
_cell_angle_beta   92.12432166
_cell_angle_gamma   119.80982489
_symmetry_Int_Tables_number   1
_chemical_formula_structural   Li4Cu2Ni3Sb3O16
_chemical_formula_sum   'Li4 Cu2 Ni3 Sb3 O16'
_cell_volume   306.44432100
_cell_formula_units_Z   1
loop_
 _symmetry_equiv_pos_site_id
 _symmetry_equiv_pos_as_xyz
  1  'x, y, z'
loop_
 _atom_site_type_symbol
 _atom_site_label
 _atom_site_symmetry_multiplicity
 _atom_site_fract_x
 _atom_site_fract_y
 _atom_site_fract_z
 _atom_site_occupancy
  Li  Li0  1  0.34135852  0.67055530  0.88567963  1
  Li  Li1  1  0.94886399  0.97436883  0.98593757  1
  Li  Li2  1  0.97436121  0.98716919  0.50377894  1
  Li  Li3  1  0.65791038  0.32904702  0.40241109  1
  Cu  Cu4  1  0.35045862  0.67559315  0.49502465  1
  Cu  Cu5  1  0.70376324  0.35175630  0.97490202  1
  Ni  Ni6  1  0.65893561  0.82947458  0.21582809  1
  Ni  Ni7  1  0.83791821  0.66378300  0.71327043  1
  Ni  Ni8  1  0.83762395  0.17387205  0.71321055  1
  Sb  Sb9  1  0.16549774  0.82961121  0.21443487  1
  Sb  Sb10  1  0.16550625  0.33591566  0.21447948  1
  Sb  Sb11  1  0.34737083  0.17383459  0.71359345  1
  O  O12  1  0.17376120  0.84211028  0.59963589  1
  O  O13  1  0.02478839  0.51249429  0.33517165  1
  O  O14  1  0.32000883  0.65994219  0.10020814  1
  O  O15  1  0.00398750  0.00203812  0.31861982  1
  O  O16  1  0.01165103  0.00608276  0.80579301  1
  O  O17  1  0.17395796  0.33198824  0.59966620  1
  O  O18  1  0.47306313  0.96397647  0.34046515  1
  O  O19  1  0.47307362  0.50934745  0.34051253  1
  O  O20  1  0.30588708  0.15291282  0.10263453  1
  O  O21  1  0.67442044  0.83760381  0.60729928  1
  O  O22  1  0.52600097  0.48205610  0.84539018  1
  O  O23  1  0.52556815  0.04370325  0.84531222  1
  O  O24  1  0.66454411  0.33201339  0.60516795  1
  O  O25  1  0.84362566  0.67463566  0.09802386  1
  O  O26  1  0.97253143  0.48560413  0.83330333  1
  O  O27  1  0.84355896  0.16881016  0.09808447  1
