# generated using pymatgen
data_LiMn2(BO3)2
_symmetry_space_group_name_H-M   'P 1'
_cell_length_a   5.77968643
_cell_length_b   5.29549754
_cell_length_c   13.42474034
_cell_angle_alpha   89.00607640
_cell_angle_beta   82.49698991
_cell_angle_gamma   113.72458143
_symmetry_Int_Tables_number   1
_chemical_formula_structural   LiMn2(BO3)2
_chemical_formula_sum   'Li3 Mn6 B6 O18'
_cell_volume   371.83053992
_cell_formula_units_Z   3
loop_
 _symmetry_equiv_pos_site_id
 _symmetry_equiv_pos_as_xyz
  1  'x, y, z'
loop_
 _atom_site_type_symbol
 _atom_site_label
 _atom_site_symmetry_multiplicity
 _atom_site_fract_x
 _atom_site_fract_y
 _atom_site_fract_z
 _atom_site_occupancy
  Li  Li0  1  0.98131368  0.09030591  0.68916518  1
  Li  Li1  1  0.35533529  0.58368009  0.98131100  1
  Li  Li2  1  0.02096454  0.91902576  0.31406084  1
  Mn  Mn3  1  0.94109769  0.56065293  0.80198161  1
  Mn  Mn4  1  0.37991178  0.10135920  0.86917980  1
  Mn  Mn5  1  0.70474356  0.75692805  0.54415167  1
  Mn  Mn6  1  0.28974362  0.22981820  0.46357802  1
  Mn  Mn7  1  0.62614507  0.90268922  0.12918048  1
  Mn  Mn8  1  0.05396673  0.43454143  0.20333064  1
  B  B9  1  0.83966736  0.34240904  0.41869763  1
  B  B10  1  0.82954557  0.99031221  0.90774245  1
  B  B11  1  0.49615963  0.67440614  0.76068107  1
  B  B12  1  0.50093647  0.32703419  0.24158583  1
  B  B13  1  0.16546904  0.00198985  0.08656459  1
  B  B14  1  0.16527621  0.66067736  0.58360714  1
  O  O15  1  0.89623873  0.11313263  0.43180516  1
  O  O16  1  0.73608179  0.18831257  0.88738169  1
  O  O17  1  0.03009910  0.99234819  0.83236883  1
  O  O18  1  0.94814115  0.53240177  0.33655459  1
  O  O19  1  0.72330879  0.79740575  0.98512332  1
  O  O20  1  0.67464834  0.39368469  0.49317367  1
  O  O21  1  0.55833638  0.45454271  0.77628059  1
  O  O22  1  0.70519130  0.31589052  0.17425784  1
  O  O23  1  0.61506187  0.86678612  0.67993305  1
  O  O24  1  0.38201290  0.13806757  0.32049520  1
  O  O25  1  0.32521168  0.71217241  0.83818286  1
  O  O26  1  0.41424424  0.52858961  0.21639569  1
  O  O27  1  0.36003799  0.65339164  0.51093753  1
  O  O28  1  0.25679257  0.19351897  0.00538275  1
  O  O29  1  0.06850067  0.47096211  0.66308578  1
  O  O30  1  0.00815716  0.03942035  0.16929694  1
  O  O31  1  0.23059981  0.77726572  0.09294544  1
  O  O32  1  0.07145229  0.86737211  0.56867411  1
