# generated using pymatgen
data_Mn6O5F7
_symmetry_space_group_name_H-M   'P 1'
_cell_length_a   4.72227545
_cell_length_b   5.72789151
_cell_length_c   15.59270735
_cell_angle_alpha   90.30341012
_cell_angle_beta   88.96354424
_cell_angle_gamma   91.67353509
_symmetry_Int_Tables_number   1
_chemical_formula_structural   Mn6O5F7
_chemical_formula_sum   'Mn12 O10 F14'
_cell_volume   421.50850343
_cell_formula_units_Z   2
loop_
 _symmetry_equiv_pos_site_id
 _symmetry_equiv_pos_as_xyz
  1  'x, y, z'
loop_
 _atom_site_type_symbol
 _atom_site_label
 _atom_site_symmetry_multiplicity
 _atom_site_fract_x
 _atom_site_fract_y
 _atom_site_fract_z
 _atom_site_occupancy
  Mn  Mn0  1  0.04906248  0.16232921  0.41406347  1
  Mn  Mn1  1  0.97857949  0.84545791  0.24950013  1
  Mn  Mn2  1  0.04120030  0.15975348  0.07942847  1
  Mn  Mn3  1  0.98635698  0.15611009  0.74518194  1
  Mn  Mn4  1  0.02236501  0.85988325  0.57834049  1
  Mn  Mn5  1  0.06466723  0.83357627  0.91574201  1
  Mn  Mn6  1  0.49381944  0.33485602  0.58849049  1
  Mn  Mn7  1  0.48965406  0.34850838  0.92219750  1
  Mn  Mn8  1  0.47720763  0.35029652  0.24663484  1
  Mn  Mn9  1  0.51186895  0.63628988  0.08753226  1
  Mn  Mn10  1  0.47274276  0.65174479  0.42454743  1
  Mn  Mn11  1  0.48665572  0.65519131  0.75033367  1
  O  O12  1  0.21587890  0.11398405  0.30088385  1
  O  O13  1  0.21308798  0.11375504  0.63670064  1
  O  O14  1  0.24482119  0.11547835  0.97423003  1
  O  O15  1  0.23318957  0.88418741  0.47370120  1
  O  O16  1  0.21965630  0.89304162  0.80012549  1
  O  O17  1  0.28403722  0.37963020  0.13855768  1
  O  O18  1  0.29007536  0.39069290  0.48076810  1
  O  O19  1  0.30958030  0.60216724  0.97936280  1
  O  O20  1  0.70799422  0.61519003  0.19629929  1
  O  O21  1  0.69611879  0.37867202  0.69628307  1
  F  F22  1  0.23682623  0.88055475  0.14071397  1
  F  F23  1  0.23008206  0.61191485  0.31182674  1
  F  F24  1  0.25198866  0.61262838  0.64207134  1
  F  F25  1  0.23942705  0.40331322  0.81160509  1
  F  F26  1  0.76857835  0.38051004  0.02515199  1
  F  F27  1  0.70676683  0.39165052  0.35749397  1
  F  F28  1  0.74919938  0.61843129  0.53376759  1
  F  F29  1  0.73454822  0.61326467  0.86289387  1
  F  F30  1  0.78055758  0.11610032  0.18319541  1
  F  F31  1  0.77759708  0.13267235  0.51751259  1
  F  F32  1  0.74057976  0.88223430  0.36465531  1
  F  F33  1  0.79288992  0.87428668  0.02916324  1
  F  F34  1  0.74903275  0.12487239  0.85973952  1
  F  F35  1  0.75330825  0.87677127  0.68130451  1
