# generated using pymatgen
data_Gd2Nb2N2O5
_symmetry_space_group_name_H-M   'P 1'
_cell_length_a   7.89320973
_cell_length_b   13.58887314
_cell_length_c   5.54526753
_cell_angle_alpha   90.60592459
_cell_angle_beta   90.29651070
_cell_angle_gamma   98.48654864
_symmetry_Int_Tables_number   1
_chemical_formula_structural   Gd2Nb2N2O5
_chemical_formula_sum   'Gd8 Nb8 N8 O20'
_cell_volume   588.22531969
_cell_formula_units_Z   4
loop_
 _symmetry_equiv_pos_site_id
 _symmetry_equiv_pos_as_xyz
  1  'x, y, z'
loop_
 _atom_site_type_symbol
 _atom_site_label
 _atom_site_symmetry_multiplicity
 _atom_site_fract_x
 _atom_site_fract_y
 _atom_site_fract_z
 _atom_site_occupancy
  Gd  Gd0  1  0.12921386  0.56444374  0.34716411  1
  Gd  Gd1  1  0.22058666  0.91692589  0.76816115  1
  Gd  Gd2  1  0.27933357  0.12994057  0.25093399  1
  Gd  Gd3  1  0.34275021  0.38486580  0.75848109  1
  Gd  Gd4  1  0.66600312  0.60801860  0.27302093  1
  Gd  Gd5  1  0.72573502  0.87394441  0.74925527  1
  Gd  Gd6  1  0.77462281  0.08372383  0.27716072  1
  Gd  Gd7  1  0.86364599  0.43592632  0.82930748  1
  Nb  Nb8  1  0.07209812  0.32454355  0.28191227  1
  Nb  Nb9  1  0.01509228  0.10922218  0.75957561  1
  Nb  Nb10  1  0.41206667  0.67338670  0.78965455  1
  Nb  Nb11  1  0.46171095  0.88004661  0.27072972  1
  Nb  Nb12  1  0.53328108  0.12043336  0.76885315  1
  Nb  Nb13  1  0.60008281  0.32674754  0.27549731  1
  Nb  Nb14  1  0.97118638  0.87829970  0.25846217  1
  Nb  Nb15  1  0.92528323  0.67380551  0.79162536  1
  N  N16  1  0.08404468  0.41112419  0.55141598  1
  N  N17  1  0.22586037  0.88511890  0.33752605  1
  N  N18  1  0.94829656  0.98378682  0.54561572  1
  N  N19  1  0.86221891  0.56967530  0.55671026  1
  N  N20  1  0.77460323  0.11528293  0.84396908  1
  N  N21  1  0.82475180  0.30831904  0.17839697  1
  N  N22  1  0.98035573  0.82461258  0.92942415  1
  N  N23  1  0.92129736  0.58728546  0.05487323  1
  O  O24  1  0.02081854  0.18039703  0.43288646  1
  O  O25  1  0.17970628  0.69051835  0.66987712  1
  O  O26  1  0.14360833  0.43143932  0.05441379  1
  O  O27  1  0.06102496  0.02514720  0.04545221  1
  O  O28  1  0.13839788  0.22682045  0.94819349  1
  O  O29  1  0.36734230  0.61803466  0.08818714  1
  O  O30  1  0.42920261  0.82491230  0.92757778  1
  O  O31  1  0.27766127  0.08258050  0.65049550  1
  O  O32  1  0.32534669  0.29855593  0.37713777  1
  O  O33  1  0.41644705  0.55717088  0.58679760  1
  O  O34  1  0.55485260  0.97917329  0.53528302  1
  O  O35  1  0.51035324  0.77013181  0.45880261  1
  O  O36  1  0.48769058  0.23219509  0.96103201  1
  O  O37  1  0.44963255  0.02432640  0.03701360  1
  O  O38  1  0.58056853  0.44354450  0.08303213  1
  O  O39  1  0.66799306  0.69682096  0.86976966  1
  O  O40  1  0.72756720  0.92098352  0.14687246  1
  O  O41  1  0.56795898  0.17439666  0.43190262  1
  O  O42  1  0.62181343  0.38225282  0.59061572  1
  O  O43  1  0.85789051  0.77111783  0.44191199  1
