# generated using pymatgen
data_LiMn(PO3)4
_symmetry_space_group_name_H-M   'P 1'
_cell_length_a   7.42834670
_cell_length_b   7.42834670
_cell_length_c   18.11383552
_cell_angle_alpha   90.00000000
_cell_angle_beta   90.00000000
_cell_angle_gamma   99.79150814
_symmetry_Int_Tables_number   1
_chemical_formula_structural   LiMn(PO3)4
_chemical_formula_sum   'Li4 Mn4 P16 O48'
_cell_volume   984.96750356
_cell_formula_units_Z   4
loop_
 _symmetry_equiv_pos_site_id
 _symmetry_equiv_pos_as_xyz
  1  'x, y, z'
loop_
 _atom_site_type_symbol
 _atom_site_label
 _atom_site_symmetry_multiplicity
 _atom_site_fract_x
 _atom_site_fract_y
 _atom_site_fract_z
 _atom_site_occupancy
  Li  Li0  1  0.20447808  0.09897380  0.39454424  1
  Li  Li1  1  0.90102620  0.79552192  0.60545576  1
  Li  Li2  1  0.79552192  0.90102620  0.89454424  1
  Li  Li3  1  0.09897380  0.20447808  0.10545576  1
  Mn  Mn4  1  0.57676661  0.96549141  0.63395436  1
  Mn  Mn5  1  0.03450859  0.42323339  0.36604564  1
  Mn  Mn6  1  0.42323339  0.03450859  0.13395436  1
  Mn  Mn7  1  0.96549141  0.57676661  0.86604564  1
  P  P8  1  0.04206677  0.76626889  0.09781229  1
  P  P9  1  0.23373111  0.95793323  0.90218771  1
  P  P10  1  0.29840344  0.78771289  0.75845456  1
  P  P11  1  0.21228711  0.70159656  0.24154544  1
  P  P12  1  0.37783475  0.62216525  0.50000000  1
  P  P13  1  0.66022371  0.75974240  0.05885844  1
  P  P14  1  0.24025760  0.33977629  0.94114156  1
  P  P15  1  0.35571450  0.35571450  0.25000000  1
  P  P16  1  0.64428550  0.64428550  0.75000000  1
  P  P17  1  0.33977629  0.24025760  0.55885844  1
  P  P18  1  0.75974240  0.66022371  0.44114156  1
  P  P19  1  0.62216525  0.37783475  0.00000000  1
  P  P20  1  0.78771289  0.29840344  0.74154544  1
  P  P21  1  0.70159656  0.21228711  0.25845456  1
  P  P22  1  0.76626889  0.04206677  0.40218771  1
  P  P23  1  0.95793323  0.23373111  0.59781229  1
  O  O24  1  0.04260982  0.83928798  0.89427668  1
  O  O25  1  0.16071202  0.95739018  0.10572332  1
  O  O26  1  0.34840325  0.94601902  0.96664737  1
  O  O27  1  0.05398098  0.65159675  0.03335263  1
  O  O28  1  0.10869525  0.68360713  0.75979731  1
  O  O29  1  0.31639287  0.89130475  0.24020269  1
  O  O30  1  0.07627931  0.65560065  0.17349802  1
  O  O31  1  0.34439935  0.92372069  0.82650198  1
  O  O32  1  0.35172418  0.89234931  0.68807666  1
  O  O33  1  0.10765069  0.64827582  0.31192334  1
  O  O34  1  0.42037229  0.78950161  0.54678656  1
  O  O35  1  0.21049839  0.57962771  0.45321344  1
  O  O36  1  0.50341703  0.81407910  0.10368114  1
  O  O37  1  0.18592090  0.49658297  0.89631886  1
  O  O38  1  0.35583010  0.56156131  0.22793533  1
  O  O39  1  0.43843869  0.64416990  0.77206467  1
  O  O40  1  0.80428146  0.83628263  0.38594021  1
  O  O41  1  0.16371737  0.19571854  0.61405979  1
  O  O42  1  0.54223419  0.60873441  0.44094903  1
  O  O43  1  0.39126559  0.45776581  0.55905097  1
  O  O44  1  0.24013763  0.30925421  0.31897113  1
  O  O45  1  0.69074579  0.75986237  0.68102887  1
  O  O46  1  0.16318692  0.29481977  0.01508296  1
  O  O47  1  0.70518023  0.83681308  0.98491704  1
  O  O48  1  0.29481977  0.16318692  0.48491704  1
  O  O49  1  0.83681308  0.70518023  0.51508296  1
  O  O50  1  0.30925421  0.24013763  0.18102887  1
  O  O51  1  0.75986237  0.69074579  0.81897113  1
  O  O52  1  0.45776581  0.39126559  0.94094903  1
  O  O53  1  0.60873441  0.54223419  0.05905097  1
  O  O54  1  0.19571854  0.16371737  0.88594021  1
  O  O55  1  0.83628263  0.80428146  0.11405979  1
  O  O56  1  0.64416990  0.43843869  0.72793533  1
  O  O57  1  0.56156131  0.35583010  0.27206467  1
  O  O58  1  0.49658297  0.18592090  0.60368114  1
  O  O59  1  0.81407910  0.50341703  0.39631886  1
  O  O60  1  0.78950161  0.42037229  0.95321344  1
  O  O61  1  0.57962771  0.21049839  0.04678656  1
  O  O62  1  0.64827582  0.10765069  0.18807666  1
  O  O63  1  0.89234931  0.35172418  0.81192334  1
  O  O64  1  0.65560065  0.07627931  0.32650198  1
  O  O65  1  0.92372069  0.34439935  0.67349802  1
  O  O66  1  0.68360713  0.10869525  0.74020269  1
  O  O67  1  0.89130475  0.31639287  0.25979731  1
  O  O68  1  0.65159675  0.05398098  0.46664737  1
  O  O69  1  0.94601902  0.34840325  0.53335263  1
  O  O70  1  0.95739018  0.16071202  0.39427668  1
  O  O71  1  0.83928798  0.04260982  0.60572332  1
