# generated using pymatgen
data_LiCu2P3(HO5)2
_symmetry_space_group_name_H-M   'P 1'
_cell_length_a   8.37546916
_cell_length_b   7.54975915
_cell_length_c   7.54788467
_cell_angle_alpha   110.17720983
_cell_angle_beta   108.51540082
_cell_angle_gamma   75.63407501
_symmetry_Int_Tables_number   1
_chemical_formula_structural   LiCu2P3(HO5)2
_chemical_formula_sum   'Li2 Cu4 P6 H4 O20'
_cell_volume   419.61456636
_cell_formula_units_Z   2
loop_
 _symmetry_equiv_pos_site_id
 _symmetry_equiv_pos_as_xyz
  1  'x, y, z'
loop_
 _atom_site_type_symbol
 _atom_site_label
 _atom_site_symmetry_multiplicity
 _atom_site_fract_x
 _atom_site_fract_y
 _atom_site_fract_z
 _atom_site_occupancy
  Li  Li0  1  0.33427984  0.30118220  0.90945655  1
  Li  Li1  1  0.66572016  0.69881780  0.09054345  1
  Cu  Cu2  1  0.00243261  0.69910798  0.42376807  1
  Cu  Cu3  1  0.40696669  0.57419109  0.62915322  1
  Cu  Cu4  1  0.59303331  0.42580891  0.37084678  1
  Cu  Cu5  1  0.99756739  0.30089202  0.57623193  1
  P  P6  1  0.07955686  0.70434249  0.87314073  1
  P  P7  1  0.28876038  0.25347644  0.28282969  1
  P  P8  1  0.32841012  0.83106950  0.26330797  1
  P  P9  1  0.67158988  0.16893050  0.73669103  1
  P  P10  1  0.71123962  0.74652356  0.71717031  1
  P  P11  1  0.92044314  0.29565751  0.12685927  1
  H  H12  1  0.15128351  0.01539411  0.75320971  1
  H  H13  1  0.24680179  0.00169677  0.60563961  1
  H  H14  1  0.75319821  0.99830323  0.39436039  1
  H  H15  1  0.84871649  0.98460589  0.24679029  1
  O  O16  1  0.19648466  0.09873392  0.71058366  1
  O  O17  1  0.12643149  0.49406973  0.85390470  1
  O  O18  1  0.11737160  0.22384894  0.11235755  1
  O  O19  1  0.10914313  0.77723431  0.72451924  1
  O  O20  1  0.24425635  0.40801340  0.45810128  1
  O  O21  1  0.35055369  0.05623283  0.33442936  1
  O  O22  1  0.15608056  0.83290284  0.08799719  1
  O  O23  1  0.52536313  0.29070879  0.81459353  1
  O  O24  1  0.28366961  0.80035985  0.42652221  1
  O  O25  1  0.41420699  0.28160311  0.18951726  1
  O  O26  1  0.58579301  0.71839689  0.81048274  1
  O  O27  1  0.71633039  0.19964015  0.57347779  1
  O  O28  1  0.47463687  0.70929121  0.18540647  1
  O  O29  1  0.84391944  0.16709716  0.91200281  1
  O  O30  1  0.64944631  0.94376717  0.66557064  1
  O  O31  1  0.75574365  0.59198660  0.54189872  1
  O  O32  1  0.89085687  0.22276569  0.27548076  1
  O  O33  1  0.88262840  0.77615106  0.88764245  1
  O  O34  1  0.87356851  0.50593027  0.14609530  1
  O  O35  1  0.80351534  0.90126608  0.28941634  1
