# generated using pymatgen
data_Li4CoOF5
_symmetry_space_group_name_H-M   'P 1'
_cell_length_a   3.67070420
_cell_length_b   5.42663743
_cell_length_c   6.62492883
_cell_angle_alpha   76.86935728
_cell_angle_beta   106.07109305
_cell_angle_gamma   70.26036718
_symmetry_Int_Tables_number   1
_chemical_formula_structural   Li4CoOF5
_chemical_formula_sum   'Li4 Co1 O1 F5'
_cell_volume   111.60320543
_cell_formula_units_Z   1
loop_
 _symmetry_equiv_pos_site_id
 _symmetry_equiv_pos_as_xyz
  1  'x, y, z'
loop_
 _atom_site_type_symbol
 _atom_site_label
 _atom_site_symmetry_multiplicity
 _atom_site_fract_x
 _atom_site_fract_y
 _atom_site_fract_z
 _atom_site_occupancy
  Li  Li0  1  0.25557548  0.10684646  0.61719339  1
  Li  Li1  1  0.85998404  0.47482997  0.19750570  1
  Li  Li2  1  0.74531363  0.89343514  0.38446143  1
  Li  Li3  1  0.13948139  0.52440856  0.80418951  1
  Co  Co4  1  0.00086862  0.99847112  0.00127944  1
  O  O5  1  0.50146769  0.99796471  0.00158519  1
  F  F6  1  0.26753676  0.58309980  0.12028137  1
  F  F7  1  0.86516812  0.95001011  0.68041491  1
  F  F8  1  0.00006208  0.49998371  0.50071384  1
  F  F9  1  0.73306987  0.41357654  0.88089533  1
  F  F10  1  0.13586533  0.04927788  0.32153688  1
