# generated using pymatgen
data_Li2Fe3NiO8
_symmetry_space_group_name_H-M   'P 1'
_cell_length_a   5.84498343
_cell_length_b   5.95352984
_cell_length_c   9.60125581
_cell_angle_alpha   89.87740667
_cell_angle_beta   90.06243558
_cell_angle_gamma   120.61625330
_symmetry_Int_Tables_number   1
_chemical_formula_structural   Li2Fe3NiO8
_chemical_formula_sum   'Li4 Fe6 Ni2 O16'
_cell_volume   287.53120972
_cell_formula_units_Z   2
loop_
 _symmetry_equiv_pos_site_id
 _symmetry_equiv_pos_as_xyz
  1  'x, y, z'
loop_
 _atom_site_type_symbol
 _atom_site_label
 _atom_site_symmetry_multiplicity
 _atom_site_fract_x
 _atom_site_fract_y
 _atom_site_fract_z
 _atom_site_occupancy
  Li  Li0  1  0.34125400  0.67076993  0.88868442  1
  Li  Li1  1  0.00873874  0.00351079  0.99924741  1
  Li  Li2  1  0.99126126  0.99477205  0.49924741  1
  Li  Li3  1  0.65874600  0.32951593  0.38868442  1
  Fe  Fe4  1  0.17013510  0.83115350  0.21585149  1
  Fe  Fe5  1  0.17092927  0.33935743  0.21533840  1
  Fe  Fe6  1  0.66190263  0.83149186  0.21234218  1
  Fe  Fe7  1  0.33809737  0.16958924  0.71234218  1
  Fe  Fe8  1  0.82986490  0.66101840  0.71585149  1
  Fe  Fe9  1  0.82907073  0.16842916  0.71533840  1
  Ni  Ni10  1  0.32668559  0.66365937  0.48925069  1
  Ni  Ni11  1  0.67331441  0.33697378  0.98925069  1
  O  O12  1  0.14103369  0.82451161  0.60268321  1
  O  O13  1  0.03345437  0.51492086  0.33040074  1
  O  O14  1  0.36306991  0.68233212  0.10178963  1
  O  O15  1  0.97316460  0.98640966  0.31421356  1
  O  O16  1  0.02683540  0.01324505  0.81421356  1
  O  O17  1  0.14488705  0.31511650  0.60278107  1
  O  O18  1  0.46744083  0.96099957  0.33610196  1
  O  O19  1  0.47220934  0.51200251  0.33468659  1
  O  O20  1  0.32748072  0.16510721  0.11054865  1
  O  O21  1  0.67251928  0.83762649  0.61054865  1
  O  O22  1  0.53255917  0.49355773  0.83610196  1
  O  O23  1  0.52779066  0.03979317  0.83468659  1
  O  O24  1  0.63693009  0.31926222  0.60178963  1
  O  O25  1  0.85896631  0.68347792  0.10268321  1
  O  O26  1  0.96654563  0.48146649  0.83040074  1
  O  O27  1  0.85511295  0.17022945  0.10278107  1
