# generated using pymatgen
data_YNb2NO5
_symmetry_space_group_name_H-M   'P 1'
_cell_length_a   14.99130053
_cell_length_b   5.95722417
_cell_length_c   5.27082453
_cell_angle_alpha   89.68926095
_cell_angle_beta   90.00000000
_cell_angle_gamma   90.00000000
_symmetry_Int_Tables_number   1
_chemical_formula_structural   YNb2NO5
_chemical_formula_sum   'Y4 Nb8 N4 O20'
_cell_volume   470.71216816
_cell_formula_units_Z   4
loop_
 _symmetry_equiv_pos_site_id
 _symmetry_equiv_pos_as_xyz
  1  'x, y, z'
loop_
 _atom_site_type_symbol
 _atom_site_label
 _atom_site_symmetry_multiplicity
 _atom_site_fract_x
 _atom_site_fract_y
 _atom_site_fract_z
 _atom_site_occupancy
  Y  Y0  1  0.00178074  0.29455289  0.26451699  1
  Y  Y1  1  0.00190565  0.70189247  0.74507198  1
  Y  Y2  1  0.49809435  0.20189247  0.74507198  1
  Y  Y3  1  0.49821926  0.79455289  0.26451699  1
  Nb  Nb4  1  0.17390916  0.18433254  0.74560120  1
  Nb  Nb5  1  0.16748081  0.81673191  0.22412685  1
  Nb  Nb6  1  0.33251919  0.31673191  0.22412685  1
  Nb  Nb7  1  0.32609084  0.68433254  0.74560120  1
  Nb  Nb8  1  0.66311374  0.31163219  0.27308188  1
  Nb  Nb9  1  0.66795423  0.68305280  0.77374457  1
  Nb  Nb10  1  0.83204577  0.18305280  0.77374457  1
  Nb  Nb11  1  0.83688626  0.81163219  0.27308188  1
  N  N12  1  0.24338985  0.88135568  0.90735880  1
  N  N13  1  0.25661015  0.38135568  0.90735880  1
  N  N14  1  0.58209467  0.11002308  0.39253750  1
  N  N15  1  0.91790533  0.61002308  0.39253750  1
  O  O16  1  0.08446788  0.60862190  0.10213893  1
  O  O17  1  0.08368340  0.38350924  0.60923495  1
  O  O18  1  0.09775013  0.08510244  0.03907715  1
  O  O19  1  0.09768176  0.91673375  0.52516185  1
  O  O20  1  0.24475617  0.13422279  0.40971576  1
  O  O21  1  0.25524383  0.63422279  0.40971576  1
  O  O22  1  0.40231824  0.41673375  0.52516185  1
  O  O23  1  0.40224987  0.58510244  0.03907715  1
  O  O24  1  0.41553212  0.10862190  0.10213893  1
  O  O25  1  0.41631660  0.88350924  0.60923495  1
  O  O26  1  0.58213124  0.88109586  0.89656105  1
  O  O27  1  0.59923019  0.41483185  0.95563707  1
  O  O28  1  0.60247499  0.58795754  0.46069178  1
  O  O29  1  0.74426487  0.36819718  0.59668127  1
  O  O30  1  0.74533436  0.63615290  0.07906042  1
  O  O31  1  0.75466564  0.13615290  0.07906042  1
  O  O32  1  0.75573513  0.86819718  0.59668127  1
  O  O33  1  0.89752501  0.08795754  0.46069178  1
  O  O34  1  0.90076981  0.91483185  0.95563707  1
  O  O35  1  0.91786876  0.38109586  0.89656105  1
