# generated using pymatgen
data_Co2OF3
_symmetry_space_group_name_H-M   'P 1'
_cell_length_a   4.80451376
_cell_length_b   10.08497692
_cell_length_c   6.10279392
_cell_angle_alpha   72.38805761
_cell_angle_beta   90.00000000
_cell_angle_gamma   87.44433482
_symmetry_Int_Tables_number   1
_chemical_formula_structural   Co2OF3
_chemical_formula_sum   'Co8 O4 F12'
_cell_volume   281.53236913
_cell_formula_units_Z   4
loop_
 _symmetry_equiv_pos_site_id
 _symmetry_equiv_pos_as_xyz
  1  'x, y, z'
loop_
 _atom_site_type_symbol
 _atom_site_label
 _atom_site_symmetry_multiplicity
 _atom_site_fract_x
 _atom_site_fract_y
 _atom_site_fract_z
 _atom_site_occupancy
  Co  Co0  1  0.49928561  0.25012968  0.61818071  1
  Co  Co1  1  0.49928561  0.25012968  0.13168961  1
  Co  Co2  1  0.50071439  0.74987032  0.38181929  1
  Co  Co3  1  0.50071439  0.74987032  0.86831039  1
  Co  Co4  1  0.00000000  0.00000000  0.50000000  1
  Co  Co5  1  0.03959927  0.47999210  0.76000345  1
  Co  Co6  1  0.00000000  0.00000000  0.00000000  1
  Co  Co7  1  0.96040073  0.52000790  0.23999655  1
  O  O8  1  0.68060733  0.65952773  0.17023563  1
  O  O9  1  0.67296596  0.16331037  0.41834432  1
  O  O10  1  0.31939267  0.34047227  0.82976437  1
  O  O11  1  0.32703404  0.83668963  0.58165568  1
  F  F12  1  0.80739291  0.40392001  0.54771734  1
  F  F13  1  0.80478887  0.90158603  0.29960052  1
  F  F14  1  0.80739291  0.40392001  0.04836266  1
  F  F15  1  0.80478887  0.90158603  0.79881345  1
  F  F16  1  0.70123284  0.15051918  0.92474041  1
  F  F17  1  0.71711994  0.63908064  0.68045968  1
  F  F18  1  0.29876716  0.84948082  0.07525959  1
  F  F19  1  0.28288006  0.36091936  0.31954032  1
  F  F20  1  0.19260709  0.59607999  0.95163734  1
  F  F21  1  0.19260709  0.59607999  0.45228266  1
  F  F22  1  0.19521113  0.09841397  0.70039948  1
  F  F23  1  0.19521113  0.09841397  0.20118655  1
