# generated using pymatgen
data_Li4Mn3VO8
_symmetry_space_group_name_H-M   'P 1'
_cell_length_a   10.43563206
_cell_length_b   10.29163752
_cell_length_c   14.57977721
_cell_angle_alpha   19.71634375
_cell_angle_beta   19.84184767
_cell_angle_gamma   34.24958310
_symmetry_Int_Tables_number   1
_chemical_formula_structural   Li4Mn3VO8
_chemical_formula_sum   'Li4 Mn3 V1 O8'
_cell_volume   153.77367896
_cell_formula_units_Z   1
loop_
 _symmetry_equiv_pos_site_id
 _symmetry_equiv_pos_as_xyz
  1  'x, y, z'
loop_
 _atom_site_type_symbol
 _atom_site_label
 _atom_site_symmetry_multiplicity
 _atom_site_fract_x
 _atom_site_fract_y
 _atom_site_fract_z
 _atom_site_occupancy
  Li  Li0  1  0.00020552  0.00010094  0.49979082  1
  Li  Li1  1  0.00004341  0.50012278  0.49987382  1
  Li  Li2  1  0.50013300  0.00009819  0.49986614  1
  Li  Li3  1  0.49992387  0.50002665  0.50004706  1
  Mn  Mn4  1  0.00004332  0.50002852  0.99998467  1
  Mn  Mn5  1  0.49999580  0.99989863  0.00004088  1
  Mn  Mn6  1  0.49995626  0.50000194  0.00004579  1
  V  V7  1  0.99996399  0.99996905  0.00003219  1
  O  O8  1  0.98187887  0.99850356  0.27347450  1
  O  O9  1  0.04239792  0.52752643  0.21218944  1
  O  O10  1  0.48458105  0.94529586  0.30172586  1
  O  O11  1  0.01812704  0.00153372  0.72649963  1
  O  O12  1  0.46588762  0.52554318  0.26127870  1
  O  O13  1  0.95759280  0.47239883  0.78785335  1
  O  O14  1  0.51525210  0.05470437  0.69840264  1
  O  O15  1  0.53401841  0.47424735  0.73889552  1
