# generated using pymatgen
data_LiSbP2O7
_symmetry_space_group_name_H-M   'P 1'
_cell_length_a   8.42732258
_cell_length_b   8.53227277
_cell_length_c   16.88506996
_cell_angle_alpha   90.00000000
_cell_angle_beta   90.00000000
_cell_angle_gamma   92.26231371
_symmetry_Int_Tables_number   1
_chemical_formula_structural   LiSbP2O7
_chemical_formula_sum   'Li8 Sb8 P16 O56'
_cell_volume   1213.16139565
_cell_formula_units_Z   8
loop_
 _symmetry_equiv_pos_site_id
 _symmetry_equiv_pos_as_xyz
  1  'x, y, z'
loop_
 _atom_site_type_symbol
 _atom_site_label
 _atom_site_symmetry_multiplicity
 _atom_site_fract_x
 _atom_site_fract_y
 _atom_site_fract_z
 _atom_site_occupancy
  Li  Li0  1  0.80646510  0.74154509  0.94716080  1
  Li  Li1  1  0.80646510  0.24154509  0.55283920  1
  Li  Li2  1  0.65841133  0.69252348  0.25212432  1
  Li  Li3  1  0.65841133  0.19252348  0.24787568  1
  Li  Li4  1  0.34158467  0.80747452  0.75212232  1
  Li  Li5  1  0.34158467  0.30747452  0.74787768  1
  Li  Li6  1  0.19353390  0.75845391  0.44715980  1
  Li  Li7  1  0.19353390  0.25845391  0.05284020  1
  Sb  Sb8  1  0.85009113  0.96358414  0.37485786  1
  Sb  Sb9  1  0.85009113  0.46358414  0.12514214  1
  Sb  Sb10  1  0.63991430  0.54079969  0.63485819  1
  Sb  Sb11  1  0.63991430  0.04079969  0.86514181  1
  Sb  Sb12  1  0.36008570  0.95920031  0.13485819  1
  Sb  Sb13  1  0.36008570  0.45920031  0.36514181  1
  Sb  Sb14  1  0.14990887  0.53641586  0.87485786  1
  Sb  Sb15  1  0.14990887  0.03641586  0.62514214  1
  P  P16  1  0.97117019  0.57955832  0.32270909  1
  P  P17  1  0.97117019  0.07955832  0.17729091  1
  P  P18  1  0.75517449  0.91702917  0.57370886  1
  P  P19  1  0.75517449  0.41702917  0.92629114  1
  P  P20  1  0.74602756  0.86289247  0.08378052  1
  P  P21  1  0.74602756  0.36289247  0.41621948  1
  P  P22  1  0.54457926  0.59965373  0.82095208  1
  P  P23  1  0.54457926  0.09965373  0.67904792  1
  P  P24  1  0.45542074  0.90034627  0.32095208  1
  P  P25  1  0.45542074  0.40034627  0.17904792  1
  P  P26  1  0.25397244  0.63710753  0.58378052  1
  P  P27  1  0.25397244  0.13710753  0.91621948  1
  P  P28  1  0.24482551  0.58297083  0.07370886  1
  P  P29  1  0.24482551  0.08297083  0.42629114  1
  P  P30  1  0.02882981  0.92044168  0.82270909  1
  P  P31  1  0.02882981  0.42044168  0.67729091  1
  O  O32  1  0.97014865  0.49716384  0.24288762  1
  O  O33  1  0.97014865  0.99716384  0.25711238  1
  O  O34  1  0.90645396  0.52512250  0.92027459  1
  O  O35  1  0.90645396  0.02512250  0.57972541  1
  O  O36  1  0.90552450  0.96228266  0.10899685  1
  O  O37  1  0.90552450  0.46228266  0.39100315  1
  O  O38  1  0.85756808  0.71662644  0.32130667  1
  O  O39  1  0.85756808  0.21662644  0.17869333  1
  O  O40  1  0.85966605  0.87877289  0.85382623  1
  O  O41  1  0.85966605  0.37877289  0.64617377  1
  O  O42  1  0.81352225  0.69941252  0.06749824  1
  O  O43  1  0.81352225  0.19941252  0.43250176  1
  O  O44  1  0.74330421  0.78296650  0.63445371  1
  O  O45  1  0.74330421  0.28296650  0.86554629  1
  O  O46  1  0.72176857  0.86368408  0.48928937  1
  O  O47  1  0.72176857  0.36368408  0.01071063  1
  O  O48  1  0.68826294  0.92660103  0.00550653  1
  O  O49  1  0.68826294  0.42660103  0.49449347  1
  O  O50  1  0.66750405  0.56539617  0.75532446  1
  O  O51  1  0.66750405  0.06539617  0.74467554  1
  O  O52  1  0.62542753  0.86245342  0.15285539  1
  O  O53  1  0.62542753  0.36245342  0.34714461  1
  O  O54  1  0.62349959  0.54935759  0.90413528  1
  O  O55  1  0.60685552  0.00400303  0.30902542  1
  O  O56  1  0.62349959  0.04935759  0.59586472  1
  O  O57  1  0.60685552  0.50400303  0.19097458  1
  O  O58  1  0.50962423  0.77257444  0.82832485  1
  O  O59  1  0.50962423  0.27257444  0.67167515  1
  O  O60  1  0.49037577  0.72742556  0.32832485  1
  O  O61  1  0.49037577  0.22742556  0.17167515  1
  O  O62  1  0.39314448  0.49599797  0.80902542  1
  O  O63  1  0.37650041  0.95064241  0.40413528  1
  O  O64  1  0.39314448  0.99599697  0.69097458  1
  O  O65  1  0.37650041  0.45064241  0.09586472  1
  O  O66  1  0.37457247  0.63754658  0.65285539  1
  O  O67  1  0.37457247  0.13754658  0.84714461  1
  O  O68  1  0.33249595  0.93460383  0.25532446  1
  O  O69  1  0.33249595  0.43460383  0.24467554  1
  O  O70  1  0.31173706  0.57339897  0.50550653  1
  O  O71  1  0.31173706  0.07339897  0.99449347  1
  O  O72  1  0.27823143  0.63631592  0.98928937  1
  O  O73  1  0.27823143  0.13631592  0.51071063  1
  O  O74  1  0.25669579  0.71703350  0.13445371  1
  O  O75  1  0.25669579  0.21703350  0.36554629  1
  O  O76  1  0.18647775  0.80058748  0.56749824  1
  O  O77  1  0.18647775  0.30058748  0.93250176  1
  O  O78  1  0.14033395  0.62122711  0.35382623  1
  O  O79  1  0.14033395  0.12122711  0.14617377  1
  O  O80  1  0.14243192  0.78337356  0.82130667  1
  O  O81  1  0.14243192  0.28337356  0.67869333  1
  O  O82  1  0.09447550  0.53771734  0.60899685  1
  O  O83  1  0.09447550  0.03771734  0.89100315  1
  O  O84  1  0.09354604  0.97487750  0.42027459  1
  O  O85  1  0.09354604  0.47487750  0.07972541  1
  O  O86  1  0.02985135  0.00283616  0.74288762  1
  O  O87  1  0.02985135  0.50283616  0.75711238  1
