# generated using pymatgen
data_Na4Mn2P(CO4)4
_symmetry_space_group_name_H-M   'P 1'
_cell_length_a   10.08192347
_cell_length_b   9.89653000
_cell_length_c   10.08192354
_cell_angle_alpha   59.11464933
_cell_angle_beta   89.55509325
_cell_angle_gamma   59.11464493
_symmetry_Int_Tables_number   1
_chemical_formula_structural   Na4Mn2P(CO4)4
_chemical_formula_sum   'Na8 Mn4 P2 C8 O32'
_cell_volume   694.77474323
_cell_formula_units_Z   2
loop_
 _symmetry_equiv_pos_site_id
 _symmetry_equiv_pos_as_xyz
  1  'x, y, z'
loop_
 _atom_site_type_symbol
 _atom_site_label
 _atom_site_symmetry_multiplicity
 _atom_site_fract_x
 _atom_site_fract_y
 _atom_site_fract_z
 _atom_site_occupancy
  Na  Na0  1  0.08552515  0.82895071  0.83552515  1
  Na  Na1  1  0.08116839  0.25000000  0.83116839  1
  Na  Na2  1  0.33116839  0.75000000  0.58116839  1
  Na  Na3  1  0.33552515  0.32895071  0.58552515  1
  Na  Na4  1  0.66447485  0.67104929  0.41447485  1
  Na  Na5  1  0.66883161  0.25000000  0.41883161  1
  Na  Na6  1  0.91883161  0.75000000  0.16883161  1
  Na  Na7  1  0.91447485  0.17104929  0.16447485  1
  Mn  Mn8  1  0.00000000  0.50000000  0.00000000  1
  Mn  Mn9  1  0.50000000  0.00000000  0.50000000  1
  Mn  Mn10  1  0.50000000  0.50000000  0.00000000  1
  Mn  Mn11  1  0.50000000  0.00000000  0.00000000  1
  P  P12  1  0.12500000  0.75000000  0.37500000  1
  P  P13  1  0.87500000  0.25000000  0.62500000  1
  C  C14  1  0.35714914  0.93082678  0.77536531  1
  C  C15  1  0.27536531  0.43082678  0.85714914  1
  C  C16  1  0.71202407  0.93082678  0.79380790  1
  C  C17  1  0.70619210  0.56917322  0.78797593  1
  C  C18  1  0.29380790  0.43082678  0.21202407  1
  C  C19  1  0.28797593  0.06917322  0.20619210  1
  C  C20  1  0.72463469  0.56917322  0.14285086  1
  C  C21  1  0.64285086  0.06917322  0.22463469  1
  O  O22  1  0.35186564  0.78922566  0.88969760  1
  O  O23  1  0.06038179  0.88104977  0.43440121  1
  O  O24  1  0.36755478  0.94747680  0.63988813  1
  O  O25  1  0.13988813  0.44747680  0.86755478  1
  O  O26  1  0.68496942  0.94747680  0.91263507  1
  O  O27  1  0.29696034  0.55256199  0.84547753  1
  O  O28  1  0.05856844  0.88104977  0.18454902  1
  O  O29  1  0.06559879  0.61895023  0.43961821  1
  O  O30  1  0.39803953  0.94743801  0.34952234  1
  O  O31  1  0.58736493  0.55252320  0.81503058  1
  O  O32  1  0.38969760  0.28922566  0.85186564  1
  O  O33  1  0.31545098  0.61895023  0.44143156  1
  O  O34  1  0.85890870  0.78922566  0.82107674  1
  O  O35  1  0.67892326  0.71077434  0.64109130  1
  O  O36  1  0.34547753  0.05256199  0.79696034  1
  O  O37  1  0.15047766  0.55256199  0.10196047  1
  O  O38  1  0.84952234  0.44743801  0.89803953  1
  O  O39  1  0.65452247  0.94743801  0.20303966  1
  O  O40  1  0.32107674  0.28922566  0.35890870  1
  O  O41  1  0.14109130  0.21077434  0.17892326  1
  O  O42  1  0.68454902  0.38104977  0.55856844  1
  O  O43  1  0.61030240  0.71077434  0.14813436  1
  O  O44  1  0.41263507  0.44747680  0.18496942  1
  O  O45  1  0.60196047  0.05256199  0.65047766  1
  O  O46  1  0.93440121  0.38104977  0.56038179  1
  O  O47  1  0.94143156  0.11895023  0.81545098  1
  O  O48  1  0.70303966  0.44743801  0.15452247  1
  O  O49  1  0.31503058  0.05252320  0.08736493  1
  O  O50  1  0.86011187  0.55252320  0.13244522  1
  O  O51  1  0.63244522  0.05252320  0.36011187  1
  O  O52  1  0.93961821  0.11895023  0.56559879  1
  O  O53  1  0.64813436  0.21077434  0.11030240  1
