# generated using pymatgen
data_Co2OF3
_symmetry_space_group_name_H-M   'P 1'
_cell_length_a   4.71620061
_cell_length_b   13.30007125
_cell_length_c   5.68490557
_cell_angle_alpha   101.27236719
_cell_angle_beta   89.46919743
_cell_angle_gamma   90.44314961
_symmetry_Int_Tables_number   1
_chemical_formula_structural   Co2OF3
_chemical_formula_sum   'Co10 O5 F15'
_cell_volume   349.68991996
_cell_formula_units_Z   5
loop_
 _symmetry_equiv_pos_site_id
 _symmetry_equiv_pos_as_xyz
  1  'x, y, z'
loop_
 _atom_site_type_symbol
 _atom_site_label
 _atom_site_symmetry_multiplicity
 _atom_site_fract_x
 _atom_site_fract_y
 _atom_site_fract_z
 _atom_site_occupancy
  Co  Co0  1  0.47683457  0.99637619  0.51714504  1
  Co  Co1  1  0.50283368  0.39710251  0.30384344  1
  Co  Co2  1  0.55694457  0.60042928  0.68299275  1
  Co  Co3  1  0.46129578  0.21727735  0.90289685  1
  Co  Co4  1  0.50483942  0.79946931  0.09693567  1
  Co  Co5  1  0.99073157  0.40627048  0.78161803  1
  Co  Co6  1  0.01533191  0.80204707  0.59959515  1
  Co  Co7  1  0.95972956  0.18246871  0.39946742  1
  Co  Co8  1  0.00035902  0.60018626  0.21539696  1
  Co  Co9  1  0.99697722  0.00208754  0.99511319  1
  O  O10  1  0.78935644  0.06083773  0.33430141  1
  O  O11  1  0.81770596  0.66212309  0.52355641  1
  O  O12  1  0.71615406  0.45681345  0.61818793  1
  O  O13  1  0.29375434  0.33964780  0.96580078  1
  O  O14  1  0.20193405  0.94216700  0.68044686  1
  F  F15  1  0.79684334  0.25877999  0.71331782  1
  F  F16  1  0.80662956  0.86090293  0.91690785  1
  F  F17  1  0.81263558  0.45853590  0.11469154  1
  F  F18  1  0.70242762  0.65706777  0.01840171  1
  F  F19  1  0.67858402  0.07238125  0.83168534  1
  F  F20  1  0.69665068  0.86138657  0.41970872  1
  F  F21  1  0.69495594  0.25662578  0.20833247  1
  F  F22  1  0.31737120  0.73481896  0.77810077  1
  F  F23  1  0.30120801  0.94078058  0.18282941  1
  F  F24  1  0.29227038  0.14284640  0.59054063  1
  F  F25  1  0.31682386  0.53868247  0.38828242  1
  F  F26  1  0.19234001  0.14336283  0.09234611  1
  F  F27  1  0.21627895  0.54062441  0.87877136  1
  F  F28  1  0.20378561  0.73998324  0.27820207  1
  F  F29  1  0.18641207  0.32791915  0.47058291  1
