# generated using pymatgen
data_Li2Fe3OF6
_symmetry_space_group_name_H-M   'P 1'
_cell_length_a   5.10395112
_cell_length_b   12.04979180
_cell_length_c   10.66055608
_cell_angle_alpha   64.39015140
_cell_angle_beta   90.40463964
_cell_angle_gamma   103.77682934
_symmetry_Int_Tables_number   1
_chemical_formula_structural   Li2Fe3OF6
_chemical_formula_sum   'Li8 Fe12 O4 F24'
_cell_volume   570.76938777
_cell_formula_units_Z   4
loop_
 _symmetry_equiv_pos_site_id
 _symmetry_equiv_pos_as_xyz
  1  'x, y, z'
loop_
 _atom_site_type_symbol
 _atom_site_label
 _atom_site_symmetry_multiplicity
 _atom_site_fract_x
 _atom_site_fract_y
 _atom_site_fract_z
 _atom_site_occupancy
  Li  Li0  1  0.02628494  0.00422743  0.25605507  1
  Li  Li1  1  0.05670153  0.22970215  0.29577181  1
  Li  Li2  1  0.32077460  0.78733877  0.02493690  1
  Li  Li3  1  0.29424686  0.50004988  0.35192468  1
  Li  Li4  1  0.46885299  0.99097787  0.75217600  1
  Li  Li5  1  0.67288223  0.20101166  0.81599828  1
  Li  Li6  1  0.97015040  0.79041710  0.52755610  1
  Li  Li7  1  0.68634469  0.50682916  0.84367474  1
  Fe  Fe8  1  0.62858474  0.22012915  0.11510118  1
  Fe  Fe9  1  0.21795141  0.49854068  0.01881100  1
  Fe  Fe10  1  0.52341970  0.04272295  0.47155300  1
  Fe  Fe11  1  0.82269804  0.64981798  0.18847914  1
  Fe  Fe12  1  0.70675982  0.36899383  0.30156005  1
  Fe  Fe13  1  0.42057683  0.79870656  0.33025017  1
  Fe  Fe14  1  0.09985817  0.21233829  0.62170296  1
  Fe  Fe15  1  0.80256030  0.47667820  0.53320028  1
  Fe  Fe16  1  0.01540902  0.01483640  0.98356823  1
  Fe  Fe17  1  0.34972238  0.66267225  0.68625169  1
  Fe  Fe18  1  0.17996477  0.34805487  0.81019293  1
  Fe  Fe19  1  0.82928745  0.77422099  0.84172311  1
  O  O20  1  0.90752900  0.35222729  0.14818732  1
  O  O21  1  0.93424008  0.51108641  0.33984774  1
  O  O22  1  0.94318641  0.33134442  0.66915668  1
  O  O23  1  0.52184612  0.62882370  0.86036344  1
  F  F24  1  0.29437534  0.08280520  0.10111411  1
  F  F25  1  0.79247802  0.07994242  0.30574017  1
  F  F26  1  0.05255409  0.65432462  0.01242091  1
  F  F27  1  0.39767369  0.20264413  0.30044954  1
  F  F28  1  0.45985968  0.49916832  0.18688792  1
  F  F29  1  0.18068942  0.79958834  0.18025893  1
  F  F30  1  0.85952198  0.20789178  0.46042182  1
  F  F31  1  0.76747181  0.92401126  0.17467073  1
  F  F32  1  0.30179433  0.08699852  0.59713306  1
  F  F33  1  0.42949810  0.35743345  0.47611193  1
  F  F34  1  0.55524923  0.64589758  0.34235037  1
  F  F35  1  0.78138892  0.05983450  0.81694536  1
  F  F36  1  0.24450625  0.92540150  0.39393207  1
  F  F37  1  0.10926731  0.65657122  0.52263043  1
  F  F38  1  0.30504549  0.18214532  0.81177916  1
  F  F39  1  0.61925652  0.78965663  0.49877957  1
  F  F40  1  0.53898803  0.50044315  0.67564383  1
  F  F41  1  0.09483892  0.78071418  0.69273648  1
  F  F42  1  0.86140430  0.19612981  0.97062834  1
  F  F43  1  0.03601370  0.49527171  0.82744123  1
  F  F44  1  0.64813551  0.92233764  0.66258480  1
  F  F45  1  0.42440361  0.35347871  0.96440201  1
  F  F46  1  0.16930518  0.91302511  0.88862923  1
  F  F47  1  0.67644310  0.78253988  0.02246656  1
