# generated using pymatgen
data_Li2Mn(Si2O5)2
_symmetry_space_group_name_H-M   'P 1'
_cell_length_a   9.58297501
_cell_length_b   14.37852527
_cell_length_c   7.18232852
_cell_angle_alpha   90.00000000
_cell_angle_beta   90.00000000
_cell_angle_gamma   90.00000000
_symmetry_Int_Tables_number   1
_chemical_formula_structural   Li2Mn(Si2O5)2
_chemical_formula_sum   'Li8 Mn4 Si16 O40'
_cell_volume   989.64621166
_cell_formula_units_Z   4
loop_
 _symmetry_equiv_pos_site_id
 _symmetry_equiv_pos_as_xyz
  1  'x, y, z'
loop_
 _atom_site_type_symbol
 _atom_site_label
 _atom_site_symmetry_multiplicity
 _atom_site_fract_x
 _atom_site_fract_y
 _atom_site_fract_z
 _atom_site_occupancy
  Li  Li0  1  0.09000832  0.82964074  0.68362381  1
  Li  Li1  1  0.15505471  0.53427226  0.07275503  1
  Li  Li2  1  0.34494529  0.46572774  0.57275503  1
  Li  Li3  1  0.40999168  0.17035926  0.18362381  1
  Li  Li4  1  0.59000832  0.67035926  0.31637619  1
  Li  Li5  1  0.65505471  0.96572774  0.92724497  1
  Li  Li6  1  0.84494529  0.03427226  0.42724497  1
  Li  Li7  1  0.90999168  0.32964074  0.81637619  1
  Mn  Mn8  1  0.19872754  0.34392815  0.01071014  1
  Mn  Mn9  1  0.30127246  0.65607185  0.51071014  1
  Mn  Mn10  1  0.69872754  0.15607185  0.98928986  1
  Mn  Mn11  1  0.80127246  0.84392815  0.48928986  1
  Si  Si12  1  0.02703447  0.56301903  0.46404324  1
  Si  Si13  1  0.06459231  0.89569152  0.24043755  1
  Si  Si14  1  0.09496502  0.21274478  0.31731479  1
  Si  Si15  1  0.12956644  0.17467527  0.73774270  1
  Si  Si16  1  0.37043356  0.82532473  0.23774270  1
  Si  Si17  1  0.40503498  0.78725522  0.81731479  1
  Si  Si18  1  0.43540769  0.10430848  0.74043755  1
  Si  Si19  1  0.47296553  0.43698097  0.96404324  1
  Si  Si20  1  0.52703447  0.93698097  0.53595676  1
  Si  Si21  1  0.56459231  0.60430848  0.75956245  1
  Si  Si22  1  0.59496502  0.28725522  0.68268521  1
  Si  Si23  1  0.62956644  0.32532473  0.26225730  1
  Si  Si24  1  0.87043356  0.67467527  0.76225730  1
  Si  Si25  1  0.90503498  0.71274478  0.18268521  1
  Si  Si26  1  0.93540769  0.39569152  0.25956245  1
  Si  Si27  1  0.97296553  0.06301903  0.03595676  1
  O  O28  1  0.99215379  0.80752197  0.12946994  1
  O  O29  1  0.98583812  0.14452430  0.19988980  1
  O  O30  1  0.02804350  0.42820505  0.08373724  1
  O  O31  1  0.01177963  0.10459268  0.82938553  1
  O  O32  1  0.08320209  0.97896716  0.08436940  1
  O  O33  1  0.12461635  0.15715650  0.51222871  1
  O  O34  1  0.09681636  0.28070476  0.79449117  1
  O  O35  1  0.18950731  0.53320492  0.46004632  1
  O  O36  1  0.21785919  0.86078258  0.31388466  1
  O  O37  1  0.23489494  0.23650669  0.20155569  1
  O  O38  1  0.26510506  0.76349331  0.70155569  1
  O  O39  1  0.28214081  0.13921742  0.81388466  1
  O  O40  1  0.31049269  0.46679508  0.96004632  1
  O  O41  1  0.40318364  0.71929524  0.29449117  1
  O  O42  1  0.37538365  0.84284350  0.01222871  1
  O  O43  1  0.41679791  0.02103284  0.58436940  1
  O  O44  1  0.48822037  0.89540732  0.32938553  1
  O  O45  1  0.47195650  0.57179495  0.58373724  1
  O  O46  1  0.51416188  0.85547570  0.69988980  1
  O  O47  1  0.50784621  0.19247803  0.62946994  1
  O  O48  1  0.49215379  0.69247803  0.87053006  1
  O  O49  1  0.48583812  0.35547570  0.80011020  1
  O  O50  1  0.52804350  0.07179495  0.91626276  1
  O  O51  1  0.51177963  0.39540732  0.17061447  1
  O  O52  1  0.58320209  0.52103284  0.91563060  1
  O  O53  1  0.62461635  0.34284350  0.48777129  1
  O  O54  1  0.59681636  0.21929524  0.20550883  1
  O  O55  1  0.68950731  0.96679508  0.53995368  1
  O  O56  1  0.71785919  0.63921742  0.68611534  1
  O  O57  1  0.73489494  0.26349331  0.79844431  1
  O  O58  1  0.76510506  0.73650669  0.29844431  1
  O  O59  1  0.78214081  0.36078258  0.18611534  1
  O  O60  1  0.81049269  0.03320492  0.03995368  1
  O  O61  1  0.90318364  0.78070476  0.70550883  1
  O  O62  1  0.87538365  0.65715650  0.98777129  1
  O  O63  1  0.91679791  0.47896716  0.41563060  1
  O  O64  1  0.98822037  0.60459268  0.67061447  1
  O  O65  1  0.97195650  0.92820505  0.41626276  1
  O  O66  1  0.01416188  0.64452430  0.30011020  1
  O  O67  1  0.00784621  0.30752197  0.37053006  1
