# generated using pymatgen
data_Fe3Ge2
_symmetry_space_group_name_H-M   'P 1'
_cell_length_a   4.01018129
_cell_length_b   4.01119567
_cell_length_c   4.88318299
_cell_angle_alpha   90.00000000
_cell_angle_beta   90.28965220
_cell_angle_gamma   59.99163205
_symmetry_Int_Tables_number   1
_chemical_formula_structural   Fe3Ge2
_chemical_formula_sum   'Fe3 Ge2'
_cell_volume   68.01856387
_cell_formula_units_Z   1
loop_
 _symmetry_equiv_pos_site_id
 _symmetry_equiv_pos_as_xyz
  1  'x, y, z'
loop_
 _atom_site_type_symbol
 _atom_site_label
 _atom_site_symmetry_multiplicity
 _atom_site_fract_x
 _atom_site_fract_y
 _atom_site_fract_z
 _atom_site_occupancy
  Fe  Fe0  1  0.33459558  0.33270221  0.66560018  1
  Fe  Fe1  1  0.66540442  0.66729779  0.33439982  1
  Fe  Fe2  1  0.00000000  -0.00000000  0.50000000  1
  Ge  Ge3  1  0.33145678  0.33427161  0.16656886  1
  Ge  Ge4  1  0.66854322  0.66572839  0.83343114  1
