# generated using pymatgen
data_LiCo2OF5
_symmetry_space_group_name_H-M   'P 1'
_cell_length_a   4.56096423
_cell_length_b   16.90329911
_cell_length_c   4.99134114
_cell_angle_alpha   89.72634357
_cell_angle_beta   90.00000000
_cell_angle_gamma   90.00000000
_symmetry_Int_Tables_number   1
_chemical_formula_structural   LiCo2OF5
_chemical_formula_sum   'Li4 Co8 O4 F20'
_cell_volume   384.80476575
_cell_formula_units_Z   4
loop_
 _symmetry_equiv_pos_site_id
 _symmetry_equiv_pos_as_xyz
  1  'x, y, z'
loop_
 _atom_site_type_symbol
 _atom_site_label
 _atom_site_symmetry_multiplicity
 _atom_site_fract_x
 _atom_site_fract_y
 _atom_site_fract_z
 _atom_site_occupancy
  Li  Li0  1  0.98348429  0.38456022  0.25595399  1
  Li  Li1  1  0.99644236  0.61590438  0.74598658  1
  Li  Li2  1  0.51651571  0.88456022  0.25595399  1
  Li  Li3  1  0.50355764  0.11590438  0.74598658  1
  Co  Co4  1  0.02218107  0.28249150  0.77821961  1
  Co  Co5  1  0.02708022  0.05998152  0.23221803  1
  Co  Co6  1  0.01261771  0.71213218  0.24212620  1
  Co  Co7  1  0.00101351  0.95061783  0.74269866  1
  Co  Co8  1  0.48738229  0.21213218  0.24212620  1
  Co  Co9  1  0.47291978  0.55998152  0.23221803  1
  Co  Co10  1  0.47781893  0.78249150  0.77821961  1
  Co  Co11  1  0.49898649  0.45061783  0.74269866  1
  O  O12  1  0.25550413  0.78338328  0.07322452  1
  O  O13  1  0.22907784  0.63038092  0.10505409  1
  O  O14  1  0.27092216  0.13038092  0.10505409  1
  O  O15  1  0.24449587  0.28338328  0.07322452  1
  F  F16  1  0.22643965  0.96002568  0.07249433  1
  F  F17  1  0.22834690  0.03828223  0.58614054  1
  F  F18  1  0.26643796  0.20728012  0.56431304  1
  F  F19  1  0.23886806  0.37665676  0.59239398  1
  F  F20  1  0.26113194  0.87665676  0.59239398  1
  F  F21  1  0.23356204  0.70728012  0.56431304  1
  F  F22  1  0.27356035  0.46002568  0.07249433  1
  F  F23  1  0.27165310  0.53828223  0.58614054  1
  F  F24  1  0.72196541  0.46673125  0.42340069  1
  F  F25  1  0.72799253  0.53469713  0.91477016  1
  F  F26  1  0.75776854  0.28808815  0.42381824  1
  F  F27  1  0.77528263  0.70469090  0.93164679  1
  F  F28  1  0.73019659  0.13102546  0.40867166  1
  F  F29  1  0.74199383  0.87307048  0.90686990  1
  F  F30  1  0.75800617  0.37307048  0.90686990  1
  F  F31  1  0.76980341  0.63102546  0.40867166  1
  F  F32  1  0.74223146  0.78808815  0.42381824  1
  F  F33  1  0.72471737  0.20469090  0.93164679  1
  F  F34  1  0.77200747  0.03469713  0.91477016  1
  F  F35  1  0.77803459  0.96673125  0.42340069  1
