# generated using pymatgen
data_Li4Mn2Cu3O10
_symmetry_space_group_name_H-M   'P 1'
_cell_length_a   5.04322025
_cell_length_b   5.38735019
_cell_length_c   7.60300404
_cell_angle_alpha   104.48031880
_cell_angle_beta   102.75673072
_cell_angle_gamma   105.40019035
_symmetry_Int_Tables_number   1
_chemical_formula_structural   Li4Mn2Cu3O10
_chemical_formula_sum   'Li4 Mn2 Cu3 O10'
_cell_volume   183.47273974
_cell_formula_units_Z   1
loop_
 _symmetry_equiv_pos_site_id
 _symmetry_equiv_pos_as_xyz
  1  'x, y, z'
loop_
 _atom_site_type_symbol
 _atom_site_label
 _atom_site_symmetry_multiplicity
 _atom_site_fract_x
 _atom_site_fract_y
 _atom_site_fract_z
 _atom_site_occupancy
  Li  Li0  1  0.22272188  0.89992755  0.39655535  1
  Li  Li1  1  0.39583179  0.29294771  0.77648047  1
  Li  Li2  1  0.60416821  0.70705229  0.22351953  1
  Li  Li3  1  0.77727812  0.10007245  0.60344465  1
  Mn  Mn4  1  0.09649158  0.67558322  0.69075228  1
  Mn  Mn5  1  0.90350842  0.32441678  0.30924772  1
  Cu  Cu6  1  0.00000000  0.50000000  0.00000000  1
  Cu  Cu7  1  0.69432011  0.88296792  0.89629618  1
  Cu  Cu8  1  0.30567989  0.11703208  0.10370382  1
  O  O9  1  0.05370803  0.02565103  0.84145265  1
  O  O10  1  0.34074425  0.66327121  0.92439637  1
  O  O11  1  0.11608479  0.33072607  0.54824228  1
  O  O12  1  0.44722119  0.90574426  0.67769615  1
  O  O13  1  0.21472915  0.52121340  0.23622226  1
  O  O14  1  0.78527085  0.47878660  0.76377774  1
  O  O15  1  0.55277881  0.09425574  0.32230385  1
  O  O16  1  0.88391521  0.66927393  0.45175772  1
  O  O17  1  0.65925575  0.33672879  0.07560363  1
  O  O18  1  0.94629197  0.97434897  0.15854735  1
