# generated using pymatgen
data_Mn6O5F7
_symmetry_space_group_name_H-M   'P 1'
_cell_length_a   4.70856678
_cell_length_b   5.71971826
_cell_length_c   15.68255279
_cell_angle_alpha   90.25469691
_cell_angle_beta   89.95224324
_cell_angle_gamma   88.34944180
_symmetry_Int_Tables_number   1
_chemical_formula_structural   Mn6O5F7
_chemical_formula_sum   'Mn12 O10 F14'
_cell_volume   422.17781290
_cell_formula_units_Z   2
loop_
 _symmetry_equiv_pos_site_id
 _symmetry_equiv_pos_as_xyz
  1  'x, y, z'
loop_
 _atom_site_type_symbol
 _atom_site_label
 _atom_site_symmetry_multiplicity
 _atom_site_fract_x
 _atom_site_fract_y
 _atom_site_fract_z
 _atom_site_occupancy
  Mn  Mn0  1  0.01035119  0.16970035  0.41536239  1
  Mn  Mn1  1  0.98347206  0.82541026  0.23707899  1
  Mn  Mn2  1  0.99168262  0.14977363  0.08053805  1
  Mn  Mn3  1  0.05909112  0.16891090  0.75315876  1
  Mn  Mn4  1  0.01455366  0.85805734  0.57939735  1
  Mn  Mn5  1  0.05368146  0.83385095  0.91307706  1
  Mn  Mn6  1  0.45904830  0.32985191  0.58140705  1
  Mn  Mn7  1  0.52421594  0.36453726  0.92235992  1
  Mn  Mn8  1  0.51678024  0.35944372  0.25502528  1
  Mn  Mn9  1  0.49373883  0.64743581  0.08343516  1
  Mn  Mn10  1  0.48729909  0.64927922  0.42140053  1
  Mn  Mn11  1  0.49367037  0.64928442  0.75576657  1
  O  O12  1  0.21302769  0.10548875  0.63397869  1
  O  O13  1  0.20609131  0.88438746  0.13185566  1
  O  O14  1  0.21765126  0.89188080  0.46953418  1
  O  O15  1  0.25501499  0.88407598  0.81116856  1
  O  O16  1  0.26208893  0.39632564  0.47742771  1
  O  O17  1  0.31354764  0.40057755  0.81477455  1
  O  O18  1  0.29883718  0.61483966  0.97504700  1
  O  O19  1  0.72882763  0.38061339  0.03132509  1
  O  O20  1  0.69974438  0.62063291  0.19263668  1
  O  O21  1  0.72274450  0.39448937  0.36600483  1
  F  F22  1  0.21984802  0.10684060  0.29781133  1
  F  F23  1  0.24105577  0.11931944  0.97534224  1
  F  F24  1  0.24414539  0.37744846  0.14905297  1
  F  F25  1  0.24167689  0.61278941  0.31057064  1
  F  F26  1  0.24185112  0.60452715  0.64567455  1
  F  F27  1  0.72831589  0.62014981  0.53810984  1
  F  F28  1  0.78339663  0.61622036  0.85669732  1
  F  F29  1  0.70918882  0.37268570  0.69068704  1
  F  F30  1  0.74538893  0.11411330  0.18572193  1
  F  F31  1  0.75003584  0.11520758  0.52234699  1
  F  F32  1  0.75424940  0.88754755  0.35574304  1
  F  F33  1  0.78701264  0.88030406  0.01252476  1
  F  F34  1  0.79224370  0.12653507  0.86468144  1
  F  F35  1  0.75643155  0.86746324  0.69327585  1
