# generated using pymatgen
data_Mn6O7F5
_symmetry_space_group_name_H-M   'P 1'
_cell_length_a   4.68352251
_cell_length_b   7.72185167
_cell_length_c   5.62318625
_cell_angle_alpha   93.74091049
_cell_angle_beta   91.47532973
_cell_angle_gamma   89.79728407
_symmetry_Int_Tables_number   1
_chemical_formula_structural   Mn6O7F5
_chemical_formula_sum   'Mn6 O7 F5'
_cell_volume   202.86421593
_cell_formula_units_Z   1
loop_
 _symmetry_equiv_pos_site_id
 _symmetry_equiv_pos_as_xyz
  1  'x, y, z'
loop_
 _atom_site_type_symbol
 _atom_site_label
 _atom_site_symmetry_multiplicity
 _atom_site_fract_x
 _atom_site_fract_y
 _atom_site_fract_z
 _atom_site_occupancy
  Mn  Mn0  1  0.49574749  0.99946140  0.50377015  1
  Mn  Mn1  1  0.48670592  0.66491945  0.15817035  1
  Mn  Mn2  1  0.53133450  0.34358314  0.83320738  1
  Mn  Mn3  1  0.02279383  0.66154549  0.67909533  1
  Mn  Mn4  1  0.95319630  0.32781421  0.33666393  1
  Mn  Mn5  1  0.00874610  0.00402589  0.99721650  1
  O  O6  1  0.80469391  0.43924218  0.63674386  1
  O  O7  1  0.80660557  0.10412196  0.29452705  1
  O  O8  1  0.69132343  0.11111176  0.79490614  1
  O  O9  1  0.69427395  0.43926205  0.12355846  1
  O  O10  1  0.31685806  0.56149965  0.86903993  1
  O  O11  1  0.30294541  0.89069522  0.20921031  1
  O  O12  1  0.19045458  0.89432937  0.70511833  1
  F  F13  1  0.80089576  0.76804315  0.96467030  1
  F  F14  1  0.70415603  0.74990825  0.45917526  1
  F  F15  1  0.29641264  0.24875979  0.54000487  1
  F  F16  1  0.18003224  0.54643353  0.35881559  1
  F  F17  1  0.21282327  0.24524450  0.03610927  1
