# generated using pymatgen
data_LiMn2(BO3)2
_symmetry_space_group_name_H-M   'P 1'
_cell_length_a   5.79413634
_cell_length_b   5.30157048
_cell_length_c   22.20928675
_cell_angle_alpha   89.49115071
_cell_angle_beta   90.41758206
_cell_angle_gamma   113.73445103
_symmetry_Int_Tables_number   1
_chemical_formula_structural   LiMn2(BO3)2
_chemical_formula_sum   'Li5 Mn10 B10 O30'
_cell_volume   624.49348044
_cell_formula_units_Z   5
loop_
 _symmetry_equiv_pos_site_id
 _symmetry_equiv_pos_as_xyz
  1  'x, y, z'
loop_
 _atom_site_type_symbol
 _atom_site_label
 _atom_site_symmetry_multiplicity
 _atom_site_fract_x
 _atom_site_fract_y
 _atom_site_fract_z
 _atom_site_occupancy
  Li  Li0  1  0.94838436  0.38553105  0.38889267  1
  Li  Li1  1  0.85632601  0.02660265  0.81334258  1
  Li  Li2  1  0.74603277  0.78329083  0.58843516  1
  Li  Li3  1  0.14791669  0.98470848  0.18932399  1
  Li  Li4  1  0.34616342  0.57988771  0.98913315  1
  Mn  Mn5  1  0.86356171  0.52256497  0.88123063  1
  Mn  Mn6  1  0.73476857  0.27640216  0.52239309  1
  Mn  Mn7  1  0.93240610  0.87737882  0.32359800  1
  Mn  Mn8  1  0.47612030  0.33157753  0.27906593  1
  Mn  Mn9  1  0.67726039  0.93007871  0.07758021  1
  Mn  Mn10  1  0.32905186  0.07559866  0.92176938  1
  Mn  Mn11  1  0.52176286  0.66587623  0.72611592  1
  Mn  Mn12  1  0.07391031  0.12385774  0.67798379  1
  Mn  Mn13  1  0.27653089  0.73029573  0.47893569  1
  Mn  Mn14  1  0.13284073  0.47670478  0.12338493  1
  B  B15  1  0.99786309  0.57682781  0.75022385  1
  B  B16  1  0.60649667  0.22670124  0.65132093  1
  B  B17  1  0.80232574  0.82184919  0.45245878  1
  B  B18  1  0.59673122  0.37765226  0.14565689  1
  B  B19  1  0.79317802  0.97197694  0.94464192  1
  B  B20  1  0.19977820  0.02159730  0.05272980  1
  B  B21  1  0.40151051  0.62710553  0.85642909  1
  B  B22  1  0.19693488  0.17590307  0.54563129  1
  B  B23  1  0.39658625  0.77835781  0.34596094  1
  B  B24  1  0.00215787  0.42293825  0.25276588  1
  O  O25  1  0.86986668  0.00042486  0.40401414  1
  O  O26  1  0.93218804  0.40439912  0.79824991  1
  O  O27  1  0.87726419  0.48039581  0.30160606  1
  O  O28  1  0.67241417  0.00301321  0.65947792  1
  O  O29  1  0.86424115  0.59546157  0.45646199  1
  O  O30  1  0.69621263  0.16902982  0.93259078  1
  O  O31  1  0.90139447  0.78270000  0.74119235  1
  O  O32  1  0.77356450  0.35161046  0.10537158  1
  O  O33  1  0.95967252  0.95310643  0.89932366  1
  O  O34  1  0.68124838  0.40067350  0.60205075  1
  O  O35  1  0.51066823  0.20737355  0.19349698  1
  O  O36  1  0.71549719  0.79607572  0.99145597  1
  O  O37  1  0.46805856  0.28862603  0.69559015  1
  O  O38  1  0.67793724  0.87795880  0.50151802  1
  O  O39  1  0.47643779  0.41576806  0.86672099  1
  O  O40  1  0.49892120  0.57264727  0.13006487  1
  O  O41  1  0.37447839  0.15145773  0.50550966  1
  O  O42  1  0.57363773  0.75354168  0.30567126  1
  O  O43  1  0.25763305  0.19415902  0.00349796  1
  O  O44  1  0.48547294  0.80269849  0.80785118  1
  O  O45  1  0.31079443  0.60567779  0.39351244  1
  O  O46  1  0.07502539  0.07606248  0.10210095  1
  O  O47  1  0.25649946  0.67474212  0.90243421  1
  O  O48  1  0.06393281  0.19658134  0.25745887  1
  O  O49  1  0.26765293  0.79869787  0.05721401  1
  O  O50  1  0.09989580  0.37204826  0.53084213  1
  O  O51  1  0.29827941  0.97338174  0.33097423  1
  O  O52  1  0.16031229  0.54921878  0.70667330  1
  O  O53  1  0.07011631  0.59925084  0.20394646  1
  O  O54  1  0.10977875  0.00147922  0.59288373  1
