# generated using pymatgen
data_Li2Mn3(BO3)3
_symmetry_space_group_name_H-M   'P 1'
_cell_length_a   8.28653087
_cell_length_b   10.42714491
_cell_length_c   10.42714439
_cell_angle_alpha   74.87771607
_cell_angle_beta   66.55532942
_cell_angle_gamma   66.55533112
_symmetry_Int_Tables_number   1
_chemical_formula_structural   Li2Mn3(BO3)3
_chemical_formula_sum   'Li8 Mn12 B12 O36'
_cell_volume   752.68564603
_cell_formula_units_Z   4
loop_
 _symmetry_equiv_pos_site_id
 _symmetry_equiv_pos_as_xyz
  1  'x, y, z'
loop_
 _atom_site_type_symbol
 _atom_site_label
 _atom_site_symmetry_multiplicity
 _atom_site_fract_x
 _atom_site_fract_y
 _atom_site_fract_z
 _atom_site_occupancy
  Li  Li0  1  0.98432235  0.98114606  0.73753536  1
  Li  Li1  1  0.98074296  0.73594749  0.98594749  1
  Li  Li2  1  0.72572375  0.52602135  0.77602135  1
  Li  Li3  1  0.98432235  0.48753536  0.23114606  1
  Li  Li4  1  0.71722255  0.02452981  0.27452981  1
  Li  Li5  1  0.29693967  0.61513839  0.36113691  1
  Li  Li6  1  0.29693967  0.11113691  0.86513839  1
  Li  Li7  1  0.30838642  0.36641635  0.61641635  1
  Mn  Mn8  1  0.36726700  0.81382917  0.81369378  1
  Mn  Mn9  1  0.64736592  0.50775169  0.50569005  1
  Mn  Mn10  1  0.64736592  0.25569005  0.75775169  1
  Mn  Mn11  1  0.60630778  0.76119371  0.25510872  1
  Mn  Mn12  1  0.00284614  0.92982319  0.42491598  1
  Mn  Mn13  1  0.01143318  0.68176121  0.67843591  1
  Mn  Mn14  1  0.01143318  0.42843591  0.93176121  1
  Mn  Mn15  1  0.36726700  0.56369378  0.06382917  1
  Mn  Mn16  1  0.35812159  0.31450613  0.31292396  1
  Mn  Mn17  1  0.35812159  0.06292396  0.56450613  1
  Mn  Mn18  1  0.60630778  0.00510872  0.01119371  1
  Mn  Mn19  1  0.00284614  0.17491598  0.17982319  1
  B  B20  1  0.98824260  -0.00009566  0.99607218  1
  B  B21  1  0.67723117  0.70728279  0.95728279  1
  B  B22  1  0.98824260  0.74607218  0.24990434  1
  B  B23  1  0.66407597  0.95822469  0.71591866  1
  B  B24  1  0.66407597  0.46591866  0.20822469  1
  B  B25  1  0.33904067  0.54335796  0.79335796  1
  B  B26  1  0.66719053  0.20824533  0.45824533  1
  B  B27  1  0.32573374  0.79699673  0.53179172  1
  B  B28  1  0.33290143  0.04001558  0.29001558  1
  B  B29  1  0.01032004  0.50149381  0.49971771  1
  B  B30  1  0.01032004  0.24971771  0.75149381  1
  B  B31  1  0.32573374  0.28179072  0.04699673  1
  O  O32  1  0.89511315  0.94298126  0.95072131  1
  O  O33  1  0.86852128  0.65233581  0.90233581  1
  O  O34  1  0.85467613  0.90636671  0.65619901  1
  O  O35  1  0.90136065  0.58636547  0.60610348  1
  O  O36  1  0.90136065  0.35610348  0.83636547  1
  O  O37  1  0.89161595  0.85103138  0.33597084  1
  O  O38  1  0.92713397  0.46273233  0.43194865  1
  O  O39  1  0.92713397  0.18194865  0.71273233  1
  O  O40  1  0.89511315  0.70072131  0.19298126  1
  O  O41  1  0.56379131  0.66886069  0.91886069  1
  O  O42  1  0.53968941  0.93071602  0.68069945  1
  O  O43  1  0.17870439  0.96747811  0.93433518  1
  O  O44  1  0.53492395  0.97506176  0.22506176  1
  O  O45  1  0.53349175  0.48737533  0.73737533  1
  O  O46  1  0.85467613  0.40619901  0.15636671  1
  O  O47  1  0.85630534  0.14543790  0.39543790  1
  O  O48  1  0.51816348  0.75188832  0.46083169  1
  O  O49  1  0.51816348  0.21083169  0.00188832  1
  O  O50  1  0.60058688  0.80482162  0.05482162  1
  O  O51  1  0.58553783  0.57088157  0.29995561  1
  O  O52  1  0.58553783  0.04995561  0.82088157  1
  O  O53  1  0.25860888  0.64076448  0.89076448  1
  O  O54  1  0.59565765  0.30421106  0.55421106  1
  O  O55  1  0.25463006  0.88171202  0.63706317  1
  O  O56  1  0.89161595  0.08597084  0.10103138  1
  O  O57  1  0.22757608  0.50323398  0.75323398  1
  O  O58  1  0.53968941  0.43069945  0.18071602  1
  O  O59  1  0.54965916  0.17106028  0.42106028  1
  O  O60  1  0.21086730  0.75506058  0.49584585  1
  O  O61  1  0.20461829  0.45599648  0.46151151  1
  O  O62  1  0.20461829  0.21151151  0.70599548  1
  O  O63  1  0.17870439  0.68433518  0.21747811  1
  O  O64  1  0.27752614  0.13227513  0.38227513  1
  O  O65  1  0.25463006  0.38706317  0.13171202  1
  O  O66  1  0.21843391  0.00366324  0.25366324  1
  O  O67  1  0.21086730  0.24584585  0.00506058  1
