# generated using pymatgen
data_Mn6O7F5
_symmetry_space_group_name_H-M   'P 1'
_cell_length_a   4.62997767
_cell_length_b   7.76447189
_cell_length_c   5.59810991
_cell_angle_alpha   92.92582322
_cell_angle_beta   89.03637610
_cell_angle_gamma   90.59324997
_symmetry_Int_Tables_number   1
_chemical_formula_structural   Mn6O7F5
_chemical_formula_sum   'Mn6 O7 F5'
_cell_volume   200.94846144
_cell_formula_units_Z   1
loop_
 _symmetry_equiv_pos_site_id
 _symmetry_equiv_pos_as_xyz
  1  'x, y, z'
loop_
 _atom_site_type_symbol
 _atom_site_label
 _atom_site_symmetry_multiplicity
 _atom_site_fract_x
 _atom_site_fract_y
 _atom_site_fract_z
 _atom_site_occupancy
  Mn  Mn0  1  0.46590639  0.01112960  0.48360488  1
  Mn  Mn1  1  0.51626468  0.66615558  0.16008982  1
  Mn  Mn2  1  0.52343038  0.33549789  0.82709116  1
  Mn  Mn3  1  0.99346326  0.67604381  0.67311187  1
  Mn  Mn4  1  0.96687516  0.32441818  0.34708940  1
  Mn  Mn5  1  0.00918245  0.98267768  0.00923678  1
  O  O6  1  0.80598628  0.45082258  0.63363831  1
  O  O7  1  0.81222395  0.76724749  0.96705832  1
  O  O8  1  0.80188529  0.09142059  0.29027907  1
  O  O9  1  0.69459445  0.43312941  0.12887289  1
  O  O10  1  0.30742368  0.23808692  0.53548676  1
  O  O11  1  0.30517903  0.89059230  0.19889689  1
  O  O12  1  0.19965247  0.89785528  0.70889082  1
  F  F13  1  0.71243219  0.09094763  0.79754513  1
  F  F14  1  0.68734798  0.77997001  0.47138804  1
  F  F15  1  0.29658184  0.56584202  0.86866406  1
  F  F16  1  0.19738938  0.57310991  0.37121540  1
  F  F17  1  0.20418215  0.22505413  0.02784140  1
