# generated using pymatgen
data_LiMnP2O7
_symmetry_space_group_name_H-M   'P 1'
_cell_length_a   6.22504519
_cell_length_b   7.15995665
_cell_length_c   6.28250511
_cell_angle_alpha   68.03181982
_cell_angle_beta   80.73530934
_cell_angle_gamma   75.93571979
_symmetry_Int_Tables_number   1
_chemical_formula_structural   LiMnP2O7
_chemical_formula_sum   'Li2 Mn2 P4 O14'
_cell_volume   251.13614486
_cell_formula_units_Z   2
loop_
 _symmetry_equiv_pos_site_id
 _symmetry_equiv_pos_as_xyz
  1  'x, y, z'
loop_
 _atom_site_type_symbol
 _atom_site_label
 _atom_site_symmetry_multiplicity
 _atom_site_fract_x
 _atom_site_fract_y
 _atom_site_fract_z
 _atom_site_occupancy
  Li  Li0  1  0.33649108  0.16226615  0.91423732  1
  Li  Li1  1  0.66350892  0.83773385  0.08576268  1
  Mn  Mn2  1  0.05888531  0.77957392  0.73619770  1
  Mn  Mn3  1  0.94111469  0.22042608  0.26380230  1
  P  P4  1  0.17981190  0.75110427  0.22056774  1
  P  P5  1  0.39296844  0.29646634  0.36951611  1
  P  P6  1  0.60703156  0.70353366  0.63048389  1
  P  P7  1  0.82018810  0.24889573  0.77943226  1
  O  O8  1  0.99210338  0.26256917  0.92679402  1
  O  O9  1  0.05769718  0.85737773  0.39826236  1
  O  O10  1  0.24844221  0.26839186  0.20575049  1
  O  O11  1  0.27070619  0.52323223  0.38776484  1
  O  O12  1  0.35224826  0.86192305  0.07031410  1
  O  O13  1  0.38641930  0.14967320  0.60887370  1
  O  O14  1  0.37633203  0.66797884  0.75186709  1
  O  O15  1  0.62366797  0.33202116  0.24813291  1
  O  O16  1  0.61358070  0.85032680  0.39112630  1
  O  O17  1  0.64775174  0.13807695  0.92968590  1
  O  O18  1  0.72929381  0.47676777  0.61223516  1
  O  O19  1  0.75155779  0.73160814  0.79424951  1
  O  O20  1  0.94230282  0.14262227  0.60173764  1
  O  O21  1  0.00789662  0.73743083  0.07320598  1
