# generated using pymatgen
data_LiMn2(PO4)2
_symmetry_space_group_name_H-M   'P 1'
_cell_length_a   5.23289745
_cell_length_b   9.51018917
_cell_length_c   6.10370290
_cell_angle_alpha   90.00000000
_cell_angle_beta   90.00000000
_cell_angle_gamma   86.47955321
_symmetry_Int_Tables_number   1
_chemical_formula_structural   LiMn2(PO4)2
_chemical_formula_sum   'Li2 Mn4 P4 O16'
_cell_volume   303.18272730
_cell_formula_units_Z   2
loop_
 _symmetry_equiv_pos_site_id
 _symmetry_equiv_pos_as_xyz
  1  'x, y, z'
loop_
 _atom_site_type_symbol
 _atom_site_label
 _atom_site_symmetry_multiplicity
 _atom_site_fract_x
 _atom_site_fract_y
 _atom_site_fract_z
 _atom_site_occupancy
  Li  Li0  1  0.36328471  0.56196542  0.12305709  1
  Li  Li1  1  0.86328471  0.06196542  0.37694291  1
  Mn  Mn2  1  0.20772385  0.34060804  0.62993952  1
  Mn  Mn3  1  0.31338520  0.14562324  0.10672420  1
  Mn  Mn4  1  0.70772385  0.84060804  0.87006048  1
  Mn  Mn5  1  0.81338520  0.64562324  0.39327580  1
  P  P6  1  0.25481107  0.63722932  0.64221643  1
  P  P7  1  0.24472523  0.86411161  0.14707176  1
  P  P8  1  0.75481107  0.13722932  0.85778357  1
  P  P9  1  0.74472523  0.36411161  0.35292824  1
  O  O10  1  0.99753468  0.73564151  0.64036808  1
  O  O11  1  0.99994958  0.78013313  0.14954739  1
  O  O12  1  0.22571875  0.55263809  0.42451991  1
  O  O13  1  0.25367245  0.53086067  0.83086180  1
  O  O14  1  0.22811750  0.98969752  0.31666672  1
  O  O15  1  0.27464264  0.94879996  0.93004658  1
  O  O16  1  0.49753468  0.23564151  0.85963192  1
  O  O17  1  0.49994958  0.28013313  0.35045261  1
  O  O18  1  0.49397691  0.72295233  0.63610107  1
  O  O19  1  0.48626843  0.76236717  0.16688027  1
  O  O20  1  0.72571875  0.05263809  0.07548009  1
  O  O21  1  0.75367245  0.03086067  0.66913820  1
  O  O22  1  0.72811750  0.48969752  0.18333328  1
  O  O23  1  0.77464264  0.44879996  0.56995342  1
  O  O24  1  0.99397691  0.22295233  0.86389893  1
  O  O25  1  0.98626843  0.26236717  0.33311973  1
