# generated using pymatgen
data_LiMn2(BO3)2
_symmetry_space_group_name_H-M   'P 1'
_cell_length_a   5.30435383
_cell_length_b   9.14812599
_cell_length_c   11.54236480
_cell_angle_alpha   67.36487484
_cell_angle_beta   78.04564751
_cell_angle_gamma   89.53637805
_symmetry_Int_Tables_number   1
_chemical_formula_structural   LiMn2(BO3)2
_chemical_formula_sum   'Li4 Mn8 B8 O24'
_cell_volume   504.14590966
_cell_formula_units_Z   4
loop_
 _symmetry_equiv_pos_site_id
 _symmetry_equiv_pos_as_xyz
  1  'x, y, z'
loop_
 _atom_site_type_symbol
 _atom_site_label
 _atom_site_symmetry_multiplicity
 _atom_site_fract_x
 _atom_site_fract_y
 _atom_site_fract_z
 _atom_site_occupancy
  Li  Li0  1  0.30788974  0.16281861  0.66673747  1
  Li  Li1  1  0.54737674  0.42266364  0.16894392  1
  Li  Li2  1  0.67466180  0.84440448  0.34815893  1
  Li  Li3  1  0.82928744  0.66913994  0.65685303  1
  Mn  Mn4  1  0.07799735  0.24452074  0.13291515  1
  Mn  Mn5  1  0.14345446  0.64763966  0.37836011  1
  Mn  Mn6  1  0.34478601  0.85505090  0.62811884  1
  Mn  Mn7  1  0.58082425  0.76621898  0.13133331  1
  Mn  Mn8  1  0.40444155  0.21818198  0.88182993  1
  Mn  Mn9  1  0.65531388  0.15809209  0.38660700  1
  Mn  Mn10  1  0.83261955  0.36115821  0.62724440  1
  Mn  Mn11  1  0.91452283  0.71738949  0.88603189  1
  B  B12  1  0.09762391  0.58719906  0.13335975  1
  B  B13  1  0.14354694  0.97889756  0.38229317  1
  B  B14  1  0.35068702  0.52102880  0.62690968  1
  B  B15  1  0.59520947  0.10633653  0.13880775  1
  B  B16  1  0.41067906  0.88568704  0.86879608  1
  B  B17  1  0.64399368  0.49746330  0.37275270  1
  B  B18  1  0.85385742  0.02545186  0.62753603  1
  B  B19  1  0.90396013  0.38361742  0.86763519  1
  O  O20  1  0.07357465  0.13326854  0.32009689  1
  O  O21  1  0.21752410  0.45934514  0.12557174  1
  O  O22  1  0.20023481  0.69011609  0.17935029  1
  O  O23  1  0.11770028  0.53613843  0.58588329  1
  O  O24  1  0.39669114  0.15669025  0.07549748  1
  O  O25  1  0.06144406  0.30639911  0.95248763  1
  O  O26  1  0.36779258  0.96147356  0.43566296  1
  O  O27  1  0.32379686  0.03058066  0.84091689  1
  O  O28  1  0.54055153  0.38067781  0.34996459  1
  O  O29  1  0.32883435  0.78280762  0.81501815  1
  O  O30  1  0.56706483  0.65548424  0.32170216  1
  O  O31  1  0.44037399  0.36790847  0.67066986  1
  O  O32  1  0.68370733  0.96112833  0.16214229  1
  O  O33  1  0.48885723  0.65046987  0.62008036  1
  O  O34  1  0.69447207  0.21496030  0.18237128  1
  O  O35  1  0.61548482  0.03860757  0.58853591  1
  O  O36  1  0.86176038  0.62256752  0.09273874  1
  O  O37  1  0.58911683  0.82700192  0.94758186  1
  O  O38  1  0.83190208  0.47634938  0.44504611  1
  O  O39  1  0.81320129  0.28746969  0.81075190  1
  O  O40  1  0.99970088  0.85001604  0.39465928  1
  O  O41  1  0.84647677  0.53547026  0.83577246  1
  O  O42  1  0.95108757  0.87456217  0.66879063  1
  O  O43  1  0.98331031  0.15686073  0.62039394  1
