# generated using pymatgen
data_Fe10O9F11
_symmetry_space_group_name_H-M   'P 1'
_cell_length_a   4.74689646
_cell_length_b   4.76005019
_cell_length_c   15.60544657
_cell_angle_alpha   89.77075088
_cell_angle_beta   90.14968160
_cell_angle_gamma   91.64365137
_symmetry_Int_Tables_number   1
_chemical_formula_structural   Fe10O9F11
_chemical_formula_sum   'Fe10 O9 F11'
_cell_volume   352.46332445
_cell_formula_units_Z   1
loop_
 _symmetry_equiv_pos_site_id
 _symmetry_equiv_pos_as_xyz
  1  'x, y, z'
loop_
 _atom_site_type_symbol
 _atom_site_label
 _atom_site_symmetry_multiplicity
 _atom_site_fract_x
 _atom_site_fract_y
 _atom_site_fract_z
 _atom_site_occupancy
  Fe  Fe0  1  0.00403668  0.98540579  0.99362231  1
  Fe  Fe1  1  0.04023391  0.02242421  0.20701311  1
  Fe  Fe2  1  0.98976395  0.94237963  0.40227267  1
  Fe  Fe3  1  0.05156023  0.00217697  0.59832470  1
  Fe  Fe4  1  0.02263695  0.97378616  0.79610747  1
  Fe  Fe5  1  0.49707167  0.48211902  0.09639313  1
  Fe  Fe6  1  0.48076873  0.51471709  0.49870998  1
  Fe  Fe7  1  0.47716436  0.52586426  0.29929917  1
  Fe  Fe8  1  0.47923372  0.50249988  0.69583061  1
  Fe  Fe9  1  0.47492663  0.52253940  0.91220191  1
  O  O10  1  0.18709481  0.80786221  0.29923130  1
  O  O11  1  0.19269069  0.80073514  0.49794642  1
  O  O12  1  0.19284868  0.81757085  0.70073084  1
  O  O13  1  0.18688637  0.80581668  0.89908870  1
  O  O14  1  0.29489690  0.29645691  0.00349355  1
  O  O15  1  0.32006801  0.31902381  0.19948904  1
  O  O16  1  0.31593356  0.30892160  0.59209466  1
  O  O17  1  0.69542587  0.69720611  0.00543793  1
  O  O18  1  0.67812939  0.67658391  0.39719420  1
  F  F19  1  0.19661530  0.81057220  0.10374046  1
  F  F20  1  0.28657963  0.29328736  0.39588424  1
  F  F21  1  0.29950773  0.30796771  0.80865623  1
  F  F22  1  0.70686545  0.71020310  0.19858707  1
  F  F23  1  0.71024375  0.71373319  0.59318944  1
  F  F24  1  0.68800699  0.69355878  0.80564626  1
  F  F25  1  0.81488930  0.18955867  0.10485607  1
  F  F26  1  0.80469851  0.19037124  0.49547571  1
  F  F27  1  0.80062957  0.19597305  0.29868526  1
  F  F28  1  0.79527152  0.19691732  0.89842650  1
  F  F29  1  0.81531914  0.19376876  0.70237107  1
