# generated using pymatgen
data_Li2Mn3(BO3)3
_symmetry_space_group_name_H-M   'P 1'
_cell_length_a   8.26135162
_cell_length_b   8.57343817
_cell_length_c   6.34770797
_cell_angle_alpha   72.42521306
_cell_angle_beta   91.19952654
_cell_angle_gamma   62.66289501
_symmetry_Int_Tables_number   1
_chemical_formula_structural   Li2Mn3(BO3)3
_chemical_formula_sum   'Li4 Mn6 B6 O18'
_cell_volume   373.92134105
_cell_formula_units_Z   2
loop_
 _symmetry_equiv_pos_site_id
 _symmetry_equiv_pos_as_xyz
  1  'x, y, z'
loop_
 _atom_site_type_symbol
 _atom_site_label
 _atom_site_symmetry_multiplicity
 _atom_site_fract_x
 _atom_site_fract_y
 _atom_site_fract_z
 _atom_site_occupancy
  Li  Li0  1  0.97906835  0.72312976  0.89785595  1
  Li  Li1  1  0.97062616  0.72465391  0.38481634  1
  Li  Li2  1  0.72689253  0.29703096  0.61309738  1
  Li  Li3  1  0.30021457  0.98289371  0.75909111  1
  Mn  Mn4  1  0.37068244  0.62180599  0.66645468  1
  Mn  Mn5  1  0.37076426  0.62619122  0.16491999  1
  Mn  Mn6  1  0.62643827  0.02687439  0.01289721  1
  Mn  Mn7  1  0.62450653  0.01905367  0.50443623  1
  Mn  Mn8  1  0.00890729  0.33696195  0.31318501  1
  Mn  Mn9  1  0.01087169  0.36912697  0.81203662  1
  B  B10  1  0.67897126  0.65655044  0.42030704  1
  B  B11  1  0.66008410  0.68030045  0.89604453  1
  B  B12  1  0.33161527  0.34329223  0.58740165  1
  B  B13  1  0.31468627  0.34053605  0.07731249  1
  B  B14  1  0.00350378  0.97899700  0.52395134  1
  B  B15  1  0.01054973  0.99927274  0.99779230  1
  O  O16  1  0.91460647  0.87247473  0.58025763  1
  O  O17  1  0.91482826  0.89883454  0.06801828  1
  O  O18  1  0.87074157  0.53142118  0.49999888  1
  O  O19  1  0.85035515  0.56470249  0.97172966  1
  O  O20  1  0.62417176  0.84177953  0.32501344  1
  O  O21  1  0.58150244  0.87343070  0.81631947  1
  O  O22  1  0.89907402  0.17080658  0.43827689  1
  O  O23  1  0.90906220  0.19350299  0.89273922  1
  O  O24  1  0.56275705  0.57833900  0.44222627  1
  O  O25  1  0.54265815  0.60345322  0.90288668  1
  O  O26  1  0.19639994  0.89317746  0.55908324  1
  O  O27  1  0.19954288  0.90595530  0.02016021  1
  O  O28  1  0.51991390  0.24179006  0.67685866  1
  O  O29  1  0.49488093  0.22805148  0.18827170  1
  O  O30  1  0.24673168  0.53005075  0.95655257  1
  O  O31  1  0.25039415  0.53921546  0.47558417  1
  O  O32  1  0.22142377  0.25927291  0.61047557  1
  O  O33  1  0.19626118  0.26344516  0.08576160  1
