# generated using pymatgen
data_LiVF4
_symmetry_space_group_name_H-M   'P 1'
_cell_length_a   3.12534066
_cell_length_b   6.32235581
_cell_length_c   9.39602564
_cell_angle_alpha   34.39039191
_cell_angle_beta   80.72674385
_cell_angle_gamma   60.43287322
_symmetry_Int_Tables_number   1
_chemical_formula_structural   LiVF4
_chemical_formula_sum   'Li1 V1 F4'
_cell_volume   78.94653647
_cell_formula_units_Z   1
loop_
 _symmetry_equiv_pos_site_id
 _symmetry_equiv_pos_as_xyz
  1  'x, y, z'
loop_
 _atom_site_type_symbol
 _atom_site_label
 _atom_site_symmetry_multiplicity
 _atom_site_fract_x
 _atom_site_fract_y
 _atom_site_fract_z
 _atom_site_occupancy
  Li  Li0  1  0.02456637  0.49974925  0.00023080  1
  V  V1  1  0.01862564  0.00068903  0.99975219  1
  F  F2  1  0.60632811  0.79301406  0.23111471  1
  F  F3  1  0.52177482  0.58135190  0.81721492  1
  F  F4  1  0.43144995  0.20738311  0.76829643  1
  F  F5  1  0.52074311  0.41781265  0.18339094  1
