# generated using pymatgen
data_Li2Mn3(BO3)3
_symmetry_space_group_name_H-M   'P 1'
_cell_length_a   8.26725360
_cell_length_b   8.68465511
_cell_length_c   6.30569614
_cell_angle_alpha   69.84632984
_cell_angle_beta   88.02911261
_cell_angle_gamma   116.70819854
_symmetry_Int_Tables_number   1
_chemical_formula_structural   Li2Mn3(BO3)3
_chemical_formula_sum   'Li4 Mn6 B6 O18'
_cell_volume   369.87780813
_cell_formula_units_Z   2
loop_
 _symmetry_equiv_pos_site_id
 _symmetry_equiv_pos_as_xyz
  1  'x, y, z'
loop_
 _atom_site_type_symbol
 _atom_site_label
 _atom_site_symmetry_multiplicity
 _atom_site_fract_x
 _atom_site_fract_y
 _atom_site_fract_z
 _atom_site_occupancy
  Li  Li0  1  0.69677267  0.71977719  0.36930171  1
  Li  Li1  1  0.01813990  0.30863953  0.60384140  1
  Li  Li2  1  0.01994845  0.30852764  0.07864031  1
  Li  Li3  1  0.27992362  0.97757746  0.78095639  1
  Mn  Mn4  1  0.98844857  0.62893340  0.18968964  1
  Mn  Mn5  1  0.98842250  0.66993480  0.66902277  1
  Mn  Mn6  1  0.61813079  0.00595002  0.01585198  1
  Mn  Mn7  1  0.65337301  0.99317027  0.52104637  1
  Mn  Mn8  1  0.39226408  0.37197021  0.80615832  1
  Mn  Mn9  1  0.34867879  0.31327737  0.32657182  1
  B  B10  1  0.00618482  0.01311094  0.48883925  1
  B  B11  1  0.99834959  0.01073310  0.99062454  1
  B  B12  1  0.67241885  0.33301224  0.06799835  1
  B  B13  1  0.66634190  0.33209378  0.59278477  1
  B  B14  1  0.32942417  0.65836711  0.43056757  1
  B  B15  1  0.32912169  0.65672718  0.92423145  1
  O  O16  1  0.74082788  0.20483990  0.13478166  1
  O  O17  1  0.73883929  0.21095064  0.65864952  1
  O  O18  1  0.78808434  0.51953881  0.00423058  1
  O  O19  1  0.77632137  0.52452048  0.49640179  1
  O  O20  1  0.82310057  0.87723795  0.53685894  1
  O  O21  1  0.80559816  0.91847232  0.05140694  1
  O  O22  1  0.48222327  0.25708762  0.07186354  1
  O  O23  1  0.47085071  0.25178402  0.63234439  1
  O  O24  1  0.40104829  0.53258129  0.48783347  1
  O  O25  1  0.39412833  0.52899371  0.96931655  1
  O  O26  1  0.46008831  0.84724225  0.34794980  1
  O  O27  1  0.45089235  0.84961371  0.86059666  1
  O  O28  1  0.06089158  0.20561281  0.38881014  1
  O  O29  1  0.09962609  0.20814657  0.88410249  1
  O  O30  1  0.14118431  0.59124389  0.45634795  1
  O  O31  1  0.14289453  0.59677826  0.93965692  1
  O  O32  1  0.14275971  0.96388591  0.53751223  1
  O  O33  1  0.09107553  0.90961864  0.03523478  1
