# generated using pymatgen
data_Li4Mn7(PO4)6
_symmetry_space_group_name_H-M   'P 1'
_cell_length_a   9.06364752
_cell_length_b   9.06364752
_cell_length_c   6.66111894
_cell_angle_alpha   80.44765018
_cell_angle_beta   99.55234982
_cell_angle_gamma   73.96989947
_symmetry_Int_Tables_number   1
_chemical_formula_structural   Li4Mn7(PO4)6
_chemical_formula_sum   'Li4 Mn7 P6 O24'
_cell_volume   505.52695417
_cell_formula_units_Z   1
loop_
 _symmetry_equiv_pos_site_id
 _symmetry_equiv_pos_as_xyz
  1  'x, y, z'
loop_
 _atom_site_type_symbol
 _atom_site_label
 _atom_site_symmetry_multiplicity
 _atom_site_fract_x
 _atom_site_fract_y
 _atom_site_fract_z
 _atom_site_occupancy
  Li  Li0  1  0.00867664  0.99132336  0.49001346  1
  Li  Li1  1  0.36890955  0.63109045  0.57665409  1
  Li  Li2  1  0.45127891  0.31746791  0.49682160  1
  Li  Li3  1  0.68253209  0.54872109  0.49682160  1
  Mn  Mn4  1  0.64228313  0.00164928  0.19277913  1
  Mn  Mn5  1  0.99835072  0.35771687  0.19277913  1
  Mn  Mn6  1  0.00343883  0.99656117  0.99797944  1
  Mn  Mn7  1  0.33462540  0.33385149  0.00504166  1
  Mn  Mn8  1  0.66614851  0.66537460  0.00504166  1
  Mn  Mn9  1  0.00271911  0.63751908  0.81401412  1
  Mn  Mn10  1  0.36248092  0.99728089  0.81401412  1
  P  P11  1  0.71857871  0.90687422  0.70375110  1
  P  P12  1  0.09312578  0.28142129  0.70375110  1
  P  P13  1  0.33009315  0.66990685  0.08563049  1
  P  P14  1  0.67522235  0.32477765  0.91450385  1
  P  P15  1  0.28901840  0.07678270  0.30471342  1
  P  P16  1  0.92321730  0.71098160  0.30471342  1
  O  O17  1  0.35067400  0.95526226  0.51340145  1
  O  O18  1  0.04473774  0.64932600  0.51340145  1
  O  O19  1  0.04944953  0.37495782  0.87646234  1
  O  O20  1  0.62504218  0.95055047  0.87646234  1
  O  O21  1  0.20235608  0.79764392  0.13516349  1
  O  O22  1  0.25397906  0.57640372  0.94018797  1
  O  O23  1  0.42359628  0.74602094  0.94018797  1
  O  O24  1  0.10413961  0.10247621  0.75784730  1
  O  O25  1  0.89752379  0.89586039  0.75784730  1
  O  O26  1  0.72557522  0.72959237  0.71016817  1
  O  O27  1  0.27040763  0.27442478  0.71016817  1
  O  O28  1  0.44254896  0.55745104  0.28795137  1
  O  O29  1  0.56436988  0.43563012  0.70722310  1
  O  O30  1  0.29801554  0.24835075  0.30706130  1
  O  O31  1  0.75164925  0.70198446  0.30706130  1
  O  O32  1  0.10636445  0.10270766  0.23941150  1
  O  O33  1  0.89729234  0.89363555  0.23941150  1
  O  O34  1  0.80505464  0.19494536  0.87415783  1
  O  O35  1  0.38423551  0.02659394  0.13774057  1
  O  O36  1  0.97340606  0.61576449  0.13774057  1
  O  O37  1  0.75041352  0.42392130  0.04896155  1
  O  O38  1  0.57607870  0.24958648  0.04896155  1
  O  O39  1  0.97192215  0.36060063  0.49740177  1
  O  O40  1  0.63939937  0.02807785  0.49740177  1
