# generated using pymatgen
data_LiCo3(OF3)2
_symmetry_space_group_name_H-M   'P 1'
_cell_length_a   7.47719164
_cell_length_b   7.07296574
_cell_length_c   5.07747135
_cell_angle_alpha   90.54814843
_cell_angle_beta   90.41510147
_cell_angle_gamma   78.96507795
_symmetry_Int_Tables_number   1
_chemical_formula_structural   LiCo3(OF3)2
_chemical_formula_sum   'Li2 Co6 O4 F12'
_cell_volume   263.54580338
_cell_formula_units_Z   2
loop_
 _symmetry_equiv_pos_site_id
 _symmetry_equiv_pos_as_xyz
  1  'x, y, z'
loop_
 _atom_site_type_symbol
 _atom_site_label
 _atom_site_symmetry_multiplicity
 _atom_site_fract_x
 _atom_site_fract_y
 _atom_site_fract_z
 _atom_site_occupancy
  Li  Li0  1  0.15356877  0.17014948  0.76555135  1
  Li  Li1  1  0.84643123  0.82985052  0.23444865  1
  Co  Co2  1  0.18388911  0.66088491  0.71661299  1
  Co  Co3  1  0.32707029  0.83160213  0.24031032  1
  Co  Co4  1  0.68307300  0.68499096  0.74389813  1
  Co  Co5  1  0.31692700  0.31500904  0.25610187  1
  Co  Co6  1  0.67292971  0.16839787  0.75968968  1
  Co  Co7  1  0.81611089  0.33911509  0.28338701  1
  O  O8  1  0.29877178  0.57602387  0.40785730  1
  O  O9  1  0.68419110  0.92717074  0.88241227  1
  O  O10  1  0.31580890  0.07282926  0.11758773  1
  O  O11  1  0.70122822  0.42397613  0.59214270  1
  F  F12  1  0.19118451  0.92327828  0.57431214  1
  F  F13  1  0.09312948  0.80049342  0.04370052  1
  F  F14  1  0.43087129  0.68424212  0.90812289  1
  F  F15  1  0.18896132  0.42537409  0.91940578  1
  F  F16  1  0.07084012  0.31062446  0.41932496  1
  F  F17  1  0.57283878  0.79408989  0.40628415  1
  F  F18  1  0.42716122  0.20591011  0.59371585  1
  F  F19  1  0.92915988  0.68937554  0.58067504  1
  F  F20  1  0.81103868  0.57462591  0.08059422  1
  F  F21  1  0.56912871  0.31575788  0.09187711  1
  F  F22  1  0.90687052  0.19950658  0.95629948  1
  F  F23  1  0.80881549  0.07672172  0.42568786  1
