# generated using pymatgen
data_LiFeP2O7
_symmetry_space_group_name_H-M   'P 1'
_cell_length_a   9.72838856
_cell_length_b   9.81278763
_cell_length_c   11.23481555
_cell_angle_alpha   89.73797763
_cell_angle_beta   101.96822593
_cell_angle_gamma   90.07508545
_symmetry_Int_Tables_number   1
_chemical_formula_structural   LiFeP2O7
_chemical_formula_sum   'Li8 Fe8 P16 O56'
_cell_volume   1049.18047713
_cell_formula_units_Z   8
loop_
 _symmetry_equiv_pos_site_id
 _symmetry_equiv_pos_as_xyz
  1  'x, y, z'
loop_
 _atom_site_type_symbol
 _atom_site_label
 _atom_site_symmetry_multiplicity
 _atom_site_fract_x
 _atom_site_fract_y
 _atom_site_fract_z
 _atom_site_occupancy
  Li  Li0  1  0.09027401  0.10711626  0.02485841  1
  Li  Li1  1  0.40461464  0.61066607  0.97327358  1
  Li  Li2  1  0.39791205  0.96336688  0.50339752  1
  Li  Li3  1  0.59125608  0.39810592  0.02942001  1
  Li  Li4  1  0.64921992  0.10180237  0.05335809  1
  Li  Li5  1  0.90714522  0.88865478  0.97096524  1
  Li  Li6  1  0.86515786  0.56696836  0.48847904  1
  Li  Li7  1  0.88576265  0.28425843  0.54661964  1
  Fe  Fe8  1  0.20482503  0.91018465  0.67161365  1
  Fe  Fe9  1  0.24532589  0.20266673  0.82256576  1
  Fe  Fe10  1  0.25279320  0.70415213  0.17701508  1
  Fe  Fe11  1  0.29308934  0.41799766  0.33833748  1
  Fe  Fe12  1  0.70343759  0.59040904  0.68091537  1
  Fe  Fe13  1  0.74649440  0.29555541  0.82096324  1
  Fe  Fe14  1  0.75531340  0.78756234  0.17578023  1
  Fe  Fe15  1  0.79299091  0.07350507  0.33718909  1
  P  P16  1  0.01829938  0.44666491  0.75083605  1
  P  P17  1  0.11327132  0.70944892  0.88283097  1
  P  P18  1  0.06150793  0.92427234  0.23514088  1
  P  P19  1  0.12630602  0.14174751  0.42638649  1
  P  P20  1  0.37588775  0.64236053  0.57193648  1
  P  P21  1  0.43456511  0.42576148  0.76325045  1
  P  P22  1  0.51819808  0.05286455  0.74855674  1
  P  P23  1  0.38128666  0.21285193  0.11743042  1
  P  P24  1  0.61152490  0.79234407  0.88457861  1
  P  P25  1  0.47562143  0.94416911  0.24459616  1
  P  P26  1  0.56380473  0.57752028  0.23634678  1
  P  P27  1  0.62483659  0.35604520  0.42200204  1
  P  P28  1  0.87387644  0.85645367  0.57278805  1
  P  P29  1  0.93308596  0.07351493  0.76020058  1
  P  P30  1  0.88626924  0.28537610  0.11692476  1
  P  P31  1  0.97742101  0.55244742  0.24528556  1
  O  O32  1  0.00913104  0.42937685  0.61687849  1
  O  O33  1  0.02977623  0.84747067  0.57038697  1
  O  O34  1  0.08559925  0.07991369  0.73473294  1
  O  O35  1  0.10532805  0.58233519  0.79063199  1
  O  O36  1  0.09848109  0.33481281  0.83385432  1
  O  O37  1  0.18610283  0.81920669  0.81979025  1
  O  O38  1  0.21517624  0.66148829  0.00313448  1
  O  O39  1  0.02918400  0.25589000  0.09697314  1
  O  O40  1  0.12366781  0.06109111  0.30045933  1
  O  O41  1  0.05785613  0.93995682  0.10145186  1
  O  O42  1  0.13102824  0.53449514  0.22316683  1
  O  O43  1  0.18378479  0.28164810  0.40357817  1
  O  O44  1  0.16003027  0.80657055  0.28741343  1
  O  O45  1  0.21581006  0.05678234  0.52713580  1
  O  O46  1  0.29105305  0.56755622  0.46363208  1
  O  O47  1  0.34271645  0.30229694  0.71490445  1
  O  O48  1  0.32281600  0.78668963  0.59317550  1
  O  O49  1  0.36681098  0.03497999  0.77838220  1
  O  O50  1  0.36321729  0.55724513  0.69360486  1
  O  O51  1  0.43931713  0.44390938  0.89662620  1
  O  O52  1  0.46914645  0.75970291  0.90347787  1
  O  O53  1  0.27692563  0.16779169  0.99749517  1
  O  O54  1  0.32313221  0.32708028  0.18377969  1
  O  O55  1  0.38964285  0.08379388  0.20730627  1
  O  O56  1  0.41312567  0.58630368  0.26394787  1
  O  O57  1  0.39724650  0.83701490  0.15549458  1
  O  O58  1  0.47251726  0.34739097  0.43369144  1
  O  O59  1  0.51848213  0.07464802  0.61767000  1
  O  O60  1  0.47752538  0.91867463  0.37510165  1
  O  O61  1  0.53372919  0.64840216  0.57282970  1
  O  O62  1  0.60365037  0.15633928  0.84062669  1
  O  O63  1  0.58749224  0.41657523  0.73533455  1
  O  O64  1  0.60307423  0.91312700  0.78688901  1
  O  O65  1  0.68669751  0.67894575  0.82859472  1
  O  O66  1  0.71325825  0.84957612  0.00325772  1
  O  O67  1  0.52463496  0.23669525  0.09072658  1
  O  O68  1  0.56496952  0.56842933  0.10277729  1
  O  O69  1  0.62903647  0.43855545  0.29738552  1
  O  O70  1  0.62759205  0.96798804  0.21460406  1
  O  O71  1  0.69121308  0.21773559  0.40364957  1
  O  O72  1  0.66402544  0.69334051  0.29218588  1
  O  O73  1  0.72252213  0.43362246  0.52423722  1
  O  O74  1  0.78820779  0.93201497  0.46405164  1
  O  O75  1  0.84313287  0.19753425  0.70408015  1
  O  O76  1  0.81680977  0.71367395  0.59433584  1
  O  O77  1  0.86586114  0.46324799  0.78066714  1
  O  O78  1  0.92901833  0.06229136  0.89293530  1
  O  O79  1  0.86107006  0.94144233  0.69330677  1
  O  O80  1  0.96954454  0.74240989  0.89832155  1
  O  O81  1  0.77774444  0.32682649  0.99636801  1
  O  O82  1  0.81332528  0.17103505  0.17736243  1
  O  O83  1  0.89829719  0.65929281  0.15340651  1
  O  O84  1  0.89101500  0.41259320  0.20621864  1
  O  O85  1  0.90948977  0.91214549  0.26314826  1
  O  O86  1  0.97083715  0.15427867  0.43823073  1
  O  O87  1  0.96945047  0.57711380  0.37357822  1
