# generated using pymatgen
data_EuCd3S4
_symmetry_space_group_name_H-M   'P 1'
_cell_length_a   4.31537078
_cell_length_b   4.31537078
_cell_length_c   14.25845550
_cell_angle_alpha   81.29617987
_cell_angle_beta   98.70382013
_cell_angle_gamma   120.00000000
_symmetry_Int_Tables_number   1
_chemical_formula_structural   EuCd3S4
_chemical_formula_sum   'Eu1 Cd3 S4'
_cell_volume   226.41534417
_cell_formula_units_Z   1
loop_
 _symmetry_equiv_pos_site_id
 _symmetry_equiv_pos_as_xyz
  1  'x, y, z'
loop_
 _atom_site_type_symbol
 _atom_site_label
 _atom_site_symmetry_multiplicity
 _atom_site_fract_x
 _atom_site_fract_y
 _atom_site_fract_z
 _atom_site_occupancy
  Eu  Eu0  1  0.25105262  0.74894738  0.75315787  1
  Cd  Cd1  1  0.00349091  0.99650909  0.01047272  1
  Cd  Cd2  1  0.74964083  0.25035917  0.24892250  1
  Cd  Cd3  1  0.49587217  0.50412783  0.48761652  1
  S  S4  1  0.06423100  0.93576900  0.19269301  1
  S  S5  1  0.81086760  0.18913240  0.43260281  1
  S  S6  1  0.55734487  0.44265513  0.67203460  1
  S  S7  1  0.31749999  0.68250001  0.95249997  1
