# generated using pymatgen
data_Mn8O13F3
_symmetry_space_group_name_H-M   'P 1'
_cell_length_a   7.01113005
_cell_length_b   7.28511806
_cell_length_c   6.74005907
_cell_angle_alpha   64.10474169
_cell_angle_beta   65.72511286
_cell_angle_gamma   101.72399062
_symmetry_Int_Tables_number   1
_chemical_formula_structural   Mn8O13F3
_chemical_formula_sum   'Mn8 O13 F3'
_cell_volume   249.67817395
_cell_formula_units_Z   1
loop_
 _symmetry_equiv_pos_site_id
 _symmetry_equiv_pos_as_xyz
  1  'x, y, z'
loop_
 _atom_site_type_symbol
 _atom_site_label
 _atom_site_symmetry_multiplicity
 _atom_site_fract_x
 _atom_site_fract_y
 _atom_site_fract_z
 _atom_site_occupancy
  Mn  Mn0  1  0.29864458  0.45065979  0.24793581  1
  Mn  Mn1  1  0.20887659  0.06207497  0.73848023  1
  Mn  Mn2  1  0.19336140  0.55079480  0.76899259  1
  Mn  Mn3  1  0.29786257  0.94945187  0.25218084  1
  Mn  Mn4  1  0.69654432  0.05343193  0.75428585  1
  Mn  Mn5  1  0.79436905  0.43413290  0.26057848  1
  Mn  Mn6  1  0.79391313  0.96201781  0.25177537  1
  Mn  Mn7  1  0.71256570  0.57294339  0.73058209  1
  O  O8  1  0.62716040  0.01066031  0.08408934  1
  O  O9  1  0.12968079  0.52242196  0.08089256  1
  O  O10  1  0.04028511  0.14728479  0.57436135  1
  O  O11  1  0.09989366  0.21140676  0.92229225  1
  O  O12  1  0.46336922  0.34729591  0.41882868  1
  O  O13  1  0.72868173  0.12227254  0.42857504  1
  O  O14  1  0.26786796  0.87868003  0.58381700  1
  O  O15  1  0.77455306  0.38320010  0.57608117  1
  O  O16  1  0.53676568  0.65255921  0.57719535  1
  O  O17  1  0.60380671  0.71306165  0.91636513  1
  O  O18  1  0.96223460  0.84968793  0.41293435  1
  O  O19  1  0.86327560  0.47401616  0.92547362  1
  O  O20  1  0.36328659  0.97348149  0.92311222  1
  F  F21  1  0.41960088  0.29991189  0.04800701  1
  F  F22  1  0.21832844  0.59682596  0.45149401  1
  F  F23  1  0.90507223  0.78172482  0.07166866  1
