# generated using pymatgen
data_Fe4O3F5
_symmetry_space_group_name_H-M   'P 1'
_cell_length_a   4.76179012
_cell_length_b   7.83543746
_cell_length_c   7.95317554
_cell_angle_alpha   74.56798648
_cell_angle_beta   90.28445704
_cell_angle_gamma   89.44183813
_symmetry_Int_Tables_number   1
_chemical_formula_structural   Fe4O3F5
_chemical_formula_sum   'Fe8 O6 F10'
_cell_volume   286.01789886
_cell_formula_units_Z   2
loop_
 _symmetry_equiv_pos_site_id
 _symmetry_equiv_pos_as_xyz
  1  'x, y, z'
loop_
 _atom_site_type_symbol
 _atom_site_label
 _atom_site_symmetry_multiplicity
 _atom_site_fract_x
 _atom_site_fract_y
 _atom_site_fract_z
 _atom_site_occupancy
  Fe  Fe0  1  0.44800823  0.11673511  0.61206476  1
  Fe  Fe1  1  0.55199177  0.38326489  0.88793524  1
  Fe  Fe2  1  0.48540818  0.88109206  0.35187473  1
  Fe  Fe3  1  0.51459182  0.61890794  0.14812527  1
  Fe  Fe4  1  0.00000000  0.75000000  0.75000000  1
  Fe  Fe5  1  0.95815618  0.50868552  0.51037356  1
  Fe  Fe6  1  0.00000000  0.25000000  0.25000000  1
  Fe  Fe7  1  0.04184382  0.99131448  0.98962644  1
  O  O8  1  0.80651015  0.52081049  0.72614077  1
  O  O9  1  0.69787199  0.65883747  0.35203123  1
  O  O10  1  0.69346266  0.40758539  0.10565779  1
  O  O11  1  0.30212801  0.84116253  0.14796877  1
  O  O12  1  0.30653734  0.09241461  0.39434221  1
  O  O13  1  0.19348985  0.97918951  0.77385923  1
  F  F14  1  0.79216759  0.27562319  0.49484849  1
  F  F15  1  0.78765424  0.78443188  0.97720818  1
  F  F16  1  0.80168199  0.02073360  0.20124945  1
  F  F17  1  0.69269830  0.90847250  0.58597517  1
  F  F18  1  0.69619634  0.15123608  0.85029504  1
  F  F19  1  0.30730170  0.59152750  0.91402483  1
  F  F20  1  0.30380366  0.34876392  0.64970496  1
  F  F21  1  0.20783241  0.22437681  0.00515151  1
  F  F22  1  0.21234576  0.71556812  0.52279182  1
  F  F23  1  0.19831801  0.47926640  0.29875055  1
