# generated using pymatgen
data_Li2Mn3Cr3O12
_symmetry_space_group_name_H-M   'P 1'
_cell_length_a   5.25815496
_cell_length_b   8.80314483
_cell_length_c   5.11705383
_cell_angle_alpha   90.00000120
_cell_angle_beta   70.90137762
_cell_angle_gamma   90.00000272
_symmetry_Int_Tables_number   1
_chemical_formula_structural   Li2Mn3Cr3O12
_chemical_formula_sum   'Li2 Mn3 Cr3 O12'
_cell_volume   223.82219923
_cell_formula_units_Z   1
loop_
 _symmetry_equiv_pos_site_id
 _symmetry_equiv_pos_as_xyz
  1  'x, y, z'
loop_
 _atom_site_type_symbol
 _atom_site_label
 _atom_site_symmetry_multiplicity
 _atom_site_fract_x
 _atom_site_fract_y
 _atom_site_fract_z
 _atom_site_occupancy
  Li  Li0  1  0.00000000  0.66666700  0.00000000  1
  Li  Li1  1  0.00000000  0.16666700  0.50000000  1
  Mn  Mn2  1  0.50000000  0.83489016  0.00000000  1
  Mn  Mn3  1  0.50000000  0.49844284  1.00000000  1
  Mn  Mn4  1  0.50000000  0.16666700  0.00000000  1
  Cr  Cr5  1  0.50000000  0.66666700  0.50000000  1
  Cr  Cr6  1  0.50000000  0.33777553  0.50000000  1
  Cr  Cr7  1  0.50000000  0.99555747  0.50000000  1
  O  O8  1  0.29743034  0.66666700  0.21905327  1
  O  O9  1  0.29747614  0.32981021  0.23109310  1
  O  O10  1  0.29747614  0.00352279  0.23109310  1
  O  O11  1  0.29706541  0.83151106  0.74692892  1
  O  O12  1  0.29706541  0.50182294  0.74692892  1
  O  O13  1  0.30739884  0.16666700  0.72875276  1
  O  O14  1  0.70293459  0.83151106  0.25307108  1
  O  O15  1  0.70293459  0.50182294  0.25307108  1
  O  O16  1  0.69260116  0.16666700  0.27124724  1
  O  O17  1  0.70256966  0.66666700  0.78094673  1
  O  O18  1  0.70252386  0.32981021  0.76890690  1
  O  O19  1  0.70252386  0.00352279  0.76890690  1
