# generated using pymatgen
data_Li2Mn3(BO3)3
_symmetry_space_group_name_H-M   'P 1'
_cell_length_a   6.34438750
_cell_length_b   14.26943666
_cell_length_c   8.85077913
_cell_angle_alpha   89.06306834
_cell_angle_beta   110.27305181
_cell_angle_gamma   91.18773504
_symmetry_Int_Tables_number   1
_chemical_formula_structural   Li2Mn3(BO3)3
_chemical_formula_sum   'Li8 Mn12 B12 O36'
_cell_volume   751.43404788
_cell_formula_units_Z   4
loop_
 _symmetry_equiv_pos_site_id
 _symmetry_equiv_pos_as_xyz
  1  'x, y, z'
loop_
 _atom_site_type_symbol
 _atom_site_label
 _atom_site_symmetry_multiplicity
 _atom_site_fract_x
 _atom_site_fract_y
 _atom_site_fract_z
 _atom_site_occupancy
  Li  Li0  1  0.17610993  0.14641597  0.86751804  1
  Li  Li1  1  0.14118842  0.49170912  0.79066794  1
  Li  Li2  1  0.16271107  0.85998659  0.84028095  1
  Li  Li3  1  0.69444139  0.15272410  0.87100398  1
  Li  Li4  1  0.42473381  0.36128855  0.34350518  1
  Li  Li5  1  0.43757497  0.65113216  0.37424547  1
  Li  Li6  1  0.93407499  0.64943594  0.36892195  1
  Li  Li7  1  0.90513925  0.99086815  0.28448441  1
  Mn  Mn8  1  0.07653035  0.50098565  0.13775357  1
  Mn  Mn9  1  0.33188482  0.32030111  0.67515759  1
  Mn  Mn10  1  0.09142294  0.81056585  0.17602717  1
  Mn  Mn11  1  0.10588069  0.18637280  0.20830029  1
  Mn  Mn12  1  0.30856918  0.00157130  0.62616157  1
  Mn  Mn13  1  0.33920981  0.67878733  0.69646007  1
  Mn  Mn14  1  0.83326954  0.67662894  0.69683401  1
  Mn  Mn15  1  0.80427880  0.99821712  0.63340279  1
  Mn  Mn16  1  0.59560403  0.16907911  0.19262987  1
  Mn  Mn17  1  0.58909299  0.82600695  0.16147963  1
  Mn  Mn18  1  0.83235562  0.31975170  0.66886347  1
  Mn  Mn19  1  0.58106102  0.50049968  0.13014269  1
  B  B20  1  0.24427617  0.33094508  0.99982613  1
  B  B21  1  0.01433053  0.16344019  0.50716278  1
  B  B22  1  0.99877628  0.83195943  0.49857036  1
  B  B23  1  0.49674778  0.00627318  0.98712246  1
  B  B24  1  0.24717392  0.50312322  0.49899912  1
  B  B25  1  0.49277080  0.17042561  0.50032592  1
  B  B26  1  0.48074220  0.83138339  0.49331761  1
  B  B27  1  0.76445348  0.32707271  0.00115104  1
  B  B28  1  0.24617314  0.66488825  0.00394985  1
  B  B29  1  0.00635535  0.99948787  0.00406330  1
  B  B30  1  0.74865261  0.50336487  0.49618275  1
  B  B31  1  0.76169235  0.66958377  0.01053208  1
  O  O32  1  0.16486439  0.28839932  0.85242524  1
  O  O33  1  0.06573551  0.77896297  0.63852636  1
  O  O34  1  0.00855327  0.25686676  0.52963749  1
  O  O35  1  0.08801031  0.10109213  0.63811923  1
  O  O36  1  0.15863104  0.62634106  0.85148969  1
  O  O37  1  0.99347129  0.92908980  0.50452229  1
  O  O38  1  0.41122117  0.95059861  0.85182499  1
  O  O39  1  0.30323925  0.46060964  0.64741567  1
  O  O40  1  0.06361098  0.94939627  0.14761587  1
  O  O41  1  0.23334089  0.60061722  0.48537319  1
  O  O42  1  0.48361500  0.10370426  0.97195284  1
  O  O43  1  0.20562757  0.45025886  0.36204984  1
  O  O44  1  0.39726206  0.13282755  0.34457107  1
  O  O45  1  0.30806690  0.27633909  0.14244510  1
  O  O46  1  0.54975781  0.76272240  0.60710660  1
  O  O47  1  0.57336098  0.10980900  0.63102111  1
  O  O48  1  0.65510522  0.63762390  0.85816757  1
  O  O49  1  0.66907180  0.29521922  0.84549223  1
  O  O50  1  0.40374989  0.80290578  0.33123045  1
  O  O51  1  0.48892237  0.92516939  0.53009562  1
  O  O52  1  0.50131638  0.26645302  0.51817254  1
  O  O53  1  0.25557189  0.76289793  0.02008584  1
  O  O54  1  0.32213282  0.60781071  0.13973768  1
  O  O55  1  0.26724791  0.42736008  0.01267702  1
  O  O56  1  0.66443761  0.45102925  0.35779863  1
  O  O57  1  0.99972478  0.09827265  0.00508195  1
  O  O58  1  0.74193638  0.60122636  0.48487932  1
  O  O59  1  0.83842384  0.46056872  0.64452902  1
  O  O60  1  0.59571082  0.96721220  0.13774611  1
  O  O61  1  0.95763363  0.95368289  0.86050853  1
  O  O62  1  0.78947823  0.42051095  0.03801605  1
  O  O63  1  0.83427393  0.60851751  0.14166101  1
  O  O64  1  0.93197531  0.78942682  0.34768716  1
  O  O65  1  0.83162908  0.25933277  0.12515265  1
  O  O66  1  0.94577135  0.12568999  0.34973185  1
  O  O67  1  0.79663910  0.76713124  0.03321816  1
