# generated using pymatgen
data_LiMn2(BO3)2
_symmetry_space_group_name_H-M   'P 1'
_cell_length_a   5.23828935
_cell_length_b   5.23828893
_cell_length_c   10.61274084
_cell_angle_alpha   90.56909504
_cell_angle_beta   89.43090361
_cell_angle_gamma   61.62462602
_symmetry_Int_Tables_number   1
_chemical_formula_structural   LiMn2(BO3)2
_chemical_formula_sum   'Li2 Mn4 B4 O12'
_cell_volume   256.17391679
_cell_formula_units_Z   2
loop_
 _symmetry_equiv_pos_site_id
 _symmetry_equiv_pos_as_xyz
  1  'x, y, z'
loop_
 _atom_site_type_symbol
 _atom_site_label
 _atom_site_symmetry_multiplicity
 _atom_site_fract_x
 _atom_site_fract_y
 _atom_site_fract_z
 _atom_site_occupancy
  Li  Li0  1  0.52431613  0.53827419  0.24599693  1
  Li  Li1  1  0.46172581  0.47568387  0.74599693  1
  Mn  Mn2  1  0.29595300  0.06587989  0.12982146  1
  Mn  Mn3  1  0.69562140  0.99490402  0.89262834  1
  Mn  Mn4  1  0.00509598  0.30437860  0.39262834  1
  Mn  Mn5  1  0.93412011  0.70404700  0.62982146  1
  B  B6  1  0.01047364  0.36587664  0.87601083  1
  B  B7  1  0.32154458  0.03203601  0.63712597  1
  B  B8  1  0.63412336  0.98952636  0.37601083  1
  B  B9  1  0.96796399  0.67845542  0.13712597  1
  O  O10  1  0.12454885  0.28772396  0.57891684  1
  O  O11  1  0.24335310  0.18924250  0.95233896  1
  O  O12  1  0.04221894  0.58643516  0.81068394  1
  O  O13  1  0.56463619  0.03713232  0.69312332  1
  O  O14  1  0.20501485  0.71566310  0.13676278  1
  O  O15  1  0.28433690  0.79498515  0.63676278  1
  O  O16  1  0.66129659  0.23016647  0.36186763  1
  O  O17  1  0.76983353  0.33870341  0.86186763  1
  O  O18  1  0.41356484  0.95778106  0.31068394  1
  O  O19  1  0.71227604  0.87545115  0.07891684  1
  O  O20  1  0.96286768  0.43536381  0.19312332  1
  O  O21  1  0.81075750  0.75664690  0.45233896  1
