# generated using pymatgen
data_LiFe4(BO3)4
_symmetry_space_group_name_H-M   'P 1'
_cell_length_a   5.31194336
_cell_length_b   9.04522182
_cell_length_c   11.43746176
_cell_angle_alpha   113.41202668
_cell_angle_beta   76.84118132
_cell_angle_gamma   89.83212876
_symmetry_Int_Tables_number   1
_chemical_formula_structural   LiFe4(BO3)4
_chemical_formula_sum   'Li2 Fe8 B8 O24'
_cell_volume   488.37004669
_cell_formula_units_Z   2
loop_
 _symmetry_equiv_pos_site_id
 _symmetry_equiv_pos_as_xyz
  1  'x, y, z'
loop_
 _atom_site_type_symbol
 _atom_site_label
 _atom_site_symmetry_multiplicity
 _atom_site_fract_x
 _atom_site_fract_y
 _atom_site_fract_z
 _atom_site_occupancy
  Li  Li0  1  0.18467154  0.16167615  0.33606519  1
  Li  Li1  1  0.93386344  0.42632954  0.84214074  1
  Fe  Fe2  1  0.40585496  0.27201032  0.87328034  1
  Fe  Fe3  1  0.09208122  0.23255267  0.12108584  1
  Fe  Fe4  1  0.83525183  0.14098146  0.62373623  1
  Fe  Fe5  1  0.65421893  0.35228862  0.37496175  1
  Fe  Fe6  1  0.35217526  0.64617020  0.62226163  1
  Fe  Fe7  1  0.15035329  0.84238874  0.37092067  1
  Fe  Fe8  1  0.90400896  0.77801979  0.87192248  1
  Fe  Fe9  1  0.59956232  0.72467292  0.12102573  1
  B  B10  1  0.63949504  0.01512364  0.36964744  1
  B  B11  1  0.90297988  0.10568323  0.87247114  1
  B  B12  1  0.14977560  0.51434751  0.37391075  1
  B  B13  1  0.39087307  0.60726346  0.87144888  1
  B  B14  1  0.84817328  0.48655526  0.63250919  1
  B  B15  1  0.60485228  0.39139174  0.11996269  1
  B  B16  1  0.35016790  0.97835272  0.61831856  1
  B  B17  1  0.09674354  0.89279461  0.12644336  1
  O  O18  1  0.10697028  0.15206321  0.93043502  1
  O  O19  1  0.46800143  0.12112803  0.66004128  1
  O  O20  1  0.16971629  0.04231493  0.14860743  1
  O  O21  1  0.51693728  0.14714201  0.37331872  1
  O  O22  1  0.87407724  0.02380094  0.41253797  1
  O  O23  1  0.81463522  0.20636503  0.81858711  1
  O  O24  1  0.27426564  0.47496429  0.87072812  1
  O  O25  1  0.06102907  0.36107958  0.32423694  1
  O  O26  1  0.72368889  0.30107089  0.16930346  1
  O  O27  1  0.63943571  0.48675112  0.58058618  1
  O  O28  1  0.93342914  0.35123483  0.64443413  1
  O  O29  1  0.38314693  0.34434903  0.07763702  1
  O  O30  1  0.62555488  0.64151966  0.91452463  1
  O  O31  1  0.35001465  0.52948643  0.43547993  1
  O  O32  1  0.28725117  0.71558354  0.83038120  1
  O  O33  1  0.97139998  0.62824444  0.67710015  1
  O  O34  1  0.71230063  0.52406553  0.10755347  1
  O  O35  1  0.21956544  0.79106285  0.16786514  1
  O  O36  1  0.13434750  0.97748457  0.56450999  1
  O  O37  1  0.44207380  0.84628637  0.62766870  1
  O  O38  1  0.04508355  0.64372037  0.36119139  1
  O  O39  1  0.79083458  0.96869352  0.86588337  1
  O  O40  1  0.53980548  0.86298305  0.32270443  1
  O  O41  1  0.88982686  0.83784219  0.06825364  1
