# generated using pymatgen
data_Li11V6O5F19
_symmetry_space_group_name_H-M   'P 1'
_cell_length_a   5.17266609
_cell_length_b   5.42064546
_cell_length_c   16.38685264
_cell_angle_alpha   79.76495651
_cell_angle_beta   89.98133228
_cell_angle_gamma   89.69534108
_symmetry_Int_Tables_number   1
_chemical_formula_structural   Li11V6O5F19
_chemical_formula_sum   'Li11 V6 O5 F19'
_cell_volume   452.15601774
_cell_formula_units_Z   1
loop_
 _symmetry_equiv_pos_site_id
 _symmetry_equiv_pos_as_xyz
  1  'x, y, z'
loop_
 _atom_site_type_symbol
 _atom_site_label
 _atom_site_symmetry_multiplicity
 _atom_site_fract_x
 _atom_site_fract_y
 _atom_site_fract_z
 _atom_site_occupancy
  Li  Li0  1  0.51302015  0.76576870  0.56061067  1
  Li  Li1  1  0.98662515  0.94505299  0.22480671  1
  Li  Li2  1  0.98094663  0.62451326  0.89151813  1
  Li  Li3  1  0.49029991  0.88894074  0.10570347  1
  Li  Li4  1  0.47378510  0.71384673  0.79456949  1
  Li  Li5  1  0.01757536  0.73811715  0.43957862  1
  Li  Li6  1  0.98451370  0.28488017  0.55632180  1
  Li  Li7  1  0.51403533  0.11188111  0.89119952  1
  Li  Li8  1  0.51598213  0.43174568  0.22366941  1
  Li  Li9  1  0.01386809  0.39634127  0.10724899  1
  Li  Li10  1  0.49074267  0.22314496  0.43704388  1
  V  V11  1  0.50257030  0.53254424  0.00133185  1
  V  V12  1  0.50565412  0.86609269  0.33349613  1
  V  V13  1  0.01129338  0.64762400  0.66593486  1
  V  V14  1  0.00074132  0.96967385  0.00184195  1
  V  V15  1  0.48443718  0.18378051  0.66511520  1
  V  V16  1  0.00516317  0.30654857  0.33467819  1
  O  O17  1  0.31564544  0.83084258  0.96431989  1
  O  O18  1  0.31242495  0.49254361  0.63147845  1
  O  O19  1  0.81156697  0.67270399  0.04135040  1
  O  O20  1  0.32111281  0.16855825  0.29977355  1
  O  O21  1  0.81583202  0.01019897  0.37243536  1
  F  F22  1  0.17337453  0.99339875  0.62601144  1
  F  F23  1  0.67243894  0.82980810  0.68763274  1
  F  F24  1  0.13907249  0.01551215  0.11736027  1
  F  F25  1  0.12216165  0.63493694  0.78106141  1
  F  F26  1  0.36530556  0.84811523  0.45251316  1
  F  F27  1  0.63520864  0.82149017  0.21879016  1
  F  F28  1  0.62663878  0.49082373  0.88390786  1
  F  F29  1  0.86491252  0.65502635  0.54990600  1
  F  F30  1  0.17265997  0.33022546  0.96958441  1
  F  F31  1  0.17335886  0.66699321  0.30324155  1
  F  F32  1  0.67976508  0.51101330  0.36768494  1
  F  F33  1  0.81985528  0.33037294  0.69446876  1
  F  F34  1  0.13903958  0.35168311  0.45009378  1
  F  F35  1  0.85179652  0.97202791  0.88933860  1
  F  F36  1  0.35741367  0.51615043  0.11901037  1
  F  F37  1  0.86463106  0.31632730  0.21743959  1
  F  F38  1  0.40724697  0.08143918  0.78162828  1
  F  F39  1  0.62975416  0.16578868  0.55098601  1
  F  F40  1  0.67468086  0.17617306  0.03491315  1
