# generated using pymatgen
data_Fe4O3F5
_symmetry_space_group_name_H-M   'P 1'
_cell_length_a   4.80012484
_cell_length_b   10.07943418
_cell_length_c   6.18536504
_cell_angle_alpha   72.13045516
_cell_angle_beta   89.99834941
_cell_angle_gamma   86.09720593
_symmetry_Int_Tables_number   1
_chemical_formula_structural   Fe4O3F5
_chemical_formula_sum   'Fe8 O6 F10'
_cell_volume   284.09742016
_cell_formula_units_Z   2
loop_
 _symmetry_equiv_pos_site_id
 _symmetry_equiv_pos_as_xyz
  1  'x, y, z'
loop_
 _atom_site_type_symbol
 _atom_site_label
 _atom_site_symmetry_multiplicity
 _atom_site_fract_x
 _atom_site_fract_y
 _atom_site_fract_z
 _atom_site_occupancy
  Fe  Fe0  1  0.51122149  0.24459890  0.63550657  1
  Fe  Fe1  1  0.51053392  0.74433713  0.86407992  1
  Fe  Fe2  1  0.51055049  0.74430160  0.39163615  1
  Fe  Fe3  1  0.51124828  0.24458544  0.11982080  1
  Fe  Fe4  1  0.99945401  0.99991171  0.50004396  1
  Fe  Fe5  1  0.00889814  0.49466150  0.75266511  1
  Fe  Fe6  1  0.98960611  0.00524927  0.99739374  1
  Fe  Fe7  1  0.97599807  0.51352830  0.24317069  1
  O  O8  1  0.69829258  0.15294775  0.42345790  1
  O  O9  1  0.67479518  0.66374196  0.16811023  1
  O  O10  1  0.68865717  0.15221529  0.92381034  1
  O  O11  1  0.70857302  0.64471731  0.67768044  1
  O  O12  1  0.30158485  0.84866254  0.57571188  1
  O  O13  1  0.30052911  0.34784341  0.82610938  1
  F  F14  1  0.80161308  0.39807501  0.55786619  1
  F  F15  1  0.80148208  0.39807368  0.04405071  1
  F  F16  1  0.80008744  0.89900008  0.78822410  1
  F  F17  1  0.80004650  0.89900743  0.31281117  1
  F  F18  1  0.29591469  0.85213525  0.07409091  1
  F  F19  1  0.30005150  0.35299256  0.32354847  1
  F  F20  1  0.20438317  0.59845652  0.94094908  1
  F  F21  1  0.20103787  0.10129703  0.21291092  1
  F  F22  1  0.20434379  0.59844977  0.46052410  1
  F  F23  1  0.20109745  0.10121057  0.68582424  1
