# generated using pymatgen
data_Mn(PO3)5
_symmetry_space_group_name_H-M   'P 1'
_cell_length_a   5.03988031
_cell_length_b   13.69384917
_cell_length_c   9.06017694
_cell_angle_alpha   90.00000000
_cell_angle_beta   101.71651405
_cell_angle_gamma   90.00000000
_symmetry_Int_Tables_number   1
_chemical_formula_structural   Mn(PO3)5
_chemical_formula_sum   'Mn2 P10 O30'
_cell_volume   612.26301048
_cell_formula_units_Z   2
loop_
 _symmetry_equiv_pos_site_id
 _symmetry_equiv_pos_as_xyz
  1  'x, y, z'
loop_
 _atom_site_type_symbol
 _atom_site_label
 _atom_site_symmetry_multiplicity
 _atom_site_fract_x
 _atom_site_fract_y
 _atom_site_fract_z
 _atom_site_occupancy
  Mn  Mn0  1  0.50000000  0.00000000  0.50000000  1
  Mn  Mn1  1  0.50000000  0.50000000  0.50000000  1
  P  P2  1  0.99239362  0.64149607  0.47572926  1
  P  P3  1  0.99239362  0.85850393  0.47572926  1
  P  P4  1  0.35554146  0.07698690  0.81274208  1
  P  P5  1  0.35554146  0.42301310  0.81274208  1
  P  P6  1  0.45148537  0.75000000  0.00611143  1
  P  P7  1  0.54851463  0.25000000  0.99388857  1
  P  P8  1  0.64445854  0.57698690  0.18725792  1
  P  P9  1  0.64445854  0.92301310  0.18725792  1
  P  P10  1  0.00760638  0.14149607  0.52427074  1
  P  P11  1  0.00760638  0.35850393  0.52427074  1
  O  O12  1  0.04238016  0.25000000  0.46572794  1
  O  O13  1  0.22195567  0.02640900  0.91962372  1
  O  O14  1  0.22195567  0.47359100  0.91962372  1
  O  O15  1  0.22246867  0.75000000  0.86912596  1
  O  O16  1  0.13218940  0.14638411  0.69776137  1
  O  O17  1  0.13218940  0.35361589  0.69776137  1
  O  O18  1  0.16543362  0.07377116  0.44066416  1
  O  O19  1  0.16543362  0.42622884  0.44066416  1
  O  O20  1  0.29567565  0.62234067  0.50424941  1
  O  O21  1  0.29567565  0.87765933  0.50424941  1
  O  O22  1  0.50085698  0.01696724  0.71026702  1
  O  O23  1  0.50085698  0.48303276  0.71026702  1
  O  O24  1  0.57150403  0.16106854  0.88160045  1
  O  O25  1  0.57150403  0.33893146  0.88160045  1
  O  O26  1  0.28938170  0.25000000  0.05350622  1
  O  O27  1  0.71061830  0.75000000  0.94649378  1
  O  O28  1  0.42849597  0.66106854  0.11839955  1
  O  O29  1  0.42849597  0.83893146  0.11839955  1
  O  O30  1  0.49914302  0.51696724  0.28973298  1
  O  O31  1  0.49914302  0.98303276  0.28973298  1
  O  O32  1  0.70432435  0.12234067  0.49575059  1
  O  O33  1  0.70432435  0.37765933  0.49575059  1
  O  O34  1  0.83456638  0.57377116  0.55933584  1
  O  O35  1  0.83456638  0.92622884  0.55933584  1
  O  O36  1  0.86781060  0.64638411  0.30223863  1
  O  O37  1  0.86781060  0.85361589  0.30223863  1
  O  O38  1  0.77753133  0.25000000  0.13087404  1
  O  O39  1  0.77804433  0.52640900  0.08037628  1
  O  O40  1  0.77804433  0.97359100  0.08037628  1
  O  O41  1  0.95761984  0.75000000  0.53427206  1
