# generated using pymatgen
data_Dy2SiPd2
_symmetry_space_group_name_H-M   'P 1'
_cell_length_a   4.15034300
_cell_length_b   7.51805169
_cell_length_c   13.92982001
_cell_angle_alpha   90.00000000
_cell_angle_beta   90.00000000
_cell_angle_gamma   90.00000000
_symmetry_Int_Tables_number   1
_chemical_formula_structural   Dy2SiPd2
_chemical_formula_sum   'Dy8 Si4 Pd8'
_cell_volume   434.64511421
_cell_formula_units_Z   4
loop_
 _symmetry_equiv_pos_site_id
 _symmetry_equiv_pos_as_xyz
  1  'x, y, z'
loop_
 _atom_site_type_symbol
 _atom_site_label
 _atom_site_symmetry_multiplicity
 _atom_site_fract_x
 _atom_site_fract_y
 _atom_site_fract_z
 _atom_site_occupancy
  Dy  Dy0  1  0.50000000  0.03514172  0.37447011  1
  Dy  Dy1  1  0.50000000  0.96485828  0.62552989  1
  Dy  Dy2  1  0.00000000  0.53514172  0.12552989  1
  Dy  Dy3  1  -0.00000000  0.46485828  0.87447011  1
  Dy  Dy4  1  0.50000000  0.95189031  0.13094421  1
  Dy  Dy5  1  0.50000000  0.04810969  0.86905579  1
  Dy  Dy6  1  0.00000000  0.45189031  0.36905579  1
  Dy  Dy7  1  0.00000000  0.54810969  0.63094421  1
  Si  Si8  1  0.50000000  0.65361852  0.47108998  1
  Si  Si9  1  0.50000000  0.34638148  0.52891002  1
  Si  Si10  1  0.00000000  0.15361852  0.02891002  1
  Si  Si11  1  -0.00000000  0.84638148  0.97108998  1
  Pd  Pd12  1  0.50000000  0.67120741  0.28109729  1
  Pd  Pd13  1  0.50000000  0.32879259  0.71890271  1
  Pd  Pd14  1  -0.00000000  0.17120741  0.21890271  1
  Pd  Pd15  1  -0.00000000  0.82879259  0.78109729  1
  Pd  Pd16  1  0.50000000  0.67950435  0.98621366  1
  Pd  Pd17  1  0.50000000  0.32049565  0.01378634  1
  Pd  Pd18  1  0.00000000  0.17950435  0.51378634  1
  Pd  Pd19  1  -0.00000000  0.82049565  0.48621366  1
