# generated using pymatgen
data_Er2Mn3Ga
_symmetry_space_group_name_H-M   'P 1'
_cell_length_a   5.36841791
_cell_length_b   5.36841791
_cell_length_c   5.27682301
_cell_angle_alpha   90.00000000
_cell_angle_beta   59.42412262
_cell_angle_gamma   120.00000000
_symmetry_Int_Tables_number   1
_chemical_formula_structural   Er2Mn3Ga
_chemical_formula_sum   'Er2 Mn3 Ga1'
_cell_volume   106.58952810
_cell_formula_units_Z   1
loop_
 _symmetry_equiv_pos_site_id
 _symmetry_equiv_pos_as_xyz
  1  'x, y, z'
loop_
 _atom_site_type_symbol
 _atom_site_label
 _atom_site_symmetry_multiplicity
 _atom_site_fract_x
 _atom_site_fract_y
 _atom_site_fract_z
 _atom_site_occupancy
  Er  Er0  1  0.50300354  0.75150177  0.74549469  1
  Er  Er1  1  0.99699646  0.99849823  0.00450531  1
  Mn  Mn2  1  0.25000000  0.37500000  0.37500000  1
  Mn  Mn3  1  0.25000000  0.87500000  0.37500000  1
  Mn  Mn4  1  0.75000000  0.37500000  0.37500000  1
  Ga  Ga5  1  0.75000000  0.37500000  0.87500000  1
