# generated using pymatgen
data_Li5Fe5Si7O24
_symmetry_space_group_name_H-M   'P 1'
_cell_length_a   7.97702779
_cell_length_b   7.84870232
_cell_length_c   9.31845217
_cell_angle_alpha   89.95866001
_cell_angle_beta   89.67184914
_cell_angle_gamma   89.65740489
_symmetry_Int_Tables_number   1
_chemical_formula_structural   Li5Fe5Si7O24
_chemical_formula_sum   'Li5 Fe5 Si7 O24'
_cell_volume   583.40178562
_cell_formula_units_Z   1
loop_
 _symmetry_equiv_pos_site_id
 _symmetry_equiv_pos_as_xyz
  1  'x, y, z'
loop_
 _atom_site_type_symbol
 _atom_site_label
 _atom_site_symmetry_multiplicity
 _atom_site_fract_x
 _atom_site_fract_y
 _atom_site_fract_z
 _atom_site_occupancy
  Li  Li0  1  0.42274083  0.69884625  0.25412958  1
  Li  Li1  1  0.49973865  0.24398251  0.75115998  1
  Li  Li2  1  0.74545128  0.46229762  0.71993490  1
  Li  Li3  1  0.76114247  0.97268211  0.03395605  1
  Li  Li4  1  0.00139990  0.75656281  0.99539052  1
  Fe  Fe5  1  0.38477880  0.82907377  0.99732246  1
  Fe  Fe6  1  0.56673524  0.58202608  0.49375420  1
  Fe  Fe7  1  0.67789593  0.88444953  0.74110494  1
  Fe  Fe8  1  0.82251320  0.37533254  0.00274901  1
  Fe  Fe9  1  0.93521738  0.08590523  0.26966959  1
  Si  Si10  1  0.08874545  0.92955335  0.74633936  1
  Si  Si11  1  0.12149757  0.33313697  0.74928828  1
  Si  Si12  1  0.15389950  0.63187958  0.51133272  1
  Si  Si13  1  0.34301101  0.12192407  0.24291511  1
  Si  Si14  1  0.41161543  0.40472616  0.99225253  1
  Si  Si15  1  0.61822250  0.16843191  0.49220424  1
  Si  Si16  1  0.87178676  0.66692710  0.25982743  1
  O  O17  1  0.00882714  0.62495665  0.38736456  1
  O  O18  1  0.12714855  0.12991337  0.70397582  1
  O  O19  1  0.14440462  0.45802377  0.61017903  1
  O  O20  1  0.15454723  0.14454741  0.30117907  1
  O  O21  1  0.12235064  0.80588509  0.60720493  1
  O  O22  1  0.19734606  0.86082180  0.88350236  1
  O  O23  1  0.28879972  0.35815498  0.85273775  1
  O  O24  1  0.38392048  0.25974844  0.11362032  1
  O  O25  1  0.34156733  0.63576233  0.43959811  1
  O  O26  1  0.37639057  0.92704328  0.18326179  1
  O  O27  1  0.37877372  0.59414588  0.05874299  1
  O  O28  1  0.47283849  0.16141787  0.37190718  1
  O  O29  1  0.57972627  0.91309527  0.92287045  1
  O  O30  1  0.60916159  0.35904731  0.56849457  1
  O  O31  1  0.56857729  0.05142855  0.63215667  1
  O  O32  1  0.59917274  0.38444869  0.91668655  1
  O  O33  1  0.65717691  0.67269358  0.65874260  1
  O  O34  1  0.67955237  0.63945083  0.32002949  1
  O  O35  1  0.80092425  0.12348017  0.43010474  1
  O  O36  1  0.84643103  0.17639044  0.09805916  1
  O  O37  1  0.89983848  0.90560592  0.81325868  1
  O  O38  1  0.90746854  0.55546671  0.11279295  1
  O  O39  1  0.90095627  0.85817690  0.19115746  1
  O  O40  1  0.94508283  0.38908219  0.82462483  1
