# generated using pymatgen
data_LiMn2(BO3)2
_symmetry_space_group_name_H-M   'P 1'
_cell_length_a   5.80270509
_cell_length_b   5.30009372
_cell_length_c   18.01444645
_cell_angle_alpha   97.80423178
_cell_angle_beta   83.85873933
_cell_angle_gamma   114.13504679
_symmetry_Int_Tables_number   1
_chemical_formula_structural   LiMn2(BO3)2
_chemical_formula_sum   'Li4 Mn8 B8 O24'
_cell_volume   500.10609897
_cell_formula_units_Z   4
loop_
 _symmetry_equiv_pos_site_id
 _symmetry_equiv_pos_as_xyz
  1  'x, y, z'
loop_
 _atom_site_type_symbol
 _atom_site_label
 _atom_site_symmetry_multiplicity
 _atom_site_fract_x
 _atom_site_fract_y
 _atom_site_fract_z
 _atom_site_occupancy
  Li  Li0  1  0.90415244  0.92999069  0.76480404  1
  Li  Li1  1  0.34584756  0.57000931  0.98519596  1
  Li  Li2  1  0.14981355  0.42516796  0.51557549  1
  Li  Li3  1  0.10018745  0.07483204  0.23442451  1
  Mn  Mn4  1  0.89801663  0.46409591  0.84830360  1
  Mn  Mn5  1  0.84232358  0.03421212  0.40483813  1
  Mn  Mn6  1  0.35198337  0.03590409  0.90169640  1
  Mn  Mn7  1  0.59053022  0.53290935  0.65523650  1
  Mn  Mn8  1  0.40767642  0.46578788  0.34516187  1
  Mn  Mn9  1  0.65946978  0.96709065  0.09476350  1
  Mn  Mn10  1  0.14421647  0.96466179  0.59826351  1
  Mn  Mn11  1  0.10578353  0.53533821  0.15173649  1
  B  B12  1  0.68704658  0.05109981  0.56894727  1
  B  B13  1  0.94478403  0.54979623  0.31276867  1
  B  B14  1  0.80979466  0.94259280  0.92889942  1
  B  B15  1  0.44020534  0.55740720  0.82110058  1
  B  B16  1  0.56295342  0.44890019  0.18105273  1
  B  B17  1  0.18680644  0.04537809  0.06535361  1
  B  B18  1  0.06319356  0.45462191  0.68464639  1
  B  B19  1  0.30521597  0.95020377  0.43723133  1
  O  O20  1  0.99332713  0.30616910  0.74495012  1
  O  O21  1  0.72510662  0.14025084  0.91357573  1
  O  O22  1  0.99660693  0.67659935  0.67920815  1
  O  O23  1  0.98153160  0.89183968  0.87202964  1
  O  O24  1  0.78408563  0.19982181  0.50917491  1
  O  O25  1  0.71591989  0.79357234  0.98773782  1
  O  O26  1  0.50167393  0.09821600  0.61928000  1
  O  O27  1  0.78514154  0.62017846  0.36709542  1
  O  O28  1  0.52489338  0.35974916  0.83642427  1
  O  O29  1  0.78029261  0.86342941  0.58777771  1
  O  O30  1  0.74832607  0.40178400  0.13072000  1
  O  O31  1  0.53408011  0.70642766  0.76226218  1
  O  O32  1  0.46591437  0.30017819  0.24082509  1
  O  O33  1  0.26846840  0.60816032  0.87797036  1
  O  O34  1  0.23056429  0.16380266  0.42664539  1
  O  O35  1  0.46970739  0.63657059  0.16222229  1
  O  O36  1  0.20059472  0.37805961  0.62221171  1
  O  O37  1  0.46485846  0.87982154  0.38290458  1
  O  O38  1  0.25667287  0.19383090  0.00504988  1
  O  O39  1  0.21805166  0.80037146  0.49812639  1
  O  O40  1  0.04940528  0.12194039  0.12778829  1
  O  O41  1  0.01943571  0.33619734  0.32335461  1
  O  O42  1  0.25339307  0.82340065  0.07079185  1
  O  O43  1  0.03194834  0.69962854  0.25187361  1
