# generated using pymatgen
data_Li2Ni(PO3)4
_symmetry_space_group_name_H-M   'P 1'
_cell_length_a   8.16181101
_cell_length_b   8.16181101
_cell_length_c   7.58860042
_cell_angle_alpha   81.40245624
_cell_angle_beta   98.59754376
_cell_angle_gamma   79.68891133
_symmetry_Int_Tables_number   1
_chemical_formula_structural   Li2Ni(PO3)4
_chemical_formula_sum   'Li4 Ni2 P8 O24'
_cell_volume   483.62438668
_cell_formula_units_Z   2
loop_
 _symmetry_equiv_pos_site_id
 _symmetry_equiv_pos_as_xyz
  1  'x, y, z'
loop_
 _atom_site_type_symbol
 _atom_site_label
 _atom_site_symmetry_multiplicity
 _atom_site_fract_x
 _atom_site_fract_y
 _atom_site_fract_z
 _atom_site_occupancy
  Li  Li0  1  0.51660003  0.80899191  0.86868798  1
  Li  Li1  1  0.19100809  0.48339997  0.36868798  1
  Li  Li2  1  0.77032966  0.57497039  0.57344165  1
  Li  Li3  1  0.42502961  0.22967034  0.07344165  1
  Ni  Ni4  1  0.16150438  0.14282944  0.75149415  1
  Ni  Ni5  1  0.85717056  0.83849562  0.25149415  1
  P  P6  1  0.04471855  0.80078687  0.67762269  1
  P  P7  1  0.19921313  0.95528145  0.17762269  1
  P  P8  1  0.13759985  0.48178964  0.93672554  1
  P  P9  1  0.51821036  0.86240015  0.43672554  1
  P  P10  1  0.49083920  0.18794236  0.56793057  1
  P  P11  1  0.81205764  0.50916080  0.06793057  1
  P  P12  1  0.81365168  0.04301463  0.83228579  1
  P  P13  1  0.95698537  0.18634832  0.33228579  1
  O  O14  1  0.15091996  0.92970654  0.64596359  1
  O  O15  1  0.07029346  0.84908004  0.14596359  1
  O  O16  1  0.15537798  0.66827285  0.85217039  1
  O  O17  1  0.33172715  0.84462202  0.35217039  1
  O  O18  1  0.71955119  0.98796382  0.98056948  1
  O  O19  1  0.20505668  0.36279917  0.81789755  1
  O  O20  1  0.56069512  0.77095101  0.62845740  1
  O  O21  1  0.01203618  0.28044881  0.48056948  1
  O  O22  1  0.63720083  0.79494332  0.31789755  1
  O  O23  1  0.22904899  0.43930488  0.12845740  1
  O  O24  1  0.87665101  0.87470916  0.75155129  1
  O  O25  1  0.63404049  0.56785597  0.97223817  1
  O  O26  1  0.12529084  0.12334899  0.25155129  1
  O  O27  1  0.43214403  0.36595951  0.47223817  1
  O  O28  1  0.40271013  0.10841240  0.70863426  1
  O  O29  1  0.98857214  0.70304035  0.53227181  1
  O  O30  1  0.93288615  0.49841509  0.91167190  1
  O  O31  1  0.89158760  0.59728987  0.20863426  1
  O  O32  1  0.29695965  0.01142786  0.03227181  1
  O  O33  1  0.50158491  0.06711385  0.41167190  1
  O  O34  1  0.68607262  0.16478224  0.66017747  1
  O  O35  1  0.83521776  0.31392738  0.16017747  1
  O  O36  1  0.95226401  0.13864700  0.86528935  1
  O  O37  1  0.86135400  0.04773599  0.36528935  1
