# generated using pymatgen
data_Mn6O7F5
_symmetry_space_group_name_H-M   'P 1'
_cell_length_a   4.62265636
_cell_length_b   5.68522020
_cell_length_c   15.29817073
_cell_angle_alpha   90.05685303
_cell_angle_beta   90.26115140
_cell_angle_gamma   87.77698722
_symmetry_Int_Tables_number   1
_chemical_formula_structural   Mn6O7F5
_chemical_formula_sum   'Mn12 O14 F10'
_cell_volume   401.74157919
_cell_formula_units_Z   2
loop_
 _symmetry_equiv_pos_site_id
 _symmetry_equiv_pos_as_xyz
  1  'x, y, z'
loop_
 _atom_site_type_symbol
 _atom_site_label
 _atom_site_symmetry_multiplicity
 _atom_site_fract_x
 _atom_site_fract_y
 _atom_site_fract_z
 _atom_site_occupancy
  Mn  Mn0  1  0.01668234  0.15301455  0.40736805  1
  Mn  Mn1  1  0.01873906  0.83762907  0.24261868  1
  Mn  Mn2  1  0.99575028  0.15344464  0.07900203  1
  Mn  Mn3  1  0.01957080  0.16709698  0.75155061  1
  Mn  Mn4  1  0.00928603  0.82565976  0.57550371  1
  Mn  Mn5  1  0.04219657  0.84794116  0.91493324  1
  Mn  Mn6  1  0.51959653  0.37569620  0.58881568  1
  Mn  Mn7  1  0.47877554  0.35082823  0.92509826  1
  Mn  Mn8  1  0.49872542  0.36418581  0.25886012  1
  Mn  Mn9  1  0.50028527  0.64860469  0.08657461  1
  Mn  Mn10  1  0.49771098  0.65480965  0.41639081  1
  Mn  Mn11  1  0.48407431  0.63708337  0.75277535  1
  O  O12  1  0.23436331  0.11508572  0.30083516  1
  O  O13  1  0.21973721  0.11248962  0.97210330  1
  O  O14  1  0.21305661  0.88117766  0.13504453  1
  O  O15  1  0.22117498  0.88674472  0.46561872  1
  O  O16  1  0.23488814  0.88273372  0.80754372  1
  O  O17  1  0.27266608  0.60510602  0.31064750  1
  O  O18  1  0.27790321  0.60813387  0.64494381  1
  O  O19  1  0.28355689  0.39435021  0.81296566  1
  O  O20  1  0.27237745  0.61477644  0.97703276  1
  O  O21  1  0.71393896  0.37797119  0.02910967  1
  O  O22  1  0.71964954  0.60931913  0.19488493  1
  O  O23  1  0.71960658  0.38000918  0.36236592  1
  O  O24  1  0.71704072  0.62027129  0.52580354  1
  O  O25  1  0.72946144  0.39455080  0.69522460  1
  F  F26  1  0.24543962  0.11153144  0.63369901  1
  F  F27  1  0.25737054  0.37948137  0.15159426  1
  F  F28  1  0.26015674  0.38046353  0.48567262  1
  F  F29  1  0.74446519  0.62237038  0.85912003  1
  F  F30  1  0.74800539  0.12484628  0.18967269  1
  F  F31  1  0.76657839  0.13113448  0.52538604  1
  F  F32  1  0.77505253  0.87878479  0.34761190  1
  F  F33  1  0.77144243  0.87166835  0.01515560  1
  F  F34  1  0.75598849  0.11571729  0.86505639  1
  F  F35  1  0.76468645  0.88528841  0.69341648  1
