# generated using pymatgen
data_Na6V2B4PO16
_symmetry_space_group_name_H-M   'P 1'
_cell_length_a   9.92274012
_cell_length_b   9.92274040
_cell_length_c   9.92274059
_cell_angle_alpha   89.99999716
_cell_angle_beta   59.99999811
_cell_angle_gamma   59.99999754
_symmetry_Int_Tables_number   1
_chemical_formula_structural   Na6V2B4PO16
_chemical_formula_sum   'Na12 V4 B8 P2 O32'
_cell_volume   690.84380704
_cell_formula_units_Z   2
loop_
 _symmetry_equiv_pos_site_id
 _symmetry_equiv_pos_as_xyz
  1  'x, y, z'
loop_
 _atom_site_type_symbol
 _atom_site_label
 _atom_site_symmetry_multiplicity
 _atom_site_fract_x
 _atom_site_fract_y
 _atom_site_fract_z
 _atom_site_occupancy
  Na  Na0  1  0.75000000  0.91516052  0.66516052  1
  Na  Na1  1  0.66967796  0.66516052  0.91516052  1
  Na  Na2  1  0.75000000  0.33483948  0.66516052  1
  Na  Na3  1  0.75000000  0.91516052  0.08483948  1
  Na  Na4  1  0.25000000  0.66516052  0.91516052  1
  Na  Na5  1  0.83032204  0.08483948  0.33483948  1
  Na  Na6  1  0.75000000  0.33483948  0.08483948  1
  Na  Na7  1  0.16967796  0.91516052  0.66516052  1
  Na  Na8  1  0.25000000  0.66516052  0.33483948  1
  Na  Na9  1  0.25000000  0.08483948  0.91516052  1
  Na  Na10  1  0.33032204  0.33483948  0.08483948  1
  Na  Na11  1  0.25000000  0.08483948  0.33483948  1
  V  V12  1  0.50000000  0.50000000  0.50000000  1
  V  V13  1  0.50000000  0.00000000  0.50000000  1
  V  V14  1  0.00000000  0.50000000  0.50000000  1
  V  V15  1  0.00000000  0.50000000  0.00000000  1
  B  B16  1  0.92168572  0.71084286  0.28915714  1
  B  B17  1  0.92168572  0.36747142  0.28915714  1
  B  B18  1  0.57831428  0.71084286  0.63252858  1
  B  B19  1  0.57831428  0.71084286  0.28915714  1
  B  B20  1  0.42168572  0.28915714  0.71084286  1
  B  B21  1  0.42168572  0.28915714  0.36747142  1
  B  B22  1  0.07831428  0.63252858  0.71084286  1
  B  B23  1  0.07831428  0.28915714  0.71084286  1
  P  P24  1  0.75000000  0.12500000  0.87500000  1
  P  P25  1  0.25000000  0.87500000  0.12500000  1
  O  O26  1  0.95822208  0.63661661  0.67578680  1
  O  O27  1  0.95822208  0.40516131  0.86599112  1
  O  O28  1  0.96082981  0.67578680  0.40516131  1
  O  O29  1  0.77062550  0.86599112  0.32421320  1
  O  O30  1  0.87801959  0.06099070  0.93900930  1
  O  O31  1  0.72937450  0.59483869  0.63661661  1
  O  O32  1  0.53917019  0.86599112  0.63661661  1
  O  O33  1  0.87801959  0.06099070  0.68297111  1
  O  O34  1  0.62198041  0.31702889  0.93900930  1
  O  O35  1  0.96082981  0.36338339  0.13400888  1
  O  O36  1  0.77062550  0.36338339  0.40516131  1
  O  O37  1  0.62198041  0.06099070  0.93900930  1
  O  O38  1  0.72937450  0.67578680  0.13400888  1
  O  O39  1  0.45822208  0.67578680  0.63661661  1
  O  O40  1  0.45822208  0.86599112  0.40516131  1
  O  O41  1  0.46082981  0.40516131  0.67578680  1
  O  O42  1  0.53917019  0.59483869  0.32421320  1
  O  O43  1  0.54177792  0.13400888  0.59483869  1
  O  O44  1  0.54177792  0.32421320  0.36338339  1
  O  O45  1  0.27062550  0.32421320  0.86599112  1
  O  O46  1  0.37801959  0.93900930  0.06099070  1
  O  O47  1  0.22937450  0.63661661  0.59483869  1
  O  O48  1  0.03917019  0.63661661  0.86599112  1
  O  O49  1  0.37801959  0.68297111  0.06099070  1
  O  O50  1  0.12198041  0.93900930  0.31702889  1
  O  O51  1  0.46082981  0.13400888  0.36338339  1
  O  O52  1  0.27062550  0.40516131  0.36338339  1
  O  O53  1  0.12198041  0.93900930  0.06099070  1
  O  O54  1  0.22937450  0.13400888  0.67578680  1
  O  O55  1  0.03917019  0.32421320  0.59483869  1
  O  O56  1  0.04177792  0.59483869  0.13400888  1
  O  O57  1  0.04177792  0.36338339  0.32421320  1
