# generated using pymatgen
data_Mn3Si3O10
_symmetry_space_group_name_H-M   'P 1'
_cell_length_a   4.95155345
_cell_length_b   8.23500256
_cell_length_c   10.21690035
_cell_angle_alpha   88.51562425
_cell_angle_beta   90.00737356
_cell_angle_gamma   72.50301966
_symmetry_Int_Tables_number   1
_chemical_formula_structural   Mn3Si3O10
_chemical_formula_sum   'Mn6 Si6 O20'
_cell_volume   397.18272377
_cell_formula_units_Z   2
loop_
 _symmetry_equiv_pos_site_id
 _symmetry_equiv_pos_as_xyz
  1  'x, y, z'
loop_
 _atom_site_type_symbol
 _atom_site_label
 _atom_site_symmetry_multiplicity
 _atom_site_fract_x
 _atom_site_fract_y
 _atom_site_fract_z
 _atom_site_occupancy
  Mn  Mn0  1  0.06584851  0.30675880  0.22656476  1
  Mn  Mn1  1  0.00000000  0.50000000  0.50000000  1
  Mn  Mn2  1  0.37310104  0.69332544  0.27341365  1
  Mn  Mn3  1  0.50000000  0.50000000  0.00000000  1
  Mn  Mn4  1  0.62689896  0.30667456  0.72658635  1
  Mn  Mn5  1  0.93415149  0.69324120  0.77343524  1
  Si  Si6  1  0.18742267  0.00005648  0.74994115  1
  Si  Si7  1  0.15785211  0.29009179  0.91062904  1
  Si  Si8  1  0.55174207  0.29002189  0.41061643  1
  Si  Si9  1  0.81257733  0.99994352  0.25005885  1
  Si  Si10  1  0.44825793  0.70997811  0.58938357  1
  Si  Si11  1  0.84214789  0.70990821  0.08937096  1
  O  O12  1  0.33822904  0.10715274  0.84788295  1
  O  O13  1  0.24887794  0.32234103  0.05972978  1
  O  O14  1  0.26890850  0.43471877  0.82485282  1
  O  O15  1  0.13576801  0.68221129  0.60714122  1
  O  O16  1  0.05941569  0.86189989  0.33575139  1
  O  O17  1  0.07909909  0.86191935  0.83570604  1
  O  O18  1  0.18239504  0.68234397  0.10709125  1
  O  O19  1  0.29597578  0.43464598  0.32485383  1
  O  O20  1  0.42843021  0.32230978  0.55971038  1
  O  O21  1  0.55467616  0.10694458  0.34801088  1
  O  O22  1  0.44532384  0.89305542  0.65198912  1
  O  O23  1  0.57156979  0.67769022  0.44028962  1
  O  O24  1  0.70402422  0.56535402  0.67514617  1
  O  O25  1  0.81760496  0.31765603  0.89290875  1
  O  O26  1  0.92090091  0.13808065  0.16429396  1
  O  O27  1  0.94058431  0.13810011  0.66424861  1
  O  O28  1  0.86423199  0.31778871  0.39285878  1
  O  O29  1  0.73109150  0.56528123  0.17514718  1
  O  O30  1  0.75112206  0.67765897  0.94027022  1
  O  O31  1  0.66177096  0.89284726  0.15211705  1
