# generated using pymatgen
data_VOF
_symmetry_space_group_name_H-M   'P 1'
_cell_length_a   3.33488301
_cell_length_b   7.92228036
_cell_length_c   3.33488386
_cell_angle_alpha   102.15019007
_cell_angle_beta   59.99999837
_cell_angle_gamma   102.15019028
_symmetry_Int_Tables_number   1
_chemical_formula_structural   VOF
_chemical_formula_sum   'V2 O2 F2'
_cell_volume   74.01532658
_cell_formula_units_Z   2
loop_
 _symmetry_equiv_pos_site_id
 _symmetry_equiv_pos_as_xyz
  1  'x, y, z'
loop_
 _atom_site_type_symbol
 _atom_site_label
 _atom_site_symmetry_multiplicity
 _atom_site_fract_x
 _atom_site_fract_y
 _atom_site_fract_z
 _atom_site_occupancy
  V  V0  1  0.60831782  0.82495245  0.60831782  1
  V  V1  1  0.39168218  0.17504755  0.39168218  1
  O  O2  1  0.30041181  0.90123542  0.30041181  1
  O  O3  1  0.69958819  0.09876458  0.69958819  1
  F  F4  1  0.10571120  0.31713461  0.10571120  1
  F  F5  1  0.89428880  0.68286539  0.89428880  1
