# generated using pymatgen
data_CdH10C3NCl3
_symmetry_space_group_name_H-M   'P 1'
_cell_length_a   9.18683657
_cell_length_b   14.58536627
_cell_length_c   6.83561846
_cell_angle_alpha   90.00000000
_cell_angle_beta   90.00000000
_cell_angle_gamma   90.00000000
_symmetry_Int_Tables_number   1
_chemical_formula_structural   CdH10C3NCl3
_chemical_formula_sum   'Cd4 H40 C12 N4 Cl12'
_cell_volume   915.92759612
_cell_formula_units_Z   4
loop_
 _symmetry_equiv_pos_site_id
 _symmetry_equiv_pos_as_xyz
  1  'x, y, z'
loop_
 _atom_site_type_symbol
 _atom_site_label
 _atom_site_symmetry_multiplicity
 _atom_site_fract_x
 _atom_site_fract_y
 _atom_site_fract_z
 _atom_site_occupancy
  Cd  Cd0  1  0.50000000  0.50000000  0.00000000  1
  Cd  Cd1  1  0.00000000  0.00000000  0.50000000  1
  Cd  Cd2  1  0.50000000  0.50000000  0.50000000  1
  Cd  Cd3  1  0.00000000  0.00000000  0.00000000  1
  H  H4  1  0.95837081  0.75579972  0.25000000  1
  H  H5  1  0.54162919  0.25579972  0.25000000  1
  H  H6  1  0.04162919  0.24420028  0.75000000  1
  H  H7  1  0.45837081  0.74420028  0.75000000  1
  H  H8  1  0.24576036  0.66311870  0.25000000  1
  H  H9  1  0.25423964  0.16311870  0.25000000  1
  H  H10  1  0.75423964  0.33688130  0.75000000  1
  H  H11  1  0.74576036  0.83688130  0.75000000  1
  H  H12  1  0.19657892  0.76548547  0.11900125  1
  H  H13  1  0.30342108  0.26548547  0.38099875  1
  H  H14  1  0.80342108  0.23451453  0.61900125  1
  H  H15  1  0.69657892  0.73451453  0.88099875  1
  H  H16  1  0.80342108  0.23451453  0.88099875  1
  H  H17  1  0.69657892  0.73451453  0.61900125  1
  H  H18  1  0.19657892  0.76548547  0.38099875  1
  H  H19  1  0.30342108  0.26548547  0.11900125  1
  H  H20  1  0.05704461  0.58315842  0.06563992  1
  H  H21  1  0.44295539  0.08315842  0.43436008  1
  H  H22  1  0.94295539  0.41684158  0.56563992  1
  H  H23  1  0.55704461  0.91684158  0.93436008  1
  H  H24  1  0.94295539  0.41684158  0.93436008  1
  H  H25  1  0.55704461  0.91684158  0.56563992  1
  H  H26  1  0.05704461  0.58315842  0.43436008  1
  H  H27  1  0.44295539  0.08315842  0.06563992  1
  H  H28  1  0.87066677  0.62160882  0.07569571  1
  H  H29  1  0.62933323  0.12160882  0.42430429  1
  H  H30  1  0.12933323  0.37839118  0.57569571  1
  H  H31  1  0.37066677  0.87839118  0.92430429  1
  H  H32  1  0.12933323  0.37839118  0.92430429  1
  H  H33  1  0.37066677  0.87839118  0.57569571  1
  H  H34  1  0.87066677  0.62160882  0.42430429  1
  H  H35  1  0.62933323  0.12160882  0.07569571  1
  H  H36  1  0.00558757  0.68621834  0.94225889  1
  H  H37  1  0.49441243  0.18621834  0.55774111  1
  H  H38  1  0.99441243  0.31378166  0.44225889  1
  H  H39  1  0.50558757  0.81378166  0.05774111  1
  H  H40  1  0.99441243  0.31378166  0.05774111  1
  H  H41  1  0.50558757  0.81378166  0.44225889  1
  H  H42  1  0.00558757  0.68621834  0.55774111  1
  H  H43  1  0.49441243  0.18621834  0.94225889  1
  C  C44  1  0.17689059  0.72439027  0.25000000  1
  C  C45  1  0.32310941  0.22439027  0.25000000  1
  C  C46  1  0.82310941  0.27560973  0.75000000  1
  C  C47  1  0.67689059  0.77560973  0.75000000  1
  C  C48  1  0.98503107  0.64279260  0.06990199  1
  C  C49  1  0.51496893  0.14279260  0.43009801  1
  C  C50  1  0.01496893  0.35720740  0.56990199  1
  C  C51  1  0.48503107  0.85720740  0.93009801  1
  C  C52  1  0.01496893  0.35720740  0.93009801  1
  C  C53  1  0.48503107  0.85720740  0.56990199  1
  C  C54  1  0.98503107  0.64279260  0.43009801  1
  C  C55  1  0.51496893  0.14279260  0.06990199  1
  N  N56  1  0.02092251  0.69594357  0.25000000  1
  N  N57  1  0.47907749  0.19594357  0.25000000  1
  N  N58  1  0.97907749  0.30405643  0.75000000  1
  N  N59  1  0.52092251  0.80405643  0.75000000  1
  Cl  Cl60  1  0.57478256  0.63418694  0.25000000  1
  Cl  Cl61  1  0.92521744  0.13418694  0.25000000  1
  Cl  Cl62  1  0.42521744  0.36581306  0.75000000  1
  Cl  Cl63  1  0.07478256  0.86581306  0.75000000  1
  Cl  Cl64  1  0.65309893  0.39178405  0.25000000  1
  Cl  Cl65  1  0.84690107  0.89178405  0.25000000  1
  Cl  Cl66  1  0.34690107  0.60821595  0.75000000  1
  Cl  Cl67  1  0.15309893  0.10821595  0.75000000  1
  Cl  Cl68  1  0.28195975  0.47220024  0.25000000  1
  Cl  Cl69  1  0.21804025  0.97220024  0.25000000  1
  Cl  Cl70  1  0.71804025  0.52779976  0.75000000  1
  Cl  Cl71  1  0.78195975  0.02779976  0.75000000  1
