# generated using pymatgen
data_UCoSi
_symmetry_space_group_name_H-M   'P 1'
_cell_length_a   3.98163242
_cell_length_b   7.02765360
_cell_length_c   7.14874777
_cell_angle_alpha   90.00000000
_cell_angle_beta   90.00000000
_cell_angle_gamma   90.00000000
_symmetry_Int_Tables_number   1
_chemical_formula_structural   UCoSi
_chemical_formula_sum   'U4 Co4 Si4'
_cell_volume   200.03292457
_cell_formula_units_Z   4
loop_
 _symmetry_equiv_pos_site_id
 _symmetry_equiv_pos_as_xyz
  1  'x, y, z'
loop_
 _atom_site_type_symbol
 _atom_site_label
 _atom_site_symmetry_multiplicity
 _atom_site_fract_x
 _atom_site_fract_y
 _atom_site_fract_z
 _atom_site_occupancy
  U  U0  1  0.25000000  0.49919086  0.25275934  1
  U  U1  1  0.75000000  0.50080914  0.74724066  1
  U  U2  1  0.25000000  0.99919086  0.24724066  1
  U  U3  1  0.75000000  0.00080914  0.75275934  1
  Co  Co4  1  0.75000000  0.75306801  0.40293618  1
  Co  Co5  1  0.25000000  0.24693199  0.59706382  1
  Co  Co6  1  0.75000000  0.25306801  0.09706382  1
  Co  Co7  1  0.25000000  0.74693199  0.90293618  1
  Si  Si8  1  0.25000000  0.25374246  0.92359424  1
  Si  Si9  1  0.75000000  0.74625754  0.07640576  1
  Si  Si10  1  0.25000000  0.75374246  0.57640576  1
  Si  Si11  1  0.75000000  0.24625754  0.42359424  1
