# generated using pymatgen
data_Li5Fe5Si7O24
_symmetry_space_group_name_H-M   'P 1'
_cell_length_a   7.86660447
_cell_length_b   7.90733795
_cell_length_c   9.36778204
_cell_angle_alpha   90.37915826
_cell_angle_beta   89.05739282
_cell_angle_gamma   89.01111448
_symmetry_Int_Tables_number   1
_chemical_formula_structural   Li5Fe5Si7O24
_chemical_formula_sum   'Li5 Fe5 Si7 O24'
_cell_volume   582.53306576
_cell_formula_units_Z   1
loop_
 _symmetry_equiv_pos_site_id
 _symmetry_equiv_pos_as_xyz
  1  'x, y, z'
loop_
 _atom_site_type_symbol
 _atom_site_label
 _atom_site_symmetry_multiplicity
 _atom_site_fract_x
 _atom_site_fract_y
 _atom_site_fract_z
 _atom_site_occupancy
  Li  Li0  1  0.42248239  0.70628513  0.25744626  1
  Li  Li1  1  0.51972730  0.23468546  0.75718857  1
  Li  Li2  1  0.74898646  0.45574982  0.73357714  1
  Li  Li3  1  0.77525256  0.00521106  0.00241049  1
  Li  Li4  1  0.01356972  0.74267212  0.97776320  1
  Fe  Fe5  1  0.38228713  0.84732049  0.00318643  1
  Fe  Fe6  1  0.41033332  0.40511220  0.99625400  1
  Fe  Fe7  1  0.57330752  0.58044192  0.49554817  1
  Fe  Fe8  1  0.67401032  0.87596022  0.74493801  1
  Fe  Fe9  1  0.84402145  0.37963441  0.01009871  1
  Si  Si10  1  0.08427223  0.92918571  0.74447786  1
  Si  Si11  1  0.12879595  0.32512953  0.73657529  1
  Si  Si12  1  0.15069823  0.62704338  0.51058521  1
  Si  Si13  1  0.31803188  0.11740348  0.25924878  1
  Si  Si14  1  0.61618050  0.16380593  0.48335984  1
  Si  Si15  1  0.87278315  0.68190553  0.26115419  1
  Si  Si16  1  0.92591034  0.07873450  0.26127235  1
  O  O17  1  0.01376834  0.63139988  0.38046681  1
  O  O18  1  0.10632372  0.12431551  0.68869941  1
  O  O19  1  0.12511060  0.44820869  0.59527635  1
  O  O20  1  0.11597933  0.11818420  0.31504578  1
  O  O21  1  0.11096272  0.79521452  0.61081699  1
  O  O22  1  0.20165727  0.87255248  0.87738954  1
  O  O23  1  0.30788431  0.33988578  0.81859967  1
  O  O24  1  0.34944581  0.26454467  0.14459125  1
  O  O25  1  0.34462946  0.63289225  0.44604097  1
  O  O26  1  0.36174158  0.93055086  0.19358064  1
  O  O27  1  0.37798951  0.62298891  0.06524852  1
  O  O28  1  0.44046741  0.14629529  0.39703095  1
  O  O29  1  0.57438233  0.93877263  0.92052805  1
  O  O30  1  0.63040059  0.35531556  0.55055404  1
  O  O31  1  0.60230410  0.05129680  0.62721437  1
  O  O32  1  0.63559195  0.36526469  0.91617246  1
  O  O33  1  0.65540449  0.66321313  0.66619470  1
  O  O34  1  0.67973053  0.65906699  0.32366764  1
  O  O35  1  0.78635826  0.11198552  0.38899460  1
  O  O36  1  0.87440219  0.18077006  0.11675491  1
  O  O37  1  0.89676575  0.90296676  0.82230338  1
  O  O38  1  0.90474611  0.57945129  0.10981714  1
  O  O39  1  0.90620883  0.87918063  0.20470541  1
  O  O40  1  0.96653836  0.39293200  0.83407791  1
