# generated using pymatgen
data_Ca2SnS4
_symmetry_space_group_name_H-M   'P 1'
_cell_length_a   3.92899462
_cell_length_b   11.80375179
_cell_length_c   11.80347045
_cell_angle_alpha   120.00078521
_cell_angle_beta   90.00000000
_cell_angle_gamma   90.00000000
_symmetry_Int_Tables_number   1
_chemical_formula_structural   Ca2SnS4
_chemical_formula_sum   'Ca6 Sn3 S12'
_cell_volume   474.06557020
_cell_formula_units_Z   3
loop_
 _symmetry_equiv_pos_site_id
 _symmetry_equiv_pos_as_xyz
  1  'x, y, z'
loop_
 _atom_site_type_symbol
 _atom_site_label
 _atom_site_symmetry_multiplicity
 _atom_site_fract_x
 _atom_site_fract_y
 _atom_site_fract_z
 _atom_site_occupancy
  Ca  Ca0  1  0.00000000  -0.00001096  0.00000000  1
  Ca  Ca1  1  0.50000000  0.33332926  0.66665445  1
  Ca  Ca2  1  0.50000000  0.66667480  0.33334555  1
  Ca  Ca3  1  0.50000000  0.70768260  1.00000000  1
  Ca  Ca4  1  0.50000000  0.29229759  0.29228949  1
  Ca  Ca5  1  0.50000000  0.00000810  0.70771051  1
  Sn  Sn6  1  0.00000000  0.33886148  0.00000000  1
  Sn  Sn7  1  0.00000000  0.66113208  0.66112682  1
  Sn  Sn8  1  0.00000000  0.00000526  0.33887318  1
  S  S9  1  0.50000000  0.17244095  1.00000000  1
  S  S10  1  0.50000000  0.82754358  0.82755159  1
  S  S11  1  0.50000000  -0.00000801  0.17244841  1
  S  S12  1  0.50000000  0.47466042  0.00000000  1
  S  S13  1  0.50000000  0.52536224  0.52534393  1
  S  S14  1  0.50000000  0.00001831  0.47465607  1
  S  S15  1  0.00000000  0.44343448  0.24456111  1
  S  S16  1  0.00000000  0.80114040  0.55657002  1
  S  S17  1  0.00000000  0.75542686  0.19887006  1
  S  S18  1  0.00000000  0.19887338  0.75543889  1
  S  S19  1  0.00000000  0.24457039  0.44342999  1
  S  S20  1  0.00000000  0.55655680  0.80112994  1
