# generated using pymatgen
data_DyHoMn4
_symmetry_space_group_name_H-M   'P 1'
_cell_length_a   5.12694228
_cell_length_b   5.12694228
_cell_length_c   5.12694228
_cell_angle_alpha   90.00000000
_cell_angle_beta   60.00000000
_cell_angle_gamma   120.00000000
_symmetry_Int_Tables_number   1
_chemical_formula_structural   DyHoMn4
_chemical_formula_sum   'Dy1 Ho1 Mn4'
_cell_volume   95.29284331
_cell_formula_units_Z   1
loop_
 _symmetry_equiv_pos_site_id
 _symmetry_equiv_pos_as_xyz
  1  'x, y, z'
loop_
 _atom_site_type_symbol
 _atom_site_label
 _atom_site_symmetry_multiplicity
 _atom_site_fract_x
 _atom_site_fract_y
 _atom_site_fract_z
 _atom_site_occupancy
  Dy  Dy0  1  0.50000000  0.75000000  0.75000000  1
  Ho  Ho1  1  -0.00000000  0.00000000  -0.00000000  1
  Mn  Mn2  1  0.74994358  0.37497179  0.87508464  1
  Mn  Mn3  1  0.25005642  0.37497179  0.37497179  1
  Mn  Mn4  1  0.25005642  0.87508464  0.37497179  1
  Mn  Mn5  1  0.74994358  0.37497179  0.37497179  1
