# generated using pymatgen
data_LiY(MoO4)2
_symmetry_space_group_name_H-M   'P 1'
_cell_length_a   6.87642659
_cell_length_b   10.36785161
_cell_length_c   5.04830405
_cell_angle_alpha   94.49800927
_cell_angle_beta   113.09595593
_cell_angle_gamma   66.57961424
_symmetry_Int_Tables_number   1
_chemical_formula_structural   LiY(MoO4)2
_chemical_formula_sum   'Li2 Y2 Mo4 O16'
_cell_volume   302.50690295
_cell_formula_units_Z   2
loop_
 _symmetry_equiv_pos_site_id
 _symmetry_equiv_pos_as_xyz
  1  'x, y, z'
loop_
 _atom_site_type_symbol
 _atom_site_label
 _atom_site_symmetry_multiplicity
 _atom_site_fract_x
 _atom_site_fract_y
 _atom_site_fract_z
 _atom_site_occupancy
  Li  Li0  1  0.78591363  0.04920343  0.15350134  1
  Li  Li1  1  0.21408672  0.95079677  0.84649800  1
  Y  Y2  1  0.25125274  0.43298068  0.87555573  1
  Y  Y3  1  0.74874608  0.56701941  0.12444423  1
  Mo  Mo4  1  0.20186505  0.18791778  0.33830457  1
  Mo  Mo5  1  0.79813455  0.81208220  0.66169540  1
  Mo  Mo6  1  0.22951687  0.70060700  0.37246154  1
  Mo  Mo7  1  0.77048169  0.29939350  0.62753852  1
  O  O8  1  0.38345277  0.23592858  0.66104912  1
  O  O9  1  0.61654637  0.76407199  0.33894995  1
  O  O10  1  0.05309667  0.11667721  0.47660920  1
  O  O11  1  0.94690346  0.88332260  0.52339074  1
  O  O12  1  0.06373725  0.35723861  0.08765693  1
  O  O13  1  0.93626144  0.64276119  0.91234237  1
  O  O14  1  0.09557676  0.84866941  0.10686528  1
  O  O15  1  0.90442228  0.15133056  0.89313346  1
  O  O16  1  0.41725629  0.73053700  0.71056883  1
  O  O17  1  0.58274326  0.26946324  0.28943072  1
  O  O18  1  0.37619438  0.05637607  0.19563430  1
  O  O19  1  0.62380538  0.94362421  0.80436471  1
  O  O20  1  0.09179241  0.59778404  0.47659537  1
  O  O21  1  0.90820660  0.40221629  0.52340536  1
  O  O22  1  0.41437557  0.56874941  0.21143825  1
  O  O23  1  0.58562275  0.43125083  0.78856109  1
