# generated using pymatgen
data_H16RhN5(Cl2O)3
_symmetry_space_group_name_H-M   'P 1'
_cell_length_a   6.92858304
_cell_length_b   6.92862172
_cell_length_c   9.33810866
_cell_angle_alpha   111.78001141
_cell_angle_beta   90.00000333
_cell_angle_gamma   119.99980664
_symmetry_Int_Tables_number   1
_chemical_formula_structural   H16RhN5(Cl2O)3
_chemical_formula_sum   'H16 Rh1 N5 Cl6 O3'
_cell_volume   350.78638727
_cell_formula_units_Z   1
loop_
 _symmetry_equiv_pos_site_id
 _symmetry_equiv_pos_as_xyz
  1  'x, y, z'
loop_
 _atom_site_type_symbol
 _atom_site_label
 _atom_site_symmetry_multiplicity
 _atom_site_fract_x
 _atom_site_fract_y
 _atom_site_fract_z
 _atom_site_occupancy
  H  H0  1  0.66321805  0.32645020  0.98969157  1
  H  H1  1  0.33676784  0.67355080  0.01030843  1
  H  H2  1  0.24713789  0.63763735  0.17013381  1
  H  H3  1  0.53255952  0.77961716  0.17016040  1
  H  H4  1  0.39050442  0.92282949  0.17012142  1
  H  H5  1  0.12649197  0.25293569  0.37940858  1
  H  H6  1  0.74845622  0.47632382  0.45909699  1
  H  H7  1  0.98301820  0.73135622  0.45906475  1
  H  H8  1  0.72792277  0.71068008  0.45912888  1
  H  H9  1  0.01724268  0.28931892  0.54087112  1
  H  H10  1  0.25166097  0.26864378  0.54093525  1
  H  H11  1  0.27213240  0.52367618  0.54090301  1
  H  H12  1  0.87355528  0.74706331  0.62059142  1
  H  H13  1  0.46767393  0.07716951  0.82987858  1
  H  H14  1  0.75294136  0.22038284  0.82983860  1
  H  H15  1  0.60950054  0.36236365  0.82986619  1
  Rh  Rh16  1  0.99998865  0.00000000  0.00000000  1
  N  N17  1  0.37755055  0.75565251  0.13313530  1
  N  N18  1  0.83228176  0.66509255  0.49781626  1
  N  N19  1  0.49932729  1.00000000  0.49999900  1
  N  N20  1  0.16719021  0.33490745  0.50218374  1
  N  N21  1  0.62189804  0.24434749  0.86686570  1
  Cl  Cl22  1  0.91090136  0.28606383  0.17136098  1
  Cl  Cl23  1  0.37516419  0.26042879  0.17136429  1
  Cl  Cl24  1  0.88526803  0.79620859  0.17136257  1
  Cl  Cl25  1  0.08905944  0.20379241  0.82863643  1
  Cl  Cl26  1  0.11473740  0.73957321  0.82863571  1
  Cl  Cl27  1  0.62483753  0.71393617  0.82863902  1
  O  O28  1  0.68354928  0.18344389  0.49998313  1
  O  O29  1  0.31715783  1.00000000  0.49999900  1
  O  O30  1  0.50010539  0.81655711  0.50001687  1
