# generated using pymatgen
data_Li2Mn2P2O9
_symmetry_space_group_name_H-M   'P 1'
_cell_length_a   8.38068926
_cell_length_b   5.64843609
_cell_length_c   15.04165474
_cell_angle_alpha   90.00000000
_cell_angle_beta   90.00000000
_cell_angle_gamma   90.00000000
_symmetry_Int_Tables_number   1
_chemical_formula_structural   Li2Mn2P2O9
_chemical_formula_sum   'Li8 Mn8 P8 O36'
_cell_volume   712.03865837
_cell_formula_units_Z   4
loop_
 _symmetry_equiv_pos_site_id
 _symmetry_equiv_pos_as_xyz
  1  'x, y, z'
loop_
 _atom_site_type_symbol
 _atom_site_label
 _atom_site_symmetry_multiplicity
 _atom_site_fract_x
 _atom_site_fract_y
 _atom_site_fract_z
 _atom_site_occupancy
  Li  Li0  1  0.06030632  0.25000000  0.75993659  1
  Li  Li1  1  0.05952580  0.25000000  0.12917058  1
  Li  Li2  1  0.44047420  0.75000000  0.62917058  1
  Li  Li3  1  0.43969368  0.75000000  0.25993659  1
  Li  Li4  1  0.56030632  0.25000000  0.74006341  1
  Li  Li5  1  0.55952580  0.25000000  0.37082942  1
  Li  Li6  1  0.94047420  0.75000000  0.87082942  1
  Li  Li7  1  0.93969368  0.75000000  0.24006341  1
  Mn  Mn8  1  0.00000000  0.00000000  0.50000000  1
  Mn  Mn9  1  0.00000000  0.50000000  0.50000000  1
  Mn  Mn10  1  0.20391701  0.25000000  0.93920019  1
  Mn  Mn11  1  0.29608299  0.75000000  0.43920019  1
  Mn  Mn12  1  0.50000000  0.00000000  0.00000000  1
  Mn  Mn13  1  0.50000000  0.50000000  0.00000000  1
  Mn  Mn14  1  0.70391701  0.25000000  0.56079981  1
  Mn  Mn15  1  0.79608299  0.75000000  0.06079981  1
  P  P16  1  0.16897850  0.75000000  0.07678855  1
  P  P17  1  0.20991338  0.25000000  0.33479215  1
  P  P18  1  0.29008662  0.75000000  0.83479215  1
  P  P19  1  0.33102150  0.25000000  0.57678855  1
  P  P20  1  0.66897850  0.75000000  0.42321145  1
  P  P21  1  0.70991338  0.25000000  0.16520785  1
  P  P22  1  0.79008662  0.75000000  0.66520785  1
  P  P23  1  0.83102150  0.25000000  0.92321145  1
  O  O24  1  0.99084756  0.25000000  0.97791161  1
  O  O25  1  0.07490682  0.25000000  0.41108550  1
  O  O26  1  0.06889808  0.75000000  0.42535647  1
  O  O27  1  0.12633807  0.25000000  0.24741439  1
  O  O28  1  0.14224544  0.75000000  0.17589730  1
  O  O29  1  0.17981391  0.52717496  0.85044540  1
  O  O30  1  0.17981391  0.97282504  0.85044540  1
  O  O31  1  0.24137516  0.01751663  0.54707608  1
  O  O32  1  0.24137516  0.48248337  0.54707608  1
  O  O33  1  0.25862484  0.51751663  0.04707608  1
  O  O34  1  0.25862484  0.98248337  0.04707608  1
  O  O35  1  0.32018609  0.02717496  0.35044540  1
  O  O36  1  0.32018609  0.47282504  0.35044540  1
  O  O37  1  0.35775456  0.25000000  0.67589730  1
  O  O38  1  0.37366193  0.75000000  0.74741439  1
  O  O39  1  0.43110192  0.25000000  0.92535647  1
  O  O40  1  0.42509318  0.75000000  0.91108450  1
  O  O41  1  0.50915244  0.75000000  0.47791161  1
  O  O42  1  0.49084756  0.25000000  0.52208839  1
  O  O43  1  0.57490682  0.25000000  0.08891450  1
  O  O44  1  0.56889808  0.75000000  0.07464353  1
  O  O45  1  0.62633807  0.25000000  0.25258561  1
  O  O46  1  0.64224544  0.75000000  0.32410270  1
  O  O47  1  0.67981391  0.52717496  0.64955460  1
  O  O48  1  0.67981391  0.97282504  0.64955460  1
  O  O49  1  0.74137516  0.01751663  0.95292392  1
  O  O50  1  0.74137516  0.48248337  0.95292392  1
  O  O51  1  0.75862484  0.51751663  0.45292392  1
  O  O52  1  0.75862484  0.98248337  0.45292392  1
  O  O53  1  0.82018609  0.02717496  0.14955460  1
  O  O54  1  0.82018609  0.47282504  0.14955460  1
  O  O55  1  0.85775456  0.25000000  0.82410270  1
  O  O56  1  0.87366193  0.75000000  0.75258561  1
  O  O57  1  0.93110192  0.25000000  0.57464353  1
  O  O58  1  0.92509318  0.75000000  0.58891550  1
  O  O59  1  0.00915244  0.75000000  0.02208839  1
