# generated using pymatgen
data_Li4Ni(PO3)6
_symmetry_space_group_name_H-M   'P 1'
_cell_length_a   7.30257246
_cell_length_b   7.30257246
_cell_length_c   13.92681995
_cell_angle_alpha   86.71082922
_cell_angle_beta   93.28917078
_cell_angle_gamma   115.98513354
_symmetry_Int_Tables_number   1
_chemical_formula_structural   Li4Ni(PO3)6
_chemical_formula_sum   'Li8 Ni2 P12 O36'
_cell_volume   666.07394942
_cell_formula_units_Z   2
loop_
 _symmetry_equiv_pos_site_id
 _symmetry_equiv_pos_as_xyz
  1  'x, y, z'
loop_
 _atom_site_type_symbol
 _atom_site_label
 _atom_site_symmetry_multiplicity
 _atom_site_fract_x
 _atom_site_fract_y
 _atom_site_fract_z
 _atom_site_occupancy
  Li  Li0  1  0.03861576  0.70096287  0.92379310  1
  Li  Li1  1  0.29903713  0.96138424  0.42379310  1
  Li  Li2  1  0.21648159  0.55790985  0.54684004  1
  Li  Li3  1  0.44209015  0.78351841  0.04684004  1
  Li  Li4  1  0.55790985  0.21648159  0.95315996  1
  Li  Li5  1  0.78351841  0.44209015  0.45315996  1
  Li  Li6  1  0.70096287  0.03861576  0.57620690  1
  Li  Li7  1  0.96138424  0.29903713  0.07620690  1
  Ni  Ni8  1  0.62970130  0.62970130  0.75000000  1
  Ni  Ni9  1  0.37029870  0.37029870  0.25000000  1
  P  P10  1  0.03448040  0.85164943  0.61509227  1
  P  P11  1  0.14835057  0.96551960  0.11509227  1
  P  P12  1  0.37154246  0.90412102  0.75245693  1
  P  P13  1  0.09587898  0.62845754  0.25245693  1
  P  P14  1  0.23200524  0.40145567  0.88832671  1
  P  P15  1  0.59854433  0.76799476  0.38832671  1
  P  P16  1  0.40145567  0.23200524  0.61167329  1
  P  P17  1  0.76799476  0.59854433  0.11167329  1
  P  P18  1  0.90412102  0.37154246  0.74754307  1
  P  P19  1  0.62845754  0.09587898  0.24754307  1
  P  P20  1  0.85164943  0.03448040  0.88490773  1
  P  P21  1  0.96551960  0.14835057  0.38490773  1
  O  O22  1  0.13541446  0.81260537  0.71492649  1
  O  O23  1  0.08326692  0.75351824  0.53445758  1
  O  O24  1  0.18739463  0.86458554  0.21492649  1
  O  O25  1  0.24648176  0.91673308  0.03445758  1
  O  O26  1  0.37086269  0.90061086  0.85927264  1
  O  O27  1  0.09938914  0.62913731  0.35927264  1
  O  O28  1  0.19013069  0.50409733  0.96964771  1
  O  O29  1  0.47966720  0.80528079  0.70085498  1
  O  O30  1  0.13774910  0.45200429  0.78828001  1
  O  O31  1  0.49590167  0.80986931  0.46964771  1
  O  O32  1  0.19471921  0.52033280  0.20085498  1
  O  O33  1  0.54799571  0.86225090  0.28828001  1
  O  O34  1  0.09789754  0.15609706  0.89957549  1
  O  O35  1  0.80662025  0.81845759  0.86531278  1
  O  O36  1  0.44551897  0.43665232  0.86891205  1
  O  O37  1  0.84390294  0.90210246  0.39957549  1
  O  O38  1  0.43665232  0.44551897  0.63108795  1
  O  O39  1  0.18154241  0.19337975  0.36531278  1
  O  O40  1  0.81845759  0.80662025  0.63468722  1
  O  O41  1  0.56334768  0.55448103  0.36891205  1
  O  O42  1  0.15609706  0.09789754  0.60042451  1
  O  O43  1  0.55448103  0.56334768  0.13108795  1
  O  O44  1  0.19337975  0.18154241  0.13468722  1
  O  O45  1  0.90210246  0.84390294  0.10042451  1
  O  O46  1  0.45200429  0.13774910  0.71171999  1
  O  O47  1  0.80528079  0.47966720  0.79914502  1
  O  O48  1  0.50409733  0.19013069  0.53035229  1
  O  O49  1  0.86225090  0.54799571  0.21171999  1
  O  O50  1  0.52033280  0.19471921  0.29914502  1
  O  O51  1  0.80986931  0.49590167  0.03035229  1
  O  O52  1  0.90061086  0.37086269  0.64072736  1
  O  O53  1  0.62913731  0.09938914  0.14072736  1
  O  O54  1  0.75351824  0.08326692  0.96554242  1
  O  O55  1  0.81260537  0.13541446  0.78507351  1
  O  O56  1  0.91673308  0.24648176  0.46554242  1
  O  O57  1  0.86458554  0.18739463  0.28507351  1
