# generated using pymatgen
data_Li7ZrO6
_symmetry_space_group_name_H-M   'P 1'
_cell_length_a   6.03888179
_cell_length_b   6.03888179
_cell_length_c   6.03888205
_cell_angle_alpha   56.00219133
_cell_angle_beta   56.00219139
_cell_angle_gamma   56.00219282
_symmetry_Int_Tables_number   1
_chemical_formula_structural   Li7ZrO6
_chemical_formula_sum   'Li7 Zr1 O6'
_cell_volume   141.30107121
_cell_formula_units_Z   1
loop_
 _symmetry_equiv_pos_site_id
 _symmetry_equiv_pos_as_xyz
  1  'x, y, z'
loop_
 _atom_site_type_symbol
 _atom_site_label
 _atom_site_symmetry_multiplicity
 _atom_site_fract_x
 _atom_site_fract_y
 _atom_site_fract_z
 _atom_site_occupancy
  Li  Li0  1  0.07201574  0.77017538  0.50868573  1
  Li  Li1  1  0.50513236  0.87506588  0.27064937  1
  Li  Li2  1  0.27064937  0.50513236  0.87506588  1
  Li  Li3  1  0.34671389  0.34671389  0.34671389  1
  Li  Li4  1  0.77017538  0.50868573  0.07201574  1
  Li  Li5  1  0.50868573  0.07201574  0.77017538  1
  Li  Li6  1  0.87506588  0.27064937  0.50513236  1
  Zr  Zr7  1  0.99980464  0.99980464  0.99980464  1
  O  O8  1  0.20317582  0.92985296  0.61273000  1
  O  O9  1  0.36996963  0.76190917  0.11901443  1
  O  O10  1  0.11901443  0.36996963  0.76190917  1
  O  O11  1  0.92985296  0.61273000  0.20317582  1
  O  O12  1  0.61273000  0.20317582  0.92985296  1
  O  O13  1  0.76190917  0.11901443  0.36996963  1
