# generated using pymatgen
data_CaSnS3
_symmetry_space_group_name_H-M   'P 1'
_cell_length_a   3.84345634
_cell_length_b   8.30690810
_cell_length_c   13.79083352
_cell_angle_alpha   90.00000000
_cell_angle_beta   90.00000000
_cell_angle_gamma   90.00000000
_symmetry_Int_Tables_number   1
_chemical_formula_structural   CaSnS3
_chemical_formula_sum   'Ca4 Sn4 S12'
_cell_volume   440.30323232
_cell_formula_units_Z   4
loop_
 _symmetry_equiv_pos_site_id
 _symmetry_equiv_pos_as_xyz
  1  'x, y, z'
loop_
 _atom_site_type_symbol
 _atom_site_label
 _atom_site_symmetry_multiplicity
 _atom_site_fract_x
 _atom_site_fract_y
 _atom_site_fract_z
 _atom_site_occupancy
  Ca  Ca0  1  0.75000000  0.43814299  0.31890674  1
  Ca  Ca1  1  0.75000000  0.93814299  0.18109326  1
  Ca  Ca2  1  0.25000000  0.56185701  0.68109326  1
  Ca  Ca3  1  0.25000000  0.06185701  0.81890674  1
  Sn  Sn4  1  0.75000000  0.17856584  0.55565123  1
  Sn  Sn5  1  0.75000000  0.67856584  0.94434877  1
  Sn  Sn6  1  0.25000000  0.82143416  0.44434877  1
  Sn  Sn7  1  0.25000000  0.32143416  0.05565123  1
  S  S8  1  0.75000000  0.01765805  0.39132021  1
  S  S9  1  0.75000000  0.51765805  0.10867979  1
  S  S10  1  0.25000000  0.98234195  0.60867979  1
  S  S11  1  0.25000000  0.48234195  0.89132021  1
  S  S12  1  0.75000000  0.14268408  0.98979743  1
  S  S13  1  0.75000000  0.64268408  0.51020257  1
  S  S14  1  0.25000000  0.85731592  0.01020257  1
  S  S15  1  0.25000000  0.35731592  0.48979743  1
  S  S16  1  0.75000000  0.30168921  0.71937430  1
  S  S17  1  0.75000000  0.80168921  0.78062570  1
  S  S18  1  0.25000000  0.69831079  0.28062570  1
  S  S19  1  0.25000000  0.19831079  0.21937430  1
