# generated using pymatgen
data_MgPt5
_symmetry_space_group_name_H-M   'P 1'
_cell_length_a   2.79340864
_cell_length_b   5.41268495
_cell_length_c   6.72740229
_cell_angle_alpha   74.20970809
_cell_angle_beta   90.00000000
_cell_angle_gamma   104.95397075
_symmetry_Int_Tables_number   1
_chemical_formula_structural   MgPt5
_chemical_formula_sum   'Mg1 Pt5'
_cell_volume   94.29392553
_cell_formula_units_Z   1
loop_
 _symmetry_equiv_pos_site_id
 _symmetry_equiv_pos_as_xyz
  1  'x, y, z'
loop_
 _atom_site_type_symbol
 _atom_site_label
 _atom_site_symmetry_multiplicity
 _atom_site_fract_x
 _atom_site_fract_y
 _atom_site_fract_z
 _atom_site_occupancy
  Mg  Mg0  1  0.38883011  0.77766021  0.72168172  1
  Pt  Pt1  1  0.99879485  0.99759270  0.00002426  1
  Pt  Pt2  1  0.72673717  0.45347134  0.04442121  1
  Pt  Pt3  1  0.33396711  0.66793422  0.33226799  1
  Pt  Pt4  1  0.05253210  0.10506419  0.39759411  1
  Pt  Pt5  1  0.66580767  0.33161234  0.67067771  1
