# generated using pymatgen
data_Er2O3
_symmetry_space_group_name_H-M   'P 1'
_cell_length_a   3.67422512
_cell_length_b   3.67422512
_cell_length_c   6.76993482
_cell_angle_alpha   105.74540559
_cell_angle_beta   74.25459441
_cell_angle_gamma   120.00000000
_symmetry_Int_Tables_number   1
_chemical_formula_structural   Er2O3
_chemical_formula_sum   'Er2 O3'
_cell_volume   75.16325927
_cell_formula_units_Z   1
loop_
 _symmetry_equiv_pos_site_id
 _symmetry_equiv_pos_as_xyz
  1  'x, y, z'
loop_
 _atom_site_type_symbol
 _atom_site_label
 _atom_site_symmetry_multiplicity
 _atom_site_fract_x
 _atom_site_fract_y
 _atom_site_fract_z
 _atom_site_occupancy
  Er  Er0  1  0.00601401  0.99398599  0.98195798  1
  Er  Er1  1  0.49790242  0.50209758  0.50629275  1
  O  O2  1  0.12308474  0.87691526  0.63074577  1
  O  O3  1  0.89227129  0.10772871  0.32318613  1
  O  O4  1  0.35572754  0.64427246  0.93281737  1
