# generated using pymatgen
data_Li2CoPHO5
_symmetry_space_group_name_H-M   'P 1'
_cell_length_a   5.36876985
_cell_length_b   5.53431221
_cell_length_c   7.47750863
_cell_angle_alpha   108.05272845
_cell_angle_beta   109.33294610
_cell_angle_gamma   92.79469404
_symmetry_Int_Tables_number   1
_chemical_formula_structural   Li2CoPHO5
_chemical_formula_sum   'Li4 Co2 P2 H2 O10'
_cell_volume   196.46945072
_cell_formula_units_Z   2
loop_
 _symmetry_equiv_pos_site_id
 _symmetry_equiv_pos_as_xyz
  1  'x, y, z'
loop_
 _atom_site_type_symbol
 _atom_site_label
 _atom_site_symmetry_multiplicity
 _atom_site_fract_x
 _atom_site_fract_y
 _atom_site_fract_z
 _atom_site_occupancy
  Li  Li0  1  0.53030794  0.87436425  0.16837379  1
  Li  Li1  1  0.20399261  0.57273626  0.20155200  1
  Li  Li2  1  0.79600739  0.42726374  0.79844800  1
  Li  Li3  1  0.46969206  0.12563575  0.83162621  1
  Co  Co4  1  0.00000000  0.00000000  0.50000000  1
  Co  Co5  1  0.00000000  0.00000000  0.00000000  1
  P  P6  1  0.33174120  0.62616949  0.76862937  1
  P  P7  1  0.66825880  0.37383051  0.23137063  1
  H  H8  1  0.67621467  0.91627898  0.63873866  1
  H  H9  1  0.32378533  0.08372102  0.36126134  1
  O  O10  1  0.16881430  0.94701613  0.27559816  1
  O  O11  1  0.26668051  0.77995979  0.62170245  1
  O  O12  1  0.66352219  0.66233959  0.33409071  1
  O  O13  1  0.62115353  0.74812537  0.92693018  1
  O  O14  1  0.13780311  0.65587172  0.88738633  1
  O  O15  1  0.86219689  0.34412828  0.11261367  1
  O  O16  1  0.37884647  0.25187463  0.07306982  1
  O  O17  1  0.33647781  0.33766041  0.66590929  1
  O  O18  1  0.73331949  0.22004021  0.37829755  1
  O  O19  1  0.83118570  0.05298387  0.72440184  1
