# generated using pymatgen
data_Mg2FeSbO6
_symmetry_space_group_name_H-M   'P 1'
_cell_length_a   5.21611655
_cell_length_b   5.39303044
_cell_length_c   7.64594948
_cell_angle_alpha   90.00000000
_cell_angle_beta   90.00000000
_cell_angle_gamma   90.82785312
_symmetry_Int_Tables_number   1
_chemical_formula_structural   Mg2FeSbO6
_chemical_formula_sum   'Mg4 Fe2 Sb2 O12'
_cell_volume   215.06327115
_cell_formula_units_Z   2
loop_
 _symmetry_equiv_pos_site_id
 _symmetry_equiv_pos_as_xyz
  1  'x, y, z'
loop_
 _atom_site_type_symbol
 _atom_site_label
 _atom_site_symmetry_multiplicity
 _atom_site_fract_x
 _atom_site_fract_y
 _atom_site_fract_z
 _atom_site_occupancy
  Mg  Mg0  1  0.52023069  0.56997190  0.75000000  1
  Mg  Mg1  1  0.47976931  0.43002810  0.25000000  1
  Mg  Mg2  1  0.01170719  0.03510299  0.75000000  1
  Mg  Mg3  1  0.98829281  0.96489701  0.25000000  1
  Fe  Fe4  1  0.50000000  0.00000000  0.50000000  1
  Fe  Fe5  1  0.50000000  0.00000000  0.00000000  1
  Sb  Sb6  1  0.00000000  0.50000000  0.50000000  1
  Sb  Sb7  1  0.00000000  0.50000000  0.00000000  1
  O  O8  1  0.31847894  0.67719325  0.43073849  1
  O  O9  1  0.17175855  0.18876706  0.06924342  1
  O  O10  1  0.68152106  0.32280675  0.93073849  1
  O  O11  1  0.82824145  0.81123294  0.56924342  1
  O  O12  1  0.17175855  0.18876706  0.43075658  1
  O  O13  1  0.82824145  0.81123294  0.93075658  1
  O  O14  1  0.86095344  0.57370245  0.25000000  1
  O  O15  1  0.31847894  0.67719325  0.06926151  1
  O  O16  1  0.37930420  0.92897859  0.75000000  1
  O  O17  1  0.68152106  0.32280675  0.56926151  1
  O  O18  1  0.13904656  0.42629755  0.75000000  1
  O  O19  1  0.62069580  0.07102141  0.25000000  1
