# generated using pymatgen
data_Dy2Fe15Si2C
_symmetry_space_group_name_H-M   'P 1'
_cell_length_a   6.42428610
_cell_length_b   6.40814380
_cell_length_c   6.42428610
_cell_angle_alpha   82.26155098
_cell_angle_beta   81.95061940
_cell_angle_gamma   82.26155098
_symmetry_Int_Tables_number   1
_chemical_formula_structural   Dy2Fe15Si2C
_chemical_formula_sum   'Dy2 Fe15 Si2 C1'
_cell_volume   257.66935167
_cell_formula_units_Z   1
loop_
 _symmetry_equiv_pos_site_id
 _symmetry_equiv_pos_as_xyz
  1  'x, y, z'
loop_
 _atom_site_type_symbol
 _atom_site_label
 _atom_site_symmetry_multiplicity
 _atom_site_fract_x
 _atom_site_fract_y
 _atom_site_fract_z
 _atom_site_occupancy
  Dy  Dy0  1  0.65626803  0.64807761  0.65626803  1
  Dy  Dy1  1  0.34373197  0.35192239  0.34373197  1
  Fe  Fe2  1  0.34525188  0.85072950  0.34525188  1
  Fe  Fe3  1  0.84739053  0.34098061  0.33756320  1
  Fe  Fe4  1  0.33756320  0.34098061  0.84739053  1
  Fe  Fe5  1  0.65474812  0.14927050  0.65474812  1
  Fe  Fe6  1  0.15260947  0.65901939  0.66243680  1
  Fe  Fe7  1  0.66243680  0.65901939  0.15260947  1
  Fe  Fe8  1  -0.00000000  0.50000000  -0.00000000  1
  Fe  Fe9  1  0.50000000  0.00000000  -0.00000000  1
  Fe  Fe10  1  -0.00000000  0.00000000  0.50000000  1
  Fe  Fe11  1  0.71959499  0.00000000  0.28040501  1
  Fe  Fe12  1  0.99731095  0.30195496  0.69811083  1
  Fe  Fe13  1  0.30188917  0.69804504  0.00268905  1
  Fe  Fe14  1  0.00268905  0.69804504  0.30188917  1
  Fe  Fe15  1  0.69811083  0.30195496  0.99731095  1
  Fe  Fe16  1  0.28040501  0.00000000  0.71959499  1
  Si  Si17  1  0.89755845  0.89974298  0.89755845  1
  Si  Si18  1  0.10244155  0.10025702  0.10244155  1
  C  C19  1  0.50000000  0.00000000  0.50000000  1
