# generated using pymatgen
data_VNiP2O9
_symmetry_space_group_name_H-M   'P 1'
_cell_length_a   6.27620555
_cell_length_b   7.81709578
_cell_length_c   13.92829252
_cell_angle_alpha   90.00997050
_cell_angle_beta   90.02281023
_cell_angle_gamma   90.00621537
_symmetry_Int_Tables_number   1
_chemical_formula_structural   VNiP2O9
_chemical_formula_sum   'V4 Ni4 P8 O36'
_cell_volume   683.34563936
_cell_formula_units_Z   4
loop_
 _symmetry_equiv_pos_site_id
 _symmetry_equiv_pos_as_xyz
  1  'x, y, z'
loop_
 _atom_site_type_symbol
 _atom_site_label
 _atom_site_symmetry_multiplicity
 _atom_site_fract_x
 _atom_site_fract_y
 _atom_site_fract_z
 _atom_site_occupancy
  V  V0  1  0.75006721  0.34455333  0.88060305  1
  V  V1  1  0.24993752  0.65539270  0.11943215  1
  V  V2  1  0.24999370  0.84467214  0.61937507  1
  V  V3  1  0.75000024  0.15530213  0.38056820  1
  Ni  Ni4  1  0.50001227  -0.00000111  0.00001813  1
  Ni  Ni5  1  0.49999441  0.49999456  0.49998967  1
  Ni  Ni6  1  -0.00000361  0.49999338  0.49997923  1
  Ni  Ni7  1  -0.00000691  -0.00000583  0.00002385  1
  P  P8  1  0.24995438  0.34903937  0.94016561  1
  P  P9  1  0.75004869  0.65090091  0.05975934  1
  P  P10  1  0.75010268  0.84907791  0.55981387  1
  P  P11  1  0.24989742  0.15088069  0.44024930  1
  P  P12  1  0.74994469  0.39017291  0.68954115  1
  P  P13  1  0.25004429  0.60986839  0.31030706  1
  P  P14  1  0.25022253  0.89007030  0.81039184  1
  P  P15  1  0.74978663  0.10997497  0.18976362  1
  O  O16  1  0.04760408  0.60666592  0.37166345  1
  O  O17  1  0.54780048  0.39329005  0.62837572  1
  O  O18  1  0.95233234  0.10675303  0.12829337  1
  O  O19  1  0.45245374  0.89319199  0.87167408  1
  O  O20  1  0.95242002  0.39335978  0.62835022  1
  O  O21  1  0.45216352  0.60672701  0.37165325  1
  O  O22  1  0.04765498  0.89327954  0.87169277  1
  O  O23  1  0.54755857  0.10683958  0.12830612  1
  O  O24  1  0.25001840  0.33412193  0.48061341  1
  O  O25  1  0.74997851  0.66591150  0.51937612  1
  O  O26  1  0.74999601  0.83409502  0.01939536  1
  O  O27  1  0.25000587  0.16594613  0.98061875  1
  O  O28  1  0.75005937  0.15936252  0.94402546  1
  O  O29  1  0.24994415  0.84056551  0.05598149  1
  O  O30  1  0.24988847  0.65942072  0.55590576  1
  O  O31  1  0.75010590  0.34049533  0.44408657  1
  O  O32  1  0.75010124  0.22887888  0.75860729  1
  O  O33  1  0.24991040  0.77103406  0.24140141  1
  O  O34  1  0.25004902  0.72889231  0.74133711  1
  O  O35  1  0.74995113  0.27102879  0.25865280  1
  O  O36  1  0.44890495  0.12812366  0.37566567  1
  O  O37  1  0.94884639  0.87180523  0.62434345  1
  O  O38  1  0.55103035  0.62826613  0.12435206  1
  O  O39  1  0.05122063  0.37178850  0.87566690  1
  O  O40  1  0.55114075  0.87183333  0.62433175  1
  O  O41  1  0.05110285  0.12815483  0.37565273  1
  O  O42  1  0.44891588  0.37170555  0.87565059  1
  O  O43  1  0.94883773  0.62818396  0.12433593  1
  O  O44  1  0.74982969  0.96682287  0.26823120  1
  O  O45  1  0.25017253  0.03334512  0.73188130  1
  O  O46  1  0.24999843  0.46682064  0.23174743  1
  O  O47  1  0.75000592  0.53334996  0.76815031  1
  O  O48  1  0.75003512  0.98708788  0.48133708  1
  O  O49  1  0.24996666  0.01292977  0.51869314  1
  O  O50  1  0.25004034  0.48722293  0.01863472  1
  O  O51  1  0.74995945  0.51281329  0.98133407  1
