# generated using pymatgen
data_Mn4(SiO3)5
_symmetry_space_group_name_H-M   'P 1'
_cell_length_a   6.58470977
_cell_length_b   7.56057765
_cell_length_c   12.16118836
_cell_angle_alpha   106.08107349
_cell_angle_beta   94.76656930
_cell_angle_gamma   93.45775242
_symmetry_Int_Tables_number   1
_chemical_formula_structural   Mn4(SiO3)5
_chemical_formula_sum   'Mn8 Si10 O30'
_cell_volume   577.53354006
_cell_formula_units_Z   2
loop_
 _symmetry_equiv_pos_site_id
 _symmetry_equiv_pos_as_xyz
  1  'x, y, z'
loop_
 _atom_site_type_symbol
 _atom_site_label
 _atom_site_symmetry_multiplicity
 _atom_site_fract_x
 _atom_site_fract_y
 _atom_site_fract_z
 _atom_site_occupancy
  Mn  Mn0  1  0.03888174  0.10769159  0.16681425  1
  Mn  Mn1  1  0.12163489  0.32066755  0.44807315  1
  Mn  Mn2  1  0.76218288  0.26937312  0.96965318  1
  Mn  Mn3  1  0.23781712  0.73062688  0.03034682  1
  Mn  Mn4  1  0.81278251  0.50419338  0.26824833  1
  Mn  Mn5  1  0.96111826  0.89230741  0.83318575  1
  Mn  Mn6  1  0.87836511  0.67933245  0.55192685  1
  Mn  Mn7  1  0.18721749  0.49580662  0.73175167  1
  Si  Si8  1  0.29287245  0.53887751  0.25445059  1
  Si  Si9  1  0.49155210  0.20713036  0.12059383  1
  Si  Si10  1  0.83430954  0.93687565  0.35128605  1
  Si  Si11  1  0.16569046  0.06312435  0.64871395  1
  Si  Si12  1  0.76673994  0.73234436  0.08964094  1
  Si  Si13  1  0.50844790  0.79286964  0.87940617  1
  Si  Si14  1  0.23326006  0.26765564  0.91035906  1
  Si  Si15  1  0.62458752  0.27246606  0.48309342  1
  Si  Si16  1  0.70712755  0.46112249  0.74554941  1
  Si  Si17  1  0.37541248  0.72753394  0.51690658  1
  O  O18  1  0.32104518  0.94043620  0.56836931  1
  O  O19  1  0.88781972  0.75830992  0.39427662  1
  O  O20  1  0.10008544  0.39827602  0.26398669  1
  O  O21  1  0.24652985  0.64426999  0.15890470  1
  O  O22  1  0.26261499  0.81796455  0.88928985  1
  O  O23  1  0.27799954  0.14520334  0.78222328  1
  O  O24  1  0.63213168  0.31406386  0.62231292  1
  O  O25  1  0.97336811  0.92095699  0.66077001  1
  O  O26  1  0.11218028  0.24169008  0.60572338  1
  O  O27  1  0.40420061  0.30712986  0.42843997  1
  O  O28  1  0.03916612  0.16914814  0.95402415  1
  O  O29  1  0.72200046  0.85479666  0.21777672  1
  O  O30  1  0.82055542  0.40512246  0.45232423  1
  O  O31  1  0.89991456  0.60172398  0.73601331  1
  O  O32  1  0.02663189  0.07904301  0.33922999  1
  O  O33  1  0.96083388  0.83085186  0.04597585  1
  O  O34  1  0.17944458  0.59487754  0.54767577  1
  O  O35  1  0.59579939  0.69287014  0.57156003  1
  O  O36  1  0.79672786  0.52457466  0.09325694  1
  O  O37  1  0.44122836  0.25952329  0.99598584  1
  O  O38  1  0.55877164  0.74047671  0.00401416  1
  O  O39  1  0.20327214  0.47542534  0.90674306  1
  O  O40  1  0.50982464  0.59272645  0.77753988  1
  O  O41  1  0.75347015  0.35573001  0.84109530  1
  O  O42  1  0.67895482  0.05956380  0.43163069  1
  O  O43  1  0.66387409  0.95234266  0.86622154  1
  O  O44  1  0.36786832  0.68593614  0.37768708  1
  O  O45  1  0.49017536  0.40727355  0.22246012  1
  O  O46  1  0.73738501  0.18203545  0.11071015  1
  O  O47  1  0.33612591  0.04765734  0.13377846  1
