# generated using pymatgen
data_Mn2Nb4Zn3O16
_symmetry_space_group_name_H-M   'P 1'
_cell_length_a   5.18286617
_cell_length_b   5.94618820
_cell_length_c   10.32420224
_cell_angle_alpha   109.64569891
_cell_angle_beta   90.52469896
_cell_angle_gamma   90.00130215
_symmetry_Int_Tables_number   1
_chemical_formula_structural   Mn2Nb4Zn3O16
_chemical_formula_sum   'Mn2 Nb4 Zn3 O16'
_cell_volume   299.63909171
_cell_formula_units_Z   1
loop_
 _symmetry_equiv_pos_site_id
 _symmetry_equiv_pos_as_xyz
  1  'x, y, z'
loop_
 _atom_site_type_symbol
 _atom_site_label
 _atom_site_symmetry_multiplicity
 _atom_site_fract_x
 _atom_site_fract_y
 _atom_site_fract_z
 _atom_site_occupancy
  Mn  Mn0  1  0.75038816  0.64999633  0.00588645  1
  Mn  Mn1  1  0.24464858  0.34794799  0.00301902  1
  Nb  Nb2  1  0.75334602  0.28093434  0.22607905  1
  Nb  Nb3  1  0.75852248  0.03992983  0.75124833  1
  Nb  Nb4  1  0.26290813  0.72375285  0.78212504  1
  Nb  Nb5  1  0.24301689  0.95488377  0.24749810  1
  Zn  Zn6  1  0.76456817  0.42829678  0.54465127  1
  Zn  Zn7  1  0.23937739  0.56924537  0.44553065  1
  Zn  Zn8  1  0.27133235  0.11438938  0.55715429  1
  O  O9  1  0.07742145  0.18996194  0.13004189  1
  O  O10  1  0.42908605  0.04714649  0.86717489  1
  O  O11  1  0.93440433  0.80974296  0.86346721  1
  O  O12  1  0.58365990  0.94056401  0.13339334  1
  O  O13  1  0.55514480  0.42611654  0.11382999  1
  O  O14  1  0.92573240  0.32248155  0.89493462  1
  O  O15  1  0.42979804  0.56677216  0.89391092  1
  O  O16  1  0.06765010  0.68434859  0.11094476  1
  O  O17  1  0.43950243  0.27669522  0.35386582  1
  O  O18  1  0.07690414  0.92762390  0.65263300  1
  O  O19  1  0.35332830  0.83227983  0.38658808  1
  O  O20  1  0.14125460  0.44974524  0.61398277  1
  O  O21  1  0.62995397  0.19958710  0.63425846  1
  O  O22  1  0.87020128  0.53883489  0.38281267  1
  O  O23  1  0.94140437  0.08757283  0.34594331  1
  O  O24  1  0.57188368  0.72365709  0.65066609  1
