# generated using pymatgen
data_Al5(CoO4)3
_symmetry_space_group_name_H-M   'P 1'
_cell_length_a   17.07173632
_cell_length_b   5.75412493
_cell_length_c   5.75412475
_cell_angle_alpha   59.87344236
_cell_angle_beta   60.21599012
_cell_angle_gamma   60.21599113
_symmetry_Int_Tables_number   1
_chemical_formula_structural   Al5(CoO4)3
_chemical_formula_sum   'Al10 Co6 O24'
_cell_volume   400.60062166
_cell_formula_units_Z   2
loop_
 _symmetry_equiv_pos_site_id
 _symmetry_equiv_pos_as_xyz
  1  'x, y, z'
loop_
 _atom_site_type_symbol
 _atom_site_label
 _atom_site_symmetry_multiplicity
 _atom_site_fract_x
 _atom_site_fract_y
 _atom_site_fract_z
 _atom_site_occupancy
  Al  Al0  1  0.37679010  0.62867099  0.62867099  1
  Al  Al1  1  0.70654290  0.62132901  0.62132901  1
  Al  Al2  1  0.20413678  0.62795067  0.13335440  1
  Al  Al3  1  0.54166700  0.62500000  0.12500000  1
  Al  Al4  1  0.87919622  0.62204933  0.11664560  1
  Al  Al5  1  0.20413678  0.13335440  0.62795067  1
  Al  Al6  1  0.54166700  0.12500000  0.62500000  1
  Al  Al7  1  0.87919622  0.11664560  0.62204933  1
  Al  Al8  1  0.20527435  0.62461625  0.62461625  1
  Al  Al9  1  0.87805865  0.62538375  0.62538375  1
  Co  Co10  1  0.99644494  0.00379961  0.00379961  1
  Co  Co11  1  0.33432394  0.00388212  0.00388212  1
  Co  Co12  1  0.66119463  0.01500518  0.01500518  1
  Co  Co13  1  0.08688806  0.24620039  0.24620039  1
  Co  Co14  1  0.42213937  0.23499482  0.23499482  1
  Co  Co15  1  0.74900906  0.24611788  0.24611788  1
  O  O16  1  0.28078919  0.38564172  0.38564172  1
  O  O17  1  0.61914538  0.37018909  0.37018909  1
  O  O18  1  0.94753053  0.38752336  0.38752336  1
  O  O19  1  0.28953865  0.85993999  0.85993999  1
  O  O20  1  0.62025194  0.86291933  0.86291933  1
  O  O21  1  0.94466094  0.88426277  0.88426277  1
  O  O22  1  0.14008315  0.85200771  0.36114843  1
  O  O23  1  0.45614850  0.85062046  0.37027519  1
  O  O24  1  0.79546183  0.83360950  0.39101833  1
  O  O25  1  0.14008315  0.36114843  0.85200771  1
  O  O26  1  0.45614850  0.37027519  0.85062046  1
  O  O27  1  0.79546183  0.39101833  0.83360950  1
  O  O28  1  0.28787117  0.85898167  0.41639050  1
  O  O29  1  0.62718550  0.87972481  0.39937954  1
  O  O30  1  0.94324985  0.88885157  0.39799229  1
  O  O31  1  0.28787117  0.41639050  0.85898167  1
  O  O32  1  0.62718550  0.39937954  0.87972481  1
  O  O33  1  0.94324985  0.39799229  0.88885157  1
  O  O34  1  0.13867206  0.36573723  0.36573723  1
  O  O35  1  0.46308206  0.38708067  0.38708067  1
  O  O36  1  0.79379435  0.39006001  0.39006001  1
  O  O37  1  0.13580247  0.86247664  0.86247664  1
  O  O38  1  0.46418862  0.87981091  0.87981091  1
  O  O39  1  0.80254381  0.86435828  0.86435828  1
