# generated using pymatgen
data_V2Zn3O7
_symmetry_space_group_name_H-M   'P 1'
_cell_length_a   5.16156251
_cell_length_b   5.22441860
_cell_length_c   9.62709557
_cell_angle_alpha   105.74397321
_cell_angle_beta   90.00000000
_cell_angle_gamma   90.00000000
_symmetry_Int_Tables_number   1
_chemical_formula_structural   V2Zn3O7
_chemical_formula_sum   'V4 Zn6 O14'
_cell_volume   249.86640140
_cell_formula_units_Z   2
loop_
 _symmetry_equiv_pos_site_id
 _symmetry_equiv_pos_as_xyz
  1  'x, y, z'
loop_
 _atom_site_type_symbol
 _atom_site_label
 _atom_site_symmetry_multiplicity
 _atom_site_fract_x
 _atom_site_fract_y
 _atom_site_fract_z
 _atom_site_occupancy
  V  V0  1  0.75336095  0.35522192  0.20503631  1
  V  V1  1  0.25336095  0.64477808  0.79496369  1
  V  V2  1  0.25336095  0.84981439  0.20503631  1
  V  V3  1  0.75336095  0.15018561  0.79496369  1
  Zn  Zn4  1  0.72209916  0.74418091  1.00000000  1
  Zn  Zn5  1  0.22209916  0.25581909  0.00000000  1
  Zn  Zn6  1  0.79170122  0.57504214  0.59970726  1
  Zn  Zn7  1  0.29170122  0.42495786  0.40029274  1
  Zn  Zn8  1  0.79170122  0.97533388  0.40029274  1
  Zn  Zn9  1  0.29170122  0.02466612  0.59970726  1
  O  O10  1  0.67887970  0.94095220  0.59359909  1
  O  O11  1  0.17887970  0.05904780  0.40640091  1
  O  O12  1  0.17887970  0.65264589  0.59359909  1
  O  O13  1  0.67887970  0.34735411  0.40640091  1
  O  O14  1  0.06756721  0.29135152  0.74260792  1
  O  O15  1  0.56756721  0.70864848  0.25739208  1
  O  O16  1  0.56756721  0.45125640  0.74260792  1
  O  O17  1  0.06756721  0.54874360  0.25739208  1
  O  O18  1  0.94299989  0.84522632  0.84544015  1
  O  O19  1  0.44299989  0.15477368  0.15455985  1
  O  O20  1  0.82888490  0.36513186  0.00000000  1
  O  O21  1  0.32888490  0.63486814  1.00000000  1
  O  O22  1  0.94299989  -0.00021383  0.15455985  1
  O  O23  1  0.44299989  0.00021383  0.84544015  1
