# generated using pymatgen
data_CaNiF4
_symmetry_space_group_name_H-M   'P 1'
_cell_length_a   5.40429430
_cell_length_b   5.40452756
_cell_length_c   6.52948622
_cell_angle_alpha   114.63018525
_cell_angle_beta   114.54703969
_cell_angle_gamma   89.99537876
_symmetry_Int_Tables_number   1
_chemical_formula_structural   CaNiF4
_chemical_formula_sum   'Ca2 Ni2 F8'
_cell_volume   154.19885662
_cell_formula_units_Z   2
loop_
 _symmetry_equiv_pos_site_id
 _symmetry_equiv_pos_as_xyz
  1  'x, y, z'
loop_
 _atom_site_type_symbol
 _atom_site_label
 _atom_site_symmetry_multiplicity
 _atom_site_fract_x
 _atom_site_fract_y
 _atom_site_fract_z
 _atom_site_occupancy
  Ca  Ca0  1  0.25208911  0.25079219  0.49826295  1
  Ca  Ca1  1  0.75233550  0.75058458  0.49819661  1
  Ni  Ni2  1  0.00132865  0.50011644  0.99744925  1
  Ni  Ni3  1  0.50283124  0.00159735  -0.00045051  1
  F  F4  1  0.93523745  0.43356587  0.24697829  1
  F  F5  1  0.68644263  0.18527880  0.74354296  1
  F  F6  1  0.06654317  0.56540570  0.74684429  1
  F  F7  1  0.18791977  0.06603025  0.74775542  1
  F  F8  1  0.31683427  0.81513744  0.25076253  1
  F  F9  1  0.43830707  0.31584162  0.25118090  1
  F  F10  1  0.81729095  0.93585891  0.25015836  1
  F  F11  1  0.56592918  0.68681685  0.74665095  1
