# generated using pymatgen
data_Mg(CuO2)2
_symmetry_space_group_name_H-M   'P 1'
_cell_length_a   5.90073762
_cell_length_b   5.96344957
_cell_length_c   23.70797163
_cell_angle_alpha   59.79631672
_cell_angle_beta   60.14781778
_cell_angle_gamma   59.64780758
_symmetry_Int_Tables_number   1
_chemical_formula_structural   Mg(CuO2)2
_chemical_formula_sum   'Mg8 Cu16 O32'
_cell_volume   588.06207146
_cell_formula_units_Z   8
loop_
 _symmetry_equiv_pos_site_id
 _symmetry_equiv_pos_as_xyz
  1  'x, y, z'
loop_
 _atom_site_type_symbol
 _atom_site_label
 _atom_site_symmetry_multiplicity
 _atom_site_fract_x
 _atom_site_fract_y
 _atom_site_fract_z
 _atom_site_occupancy
  Mg  Mg0  1  0.15414067  0.11782906  0.02755081  1
  Mg  Mg1  1  0.00180069  0.49921000  0.12494433  1
  Mg  Mg2  1  0.14717943  0.11275445  0.28182767  1
  Mg  Mg3  1  0.00419204  0.49798913  0.37495743  1
  Mg  Mg4  1  0.00081310  0.50010304  0.62474495  1
  Mg  Mg5  1  0.50101806  0.50041082  0.49954033  1
  Mg  Mg6  1  0.99803764  0.50157055  0.87470532  1
  Mg  Mg7  1  0.49916934  0.50011513  0.75014960  1
  Cu  Cu8  1  0.49954442  0.49887794  0.12497232  1
  Cu  Cu9  1  0.50021216  0.49853365  0.25067989  1
  Cu  Cu10  1  0.49954442  0.00168837  0.12497232  1
  Cu  Cu11  1  0.13517618  0.11285248  0.53477946  1
  Cu  Cu12  1  0.49999483  0.49676165  0.37583877  1
  Cu  Cu13  1  0.86567872  0.87802547  0.21956759  1
  Cu  Cu14  1  0.14055618  0.11776456  0.78097867  1
  Cu  Cu15  1  0.49999483  -0.00011056  0.37583877  1
  Cu  Cu16  1  0.50029829  0.49998433  0.62482456  1
  Cu  Cu17  1  0.86032650  0.88304206  0.46839710  1
  Cu  Cu18  1  0.50029829  0.00041914  0.62482456  1
  Cu  Cu19  1  0.50090982  0.00258882  0.87350935  1
  Cu  Cu20  1  0.50090982  0.50246394  0.87350935  1
  Cu  Cu21  1  0.86411325  0.88659973  0.71567132  1
  Cu  Cu22  1  0.49887484  0.49929692  0.00063308  1
  Cu  Cu23  1  0.86669110  0.87985190  0.96840102  1
  O  O24  1  0.27564683  0.25734281  0.06430773  1
  O  O25  1  0.27740539  0.25420986  0.17854372  1
  O  O26  1  0.27564683  0.70978145  0.06430773  1
  O  O27  1  0.73587100  0.25558370  0.06324065  1
  O  O28  1  0.25737165  0.74704864  0.18713227  1
  O  O29  1  0.28044267  0.25570341  0.31490262  1
  O  O30  1  0.71851465  0.28644886  0.18713582  1
  O  O31  1  0.26505426  0.24737891  0.43504648  1
  O  O32  1  0.28044267  0.70424346  0.31490262  1
  O  O33  1  0.71492297  0.74932172  0.07160815  1
  O  O34  1  0.72635382  0.25373125  0.31654642  1
  O  O35  1  0.71851465  0.74649320  0.18713582  1
  O  O36  1  0.27111474  0.24498127  0.56707654  1
  O  O37  1  0.26276265  0.75545726  0.43158046  1
  O  O38  1  0.73416746  0.28206378  0.43170733  1
  O  O39  1  0.26916304  0.25080177  0.68230860  1
  O  O40  1  0.27111474  0.71559682  0.56707654  1
  O  O41  1  0.72602616  0.74860801  0.31918921  1
  O  O42  1  0.73445701  0.24987378  0.56644886  1
  O  O43  1  0.73416746  0.75694043  0.43170733  1
  O  O44  1  0.26404585  0.75124569  0.68336544  1
  O  O45  1  0.26509639  0.24467593  0.81710943  1
  O  O46  1  0.72999522  0.28322775  0.68269072  1
  O  O47  1  0.28190394  0.25801766  0.92551469  1
  O  O48  1  0.26509639  0.72178797  0.81710943  1
  O  O49  1  0.73268167  0.74962389  0.56701789  1
  O  O50  1  0.74581530  0.24784086  0.81462574  1
  O  O51  1  0.72999522  0.75601614  0.68269072  1
  O  O52  1  0.26016574  0.74269730  0.93861016  1
  O  O53  1  0.71693552  0.28749157  0.93748180  1
  O  O54  1  0.72269899  0.75149859  0.81857571  1
  O  O55  1  0.71693552  0.74564470  0.93748180  1
