# generated using pymatgen
data_CaWF5
_symmetry_space_group_name_H-M   'P 1'
_cell_length_a   5.84927418
_cell_length_b   5.85985520
_cell_length_c   8.14779832
_cell_angle_alpha   96.61044245
_cell_angle_beta   112.67592952
_cell_angle_gamma   107.53631125
_symmetry_Int_Tables_number   1
_chemical_formula_structural   CaWF5
_chemical_formula_sum   'Ca2 W2 F10'
_cell_volume   237.06835497
_cell_formula_units_Z   2
loop_
 _symmetry_equiv_pos_site_id
 _symmetry_equiv_pos_as_xyz
  1  'x, y, z'
loop_
 _atom_site_type_symbol
 _atom_site_label
 _atom_site_symmetry_multiplicity
 _atom_site_fract_x
 _atom_site_fract_y
 _atom_site_fract_z
 _atom_site_occupancy
  Ca  Ca0  1  0.28620453  0.53424520  0.75303163  1
  Ca  Ca1  1  0.71979586  0.46621889  0.25223565  1
  W  W2  1  0.00053871  0.99928786  0.00113295  1
  W  W3  1  0.50111642  0.00238262  0.50157164  1
  F  F4  1  0.36032634  0.10990290  0.25127143  1
  F  F5  1  0.64148110  0.89338513  0.75188490  1
  F  F6  1  0.59066530  0.73326283  0.37342138  1
  F  F7  1  0.85877559  0.22065427  0.12399404  1
  F  F8  1  0.73895699  0.68465591  0.03382839  1
  F  F9  1  0.15487129  0.70819844  0.47025714  1
  F  F10  1  0.26309488  0.30832279  0.96648417  1
  F  F11  1  0.84650227  0.29965524  0.53517480  1
  F  F12  1  0.14633587  0.78203607  0.87829357  1
  F  F13  1  0.40583385  0.27008285  0.62349932  1
