# generated using pymatgen
data_MgFePO5
_symmetry_space_group_name_H-M   'P 1'
_cell_length_a   5.37132944
_cell_length_b   7.02319388
_cell_length_c   8.18394789
_cell_angle_alpha   90.00166415
_cell_angle_beta   40.36928777
_cell_angle_gamma   74.97085898
_symmetry_Int_Tables_number   1
_chemical_formula_structural   MgFePO5
_chemical_formula_sum   'Mg2 Fe2 P2 O10'
_cell_volume   183.24049519
_cell_formula_units_Z   2
loop_
 _symmetry_equiv_pos_site_id
 _symmetry_equiv_pos_as_xyz
  1  'x, y, z'
loop_
 _atom_site_type_symbol
 _atom_site_label
 _atom_site_symmetry_multiplicity
 _atom_site_fract_x
 _atom_site_fract_y
 _atom_site_fract_z
 _atom_site_occupancy
  Mg  Mg0  1  0.63094601  0.18091177  0.60990072  1
  Mg  Mg1  1  0.63783497  0.67786532  0.24727346  1
  Fe  Fe2  1  0.50464720  0.48843076  0.00200029  1
  Fe  Fe3  1  0.50085637  0.98824569  0.98629673  1
  P  P4  1  0.47179672  0.24451678  0.35766258  1
  P  P5  1  0.46698325  0.74377233  0.66279875  1
  O  O6  1  0.28550689  0.13399373  0.32963062  1
  O  O7  1  0.61147592  0.39708555  0.19210121  1
  O  O8  1  0.58837617  0.90323469  0.69687478  1
  O  O9  1  0.28141114  0.63332373  0.87741372  1
  O  O10  1  0.84855274  0.58378863  0.37807110  1
  O  O11  1  0.16331294  0.85344548  0.67197889  1
  O  O12  1  0.16341101  0.36139409  0.65110242  1
  O  O13  1  0.84516976  0.08539796  0.26949662  1
  O  O14  1  0.48972966  0.74666344  0.09245763  1
  O  O15  1  0.49671724  0.24506106  0.90695549  1
