# generated using pymatgen
data_CaNi2(P2O7)2
_symmetry_space_group_name_H-M   'P 1'
_cell_length_a   6.44558490
_cell_length_b   6.60223181
_cell_length_c   6.78733293
_cell_angle_alpha   65.82680859
_cell_angle_beta   87.59499882
_cell_angle_gamma   83.08687054
_symmetry_Int_Tables_number   1
_chemical_formula_structural   CaNi2(P2O7)2
_chemical_formula_sum   'Ca1 Ni2 P4 O14'
_cell_volume   261.58473691
_cell_formula_units_Z   1
loop_
 _symmetry_equiv_pos_site_id
 _symmetry_equiv_pos_as_xyz
  1  'x, y, z'
loop_
 _atom_site_type_symbol
 _atom_site_label
 _atom_site_symmetry_multiplicity
 _atom_site_fract_x
 _atom_site_fract_y
 _atom_site_fract_z
 _atom_site_occupancy
  Ca  Ca0  1  0.13103029  0.72758323  0.82232098  1
  Ni  Ni1  1  0.64655659  0.10316057  0.78703880  1
  Ni  Ni2  1  0.35041110  0.90384876  0.21356329  1
  P  P3  1  0.13642704  0.22730721  0.75692906  1
  P  P4  1  0.86036314  0.77936808  0.24368139  1
  P  P5  1  0.62326407  0.64342578  0.65926584  1
  P  P6  1  0.38032073  0.35759411  0.34239697  1
  O  O7  1  0.77950800  0.62102327  0.47606569  1
  O  O8  1  0.20930195  0.37620663  0.51507414  1
  O  O9  1  0.96442376  0.09487490  0.73805406  1
  O  O10  1  0.03786963  0.89239313  0.27924178  1
  O  O11  1  0.58815976  0.25098452  0.46404009  1
  O  O12  1  0.40954743  0.75861083  0.55000953  1
  O  O13  1  0.38328483  0.59749223  0.17530352  1
  O  O14  1  0.60347927  0.40478758  0.81719151  1
  O  O15  1  0.93696339  0.62489521  0.13283822  1
  O  O16  1  0.07231052  0.38839476  0.85772544  1
  O  O17  1  0.66752314  0.93949425  0.12361177  1
  O  O18  1  0.32696830  0.05073675  0.86898244  1
  O  O19  1  0.31792025  0.20152384  0.24686149  1
  O  O20  1  0.71717582  0.78519037  0.75562597  1
