# generated using pymatgen
data_Mg2MnSbO6
_symmetry_space_group_name_H-M   'P 1'
_cell_length_a   5.30255671
_cell_length_b   5.40644341
_cell_length_c   7.54706490
_cell_angle_alpha   90.00000000
_cell_angle_beta   90.00000000
_cell_angle_gamma   94.70612188
_symmetry_Int_Tables_number   1
_chemical_formula_structural   Mg2MnSbO6
_chemical_formula_sum   'Mg4 Mn2 Sb2 O12'
_cell_volume   215.62962373
_cell_formula_units_Z   2
loop_
 _symmetry_equiv_pos_site_id
 _symmetry_equiv_pos_as_xyz
  1  'x, y, z'
loop_
 _atom_site_type_symbol
 _atom_site_label
 _atom_site_symmetry_multiplicity
 _atom_site_fract_x
 _atom_site_fract_y
 _atom_site_fract_z
 _atom_site_occupancy
  Mg  Mg0  1  0.52834432  0.57025057  0.75000000  1
  Mg  Mg1  1  0.47165568  0.42974943  0.25000000  1
  Mg  Mg2  1  0.03279466  0.02701586  0.75000000  1
  Mg  Mg3  1  0.96720534  0.97298414  0.25000000  1
  Mn  Mn4  1  0.50000000  0.00000000  0.50000000  1
  Mn  Mn5  1  0.50000000  0.00000000  0.00000000  1
  Sb  Sb6  1  0.00000000  0.50000000  0.50000000  1
  Sb  Sb7  1  0.00000000  0.50000000  0.00000000  1
  O  O8  1  0.33009414  0.67921245  0.43524892  1
  O  O9  1  0.15810641  0.19917006  0.07147141  1
  O  O10  1  0.66990586  0.32078755  0.93524892  1
  O  O11  1  0.84189359  0.80082994  0.57147141  1
  O  O12  1  0.15810641  0.19917006  0.42852859  1
  O  O13  1  0.84189359  0.80082994  0.92852859  1
  O  O14  1  0.86450460  0.58155718  0.25000000  1
  O  O15  1  0.33009414  0.67921245  0.06475108  1
  O  O16  1  0.39030280  0.92543211  0.75000000  1
  O  O17  1  0.66990586  0.32078755  0.56475108  1
  O  O18  1  0.13549540  0.41844282  0.75000000  1
  O  O19  1  0.60969720  0.07456789  0.25000000  1
