# generated using pymatgen
data_MgMnAsO5
_symmetry_space_group_name_H-M   'P 1'
_cell_length_a   8.04388558
_cell_length_b   6.06687718
_cell_length_c   8.61775962
_cell_angle_alpha   89.98978973
_cell_angle_beta   89.99210653
_cell_angle_gamma   89.99957273
_symmetry_Int_Tables_number   1
_chemical_formula_structural   MgMnAsO5
_chemical_formula_sum   'Mg4 Mn4 As4 O20'
_cell_volume   420.55756768
_cell_formula_units_Z   4
loop_
 _symmetry_equiv_pos_site_id
 _symmetry_equiv_pos_as_xyz
  1  'x, y, z'
loop_
 _atom_site_type_symbol
 _atom_site_label
 _atom_site_symmetry_multiplicity
 _atom_site_fract_x
 _atom_site_fract_y
 _atom_site_fract_z
 _atom_site_occupancy
  Mg  Mg0  1  0.90874909  0.65199309  0.06657534  1
  Mg  Mg1  1  0.59130137  0.34813203  0.56657387  1
  Mg  Mg2  1  0.40872949  0.84813318  0.93344897  1
  Mg  Mg3  1  0.09123965  0.15194424  0.43339679  1
  Mn  Mn4  1  0.99854956  0.49047642  0.74636696  1
  Mn  Mn5  1  0.50151993  0.50937748  0.24633262  1
  Mn  Mn6  1  0.49862978  0.00937853  0.25366848  1
  Mn  Mn7  1  0.00146693  0.99049227  0.75358890  1
  As  As8  1  0.65178747  0.27597115  0.92350670  1
  As  As9  1  0.84837927  0.72406558  0.42346879  1
  As  As10  1  0.15168575  0.22401585  0.07650344  1
  As  As11  1  0.34825988  0.77587005  0.57647806  1
  O  O12  1  0.84085449  0.23542852  0.82909305  1
  O  O13  1  0.65910015  0.76449586  0.32918164  1
  O  O14  1  0.34088433  0.26443726  0.17096534  1
  O  O15  1  0.15905614  0.73538678  0.67078675  1
  O  O16  1  0.51109338  0.34103513  0.78481353  1
  O  O17  1  0.98888107  0.65905355  0.28486137  1
  O  O18  1  0.01109191  0.15908414  0.21511502  1
  O  O19  1  0.48886586  0.84107340  0.71519142  1
  O  O20  1  0.60011252  0.03614581  0.01996718  1
  O  O21  1  0.89977174  0.96395619  0.51986221  1
  O  O22  1  0.10014670  0.46390392  0.98007212  1
  O  O23  1  0.39985377  0.53612969  0.48010982  1
  O  O24  1  0.67955477  0.49040456  0.05459256  1
  O  O25  1  0.82042946  0.50959986  0.55460226  1
  O  O26  1  0.17954668  0.00961602  0.94544101  1
  O  O27  1  0.32036383  0.99048151  0.44542782  1
  O  O28  1  0.89645924  0.74275342  0.84332111  1
  O  O29  1  0.60358087  0.25713911  0.34339176  1
  O  O30  1  0.39652933  0.75719871  0.15667548  1
  O  O31  1  0.10352358  0.24282870  0.65661964  1
