# generated using pymatgen
data_Mn2ZnO4
_symmetry_space_group_name_H-M   'P 1'
_cell_length_a   6.08388072
_cell_length_b   6.05889888
_cell_length_c   24.32905630
_cell_angle_alpha   60.12699372
_cell_angle_beta   59.79048624
_cell_angle_gamma   60.13574061
_symmetry_Int_Tables_number   1
_chemical_formula_structural   Mn2ZnO4
_chemical_formula_sum   'Mn16 Zn8 O32'
_cell_volume   634.37938360
_cell_formula_units_Z   8
loop_
 _symmetry_equiv_pos_site_id
 _symmetry_equiv_pos_as_xyz
  1  'x, y, z'
loop_
 _atom_site_type_symbol
 _atom_site_label
 _atom_site_symmetry_multiplicity
 _atom_site_fract_x
 _atom_site_fract_y
 _atom_site_fract_z
 _atom_site_occupancy
  Mn  Mn0  1  0.49944615  0.49968988  0.12518890  1
  Mn  Mn1  1  0.49766472  0.50085602  0.25015556  1
  Mn  Mn2  1  0.49944615  0.00010837  0.12518890  1
  Mn  Mn3  1  0.13276117  0.11605512  0.53378190  1
  Mn  Mn4  1  0.50219309  0.49930560  0.37490225  1
  Mn  Mn5  1  0.86368137  0.87910588  0.21952672  1
  Mn  Mn6  1  0.13630902  0.11927254  0.78128648  1
  Mn  Mn7  1  0.50219309  0.99889330  0.37490225  1
  Mn  Mn8  1  0.50042049  0.50035555  0.62476145  1
  Mn  Mn9  1  0.86515523  0.88205982  0.46768103  1
  Mn  Mn10  1  0.50042049  0.00017815  0.62476145  1
  Mn  Mn11  1  0.49776299  0.00135694  0.87511831  1
  Mn  Mn12  1  0.49776299  0.50040682  0.87511831  1
  Mn  Mn13  1  0.86680205  0.88359521  0.71650138  1
  Mn  Mn14  1  0.50135597  0.49849044  0.00041604  1
  Mn  Mn15  1  0.86432996  0.88027099  0.96878176  1
  Zn  Zn16  1  0.13964581  0.12043662  0.02987074  1
  Zn  Zn17  1  0.00057467  0.49952837  0.12509165  1
  Zn  Zn18  1  0.13864645  0.11711013  0.28178307  1
  Zn  Zn19  1  0.99808428  0.49766753  0.37664517  1
  Zn  Zn20  1  0.00002350  0.50033640  0.62482568  1
  Zn  Zn21  1  0.49843063  0.50083415  0.49997552  1
  Zn  Zn22  1  0.00273369  0.50207571  0.87327872  1
  Zn  Zn23  1  0.50192692  0.49960030  0.74971762  1
  O  O24  1  0.28191732  0.25351136  0.06341823  1
  O  O25  1  0.28080337  0.25246586  0.17856623  1
  O  O26  1  0.28191732  0.71090039  0.06341823  1
  O  O27  1  0.73705953  0.25554257  0.06296408  1
  O  O28  1  0.26738694  0.74244835  0.18692859  1
  O  O29  1  0.28448278  0.25275277  0.31346953  1
  O  O30  1  0.71456414  0.29245340  0.18682692  1
  O  O31  1  0.28060523  0.25178506  0.42895566  1
  O  O32  1  0.28448278  0.70888633  0.31346953  1
  O  O33  1  0.71528439  0.74638747  0.07298492  1
  O  O34  1  0.72767152  0.25619590  0.31498467  1
  O  O35  1  0.71456414  0.74567478  0.18682692  1
  O  O36  1  0.27582315  0.24120203  0.56831046  1
  O  O37  1  0.27347042  0.75519029  0.42903700  1
  O  O38  1  0.72648511  0.28878979  0.43064791  1
  O  O39  1  0.28277535  0.25057747  0.67901768  1
  O  O40  1  0.27582315  0.70973200  0.56831046  1
  O  O41  1  0.71672715  0.74827991  0.32167801  1
  O  O42  1  0.71970303  0.24995806  0.57009521  1
  O  O43  1  0.72648511  0.76213445  0.43064791  1
  O  O44  1  0.28056875  0.75057245  0.67957134  1
  O  O45  1  0.27255537  0.23792817  0.81928593  1
  O  O46  1  0.72467846  0.29038212  0.68134958  1
  O  O47  1  0.28152205  0.25166170  0.92878814  1
  O  O48  1  0.27255537  0.71237073  0.81928593  1
  O  O49  1  0.71832110  0.75030640  0.57026677  1
  O  O50  1  0.72814993  0.24539242  0.82026631  1
  O  O51  1  0.72467846  0.75954308  0.68134958  1
  O  O52  1  0.27751398  0.74061436  0.93531458  1
  O  O53  1  0.71282047  0.29460919  0.93669945  1
  O  O54  1  0.71801376  0.74839076  0.82130093  1
  O  O55  1  0.71282047  0.74577155  0.93669945  1
