# generated using pymatgen
data_NaLiMg6
_symmetry_space_group_name_H-M   'P 1'
_cell_length_a   6.44055077
_cell_length_b   6.44055024
_cell_length_c   5.24143944
_cell_angle_alpha   90.00000000
_cell_angle_beta   90.00000000
_cell_angle_gamma   119.94227483
_symmetry_Int_Tables_number   1
_chemical_formula_structural   NaLiMg6
_chemical_formula_sum   'Na1 Li1 Mg6'
_cell_volume   188.39939738
_cell_formula_units_Z   1
loop_
 _symmetry_equiv_pos_site_id
 _symmetry_equiv_pos_as_xyz
  1  'x, y, z'
loop_
 _atom_site_type_symbol
 _atom_site_label
 _atom_site_symmetry_multiplicity
 _atom_site_fract_x
 _atom_site_fract_y
 _atom_site_fract_z
 _atom_site_occupancy
  Na  Na0  1  0.33177243  0.16822757  0.75000000  1
  Li  Li1  1  0.16508765  0.33491235  0.25000000  1
  Mg  Mg2  1  0.16502296  0.82892879  0.25000000  1
  Mg  Mg3  1  0.67107121  0.33497704  0.25000000  1
  Mg  Mg4  1  0.66653116  0.83346884  0.25000000  1
  Mg  Mg5  1  0.33158112  0.66478493  0.75000000  1
  Mg  Mg6  1  0.83521507  0.16841888  0.75000000  1
  Mg  Mg7  1  0.83371840  0.66628160  0.75000000  1
