# generated using pymatgen
data_CaMg7
_symmetry_space_group_name_H-M   'P 1'
_cell_length_a   6.64772921
_cell_length_b   6.64772862
_cell_length_c   5.25756312
_cell_angle_alpha   90.00000000
_cell_angle_beta   90.00000000
_cell_angle_gamma   120.00000286
_symmetry_Int_Tables_number   1
_chemical_formula_structural   CaMg7
_chemical_formula_sum   'Ca1 Mg7'
_cell_volume   201.21563207
_cell_formula_units_Z   1
loop_
 _symmetry_equiv_pos_site_id
 _symmetry_equiv_pos_as_xyz
  1  'x, y, z'
loop_
 _atom_site_type_symbol
 _atom_site_label
 _atom_site_symmetry_multiplicity
 _atom_site_fract_x
 _atom_site_fract_y
 _atom_site_fract_z
 _atom_site_occupancy
  Ca  Ca0  1  0.16666700  0.33333300  0.25000000  1
  Mg  Mg1  1  0.17129487  0.83564693  0.25000000  1
  Mg  Mg2  1  0.66435307  0.32870513  0.25000000  1
  Mg  Mg3  1  0.66435307  0.83564693  0.25000000  1
  Mg  Mg4  1  0.33686524  0.16313476  0.75000000  1
  Mg  Mg5  1  0.33686524  0.67373147  0.75000000  1
  Mg  Mg6  1  0.82626853  0.16313476  0.75000000  1
  Mg  Mg7  1  0.83333300  0.66666700  0.75000000  1
