# generated using pymatgen
data_Zn2CuIrO6
_symmetry_space_group_name_H-M   'P 1'
_cell_length_a   5.13003594
_cell_length_b   5.19674488
_cell_length_c   7.73338605
_cell_angle_alpha   90.00000000
_cell_angle_beta   90.57926155
_cell_angle_gamma   90.00000000
_symmetry_Int_Tables_number   1
_chemical_formula_structural   Zn2CuIrO6
_chemical_formula_sum   'Zn4 Cu2 Ir2 O12'
_cell_volume   206.15757637
_cell_formula_units_Z   2
loop_
 _symmetry_equiv_pos_site_id
 _symmetry_equiv_pos_as_xyz
  1  'x, y, z'
loop_
 _atom_site_type_symbol
 _atom_site_label
 _atom_site_symmetry_multiplicity
 _atom_site_fract_x
 _atom_site_fract_y
 _atom_site_fract_z
 _atom_site_occupancy
  Zn  Zn0  1  0.00704025  0.94429221  0.24914060  1
  Zn  Zn1  1  0.49295975  0.44429221  0.25085940  1
  Zn  Zn2  1  0.50704025  0.55570779  0.74914060  1
  Zn  Zn3  1  0.99295975  0.05570779  0.75085940  1
  Cu  Cu4  1  0.00000000  0.50000000  0.00000000  1
  Cu  Cu5  1  0.50000000  0.00000000  0.50000000  1
  Ir  Ir6  1  0.00000000  0.50000000  0.50000000  1
  Ir  Ir7  1  0.50000000  0.00000000  0.00000000  1
  O  O8  1  0.13438263  0.42743930  0.73759571  1
  O  O9  1  0.18220667  0.18357735  0.07126152  1
  O  O10  1  0.17707421  0.18304783  0.42381520  1
  O  O11  1  0.32292579  0.68304783  0.07618480  1
  O  O12  1  0.31779333  0.68357735  0.42873848  1
  O  O13  1  0.36561737  0.92743930  0.76240429  1
  O  O14  1  0.63438263  0.07256070  0.23759571  1
  O  O15  1  0.68220667  0.31642265  0.57126152  1
  O  O16  1  0.67707421  0.31695217  0.92381520  1
  O  O17  1  0.81779333  0.81642265  0.92873848  1
  O  O18  1  0.82292579  0.81695217  0.57618480  1
  O  O19  1  0.86561737  0.57256070  0.26240429  1
