# generated using pymatgen
data_DyFeNi
_symmetry_space_group_name_H-M   'P 1'
_cell_length_a   5.11198321
_cell_length_b   5.11198321
_cell_length_c   5.11198321
_cell_angle_alpha   93.89314365
_cell_angle_beta   55.44100915
_cell_angle_gamma   120.04244755
_symmetry_Int_Tables_number   1
_chemical_formula_structural   DyFeNi
_chemical_formula_sum   'Dy2 Fe2 Ni2'
_cell_volume   90.75493778
_cell_formula_units_Z   2
loop_
 _symmetry_equiv_pos_site_id
 _symmetry_equiv_pos_as_xyz
  1  'x, y, z'
loop_
 _atom_site_type_symbol
 _atom_site_label
 _atom_site_symmetry_multiplicity
 _atom_site_fract_x
 _atom_site_fract_y
 _atom_site_fract_z
 _atom_site_occupancy
  Dy  Dy0  1  0.50000000  0.74471277  0.75528723  1
  Dy  Dy1  1  0.00000000  0.00528723  0.99471277  1
  Fe  Fe2  1  0.75000000  0.37500000  0.87500000  1
  Fe  Fe3  1  0.25000000  0.37500000  0.37500000  1
  Ni  Ni4  1  0.25000000  0.87500000  0.37500000  1
  Ni  Ni5  1  0.75000000  0.37500000  0.37500000  1
