# generated using pymatgen
data_CaTiAsO5
_symmetry_space_group_name_H-M   'P 1'
_cell_length_a   7.98253609
_cell_length_b   5.97428877
_cell_length_c   9.25477289
_cell_angle_alpha   88.40384365
_cell_angle_beta   89.90360712
_cell_angle_gamma   90.01036327
_symmetry_Int_Tables_number   1
_chemical_formula_structural   CaTiAsO5
_chemical_formula_sum   'Ca4 Ti4 As4 O20'
_cell_volume   441.18800494
_cell_formula_units_Z   4
loop_
 _symmetry_equiv_pos_site_id
 _symmetry_equiv_pos_as_xyz
  1  'x, y, z'
loop_
 _atom_site_type_symbol
 _atom_site_label
 _atom_site_symmetry_multiplicity
 _atom_site_fract_x
 _atom_site_fract_y
 _atom_site_fract_z
 _atom_site_occupancy
  Ca  Ca0  1  0.94086457  0.76390794  0.05798047  1
  Ca  Ca1  1  0.59070356  0.25051458  0.61828527  1
  Ca  Ca2  1  0.44262506  0.73745698  0.94195429  1
  Ca  Ca3  1  0.09188264  0.24961097  0.38183759  1
  Ti  Ti4  1  0.99040573  0.45876355  0.73207985  1
  Ti  Ti5  1  0.49709556  0.52128075  0.27402225  1
  Ti  Ti6  1  0.49149103  0.04077471  0.26806352  1
  Ti  Ti7  1  0.99677172  0.97840539  0.72578673  1
  As  As8  1  0.67907485  0.29092259  0.98120803  1
  As  As9  1  0.85023644  0.72832640  0.42840145  1
  As  As10  1  0.17788443  0.20995207  0.01875755  1
  As  As11  1  0.34979964  0.77105250  0.57151830  1
  O  O12  1  0.84198396  0.21031740  0.75828348  1
  O  O13  1  0.65164840  0.77471567  0.35492485  1
  O  O14  1  0.34338939  0.28935028  0.24116535  1
  O  O15  1  0.15169922  0.72477612  0.64548043  1
  O  O16  1  0.52647964  0.37745718  0.85224193  1
  O  O17  1  0.98324207  0.63607453  0.29898268  1
  O  O18  1  0.02591310  0.12230958  0.14872053  1
  O  O19  1  0.48324399  0.86357493  0.70057222  1
  O  O20  1  0.56836777  0.04538083  0.07033601  1
  O  O21  1  0.90935904  0.97617028  0.50586988  1
  O  O22  1  0.06590703  0.45438448  0.93036977  1
  O  O23  1  0.40767164  0.52382171  0.49358497  1
  O  O24  1  0.63635813  0.53180018  0.10191080  1
  O  O25  1  0.83374782  0.51103631  0.55335341  1
  O  O26  1  0.13457599  0.96865517  0.89843387  1
  O  O27  1  0.33365815  0.98902052  0.44625787  1
  O  O28  1  0.87160937  0.74858654  0.79937542  1
  O  O29  1  0.62966672  0.24157606  0.35110253  1
  O  O30  1  0.37301641  0.75181688  0.19974065  1
  O  O31  1  0.12962492  0.25820892  0.64939805  1
