# generated using pymatgen
data_Zn3Fe4(MoO4)6
_symmetry_space_group_name_H-M   'P 1'
_cell_length_a   7.09255695
_cell_length_b   8.30332566
_cell_length_c   10.32573214
_cell_angle_alpha   104.44277856
_cell_angle_beta   104.54093541
_cell_angle_gamma   102.72918517
_symmetry_Int_Tables_number   1
_chemical_formula_structural   Zn3Fe4(MoO4)6
_chemical_formula_sum   'Zn3 Fe4 Mo6 O24'
_cell_volume   543.42909840
_cell_formula_units_Z   1
loop_
 _symmetry_equiv_pos_site_id
 _symmetry_equiv_pos_as_xyz
  1  'x, y, z'
loop_
 _atom_site_type_symbol
 _atom_site_label
 _atom_site_symmetry_multiplicity
 _atom_site_fract_x
 _atom_site_fract_y
 _atom_site_fract_z
 _atom_site_occupancy
  Zn  Zn0  1  0.00000000  0.50000000  0.50000000  1
  Zn  Zn1  1  0.28575040  0.28486894  0.79064571  1
  Zn  Zn2  1  0.71424960  0.71513106  0.20935429  1
  Fe  Fe3  1  0.37736124  0.95681024  0.60756290  1
  Fe  Fe4  1  0.62263876  0.04318976  0.39243710  1
  Fe  Fe5  1  0.04827600  0.21394259  0.00759255  1
  Fe  Fe6  1  0.95172400  0.78605741  0.99240745  1
  Mo  Mo7  1  0.77867512  0.33988322  0.72257487  1
  Mo  Mo8  1  0.22132488  0.66011678  0.27742513  1
  Mo  Mo9  1  0.89493649  0.90530149  0.67059465  1
  Mo  Mo10  1  0.40440106  0.72693351  0.87877753  1
  Mo  Mo11  1  0.10506351  0.09469851  0.32940535  1
  Mo  Mo12  1  0.59559894  0.27306649  0.12122247  1
  O  O13  1  0.87636252  0.68618735  0.58410660  1
  O  O14  1  0.12363748  0.31381265  0.41589340  1
  O  O15  1  0.27818965  0.50810323  0.75330527  1
  O  O16  1  0.72181035  0.49189677  0.24669473  1
  O  O17  1  0.79826806  0.30403839  0.53671880  1
  O  O18  1  0.20173194  0.69596161  0.46328120  1
  O  O19  1  0.67269586  0.96134039  0.58233741  1
  O  O20  1  0.32730414  0.03865961  0.41766259  1
  O  O21  1  0.64005891  0.74219465  0.01263292  1
  O  O22  1  0.35994109  0.25780535  0.98736708  1
  O  O23  1  0.48813844  0.77444158  0.28059571  1
  O  O24  1  0.51186156  0.22555842  0.71940429  1
  O  O25  1  0.12541066  0.03117948  0.65320248  1
  O  O26  1  0.07846084  0.06753447  0.14643023  1
  O  O27  1  0.92153916  0.93246553  0.85356977  1
  O  O28  1  0.55224526  0.13556349  0.22404786  1
  O  O29  1  0.44775474  0.86443651  0.77595214  1
  O  O30  1  0.18316203  0.44260238  0.17187933  1
  O  O31  1  0.81683797  0.55739762  0.82812067  1
  O  O32  1  0.99230064  0.26523242  0.81970440  1
  O  O33  1  0.00769936  0.73476758  0.18029560  1
  O  O34  1  0.23707524  0.78822209  0.96832959  1
  O  O35  1  0.76292476  0.21177791  0.03167041  1
  O  O36  1  0.87458934  0.96882052  0.34679752  1
