# generated using pymatgen
data_YMg6Cd
_symmetry_space_group_name_H-M   'P 1'
_cell_length_a   6.63577117
_cell_length_b   6.47519396
_cell_length_c   5.13266554
_cell_angle_alpha   90.00000000
_cell_angle_beta   90.00000000
_cell_angle_gamma   119.20269536
_symmetry_Int_Tables_number   1
_chemical_formula_structural   YMg6Cd
_chemical_formula_sum   'Y1 Mg6 Cd1'
_cell_volume   192.50907509
_cell_formula_units_Z   1
loop_
 _symmetry_equiv_pos_site_id
 _symmetry_equiv_pos_as_xyz
  1  'x, y, z'
loop_
 _atom_site_type_symbol
 _atom_site_label
 _atom_site_symmetry_multiplicity
 _atom_site_fract_x
 _atom_site_fract_y
 _atom_site_fract_z
 _atom_site_occupancy
  Y  Y0  1  0.16141209  0.33070554  0.25000000  1
  Mg  Mg1  1  0.66264490  0.32751937  0.25000000  1
  Mg  Mg2  1  0.66264490  0.83512453  0.25000000  1
  Mg  Mg3  1  0.33715256  0.16386099  0.75000000  1
  Mg  Mg4  1  0.33715257  0.67329257  0.75000000  1
  Mg  Mg5  1  0.82811572  0.16405836  0.75000000  1
  Mg  Mg6  1  0.83619953  0.66810027  0.75000000  1
  Cd  Cd7  1  0.17467774  0.83733837  0.25000000  1
