# generated using pymatgen
data_Mg6GaSn
_symmetry_space_group_name_H-M   'P 1'
_cell_length_a   6.24855880
_cell_length_b   6.24855831
_cell_length_c   5.32203333
_cell_angle_alpha   90.00000000
_cell_angle_beta   90.00000000
_cell_angle_gamma   120.41016177
_symmetry_Int_Tables_number   1
_chemical_formula_structural   Mg6GaSn
_chemical_formula_sum   'Mg6 Ga1 Sn1'
_cell_volume   179.20827732
_cell_formula_units_Z   1
loop_
 _symmetry_equiv_pos_site_id
 _symmetry_equiv_pos_as_xyz
  1  'x, y, z'
loop_
 _atom_site_type_symbol
 _atom_site_label
 _atom_site_symmetry_multiplicity
 _atom_site_fract_x
 _atom_site_fract_y
 _atom_site_fract_z
 _atom_site_occupancy
  Mg  Mg0  1  0.16754835  0.83848496  0.25000000  1
  Mg  Mg1  1  0.66151504  0.33245165  0.25000000  1
  Mg  Mg2  1  0.66700963  0.83299037  0.25000000  1
  Mg  Mg3  1  0.33444281  0.66662237  0.75000000  1
  Mg  Mg4  1  0.83337763  0.16555719  0.75000000  1
  Mg  Mg5  1  0.83272514  0.66727486  0.75000000  1
  Ga  Ga6  1  0.33684798  0.16315202  0.75000000  1
  Sn  Sn7  1  0.16653342  0.33346658  0.25000000  1
