# generated using pymatgen
data_Te4Mo3S2
_symmetry_space_group_name_H-M   'P 1'
_cell_length_a   3.42429132
_cell_length_b   3.42413917
_cell_length_c   31.59260593
_cell_angle_alpha   90.00000000
_cell_angle_beta   90.00000000
_cell_angle_gamma   120.00146993
_symmetry_Int_Tables_number   1
_chemical_formula_structural   Te4Mo3S2
_chemical_formula_sum   'Te4 Mo3 S2'
_cell_volume   320.79808077
_cell_formula_units_Z   1
loop_
 _symmetry_equiv_pos_site_id
 _symmetry_equiv_pos_as_xyz
  1  'x, y, z'
loop_
 _atom_site_type_symbol
 _atom_site_label
 _atom_site_symmetry_multiplicity
 _atom_site_fract_x
 _atom_site_fract_y
 _atom_site_fract_z
 _atom_site_occupancy
  Te  Te0  1  0.66664772  0.33329445  0.05679011  1
  Te  Te1  1  0.66664229  0.33328357  0.51939708  1
  Te  Te2  1  0.66664229  0.33328357  0.17456792  1
  Te  Te3  1  0.66664772  0.33329445  0.63717389  1
  Mo  Mo4  1  0.33331221  0.66662443  0.11565534  1
  Mo  Mo5  1  0.33331221  0.66662443  0.57830966  1
  Mo  Mo6  1  0.66668382  0.33336763  0.34698200  1
  S  S7  1  0.33335637  0.66671374  0.39432282  1
  S  S8  1  0.33335637  0.66671374  0.29964218  1
