# generated using pymatgen
data_Pr2AlNO3
_symmetry_space_group_name_H-M   'P 1'
_cell_length_a   3.75541905
_cell_length_b   3.75541905
_cell_length_c   6.86984778
_cell_angle_alpha   105.86229266
_cell_angle_beta   105.86229266
_cell_angle_gamma   90.00000000
_symmetry_Int_Tables_number   1
_chemical_formula_structural   Pr2AlNO3
_chemical_formula_sum   'Pr2 Al1 N1 O3'
_cell_volume   89.35583657
_cell_formula_units_Z   1
loop_
 _symmetry_equiv_pos_site_id
 _symmetry_equiv_pos_as_xyz
  1  'x, y, z'
loop_
 _atom_site_type_symbol
 _atom_site_label
 _atom_site_symmetry_multiplicity
 _atom_site_fract_x
 _atom_site_fract_y
 _atom_site_fract_z
 _atom_site_occupancy
  Pr  Pr0  1  0.52006492  0.52006492  0.04012985  1
  Pr  Pr1  1  0.80849056  0.80849056  0.61698112  1
  Al  Al2  1  0.15776980  0.15776980  0.31553961  1
  N  N3  1  0.99746549  0.99746549  0.99493099  1
  O  O4  1  0.16993800  0.66993800  0.33987600  1
  O  O5  1  0.66993800  0.16993800  0.33987600  1
  O  O6  1  0.32903322  0.32903322  0.65806644  1
