# generated using pymatgen
data_SrCaMg6
_symmetry_space_group_name_H-M   'P 1'
_cell_length_a   6.89255365
_cell_length_b   6.89255294
_cell_length_c   5.35104122
_cell_angle_alpha   90.00000000
_cell_angle_beta   90.00000000
_cell_angle_gamma   115.69435350
_symmetry_Int_Tables_number   1
_chemical_formula_structural   SrCaMg6
_chemical_formula_sum   'Sr1 Ca1 Mg6'
_cell_volume   229.07678143
_cell_formula_units_Z   1
loop_
 _symmetry_equiv_pos_site_id
 _symmetry_equiv_pos_as_xyz
  1  'x, y, z'
loop_
 _atom_site_type_symbol
 _atom_site_label
 _atom_site_symmetry_multiplicity
 _atom_site_fract_x
 _atom_site_fract_y
 _atom_site_fract_z
 _atom_site_occupancy
  Sr  Sr0  1  0.39388650  0.10611350  0.75000000  1
  Ca  Ca1  1  0.10379760  0.39620240  0.25000000  1
  Mg  Mg2  1  0.05266271  0.87705266  0.25000000  1
  Mg  Mg3  1  0.62294734  0.44733729  0.25000000  1
  Mg  Mg4  1  0.59068920  0.90931080  0.25000000  1
  Mg  Mg5  1  0.44558869  0.62468873  0.75000000  1
  Mg  Mg6  1  0.87531127  0.05441131  0.75000000  1
  Mg  Mg7  1  0.91511669  0.58488330  0.75000000  1
