# generated using pymatgen
data_SrMg15
_symmetry_space_group_name_H-M   'P 1'
_cell_length_a   6.60946726
_cell_length_b   6.60946669
_cell_length_c   10.42288207
_cell_angle_alpha   90.00000000
_cell_angle_beta   90.00000000
_cell_angle_gamma   120.00000287
_symmetry_Int_Tables_number   1
_chemical_formula_structural   SrMg15
_chemical_formula_sum   'Sr1 Mg15'
_cell_volume   394.32228036
_cell_formula_units_Z   1
loop_
 _symmetry_equiv_pos_site_id
 _symmetry_equiv_pos_as_xyz
  1  'x, y, z'
loop_
 _atom_site_type_symbol
 _atom_site_label
 _atom_site_symmetry_multiplicity
 _atom_site_fract_x
 _atom_site_fract_y
 _atom_site_fract_z
 _atom_site_occupancy
  Sr  Sr0  1  0.16666700  0.33333300  0.12500000  1
  Mg  Mg1  1  0.16666700  0.33333300  0.62500000  1
  Mg  Mg2  1  0.17613837  0.83806868  0.12500000  1
  Mg  Mg3  1  0.16502499  0.83251200  0.62500000  1
  Mg  Mg4  1  0.66193132  0.32386163  0.12500000  1
  Mg  Mg5  1  0.66748800  0.33497501  0.62500000  1
  Mg  Mg6  1  0.66193132  0.83806868  0.12500000  1
  Mg  Mg7  1  0.66748800  0.83251200  0.62500000  1
  Mg  Mg8  1  0.33699779  0.16300221  0.38456844  1
  Mg  Mg9  1  0.33699779  0.16300221  0.86543156  1
  Mg  Mg10  1  0.33699779  0.67399658  0.38456844  1
  Mg  Mg11  1  0.33699779  0.67399658  0.86543156  1
  Mg  Mg12  1  0.82600342  0.16300221  0.38456844  1
  Mg  Mg13  1  0.82600342  0.16300221  0.86543156  1
  Mg  Mg14  1  0.83333300  0.66666700  0.37138242  1
  Mg  Mg15  1  0.83333300  0.66666700  0.87861758  1
