# generated using pymatgen
data_YbCl3
_symmetry_space_group_name_H-M   'P 1'
_cell_length_a   5.76515156
_cell_length_b   6.70127019
_cell_length_c   7.86583120
_cell_angle_alpha   64.78770821
_cell_angle_beta   75.98832876
_cell_angle_gamma   55.36189609
_symmetry_Int_Tables_number   1
_chemical_formula_structural   YbCl3
_chemical_formula_sum   'Yb2 Cl6'
_cell_volume   226.20729409
_cell_formula_units_Z   2
loop_
 _symmetry_equiv_pos_site_id
 _symmetry_equiv_pos_as_xyz
  1  'x, y, z'
loop_
 _atom_site_type_symbol
 _atom_site_label
 _atom_site_symmetry_multiplicity
 _atom_site_fract_x
 _atom_site_fract_y
 _atom_site_fract_z
 _atom_site_occupancy
  Yb  Yb0  1  0.00000000  0.15943994  0.68112012  1
  Yb  Yb1  1  1.00000000  0.84056006  0.31887988  1
  Cl  Cl2  1  0.25138786  0.07197503  0.35206008  1
  Cl  Cl3  1  0.74861214  0.92802497  0.64793992  1
  Cl  Cl4  1  0.74861214  0.57596489  0.35206008  1
  Cl  Cl5  1  0.25138786  0.42403511  0.64793992  1
  Cl  Cl6  1  0.25869308  0.74540841  0.00000000  1
  Cl  Cl7  1  0.74130692  0.25459159  1.00000000  1
