# generated using pymatgen
data_La4Al6O15
_symmetry_space_group_name_H-M   'P 1'
_cell_length_a   5.06000761
_cell_length_b   6.95949514
_cell_length_c   21.22585307
_cell_angle_alpha   87.03149515
_cell_angle_beta   90.13821872
_cell_angle_gamma   68.80892143
_symmetry_Int_Tables_number   1
_chemical_formula_structural   La4Al6O15
_chemical_formula_sum   'La8 Al12 O30'
_cell_volume   695.81218458
_cell_formula_units_Z   2
loop_
 _symmetry_equiv_pos_site_id
 _symmetry_equiv_pos_as_xyz
  1  'x, y, z'
loop_
 _atom_site_type_symbol
 _atom_site_label
 _atom_site_symmetry_multiplicity
 _atom_site_fract_x
 _atom_site_fract_y
 _atom_site_fract_z
 _atom_site_occupancy
  La  La0  1  0.32692223  0.72590481  0.79892274  1
  La  La1  1  0.35387272  0.71382701  0.60201336  1
  La  La2  1  0.95155552  0.72328412  0.29885643  1
  La  La3  1  0.92840492  0.71301487  0.10157513  1
  La  La4  1  0.07272883  0.28837622  0.89843047  1
  La  La5  1  0.05022976  0.27672107  0.70123202  1
  La  La6  1  0.64682829  0.28494694  0.39854997  1
  La  La7  1  0.67504892  0.27494461  0.20143666  1
  Al  Al8  1  0.79354728  0.83005657  0.91421059  1
  Al  Al9  1  0.80685669  0.84277436  0.69476311  1
  Al  Al10  1  0.34673803  0.67378407  0.97380945  1
  Al  Al11  1  0.38002726  0.82681292  0.41433536  1
  Al  Al12  1  0.35140668  0.84112643  0.19445963  1
  Al  Al13  1  0.98115930  0.67172729  0.47393860  1
  Al  Al14  1  0.01633438  0.32736524  0.52665175  1
  Al  Al15  1  0.65014273  0.15975547  0.80559635  1
  Al  Al16  1  0.61851988  0.17199293  0.58622233  1
  Al  Al17  1  0.65415234  0.32809772  0.02626863  1
  Al  Al18  1  0.19430589  0.15700968  0.30561115  1
  Al  Al19  1  0.20733440  0.17160576  0.08589147  1
  O  O20  1  0.86700106  0.94141968  0.62026362  1
  O  O21  1  0.43933071  0.83921901  0.91947584  1
  O  O22  1  0.45725711  0.85059470  0.69757924  1
  O  O23  1  0.97807300  0.76540189  0.98786576  1
  O  O24  1  0.19155693  0.93995416  0.11995482  1
  O  O25  1  0.72366131  0.83837085  0.41977087  1
  O  O26  1  0.98410183  0.63610924  0.86273526  1
  O  O27  1  0.69353972  0.84912350  0.19735007  1
  O  O28  1  0.25956010  0.76299532  0.48791912  1
  O  O29  1  0.08341549  0.60243184  0.70768629  1
  O  O30  1  0.89441171  0.59134744  0.55091535  1
  O  O31  1  0.48185118  0.40925437  0.94977550  1
  O  O32  1  0.38330879  0.63185665  0.36308613  1
  O  O33  1  0.31639487  0.60027496  0.20781465  1
  O  O34  1  0.68560402  0.40055365  0.79240013  1
  O  O35  1  0.61554460  0.36651450  0.63761284  1
  O  O36  1  0.51907366  0.59270561  0.05026406  1
  O  O37  1  0.10192916  0.40775017  0.44962737  1
  O  O38  1  0.91819787  0.39748083  0.29249324  1
  O  O39  1  0.73801475  0.23611468  0.51261712  1
  O  O40  1  0.30815945  0.15163048  0.80267801  1
  O  O41  1  0.01633127  0.36550394  0.13733406  1
  O  O42  1  0.27429260  0.16126322  0.58085828  1
  O  O43  1  0.80948551  0.06160152  0.88019705  1
  O  O44  1  0.87539330  0.00122059  0.75024159  1
  O  O45  1  0.02284506  0.23645806  0.01220725  1
  O  O46  1  0.54393376  0.14920760  0.30283460  1
  O  O47  1  0.56139578  0.16270177  0.08059279  1
  O  O48  1  0.13266993  0.05729969  0.37984987  1
  O  O49  1  0.12625742  0.99896096  0.24994802  1
