# generated using pymatgen
data_Te2Mo3S4
_symmetry_space_group_name_H-M   'P 1'
_cell_length_a   3.30457044
_cell_length_b   3.30451005
_cell_length_c   30.47783301
_cell_angle_alpha   90.00000000
_cell_angle_beta   90.00000000
_cell_angle_gamma   120.00060451
_symmetry_Int_Tables_number   1
_chemical_formula_structural   Te2Mo3S4
_chemical_formula_sum   'Te2 Mo3 S4'
_cell_volume   288.22666884
_cell_formula_units_Z   1
loop_
 _symmetry_equiv_pos_site_id
 _symmetry_equiv_pos_as_xyz
  1  'x, y, z'
loop_
 _atom_site_type_symbol
 _atom_site_label
 _atom_site_symmetry_multiplicity
 _atom_site_fract_x
 _atom_site_fract_y
 _atom_site_fract_z
 _atom_site_occupancy
  Te  Te0  1  0.33335851  0.66671803  0.40982049  1
  Te  Te1  1  0.33335851  0.66671803  0.28414451  1
  Mo  Mo2  1  0.33330509  0.66661018  0.11560791  1
  Mo  Mo3  1  0.33330509  0.66661018  0.57835709  1
  Mo  Mo4  1  0.66668620  0.33337240  0.34698200  1
  S  S5  1  0.66664746  0.33329392  0.06543120  1
  S  S6  1  0.66664633  0.33329167  0.52813706  1
  S  S7  1  0.66664633  0.33329167  0.16582794  1
  S  S8  1  0.66664746  0.33329392  0.62853280  1
