# generated using pymatgen
data_Te4Mo3S2
_symmetry_space_group_name_H-M   'P 1'
_cell_length_a   3.42173405
_cell_length_b   3.42151930
_cell_length_c   31.71115082
_cell_angle_alpha   89.99971041
_cell_angle_beta   90.00000000
_cell_angle_gamma   120.00207616
_symmetry_Int_Tables_number   1
_chemical_formula_structural   Te4Mo3S2
_chemical_formula_sum   'Te4 Mo3 S2'
_cell_volume   321.51318984
_cell_formula_units_Z   1
loop_
 _symmetry_equiv_pos_site_id
 _symmetry_equiv_pos_as_xyz
  1  'x, y, z'
loop_
 _atom_site_type_symbol
 _atom_site_label
 _atom_site_symmetry_multiplicity
 _atom_site_fract_x
 _atom_site_fract_y
 _atom_site_fract_z
 _atom_site_occupancy
  Te  Te0  1  0.33334671  0.66669441  0.40565592  1
  Te  Te1  1  0.66665087  0.33330074  0.51961302  1
  Te  Te2  1  0.66664942  0.33329784  0.63720518  1
  Te  Te3  1  0.33336514  0.66673129  0.28806383  1
  Mo  Mo4  1  0.33333813  0.66667626  0.11564995  1
  Mo  Mo5  1  0.33331350  0.66662701  0.57844240  1
  Mo  Mo6  1  0.66668210  0.33336421  0.34684201  1
  S  S7  1  0.66662819  0.33325538  0.06851960  1
  S  S8  1  0.66662693  0.33325287  0.16284910  1
