# generated using pymatgen
data_Te2Mo3S4
_symmetry_space_group_name_H-M   'P 1'
_cell_length_a   3.30114364
_cell_length_b   3.30116117
_cell_length_c   30.46139797
_cell_angle_alpha   90.00009188
_cell_angle_beta   90.00000000
_cell_angle_gamma   119.99982430
_symmetry_Int_Tables_number   1
_chemical_formula_structural   Te2Mo3S4
_chemical_formula_sum   'Te2 Mo3 S4'
_cell_volume   287.48314124
_cell_formula_units_Z   1
loop_
 _symmetry_equiv_pos_site_id
 _symmetry_equiv_pos_as_xyz
  1  'x, y, z'
loop_
 _atom_site_type_symbol
 _atom_site_label
 _atom_site_symmetry_multiplicity
 _atom_site_fract_x
 _atom_site_fract_y
 _atom_site_fract_z
 _atom_site_occupancy
  Te  Te0  1  0.66665083  0.33330066  0.51543365  1
  Te  Te1  1  0.66664488  0.33328876  0.64121990  1
  Mo  Mo2  1  0.33330682  0.66661364  0.11564505  1
  Mo  Mo3  1  0.33331315  0.66662631  0.57836343  1
  Mo  Mo4  1  0.66670975  0.33341950  0.34695466  1
  S  S5  1  0.33334964  0.66670028  0.39717144  1
  S  S6  1  0.66663684  0.33327269  0.06540021  1
  S  S7  1  0.66663823  0.33327546  0.16590752  1
  S  S8  1  0.33335084  0.66670269  0.29674514  1
