# generated using pymatgen
data_Te2Mo2WS4
_symmetry_space_group_name_H-M   'P 1'
_cell_length_a   3.30011345
_cell_length_b   3.29992545
_cell_length_c   30.26710624
_cell_angle_alpha   90.00384617
_cell_angle_beta   89.99997539
_cell_angle_gamma   120.00180597
_symmetry_Int_Tables_number   1
_chemical_formula_structural   Te2Mo2WS4
_chemical_formula_sum   'Te2 Mo2 W1 S4'
_cell_volume   285.44775178
_cell_formula_units_Z   1
loop_
 _symmetry_equiv_pos_site_id
 _symmetry_equiv_pos_as_xyz
  1  'x, y, z'
loop_
 _atom_site_type_symbol
 _atom_site_label
 _atom_site_symmetry_multiplicity
 _atom_site_fract_x
 _atom_site_fract_y
 _atom_site_fract_z
 _atom_site_occupancy
  Te  Te0  1  0.66662574  0.33325078  0.05235221  1
  Te  Te1  1  0.66669093  0.33338126  0.17887514  1
  Mo  Mo2  1  0.33331408  0.66662750  0.11559060  1
  Mo  Mo3  1  0.66673237  0.33346532  0.34704914  1
  W  W4  1  0.33327489  0.66654907  0.57831216  1
  S  S5  1  0.33338654  0.66677409  0.39755288  1
  S  S6  1  0.66659399  0.33318743  0.52757542  1
  S  S7  1  0.66662978  0.33325876  0.62903709  1
  S  S8  1  0.33335269  0.66670579  0.29649637  1
