# generated using pymatgen
data_Te2Mo2WS4
_symmetry_space_group_name_H-M   'P 1'
_cell_length_a   3.29871668
_cell_length_b   3.29869684
_cell_length_c   30.52455469
_cell_angle_alpha   90.00006942
_cell_angle_beta   90.00000000
_cell_angle_gamma   120.00019892
_symmetry_Int_Tables_number   1
_chemical_formula_structural   Te2Mo2WS4
_chemical_formula_sum   'Te2 Mo2 W1 S4'
_cell_volume   287.65141818
_cell_formula_units_Z   1
loop_
 _symmetry_equiv_pos_site_id
 _symmetry_equiv_pos_as_xyz
  1  'x, y, z'
loop_
 _atom_site_type_symbol
 _atom_site_label
 _atom_site_symmetry_multiplicity
 _atom_site_fract_x
 _atom_site_fract_y
 _atom_site_fract_z
 _atom_site_occupancy
  Te  Te0  1  0.33335318  0.66670736  0.40980076  1
  Te  Te1  1  0.33335628  0.66671356  0.28413178  1
  Mo  Mo2  1  0.33330176  0.66660353  0.11560248  1
  Mo  Mo3  1  0.66669301  0.33338601  0.34697522  1
  W  W4  1  0.33330343  0.66660686  0.57836937  1
  S  S5  1  0.66665183  0.33330265  0.06549720  1
  S  S6  1  0.66664323  0.33328545  0.52797134  1
  S  S7  1  0.66665222  0.33330343  0.16574873  1
  S  S8  1  0.66664608  0.33329115  0.62874411  1
