# generated using pymatgen
data_TeMoWSeS2
_symmetry_space_group_name_H-M   'P 1'
_cell_length_a   3.30627879
_cell_length_b   3.30626739
_cell_length_c   39.14849445
_cell_angle_alpha   90.00048628
_cell_angle_beta   90.00000000
_cell_angle_gamma   120.00011399
_symmetry_Int_Tables_number   1
_chemical_formula_structural   TeMoWSeS2
_chemical_formula_sum   'Te2 Mo2 W2 Se2 S4'
_cell_volume   370.61470081
_cell_formula_units_Z   2
loop_
 _symmetry_equiv_pos_site_id
 _symmetry_equiv_pos_as_xyz
  1  'x, y, z'
loop_
 _atom_site_type_symbol
 _atom_site_label
 _atom_site_symmetry_multiplicity
 _atom_site_fract_x
 _atom_site_fract_y
 _atom_site_fract_z
 _atom_site_occupancy
  Te  Te0  1  0.66660387  0.33320673  0.42017123  1
  Te  Te1  1  0.66662610  0.33325119  0.51789470  1
  Mo  Mo2  1  0.33336434  0.66672868  0.09391011  1
  Mo  Mo3  1  0.33327057  0.66654114  0.46904869  1
  W  W4  1  0.66665894  0.33331787  0.28124829  1
  W  W5  1  0.66667149  0.33334299  0.65873541  1
  Se  Se6  1  0.33335616  0.66671333  0.70188698  1
  Se  Se7  1  0.33333396  0.66666891  0.61554893  1
  S  S8  1  0.33333505  0.66667110  0.32043780  1
  S  S9  1  0.66672531  0.33344962  0.05485728  1
  S  S10  1  0.66673524  0.33346947  0.13296741  1
  S  S11  1  0.33331898  0.66663896  0.24204117  1
