# generated using pymatgen
data_DyP3H5O6
_symmetry_space_group_name_H-M   'P 1'
_cell_length_a   5.78744537
_cell_length_b   8.16268923
_cell_length_c   11.06339356
_cell_angle_alpha   90.94741670
_cell_angle_beta   74.83745046
_cell_angle_gamma   110.76317681
_symmetry_Int_Tables_number   1
_chemical_formula_structural   DyP3H5O6
_chemical_formula_sum   'Dy2 P6 H10 O12'
_cell_volume   470.00638207
_cell_formula_units_Z   2
loop_
 _symmetry_equiv_pos_site_id
 _symmetry_equiv_pos_as_xyz
  1  'x, y, z'
loop_
 _atom_site_type_symbol
 _atom_site_label
 _atom_site_symmetry_multiplicity
 _atom_site_fract_x
 _atom_site_fract_y
 _atom_site_fract_z
 _atom_site_occupancy
  Dy  Dy0  1  0.49995825  0.50000000  0.50000000  1
  Dy  Dy1  1  0.99946361  1.00000000  0.00000000  1
  P  P2  1  0.18607122  0.04048584  0.64746522  1
  P  P3  1  0.79305059  0.95951416  0.35253478  1
  P  P4  1  0.12159881  0.53472078  0.29135596  1
  P  P5  1  0.87823399  0.46527922  0.70864404  1
  P  P6  1  0.41192590  0.74030969  0.91633861  1
  P  P7  1  0.58795483  0.25969031  0.08366139  1
  H  H8  1  0.22392226  0.72114393  0.27400224  1
  H  H9  1  0.77678057  0.27885607  0.72599776  1
  H  H10  1  0.32116896  0.55516636  0.91283937  1
  H  H11  1  0.67884197  0.44483364  0.08716063  1
  H  H12  1  0.15537034  0.47904223  0.16827623  1
  H  H13  1  0.84460434  0.52095777  0.83172377  1
  H  H14  1  0.50866945  0.80436190  0.78765382  1
  H  H15  1  0.49196136  0.19563810  0.21234618  1
  H  H16  1  0.33834820  0.93167030  0.61925018  1
  H  H17  1  0.02592808  0.06832970  0.38074982  1
  O  O18  1  0.63290124  0.79435660  0.97711215  1
  O  O19  1  0.18426569  0.79442806  0.97714609  1
  O  O20  1  0.36698372  0.20557194  0.02285391  1
  O  O21  1  0.81565679  0.20564340  0.02288785  1
  O  O22  1  0.13733366  0.06260639  0.78832934  1
  O  O23  1  0.86305661  0.93739361  0.21167066  1
  O  O24  1  0.32750439  0.20533584  0.55552787  1
  O  O25  1  0.67769642  0.79466416  0.44447213  1
  O  O26  1  0.28269780  0.47269170  0.35503108  1
  O  O27  1  0.83500335  0.47335751  0.35496459  1
  O  O28  1  0.71661042  0.52664249  0.64503541  1
  O  O29  1  0.16503717  0.52730829  0.64496892  1
