# generated using pymatgen
data_TeMoWSeS2
_symmetry_space_group_name_H-M   'P 1'
_cell_length_a   3.30560126
_cell_length_b   3.30572537
_cell_length_c   39.29545500
_cell_angle_alpha   89.99960278
_cell_angle_beta   90.00000000
_cell_angle_gamma   119.99875802
_symmetry_Int_Tables_number   1
_chemical_formula_structural   TeMoWSeS2
_chemical_formula_sum   'Te2 Mo2 W2 Se2 S4'
_cell_volume   371.87383741
_cell_formula_units_Z   2
loop_
 _symmetry_equiv_pos_site_id
 _symmetry_equiv_pos_as_xyz
  1  'x, y, z'
loop_
 _atom_site_type_symbol
 _atom_site_label
 _atom_site_symmetry_multiplicity
 _atom_site_fract_x
 _atom_site_fract_y
 _atom_site_fract_z
 _atom_site_occupancy
  Te  Te0  1  0.33327661  0.66655423  0.32954504  1
  Te  Te1  1  0.33330748  0.66661596  0.23217239  1
  Mo  Mo2  1  0.33326910  0.66653821  0.09339691  1
  Mo  Mo3  1  0.66665591  0.33331183  0.28086928  1
  W  W4  1  0.33336255  0.66672509  0.47094030  1
  W  W5  1  0.66669066  0.33338132  0.65775928  1
  Se  Se6  1  0.66671602  0.33343104  0.42789509  1
  Se  Se7  1  0.66670825  0.33341550  0.51392448  1
  S  S8  1  0.33334109  0.66668319  0.69683103  1
  S  S9  1  0.66668059  0.33336018  0.05451437  1
  S  S10  1  0.66666528  0.33332956  0.13221950  1
  S  S11  1  0.33332644  0.66665389  0.61868033  1
