# generated using pymatgen
data_Te2Mo3W(SeS2)2
_symmetry_space_group_name_H-M   'P 1'
_cell_length_a   3.30926650
_cell_length_b   3.30937167
_cell_length_c   39.04363351
_cell_angle_alpha   90.00343788
_cell_angle_beta   90.00000000
_cell_angle_gamma   119.99894870
_symmetry_Int_Tables_number   1
_chemical_formula_structural   Te2Mo3W(SeS2)2
_chemical_formula_sum   'Te2 Mo3 W1 Se2 S4'
_cell_volume   370.30770389
_cell_formula_units_Z   1
loop_
 _symmetry_equiv_pos_site_id
 _symmetry_equiv_pos_as_xyz
  1  'x, y, z'
loop_
 _atom_site_type_symbol
 _atom_site_label
 _atom_site_symmetry_multiplicity
 _atom_site_fract_x
 _atom_site_fract_y
 _atom_site_fract_z
 _atom_site_occupancy
  Te  Te0  1  0.33339667  0.66679435  0.70798088  1
  Te  Te1  1  0.33334972  0.66670045  0.61004097  1
  Mo  Mo2  1  0.33333945  0.66667890  0.09385676  1
  Mo  Mo3  1  0.66657629  0.33315257  0.28173038  1
  Mo  Mo4  1  0.66671451  0.33342902  0.65904217  1
  W  W5  1  0.33333355  0.66666710  0.46834525  1
  Se  Se6  1  0.66664459  0.33328819  0.42507200  1
  Se  Se7  1  0.66668130  0.33336161  0.51160574  1
  S  S8  1  0.33328140  0.66656379  0.32081768  1
  S  S9  1  0.66669902  0.33339704  0.05471932  1
  S  S10  1  0.66673632  0.33347164  0.13299173  1
  S  S11  1  0.33324717  0.66649534  0.24254513  1
