# generated using pymatgen
data_Te2Mo3W(SeS2)2
_symmetry_space_group_name_H-M   'P 1'
_cell_length_a   3.30848689
_cell_length_b   3.30854252
_cell_length_c   37.62362295
_cell_angle_alpha   89.99976234
_cell_angle_beta   90.00000000
_cell_angle_gamma   119.99944373
_symmetry_Int_Tables_number   1
_chemical_formula_structural   Te2Mo3W(SeS2)2
_chemical_formula_sum   'Te2 Mo3 W1 Se2 S4'
_cell_volume   356.66444482
_cell_formula_units_Z   1
loop_
 _symmetry_equiv_pos_site_id
 _symmetry_equiv_pos_as_xyz
  1  'x, y, z'
loop_
 _atom_site_type_symbol
 _atom_site_label
 _atom_site_symmetry_multiplicity
 _atom_site_fract_x
 _atom_site_fract_y
 _atom_site_fract_z
 _atom_site_occupancy
  Te  Te0  1  0.33335454  0.66671007  0.33263229  1
  Te  Te1  1  0.33335122  0.66670345  0.23093824  1
  Mo  Mo2  1  0.33330521  0.66661043  0.09389697  1
  Mo  Mo3  1  0.33330209  0.66660418  0.46969108  1
  Mo  Mo4  1  0.66668649  0.33337298  0.28180532  1
  W  W5  1  0.66669093  0.33338186  0.65754291  1
  Se  Se6  1  0.33334886  0.66669871  0.70246242  1
  Se  Se7  1  0.33335059  0.66670218  0.61261032  1
  S  S8  1  0.66665179  0.33330258  0.05331686  1
  S  S9  1  0.66665411  0.33330723  0.42909487  1
  S  S10  1  0.66665109  0.33330119  0.13448709  1
  S  S11  1  0.66665307  0.33330515  0.51026963  1
