# generated using pymatgen
data_TeMoWSeS2
_symmetry_space_group_name_H-M   'P 1'
_cell_length_a   3.30581086
_cell_length_b   3.30573508
_cell_length_c   37.61755044
_cell_angle_alpha   90.00016948
_cell_angle_beta   90.00000000
_cell_angle_gamma   120.00075833
_symmetry_Int_Tables_number   1
_chemical_formula_structural   TeMoWSeS2
_chemical_formula_sum   'Te2 Mo2 W2 Se2 S4'
_cell_volume   356.01137413
_cell_formula_units_Z   2
loop_
 _symmetry_equiv_pos_site_id
 _symmetry_equiv_pos_as_xyz
  1  'x, y, z'
loop_
 _atom_site_type_symbol
 _atom_site_label
 _atom_site_symmetry_multiplicity
 _atom_site_fract_x
 _atom_site_fract_y
 _atom_site_fract_z
 _atom_site_occupancy
  Te  Te0  1  0.33335406  0.66670913  0.33257182  1
  Te  Te1  1  0.33335141  0.66670382  0.23098921  1
  Mo  Mo2  1  0.33329610  0.66659219  0.09390940  1
  Mo  Mo3  1  0.66669052  0.33338103  0.28178847  1
  W  W4  1  0.33331198  0.66662397  0.46968625  1
  W  W5  1  0.66669351  0.33338702  0.65753667  1
  Se  Se6  1  0.33335595  0.66671290  0.70238562  1
  Se  Se7  1  0.33335216  0.66670532  0.61269664  1
  S  S8  1  0.66665150  0.33330199  0.05327732  1
  S  S9  1  0.66664347  0.33328594  0.42893018  1
  S  S10  1  0.66665453  0.33330805  0.13454992  1
  S  S11  1  0.66664482  0.33328863  0.51042650  1
