# generated using pymatgen
data_TeMoWSeS2
_symmetry_space_group_name_H-M   'P 1'
_cell_length_a   3.30617325
_cell_length_b   3.30620226
_cell_length_c   37.64117775
_cell_angle_alpha   90.00007019
_cell_angle_beta   90.00000000
_cell_angle_gamma   119.99970960
_symmetry_Int_Tables_number   1
_chemical_formula_structural   TeMoWSeS2
_chemical_formula_sum   'Te2 Mo2 W2 Se2 S4'
_cell_volume   356.32814984
_cell_formula_units_Z   2
loop_
 _symmetry_equiv_pos_site_id
 _symmetry_equiv_pos_as_xyz
  1  'x, y, z'
loop_
 _atom_site_type_symbol
 _atom_site_label
 _atom_site_symmetry_multiplicity
 _atom_site_fract_x
 _atom_site_fract_y
 _atom_site_fract_z
 _atom_site_occupancy
  Te  Te0  1  0.33335709  0.66671517  0.70837448  1
  Te  Te1  1  0.33335372  0.66670845  0.60675491  1
  Mo  Mo2  1  0.33330063  0.66660126  0.09391396  1
  Mo  Mo3  1  0.66669092  0.33338184  0.65757542  1
  W  W4  1  0.33331111  0.66662223  0.46962980  1
  W  W5  1  0.66668948  0.33337896  0.28179206  1
  Se  Se6  1  0.33335150  0.66670400  0.32668323  1
  Se  Se7  1  0.33334926  0.66669952  0.23690677  1
  S  S8  1  0.66665363  0.33330627  0.05331649  1
  S  S9  1  0.66664687  0.33329274  0.42888880  1
  S  S10  1  0.66664934  0.33329769  0.13451504  1
  S  S11  1  0.66664644  0.33329187  0.51039705  1
