# generated using pymatgen
data_Te2Mo3W(SeS2)2
_symmetry_space_group_name_H-M   'P 1'
_cell_length_a   3.30815423
_cell_length_b   3.30818808
_cell_length_c   37.59844497
_cell_angle_alpha   89.99977067
_cell_angle_beta   90.00000000
_cell_angle_gamma   119.99966144
_symmetry_Int_Tables_number   1
_chemical_formula_structural   Te2Mo3W(SeS2)2
_chemical_formula_sum   'Te2 Mo3 W1 Se2 S4'
_cell_volume   356.35096363
_cell_formula_units_Z   1
loop_
 _symmetry_equiv_pos_site_id
 _symmetry_equiv_pos_as_xyz
  1  'x, y, z'
loop_
 _atom_site_type_symbol
 _atom_site_label
 _atom_site_symmetry_multiplicity
 _atom_site_fract_x
 _atom_site_fract_y
 _atom_site_fract_z
 _atom_site_occupancy
  Te  Te0  1  0.33335112  0.66670325  0.70839532  1
  Te  Te1  1  0.33335813  0.66671726  0.60669616  1
  Mo  Mo2  1  0.33331554  0.66663107  0.09390684  1
  Mo  Mo3  1  0.33330098  0.66660197  0.46966055  1
  Mo  Mo4  1  0.66668908  0.33337815  0.65758008  1
  W  W5  1  0.66668878  0.33337755  0.28180016  1
  Se  Se6  1  0.33335593  0.66671285  0.32673118  1
  Se  Se7  1  0.33334893  0.66669886  0.23685830  1
  S  S8  1  0.66664725  0.33329351  0.05328151  1
  S  S9  1  0.66664998  0.33329896  0.42902927  1
  S  S10  1  0.66664374  0.33328649  0.13454235  1
  S  S11  1  0.66665054  0.33330009  0.51026628  1
