# generated using pymatgen
data_TeMoWSeS2
_symmetry_space_group_name_H-M   'P 1'
_cell_length_a   3.30599816
_cell_length_b   3.30592542
_cell_length_c   37.65785584
_cell_angle_alpha   89.99993619
_cell_angle_beta   90.00000000
_cell_angle_gamma   120.00072784
_symmetry_Int_Tables_number   1
_chemical_formula_structural   TeMoWSeS2
_chemical_formula_sum   'Te2 Mo2 W2 Se2 S4'
_cell_volume   356.43364728
_cell_formula_units_Z   2
loop_
 _symmetry_equiv_pos_site_id
 _symmetry_equiv_pos_as_xyz
  1  'x, y, z'
loop_
 _atom_site_type_symbol
 _atom_site_label
 _atom_site_symmetry_multiplicity
 _atom_site_fract_x
 _atom_site_fract_y
 _atom_site_fract_z
 _atom_site_occupancy
  Te  Te0  1  0.33335877  0.66671855  0.33264008  1
  Te  Te1  1  0.33335271  0.66670642  0.23098102  1
  Mo  Mo2  1  0.33334056  0.66668112  0.46968763  1
  Mo  Mo3  1  0.66669570  0.33339141  0.28179660  1
  W  W4  1  0.33330993  0.66661986  0.09388477  1
  W  W5  1  0.66669661  0.33339321  0.65754145  1
  Se  Se6  1  0.33335185  0.66670470  0.70244894  1
  Se  Se7  1  0.33335269  0.66670639  0.61262556  1
  S  S8  1  0.66664324  0.33328549  0.05314305  1
  S  S9  1  0.66662737  0.33325374  0.42912651  1
  S  S10  1  0.66664653  0.33329205  0.13463903  1
  S  S11  1  0.66662403  0.33324706  0.51023335  1
