# generated using pymatgen
data_TeMoWSeS2
_symmetry_space_group_name_H-M   'P 1'
_cell_length_a   3.30635760
_cell_length_b   3.30636415
_cell_length_c   37.62979892
_cell_angle_alpha   90.00014138
_cell_angle_beta   90.00000000
_cell_angle_gamma   119.99993446
_symmetry_Int_Tables_number   1
_chemical_formula_structural   TeMoWSeS2
_chemical_formula_sum   'Te2 Mo2 W2 Se2 S4'
_cell_volume   356.25693126
_cell_formula_units_Z   2
loop_
 _symmetry_equiv_pos_site_id
 _symmetry_equiv_pos_as_xyz
  1  'x, y, z'
loop_
 _atom_site_type_symbol
 _atom_site_label
 _atom_site_symmetry_multiplicity
 _atom_site_fract_x
 _atom_site_fract_y
 _atom_site_fract_z
 _atom_site_occupancy
  Te  Te0  1  0.66664607  0.33329114  0.04311361  1
  Te  Te1  1  0.66664748  0.33329396  0.14462638  1
  Mo  Mo2  1  0.33330853  0.66661706  0.09386080  1
  Mo  Mo3  1  0.33331237  0.66662473  0.46965548  1
  W  W4  1  0.66668921  0.33337843  0.28185959  1
  W  W5  1  0.66669104  0.33338207  0.65754065  1
  Se  Se6  1  0.33334920  0.66669939  0.32666908  1
  Se  Se7  1  0.33335688  0.66671476  0.23701552  1
  S  S8  1  0.33335646  0.66671392  0.69829529  1
  S  S9  1  0.66664461  0.33328821  0.42901050  1
  S  S10  1  0.66664209  0.33328318  0.51033435  1
  S  S11  1  0.33335607  0.66671313  0.61676675  1
