# generated using pymatgen
data_Te3MoWS
_symmetry_space_group_name_H-M   'P 1'
_cell_length_a   3.44871694
_cell_length_b   3.44874624
_cell_length_c   39.35916431
_cell_angle_alpha   89.99944811
_cell_angle_beta   90.00000000
_cell_angle_gamma   119.99971899
_symmetry_Int_Tables_number   1
_chemical_formula_structural   Te3MoWS
_chemical_formula_sum   'Te6 Mo2 W2 S2'
_cell_volume   405.41192595
_cell_formula_units_Z   2
loop_
 _symmetry_equiv_pos_site_id
 _symmetry_equiv_pos_as_xyz
  1  'x, y, z'
loop_
 _atom_site_type_symbol
 _atom_site_label
 _atom_site_symmetry_multiplicity
 _atom_site_fract_x
 _atom_site_fract_y
 _atom_site_fract_z
 _atom_site_occupancy
  Te  Te0  1  0.33336102  0.66672304  0.70485583  1
  Te  Te1  1  0.66663946  0.33327792  0.04687613  1
  Te  Te2  1  0.66665018  0.33329935  0.42256749  1
  Te  Te3  1  0.66664158  0.33328215  0.14099583  1
  Te  Te4  1  0.66665080  0.33330060  0.51666730  1
  Te  Te5  1  0.33335146  0.66670392  0.61026300  1
  Mo  Mo6  1  0.33330975  0.66661949  0.09391190  1
  Mo  Mo7  1  0.33330881  0.66661761  0.46961820  1
  W  W8  1  0.66669148  0.33338297  0.28178893  1
  W  W9  1  0.66668891  0.33337781  0.65760330  1
  S  S10  1  0.33335435  0.66670971  0.31973013  1
  S  S11  1  0.33335221  0.66670542  0.24386996  1
