# generated using pymatgen
data_DyErMn4
_symmetry_space_group_name_H-M   'P 1'
_cell_length_a   5.10928039
_cell_length_b   5.12570063
_cell_length_c   8.39352877
_cell_angle_alpha   90.00000000
_cell_angle_beta   89.88493387
_cell_angle_gamma   59.89362565
_symmetry_Int_Tables_number   1
_chemical_formula_structural   DyErMn4
_chemical_formula_sum   'Dy2 Er2 Mn8'
_cell_volume   190.16058333
_cell_formula_units_Z   2
loop_
 _symmetry_equiv_pos_site_id
 _symmetry_equiv_pos_as_xyz
  1  'x, y, z'
loop_
 _atom_site_type_symbol
 _atom_site_label
 _atom_site_symmetry_multiplicity
 _atom_site_fract_x
 _atom_site_fract_y
 _atom_site_fract_z
 _atom_site_occupancy
  Dy  Dy0  1  0.33333978  0.33333011  0.56356605  1
  Dy  Dy1  1  0.66666022  0.66666989  0.43643395  1
  Er  Er2  1  0.66654777  0.66672612  0.06294951  1
  Er  Er3  1  0.33345223  0.33327388  0.93705049  1
  Mn  Mn4  1  0.00000000  -0.00000000  0.50000000  1
  Mn  Mn5  1  0.00000000  -0.00000000  0.00000000  1
  Mn  Mn6  1  0.83081307  0.33782084  0.75303451  1
  Mn  Mn7  1  0.33828683  0.83085659  0.75340960  1
  Mn  Mn8  1  0.83081307  0.83136609  0.75303451  1
  Mn  Mn9  1  0.16918693  0.66217916  0.24696549  1
  Mn  Mn10  1  0.66171317  0.16914341  0.24659040  1
  Mn  Mn11  1  0.16918693  0.16863391  0.24696549  1
