# generated using pymatgen
data_TeW2S3
_symmetry_space_group_name_H-M   'P 1'
_cell_length_a   3.27259170
_cell_length_b   3.27262141
_cell_length_c   37.22606223
_cell_angle_alpha   89.99994147
_cell_angle_beta   90.00000000
_cell_angle_gamma   119.99969964
_symmetry_Int_Tables_number   1
_chemical_formula_structural   TeW2S3
_chemical_formula_sum   'Te2 W4 S6'
_cell_volume   345.27619548
_cell_formula_units_Z   2
loop_
 _symmetry_equiv_pos_site_id
 _symmetry_equiv_pos_as_xyz
  1  'x, y, z'
loop_
 _atom_site_type_symbol
 _atom_site_label
 _atom_site_symmetry_multiplicity
 _atom_site_fract_x
 _atom_site_fract_y
 _atom_site_fract_z
 _atom_site_occupancy
  Te  Te0  1  0.33338748  0.66677597  0.70963087  1
  Te  Te1  1  0.33335090  0.66670279  0.60550651  1
  W  W2  1  0.33330834  0.66661668  0.09391480  1
  W  W3  1  0.33330728  0.66661456  0.46961676  1
  W  W4  1  0.66668692  0.33337383  0.28180879  1
  W  W5  1  0.66669522  0.33339043  0.65758513  1
  S  S6  1  0.33334964  0.66670029  0.32330633  1
  S  S7  1  0.66664203  0.33328306  0.05240677  1
  S  S8  1  0.66663625  0.33327150  0.42815171  1
  S  S9  1  0.66664462  0.33328823  0.13540957  1
  S  S10  1  0.66663951  0.33327802  0.51111467  1
  S  S11  1  0.33335182  0.66670463  0.24029609  1
