# generated using pymatgen
data_TeMoWSeS2
_symmetry_space_group_name_H-M   'P 1'
_cell_length_a   3.30610499
_cell_length_b   3.30616926
_cell_length_c   38.08318566
_cell_angle_alpha   89.99869004
_cell_angle_beta   90.00005815
_cell_angle_gamma   120.00023762
_symmetry_Int_Tables_number   1
_chemical_formula_structural   TeMoWSeS2
_chemical_formula_sum   'Te2 Mo2 W2 Se2 S4'
_cell_volume   360.49943362
_cell_formula_units_Z   2
loop_
 _symmetry_equiv_pos_site_id
 _symmetry_equiv_pos_as_xyz
  1  'x, y, z'
loop_
 _atom_site_type_symbol
 _atom_site_label
 _atom_site_symmetry_multiplicity
 _atom_site_fract_x
 _atom_site_fract_y
 _atom_site_fract_z
 _atom_site_occupancy
  Te  Te0  1  0.66666130  0.33331850  0.41915114  1
  Te  Te1  1  0.66665357  0.33329464  0.51962371  1
  Mo  Mo2  1  0.33331746  0.66665051  0.46941659  1
  Mo  Mo3  1  0.66669053  0.33334862  0.28169250  1
  W  W4  1  0.33330567  0.66661607  0.09391816  1
  W  W5  1  0.66669004  0.33337638  0.65792726  1
  Se  Se6  1  0.33333463  0.66667813  0.70225127  1
  Se  Se7  1  0.33335341  0.66671762  0.61355314  1
  S  S8  1  0.33333928  0.66669507  0.32179951  1
  S  S9  1  0.66665035  0.33329707  0.05364180  1
  S  S10  1  0.66663824  0.33327260  0.13419164  1
  S  S11  1  0.33336552  0.66673476  0.24158127  1
