# generated using pymatgen
data_Cu2Sn2Pd
_symmetry_space_group_name_H-M   'P 1'
_cell_length_a   4.41261942
_cell_length_b   4.41261942
_cell_length_c   5.52184462
_cell_angle_alpha   90.47909346
_cell_angle_beta   89.52090654
_cell_angle_gamma   119.90253854
_symmetry_Int_Tables_number   1
_chemical_formula_structural   Cu2Sn2Pd
_chemical_formula_sum   'Cu2 Sn2 Pd1'
_cell_volume   93.19941162
_cell_formula_units_Z   1
loop_
 _symmetry_equiv_pos_site_id
 _symmetry_equiv_pos_as_xyz
  1  'x, y, z'
loop_
 _atom_site_type_symbol
 _atom_site_label
 _atom_site_symmetry_multiplicity
 _atom_site_fract_x
 _atom_site_fract_y
 _atom_site_fract_z
 _atom_site_occupancy
  Cu  Cu0  1  0.66792598  0.33207402  0.29766282  1
  Cu  Cu1  1  0.33207402  0.66792598  0.70233718  1
  Sn  Sn2  1  0.66535285  0.33464715  0.79576908  1
  Sn  Sn3  1  0.33464715  0.66535285  0.20423092  1
  Pd  Pd4  1  -0.00000000  -0.00000000  0.50000000  1
