# generated using pymatgen
data_Te2MoWSe2
_symmetry_space_group_name_H-M   'P 1'
_cell_length_a   3.44337571
_cell_length_b   3.44333898
_cell_length_c   39.14291255
_cell_angle_alpha   90.00030336
_cell_angle_beta   90.00000000
_cell_angle_gamma   120.00035299
_symmetry_Int_Tables_number   1
_chemical_formula_structural   Te2MoWSe2
_chemical_formula_sum   'Te4 Mo2 W2 Se4'
_cell_volume   401.92629018
_cell_formula_units_Z   2
loop_
 _symmetry_equiv_pos_site_id
 _symmetry_equiv_pos_as_xyz
  1  'x, y, z'
loop_
 _atom_site_type_symbol
 _atom_site_label
 _atom_site_symmetry_multiplicity
 _atom_site_fract_x
 _atom_site_fract_y
 _atom_site_fract_z
 _atom_site_occupancy
  Te  Te0  1  0.33335403  0.66670907  0.70515601  1
  Te  Te1  1  0.66664768  0.33329436  0.42203186  1
  Te  Te2  1  0.66664802  0.33329504  0.51725795  1
  Te  Te3  1  0.33334813  0.66669726  0.60993312  1
  Mo  Mo4  1  0.33331175  0.66662349  0.09392742  1
  Mo  Mo5  1  0.66668999  0.33337998  0.28178326  1
  W  W6  1  0.33331085  0.66662170  0.46963543  1
  W  W7  1  0.66669029  0.33338058  0.65756196  1
  Se  Se8  1  0.33335664  0.66671428  0.32359861  1
  Se  Se9  1  0.66664500  0.33328899  0.05214404  1
  Se  Se10  1  0.66664665  0.33329229  0.13571361  1
  Se  Se11  1  0.33335097  0.66670294  0.24000473  1
