# generated using pymatgen
data_Te3MoWS
_symmetry_space_group_name_H-M   'P 1'
_cell_length_a   3.45137974
_cell_length_b   3.45138973
_cell_length_c   39.39430532
_cell_angle_alpha   90.00126513
_cell_angle_beta   90.00000000
_cell_angle_gamma   119.99990424
_symmetry_Int_Tables_number   1
_chemical_formula_structural   Te3MoWS
_chemical_formula_sum   'Te6 Mo2 W2 S2'
_cell_volume   406.39770364
_cell_formula_units_Z   2
loop_
 _symmetry_equiv_pos_site_id
 _symmetry_equiv_pos_as_xyz
  1  'x, y, z'
loop_
 _atom_site_type_symbol
 _atom_site_label
 _atom_site_symmetry_multiplicity
 _atom_site_fract_x
 _atom_site_fract_y
 _atom_site_fract_z
 _atom_site_occupancy
  Te  Te0  1  0.33336844  0.66673787  0.32882062  1
  Te  Te1  1  0.66663574  0.33327048  0.04688668  1
  Te  Te2  1  0.66664314  0.33328528  0.42242461  1
  Te  Te3  1  0.66664804  0.33329508  0.14092477  1
  Te  Te4  1  0.66664605  0.33329110  0.51701325  1
  Te  Te5  1  0.33336175  0.66672450  0.23480875  1
  Mo  Mo6  1  0.33330953  0.66661906  0.09385516  1
  Mo  Mo7  1  0.66668679  0.33337359  0.28173773  1
  W  W8  1  0.33330805  0.66661611  0.46968279  1
  W  W9  1  0.66668876  0.33337752  0.65752161  1
  S  S10  1  0.33335156  0.66670413  0.69545681  1
  S  S11  1  0.33335214  0.66670528  0.61961521  1
