# generated using pymatgen
data_TeMoWSeS2
_symmetry_space_group_name_H-M   'P 1'
_cell_length_a   3.30649325
_cell_length_b   3.30665742
_cell_length_c   37.60560073
_cell_angle_alpha   89.99996247
_cell_angle_beta   90.00000000
_cell_angle_gamma   119.99835756
_symmetry_Int_Tables_number   1
_chemical_formula_structural   TeMoWSeS2
_chemical_formula_sum   'Te2 Mo2 W2 Se2 S4'
_cell_volume   356.07968185
_cell_formula_units_Z   2
loop_
 _symmetry_equiv_pos_site_id
 _symmetry_equiv_pos_as_xyz
  1  'x, y, z'
loop_
 _atom_site_type_symbol
 _atom_site_label
 _atom_site_symmetry_multiplicity
 _atom_site_fract_x
 _atom_site_fract_y
 _atom_site_fract_z
 _atom_site_occupancy
  Te  Te0  1  0.66664551  0.33329002  0.04310578  1
  Te  Te1  1  0.66664297  0.33328495  0.14472973  1
  Mo  Mo2  1  0.33330826  0.66661651  0.09390555  1
  Mo  Mo3  1  0.66670250  0.33340499  0.28179724  1
  W  W4  1  0.33330893  0.66661787  0.46963367  1
  W  W5  1  0.66669445  0.33338891  0.65754409  1
  Se  Se6  1  0.66664913  0.33329727  0.42480894  1
  Se  Se7  1  0.66664649  0.33329199  0.51451524  1
  S  S8  1  0.33334277  0.66668653  0.32245431  1
  S  S9  1  0.33335499  0.66671097  0.69830745  1
  S  S10  1  0.33334389  0.66668879  0.24116394  1
  S  S11  1  0.33336010  0.66672120  0.61678206  1
