# generated using pymatgen
data_Te2Mo3W(SeS2)2
_symmetry_space_group_name_H-M   'P 1'
_cell_length_a   3.30847920
_cell_length_b   3.30850991
_cell_length_c   37.57493746
_cell_angle_alpha   89.99953116
_cell_angle_beta   89.99998337
_cell_angle_gamma   119.99860672
_symmetry_Int_Tables_number   1
_chemical_formula_structural   Te2Mo3W(SeS2)2
_chemical_formula_sum   'Te2 Mo3 W1 Se2 S4'
_cell_volume   356.20158214
_cell_formula_units_Z   1
loop_
 _symmetry_equiv_pos_site_id
 _symmetry_equiv_pos_as_xyz
  1  'x, y, z'
loop_
 _atom_site_type_symbol
 _atom_site_label
 _atom_site_symmetry_multiplicity
 _atom_site_fract_x
 _atom_site_fract_y
 _atom_site_fract_z
 _atom_site_occupancy
  Te  Te0  1  0.66664518  0.33328907  0.04301819  1
  Te  Te1  1  0.66663941  0.33327850  0.14477608  1
  Mo  Mo2  1  0.33330651  0.66661545  0.09388421  1
  Mo  Mo3  1  0.33330714  0.66661527  0.46964949  1
  Mo  Mo4  1  0.66671377  0.33341659  0.28183348  1
  W  W5  1  0.66669666  0.33339167  0.65755017  1
  Se  Se6  1  0.33335698  0.66671587  0.70245268  1
  Se  Se7  1  0.33336097  0.66672359  0.61263625  1
  S  S8  1  0.33334262  0.66669029  0.32245465  1
  S  S9  1  0.66664422  0.33328740  0.42898546  1
  S  S10  1  0.66664090  0.33328047  0.51032786  1
  S  S11  1  0.33334564  0.66669581  0.24117948  1
