# generated using pymatgen
data_TeMoWSeS2
_symmetry_space_group_name_H-M   'P 1'
_cell_length_a   3.30664649
_cell_length_b   3.30656730
_cell_length_c   37.59305645
_cell_angle_alpha   90.00000094
_cell_angle_beta   90.00000000
_cell_angle_gamma   120.00079232
_symmetry_Int_Tables_number   1
_chemical_formula_structural   TeMoWSeS2
_chemical_formula_sum   'Te2 Mo2 W2 Se2 S4'
_cell_volume   355.95896500
_cell_formula_units_Z   2
loop_
 _symmetry_equiv_pos_site_id
 _symmetry_equiv_pos_as_xyz
  1  'x, y, z'
loop_
 _atom_site_type_symbol
 _atom_site_label
 _atom_site_symmetry_multiplicity
 _atom_site_fract_x
 _atom_site_fract_y
 _atom_site_fract_z
 _atom_site_occupancy
  Te  Te0  1  0.66664775  0.33329450  0.04309520  1
  Te  Te1  1  0.66664934  0.33329769  0.14474307  1
  Mo  Mo2  1  0.33331088  0.66662176  0.09389789  1
  Mo  Mo3  1  0.66669728  0.33339456  0.28181584  1
  W  W4  1  0.33331092  0.66662183  0.46965498  1
  W  W5  1  0.66668985  0.33337971  0.65753737  1
  Se  Se6  1  0.33335118  0.66670336  0.70239417  1
  Se  Se7  1  0.33335173  0.66670446  0.61267444  1
  S  S8  1  0.33335056  0.66670211  0.32247061  1
  S  S9  1  0.66664420  0.33328740  0.42887416  1
  S  S10  1  0.66664344  0.33328588  0.51043930  1
  S  S11  1  0.33335287  0.66670674  0.24115096  1
