# generated using pymatgen
data_CaMnV4(CuO6)2
_symmetry_space_group_name_H-M   'P 1'
_cell_length_a   6.43805991
_cell_length_b   6.43805991
_cell_length_c   6.43805991
_cell_angle_alpha   71.01755377
_cell_angle_beta   71.07202184
_cell_angle_gamma   110.50824561
_symmetry_Int_Tables_number   1
_chemical_formula_structural   CaMnV4(CuO6)2
_chemical_formula_sum   'Ca1 Mn1 V4 Cu2 O12'
_cell_volume   205.36958051
_cell_formula_units_Z   1
loop_
 _symmetry_equiv_pos_site_id
 _symmetry_equiv_pos_as_xyz
  1  'x, y, z'
loop_
 _atom_site_type_symbol
 _atom_site_label
 _atom_site_symmetry_multiplicity
 _atom_site_fract_x
 _atom_site_fract_y
 _atom_site_fract_z
 _atom_site_occupancy
  Ca  Ca0  1  -0.00000000  0.00000000  -0.00000000  1
  Mn  Mn1  1  -0.00000000  0.50000000  0.50000000  1
  V  V2  1  -0.00000000  0.50000000  -0.00000000  1
  V  V3  1  0.50000000  0.50000000  0.50000000  1
  V  V4  1  0.50000000  0.00000000  -0.00000000  1
  V  V5  1  -0.00000000  0.00000000  0.50000000  1
  Cu  Cu6  1  0.50000000  0.00000000  0.50000000  1
  Cu  Cu7  1  0.50000000  0.50000000  -0.00000000  1
  O  O8  1  0.82376016  0.51785831  0.30590185  1
  O  O9  1  0.17623984  0.48214169  0.69409815  1
  O  O10  1  0.82376016  0.12966202  0.69409815  1
  O  O11  1  0.17623984  0.87033798  0.30590185  1
  O  O12  1  0.70199505  0.18004025  0.11796470  1
  O  O13  1  0.29800495  0.81995975  0.88203530  1
  O  O14  1  0.29800495  0.18004025  0.52195480  1
  O  O15  1  0.70199505  0.81995975  0.47804520  1
  O  O16  1  0.48785628  0.30479696  0.81694069  1
  O  O17  1  0.51214372  0.69520304  0.18305931  1
  O  O18  1  0.87826235  0.69520304  0.81694069  1
  O  O19  1  0.12173765  0.30479696  0.18305931  1
