# generated using pymatgen
data_Mg30NiSnO32
_symmetry_space_group_name_H-M   'P 1'
_cell_length_a   8.60606223
_cell_length_b   8.58667591
_cell_length_c   8.58667591
_cell_angle_alpha   90.00000000
_cell_angle_beta   90.00000000
_cell_angle_gamma   90.00000000
_symmetry_Int_Tables_number   1
_chemical_formula_structural   Mg30NiSnO32
_chemical_formula_sum   'Mg30 Ni1 Sn1 O32'
_cell_volume   634.53360168
_cell_formula_units_Z   1
loop_
 _symmetry_equiv_pos_site_id
 _symmetry_equiv_pos_as_xyz
  1  'x, y, z'
loop_
 _atom_site_type_symbol
 _atom_site_label
 _atom_site_symmetry_multiplicity
 _atom_site_fract_x
 _atom_site_fract_y
 _atom_site_fract_z
 _atom_site_occupancy
  Mg  Mg0  1  -0.00000000  -0.00000000  0.50000000  1
  Mg  Mg1  1  -0.00000000  0.50000000  0.00000000  1
  Mg  Mg2  1  0.50000000  -0.00000000  0.00000000  1
  Mg  Mg3  1  0.50000000  -0.00000000  0.50000000  1
  Mg  Mg4  1  0.50000000  0.50000000  0.00000000  1
  Mg  Mg5  1  0.50000000  0.50000000  0.50000000  1
  Mg  Mg6  1  -0.00000000  0.24498917  0.24498917  1
  Mg  Mg7  1  -0.00000000  0.24498917  0.75501083  1
  Mg  Mg8  1  -0.00000000  0.75501083  0.24498917  1
  Mg  Mg9  1  -0.00000000  0.75501083  0.75501083  1
  Mg  Mg10  1  0.50000000  0.24939680  0.24939680  1
  Mg  Mg11  1  0.50000000  0.24939680  0.75060320  1
  Mg  Mg12  1  0.50000000  0.75060320  0.24939680  1
  Mg  Mg13  1  0.50000000  0.75060320  0.75060320  1
  Mg  Mg14  1  0.25004028  -0.00000000  0.24896178  1
  Mg  Mg15  1  0.25004028  -0.00000000  0.75103822  1
  Mg  Mg16  1  0.25437137  0.50000000  0.24558587  1
  Mg  Mg17  1  0.25437137  0.50000000  0.75441413  1
  Mg  Mg18  1  0.74995972  -0.00000000  0.24896178  1
  Mg  Mg19  1  0.74995972  -0.00000000  0.75103822  1
  Mg  Mg20  1  0.74562863  0.50000000  0.24558587  1
  Mg  Mg21  1  0.74562863  0.50000000  0.75441413  1
  Mg  Mg22  1  0.25004028  0.24896178  0.00000000  1
  Mg  Mg23  1  0.25437137  0.24558587  0.50000000  1
  Mg  Mg24  1  0.25004028  0.75103822  0.00000000  1
  Mg  Mg25  1  0.25437137  0.75441413  0.50000000  1
  Mg  Mg26  1  0.74995972  0.24896178  0.00000000  1
  Mg  Mg27  1  0.74562863  0.24558587  0.50000000  1
  Mg  Mg28  1  0.74995972  0.75103822  0.00000000  1
  Mg  Mg29  1  0.74562863  0.75441413  0.50000000  1
  Ni  Ni30  1  -0.00000000  -0.00000000  0.00000000  1
  Sn  Sn31  1  -0.00000000  0.50000000  0.50000000  1
  O  O32  1  0.25200705  -0.00000000  0.00000000  1
  O  O33  1  0.25327847  -0.00000000  0.50000000  1
  O  O34  1  0.25327847  0.50000000  0.00000000  1
  O  O35  1  0.27018589  0.50000000  0.50000000  1
  O  O36  1  0.74799295  -0.00000000  0.00000000  1
  O  O37  1  0.74672153  -0.00000000  0.50000000  1
  O  O38  1  0.74672153  0.50000000  0.00000000  1
  O  O39  1  0.72981411  0.50000000  0.50000000  1
  O  O40  1  0.24953729  0.25006380  0.25006380  1
  O  O41  1  0.24953729  0.25006380  0.74993620  1
  O  O42  1  0.24953729  0.74993620  0.25006380  1
  O  O43  1  0.24953729  0.74993620  0.74993620  1
  O  O44  1  0.75046271  0.25006380  0.25006380  1
  O  O45  1  0.75046271  0.25006380  0.74993620  1
  O  O46  1  0.75046271  0.74993620  0.25006380  1
  O  O47  1  0.75046271  0.74993620  0.74993620  1
  O  O48  1  -0.00000000  -0.00000000  0.24747799  1
  O  O49  1  -0.00000000  -0.00000000  0.75252201  1
  O  O50  1  -0.00000000  0.50000000  0.22980344  1
  O  O51  1  -0.00000000  0.50000000  0.77019656  1
  O  O52  1  0.50000000  -0.00000000  0.24892425  1
  O  O53  1  0.50000000  -0.00000000  0.75107575  1
  O  O54  1  0.50000000  0.50000000  0.24664992  1
  O  O55  1  0.50000000  0.50000000  0.75335008  1
  O  O56  1  -0.00000000  0.24747799  0.00000000  1
  O  O57  1  -0.00000000  0.22980344  0.50000000  1
  O  O58  1  -0.00000000  0.75252201  0.00000000  1
  O  O59  1  -0.00000000  0.77019656  0.50000000  1
  O  O60  1  0.50000000  0.24892425  0.00000000  1
  O  O61  1  0.50000000  0.24664992  0.50000000  1
  O  O62  1  0.50000000  0.75107575  0.00000000  1
  O  O63  1  0.50000000  0.75335008  0.50000000  1
