# generated using pymatgen
data_Mg30NbCoO32
_symmetry_space_group_name_H-M   'P 1'
_cell_length_a   8.58214156
_cell_length_b   8.55145336
_cell_length_c   8.55145336
_cell_angle_alpha   90.00000000
_cell_angle_beta   90.00000000
_cell_angle_gamma   90.00000000
_symmetry_Int_Tables_number   1
_chemical_formula_structural   Mg30NbCoO32
_chemical_formula_sum   'Mg30 Nb1 Co1 O32'
_cell_volume   627.58930881
_cell_formula_units_Z   1
loop_
 _symmetry_equiv_pos_site_id
 _symmetry_equiv_pos_as_xyz
  1  'x, y, z'
loop_
 _atom_site_type_symbol
 _atom_site_label
 _atom_site_symmetry_multiplicity
 _atom_site_fract_x
 _atom_site_fract_y
 _atom_site_fract_z
 _atom_site_occupancy
  Mg  Mg0  1  -0.00000000  -0.00000000  0.50000000  1
  Mg  Mg1  1  -0.00000000  0.50000000  0.00000000  1
  Mg  Mg2  1  0.50000000  -0.00000000  0.00000000  1
  Mg  Mg3  1  0.50000000  -0.00000000  0.50000000  1
  Mg  Mg4  1  0.50000000  0.50000000  0.00000000  1
  Mg  Mg5  1  0.50000000  0.50000000  0.50000000  1
  Mg  Mg6  1  -0.00000000  0.24171191  0.24171191  1
  Mg  Mg7  1  -0.00000000  0.24171191  0.75828809  1
  Mg  Mg8  1  -0.00000000  0.75828809  0.24171191  1
  Mg  Mg9  1  -0.00000000  0.75828809  0.75828809  1
  Mg  Mg10  1  0.50000000  0.24872082  0.24872082  1
  Mg  Mg11  1  0.50000000  0.24872082  0.75127918  1
  Mg  Mg12  1  0.50000000  0.75127918  0.24872082  1
  Mg  Mg13  1  0.50000000  0.75127918  0.75127918  1
  Mg  Mg14  1  0.24847975  -0.00000000  0.24694405  1
  Mg  Mg15  1  0.24847975  -0.00000000  0.75305595  1
  Mg  Mg16  1  0.25379628  0.50000000  0.24656929  1
  Mg  Mg17  1  0.25379628  0.50000000  0.75343071  1
  Mg  Mg18  1  0.75152025  -0.00000000  0.24694405  1
  Mg  Mg19  1  0.75152025  -0.00000000  0.75305595  1
  Mg  Mg20  1  0.74620372  0.50000000  0.24656929  1
  Mg  Mg21  1  0.74620372  0.50000000  0.75343071  1
  Mg  Mg22  1  0.24847975  0.24694405  0.00000000  1
  Mg  Mg23  1  0.25379628  0.24656929  0.50000000  1
  Mg  Mg24  1  0.24847975  0.75305595  -0.00000000  1
  Mg  Mg25  1  0.25379628  0.75343071  0.50000000  1
  Mg  Mg26  1  0.75152025  0.24694405  0.00000000  1
  Mg  Mg27  1  0.74620372  0.24656929  0.50000000  1
  Mg  Mg28  1  0.75152025  0.75305595  0.00000000  1
  Mg  Mg29  1  0.74620372  0.75343071  0.50000000  1
  Nb  Nb30  1  -0.00000000  0.50000000  0.50000000  1
  Co  Co31  1  -0.00000000  -0.00000000  0.00000000  1
  O  O32  1  0.26178386  -0.00000000  0.00000000  1
  O  O33  1  0.25123172  -0.00000000  0.50000000  1
  O  O34  1  0.25123172  0.50000000  0.00000000  1
  O  O35  1  0.25926504  0.50000000  0.50000000  1
  O  O36  1  0.73821614  -0.00000000  -0.00000000  1
  O  O37  1  0.74876828  -0.00000000  0.50000000  1
  O  O38  1  0.74876828  0.50000000  -0.00000000  1
  O  O39  1  0.74073496  0.50000000  0.50000000  1
  O  O40  1  0.24877150  0.25073515  0.25073515  1
  O  O41  1  0.24877150  0.25073515  0.74926485  1
  O  O42  1  0.24877150  0.74926485  0.25073515  1
  O  O43  1  0.24877150  0.74926485  0.74926485  1
  O  O44  1  0.75122850  0.25073515  0.25073515  1
  O  O45  1  0.75122850  0.25073515  0.74926485  1
  O  O46  1  0.75122850  0.74926485  0.25073515  1
  O  O47  1  0.75122850  0.74926485  0.74926485  1
  O  O48  1  -0.00000000  -0.00000000  0.26252563  1
  O  O49  1  -0.00000000  -0.00000000  0.73747437  1
  O  O50  1  -0.00000000  0.50000000  0.24933160  1
  O  O51  1  -0.00000000  0.50000000  0.75066840  1
  O  O52  1  0.50000000  -0.00000000  0.25186591  1
  O  O53  1  0.50000000  -0.00000000  0.74813409  1
  O  O54  1  0.50000000  0.50000000  0.24976522  1
  O  O55  1  0.50000000  0.50000000  0.75023478  1
  O  O56  1  -0.00000000  0.26252563  -0.00000000  1
  O  O57  1  -0.00000000  0.24933160  0.50000000  1
  O  O58  1  -0.00000000  0.73747437  -0.00000000  1
  O  O59  1  -0.00000000  0.75066840  0.50000000  1
  O  O60  1  0.50000000  0.25186591  -0.00000000  1
  O  O61  1  0.50000000  0.24976522  0.50000000  1
  O  O62  1  0.50000000  0.74813409  0.00000000  1
  O  O63  1  0.50000000  0.75023478  0.50000000  1
