# generated using pymatgen
data_Er3Mn3Ga2Ge
_symmetry_space_group_name_H-M   'P 1'
_cell_length_a   4.04821111
_cell_length_b   7.10395246
_cell_length_c   7.09471872
_cell_angle_alpha   120.04305181
_cell_angle_beta   90.00000000
_cell_angle_gamma   90.00000000
_symmetry_Int_Tables_number   1
_chemical_formula_structural   Er3Mn3Ga2Ge
_chemical_formula_sum   'Er3 Mn3 Ga2 Ge1'
_cell_volume   176.62022927
_cell_formula_units_Z   1
loop_
 _symmetry_equiv_pos_site_id
 _symmetry_equiv_pos_as_xyz
  1  'x, y, z'
loop_
 _atom_site_type_symbol
 _atom_site_label
 _atom_site_symmetry_multiplicity
 _atom_site_fract_x
 _atom_site_fract_y
 _atom_site_fract_z
 _atom_site_occupancy
  Er  Er0  1  0.50000000  0.58667855  0.00000000  1
  Er  Er1  1  0.50000000  0.41421471  0.41406450  1
  Er  Er2  1  0.50000000  0.00015021  0.58593550  1
  Mn  Mn3  1  -0.00000000  0.23350081  0.00000000  1
  Mn  Mn4  1  0.00000000  0.76661511  0.76720983  1
  Mn  Mn5  1  -0.00000000  0.99940527  0.23279017  1
  Ga  Ga6  1  -0.00000000  0.33289208  0.66643158  1
  Ga  Ga7  1  -0.00000000  0.66646050  0.33356842  1
  Ge  Ge8  1  0.50000000  -0.00001725  0.00000000  1
