# generated using pymatgen
data_Mg30NbCoO32
_symmetry_space_group_name_H-M   'P 1'
_cell_length_a   8.55674444
_cell_length_b   8.55674444
_cell_length_c   8.54612489
_cell_angle_alpha   90.00000000
_cell_angle_beta   90.00000000
_cell_angle_gamma   90.00000000
_symmetry_Int_Tables_number   1
_chemical_formula_structural   Mg30NbCoO32
_chemical_formula_sum   'Mg30 Nb1 Co1 O32'
_cell_volume   625.72910745
_cell_formula_units_Z   1
loop_
 _symmetry_equiv_pos_site_id
 _symmetry_equiv_pos_as_xyz
  1  'x, y, z'
loop_
 _atom_site_type_symbol
 _atom_site_label
 _atom_site_symmetry_multiplicity
 _atom_site_fract_x
 _atom_site_fract_y
 _atom_site_fract_z
 _atom_site_occupancy
  Mg  Mg0  1  0.00000000  0.50000000  0.00000000  1
  Mg  Mg1  1  0.00000000  0.50000000  0.50000000  1
  Mg  Mg2  1  0.50000000  0.00000000  0.00000000  1
  Mg  Mg3  1  0.50000000  0.00000000  0.50000000  1
  Mg  Mg4  1  0.50000000  0.50000000  0.00000000  1
  Mg  Mg5  1  0.50000000  0.50000000  0.50000000  1
  Mg  Mg6  1  0.00000000  0.25218559  0.24313200  1
  Mg  Mg7  1  0.00000000  0.25218559  0.75686800  1
  Mg  Mg8  1  0.00000000  0.74781441  0.24313200  1
  Mg  Mg9  1  0.00000000  0.74781441  0.75686800  1
  Mg  Mg10  1  0.50000000  0.25008692  0.24878117  1
  Mg  Mg11  1  0.50000000  0.25008692  0.75121883  1
  Mg  Mg12  1  0.50000000  0.74991308  0.24878117  1
  Mg  Mg13  1  0.50000000  0.74991308  0.75121883  1
  Mg  Mg14  1  0.25218559  0.00000000  0.24313200  1
  Mg  Mg15  1  0.25218559  0.00000000  0.75686800  1
  Mg  Mg16  1  0.25008692  0.50000000  0.24878117  1
  Mg  Mg17  1  0.25008692  0.50000000  0.75121883  1
  Mg  Mg18  1  0.74781441  0.00000000  0.24313200  1
  Mg  Mg19  1  0.74781441  0.00000000  0.75686800  1
  Mg  Mg20  1  0.74991308  0.50000000  0.24878117  1
  Mg  Mg21  1  0.74991308  0.50000000  0.75121883  1
  Mg  Mg22  1  0.24802687  0.24802687  0.00000000  1
  Mg  Mg23  1  0.25271145  0.25271145  0.50000000  1
  Mg  Mg24  1  0.24802687  0.75197313  0.00000000  1
  Mg  Mg25  1  0.25271145  0.74728855  0.50000000  1
  Mg  Mg26  1  0.75197313  0.24802687  0.00000000  1
  Mg  Mg27  1  0.74728855  0.25271145  0.50000000  1
  Mg  Mg28  1  0.75197313  0.75197313  0.00000000  1
  Mg  Mg29  1  0.74728855  0.74728855  0.50000000  1
  Nb  Nb30  1  0.00000000  0.00000000  0.50000000  1
  Co  Co31  1  0.00000000  0.00000000  0.00000000  1
  O  O32  1  0.26222482  0.00000000  0.00000000  1
  O  O33  1  0.25688912  0.00000000  0.50000000  1
  O  O34  1  0.25152687  0.50000000  0.00000000  1
  O  O35  1  0.25078193  0.50000000  0.50000000  1
  O  O36  1  0.73777518  0.00000000  0.00000000  1
  O  O37  1  0.74311088  0.00000000  0.50000000  1
  O  O38  1  0.74847313  0.50000000  0.00000000  1
  O  O39  1  0.74921807  0.50000000  0.50000000  1
  O  O40  1  0.24914189  0.24914189  0.25050630  1
  O  O41  1  0.24914189  0.24914189  0.74949370  1
  O  O42  1  0.24914189  0.75085811  0.25050630  1
  O  O43  1  0.24914189  0.75085811  0.74949370  1
  O  O44  1  0.75085811  0.24914189  0.25050630  1
  O  O45  1  0.75085811  0.24914189  0.74949370  1
  O  O46  1  0.75085811  0.75085811  0.25050630  1
  O  O47  1  0.75085811  0.75085811  0.74949370  1
  O  O48  1  0.00000000  0.00000000  0.25463967  1
  O  O49  1  0.00000000  0.00000000  0.74536033  1
  O  O50  1  0.00000000  0.50000000  0.25160186  1
  O  O51  1  0.00000000  0.50000000  0.74839814  1
  O  O52  1  0.50000000  0.00000000  0.25160186  1
  O  O53  1  0.50000000  0.00000000  0.74839814  1
  O  O54  1  0.50000000  0.50000000  0.25065264  1
  O  O55  1  0.50000000  0.50000000  0.74934736  1
  O  O56  1  0.00000000  0.26222482  0.00000000  1
  O  O57  1  0.00000000  0.25688912  0.50000000  1
  O  O58  1  0.00000000  0.73777518  0.00000000  1
  O  O59  1  0.00000000  0.74311088  0.50000000  1
  O  O60  1  0.50000000  0.25152687  0.00000000  1
  O  O61  1  0.50000000  0.25078193  0.50000000  1
  O  O62  1  0.50000000  0.74847313  0.00000000  1
  O  O63  1  0.50000000  0.74921807  0.50000000  1
