# generated using pymatgen
data_MgCu(GeO3)2
_symmetry_space_group_name_H-M   'P 1'
_cell_length_a   5.30599577
_cell_length_b   6.88979159
_cell_length_c   6.88979203
_cell_angle_alpha   85.97089039
_cell_angle_beta   77.53831226
_cell_angle_gamma   77.53830775
_symmetry_Int_Tables_number   1
_chemical_formula_structural   MgCu(GeO3)2
_chemical_formula_sum   'Mg2 Cu2 Ge4 O12'
_cell_volume   240.06921144
_cell_formula_units_Z   2
loop_
 _symmetry_equiv_pos_site_id
 _symmetry_equiv_pos_as_xyz
  1  'x, y, z'
loop_
 _atom_site_type_symbol
 _atom_site_label
 _atom_site_symmetry_multiplicity
 _atom_site_fract_x
 _atom_site_fract_y
 _atom_site_fract_z
 _atom_site_occupancy
  Mg  Mg0  1  0.75000000  0.24634693  0.75365307  1
  Mg  Mg1  1  0.25000000  0.75365307  0.24634693  1
  Cu  Cu2  1  0.75000000  0.89305341  0.10694659  1
  Cu  Cu3  1  0.25000000  0.10694659  0.89305341  1
  Ge  Ge4  1  0.77576295  0.38745621  0.20346967  1
  Ge  Ge5  1  0.72423705  0.79653033  0.61254379  1
  Ge  Ge6  1  0.22423705  0.61254379  0.79653033  1
  Ge  Ge7  1  0.27576295  0.20346967  0.38745621  1
  O  O8  1  0.55923424  0.29549500  0.41222999  1
  O  O9  1  0.94076576  0.58777001  0.70450500  1
  O  O10  1  0.44076576  0.70450500  0.58777001  1
  O  O11  1  0.05923424  0.41222999  0.29549500  1
  O  O12  1  0.11737841  0.13454887  0.62051206  1
  O  O13  1  0.38262159  0.37948794  0.86545113  1
  O  O14  1  0.88262159  0.86545113  0.37948794  1
  O  O15  1  0.61737841  0.62051206  0.13454887  1
  O  O16  1  0.87997427  0.20459606  0.01642179  1
  O  O17  1  0.62002573  0.98357821  0.79540394  1
  O  O18  1  0.12002573  0.79540394  0.98357821  1
  O  O19  1  0.37997427  0.01642179  0.20459606  1
