# generated using pymatgen
data_NaHfMg30O31
_symmetry_space_group_name_H-M   'P 1'
_cell_length_a   8.59732015
_cell_length_b   8.59878424
_cell_length_c   8.57252362
_cell_angle_alpha   90.00000000
_cell_angle_beta   90.00000000
_cell_angle_gamma   90.00000000
_symmetry_Int_Tables_number   1
_chemical_formula_structural   NaHfMg30O31
_chemical_formula_sum   'Na1 Hf1 Mg30 O31'
_cell_volume   633.73667607
_cell_formula_units_Z   1
loop_
 _symmetry_equiv_pos_site_id
 _symmetry_equiv_pos_as_xyz
  1  'x, y, z'
loop_
 _atom_site_type_symbol
 _atom_site_label
 _atom_site_symmetry_multiplicity
 _atom_site_fract_x
 _atom_site_fract_y
 _atom_site_fract_z
 _atom_site_occupancy
  Na  Na0  1  0.99974623  0.00000000  0.00000000  1
  Hf  Hf1  1  0.99989479  0.50000000  0.50000000  1
  Mg  Mg2  1  0.99777378  0.00000000  0.50000000  1
  Mg  Mg3  1  0.99990209  0.50000000  0.00000000  1
  Mg  Mg4  1  0.50037251  0.00000000  0.00000000  1
  Mg  Mg5  1  0.50144604  0.00000000  0.50000000  1
  Mg  Mg6  1  0.50008257  0.50000000  0.00000000  1
  Mg  Mg7  1  0.50046932  0.50000000  0.50000000  1
  Mg  Mg8  1  0.00011221  0.24136730  0.24329493  1
  Mg  Mg9  1  0.00011221  0.24136730  0.75670507  1
  Mg  Mg10  1  0.00011221  0.75863270  0.24329493  1
  Mg  Mg11  1  0.00011221  0.75863270  0.75670507  1
  Mg  Mg12  1  0.49994426  0.24803199  0.24884464  1
  Mg  Mg13  1  0.49994426  0.24803199  0.75115536  1
  Mg  Mg14  1  0.49994426  0.75196801  0.24884464  1
  Mg  Mg15  1  0.49994426  0.75196801  0.75115536  1
  Mg  Mg16  1  0.24989347  0.00000000  0.24583249  1
  Mg  Mg17  1  0.24989347  0.00000000  0.75416751  1
  Mg  Mg18  1  0.25627096  0.50000000  0.24382483  1
  Mg  Mg19  1  0.25627096  0.50000000  0.75617517  1
  Mg  Mg20  1  0.75019070  0.00000000  0.24752325  1
  Mg  Mg21  1  0.75019070  0.00000000  0.75247675  1
  Mg  Mg22  1  0.74369584  0.50000000  0.24414420  1
  Mg  Mg23  1  0.74369584  0.50000000  0.75585580  1
  Mg  Mg24  1  0.24961523  0.24798349  0.00000000  1
  Mg  Mg25  1  0.25407972  0.24604647  0.50000000  1
  Mg  Mg26  1  0.24961523  0.75201651  0.00000000  1
  Mg  Mg27  1  0.25407972  0.75395353  0.50000000  1
  Mg  Mg28  1  0.75041208  0.24750092  0.00000000  1
  Mg  Mg29  1  0.74639199  0.24534823  0.50000000  1
  Mg  Mg30  1  0.75041208  0.75249908  0.00000000  1
  Mg  Mg31  1  0.74639199  0.75465177  0.50000000  1
  O  O32  1  0.26315275  0.00000000  0.00000000  1
  O  O33  1  0.25118083  0.50000000  0.00000000  1
  O  O34  1  0.25318675  0.50000000  0.50000000  1
  O  O35  1  0.73711582  0.00000000  0.00000000  1
  O  O36  1  0.74756980  0.00000000  0.50000000  1
  O  O37  1  0.74880346  0.50000000  0.00000000  1
  O  O38  1  0.74669748  0.50000000  0.50000000  1
  O  O39  1  0.24907804  0.25208988  0.24974330  1
  O  O40  1  0.24907804  0.25208988  0.75025670  1
  O  O41  1  0.24907804  0.74791012  0.24974330  1
  O  O42  1  0.24907804  0.74791012  0.75025670  1
  O  O43  1  0.75096839  0.25110587  0.25065880  1
  O  O44  1  0.75096839  0.25110587  0.74934120  1
  O  O45  1  0.75096839  0.74889413  0.25065880  1
  O  O46  1  0.75096839  0.74889413  0.74934120  1
  O  O47  1  0.99974849  0.00000000  0.26290384  1
  O  O48  1  0.99974849  0.00000000  0.73709616  1
  O  O49  1  0.00001643  0.50000000  0.25573196  1
  O  O50  1  0.00001643  0.50000000  0.74426804  1
  O  O51  1  0.50078488  0.00000000  0.25191232  1
  O  O52  1  0.50078488  0.00000000  0.74808768  1
  O  O53  1  0.49997767  0.50000000  0.25074234  1
  O  O54  1  0.49997767  0.50000000  0.74925766  1
  O  O55  1  0.00001784  0.26435626  0.00000000  1
  O  O56  1  0.99902431  0.24915685  0.50000000  1
  O  O57  1  0.00001784  0.73564374  0.00000000  1
  O  O58  1  0.99902431  0.75084315  0.50000000  1
  O  O59  1  0.49997853  0.25309325  0.00000000  1
  O  O60  1  0.50099892  0.25180218  0.50000000  1
  O  O61  1  0.49997853  0.74690675  0.00000000  1
  O  O62  1  0.50099892  0.74819782  0.50000000  1
