# generated using pymatgen
data_GdB2HO5
_symmetry_space_group_name_H-M   'P 1'
_cell_length_a   6.51310319
_cell_length_b   5.92114946
_cell_length_c   11.21120707
_cell_angle_alpha   85.62086615
_cell_angle_beta   90.00000000
_cell_angle_gamma   90.00000000
_symmetry_Int_Tables_number   1
_chemical_formula_structural   GdB2HO5
_chemical_formula_sum   'Gd4 B8 H4 O20'
_cell_volume   431.09862154
_cell_formula_units_Z   4
loop_
 _symmetry_equiv_pos_site_id
 _symmetry_equiv_pos_as_xyz
  1  'x, y, z'
loop_
 _atom_site_type_symbol
 _atom_site_label
 _atom_site_symmetry_multiplicity
 _atom_site_fract_x
 _atom_site_fract_y
 _atom_site_fract_z
 _atom_site_occupancy
  Gd  Gd0  1  0.34992471  0.76252676  0.58147805  1
  Gd  Gd1  1  0.15007529  0.26252676  0.08147805  1
  Gd  Gd2  1  0.63779998  0.29873809  0.42448257  1
  Gd  Gd3  1  0.86220002  0.79873809  0.92448257  1
  B  B4  1  0.37217492  0.81056582  0.88668490  1
  B  B5  1  0.12782508  0.31056582  0.38668490  1
  B  B6  1  0.65990993  0.17400552  0.11210490  1
  B  B7  1  0.84009007  0.67400552  0.61210490  1
  B  B8  1  0.43059730  0.99430018  0.27242867  1
  B  B9  1  0.06940270  0.49430018  0.77242867  1
  B  B10  1  0.62104652  0.09934426  0.71674634  1
  B  B11  1  0.87895348  0.59934426  0.21674634  1
  H  H12  1  0.54087380  0.44187771  0.99050353  1
  H  H13  1  0.95912620  0.94187771  0.49050353  1
  H  H14  1  0.27278284  0.86326378  0.05547555  1
  H  H15  1  0.22721716  0.36326378  0.55547555  1
  O  O16  1  0.30055395  0.93985104  0.18606119  1
  O  O17  1  0.19944605  0.43985104  0.68606119  1
  O  O18  1  0.71539810  0.10834041  0.81455458  1
  O  O19  1  0.78460190  0.60834041  0.31455458  1
  O  O20  1  0.42100967  0.96568004  0.39462385  1
  O  O21  1  0.07899033  0.46568004  0.89462385  1
  O  O22  1  0.57167999  0.09267558  0.60622063  1
  O  O23  1  0.92832001  0.59267558  0.10622063  1
  O  O24  1  0.51066098  0.30483254  0.04898568  1
  O  O25  1  0.98933902  0.80483254  0.54898568  1
  O  O26  1  0.53736276  0.69577734  0.93760044  1
  O  O27  1  0.96263724  0.19577734  0.43760044  1
  O  O28  1  0.33763159  0.85962687  0.76928804  1
  O  O29  1  0.16236841  0.35962687  0.26928804  1
  O  O30  1  0.61392806  0.12810418  0.23502524  1
  O  O31  1  0.88607194  0.62810418  0.73502524  1
  O  O32  1  0.27534442  0.39790713  0.46906846  1
  O  O33  1  0.22465558  0.89790713  0.96906846  1
  O  O34  1  0.66652684  0.59258274  0.56566739  1
  O  O35  1  0.83347316  0.09258274  0.06566739  1
