# generated using pymatgen
data_NaHfMg30O31
_symmetry_space_group_name_H-M   'P 1'
_cell_length_a   8.58422813
_cell_length_b   8.61818148
_cell_length_c   8.61818148
_cell_angle_alpha   90.00000000
_cell_angle_beta   90.00000000
_cell_angle_gamma   90.00000000
_symmetry_Int_Tables_number   1
_chemical_formula_structural   NaHfMg30O31
_chemical_formula_sum   'Na1 Hf1 Mg30 O31'
_cell_volume   637.57682247
_cell_formula_units_Z   1
loop_
 _symmetry_equiv_pos_site_id
 _symmetry_equiv_pos_as_xyz
  1  'x, y, z'
loop_
 _atom_site_type_symbol
 _atom_site_label
 _atom_site_symmetry_multiplicity
 _atom_site_fract_x
 _atom_site_fract_y
 _atom_site_fract_z
 _atom_site_occupancy
  Na  Na0  1  0.00417941  -0.00000000  -0.00000000  1
  Hf  Hf1  1  -0.00019766  0.50000000  0.50000000  1
  Mg  Mg2  1  0.99904030  -0.00000000  0.50000000  1
  Mg  Mg3  1  0.99904030  0.50000000  -0.00000000  1
  Mg  Mg4  1  0.49642517  -0.00000000  -0.00000000  1
  Mg  Mg5  1  0.50116324  -0.00000000  0.50000000  1
  Mg  Mg6  1  0.50116324  0.50000000  -0.00000000  1
  Mg  Mg7  1  0.50047061  0.50000000  0.50000000  1
  Mg  Mg8  1  0.00029804  0.24138466  0.24138466  1
  Mg  Mg9  1  0.00029804  0.24138466  0.75861534  1
  Mg  Mg10  1  0.00029804  0.75861534  0.24138466  1
  Mg  Mg11  1  0.00029804  0.75861534  0.75861534  1
  Mg  Mg12  1  0.50018702  0.24812475  0.24812475  1
  Mg  Mg13  1  0.50018702  0.24812475  0.75187525  1
  Mg  Mg14  1  0.50018702  0.75187525  0.24812475  1
  Mg  Mg15  1  0.50018702  0.75187525  0.75187525  1
  Mg  Mg16  1  0.25061771  -0.00000000  0.25157833  1
  Mg  Mg17  1  0.25061771  -0.00000000  0.74842167  1
  Mg  Mg18  1  0.25610545  0.50000000  0.24453550  1
  Mg  Mg19  1  0.25610545  0.50000000  0.75546450  1
  Mg  Mg20  1  0.75010953  -0.00000000  0.24642489  1
  Mg  Mg21  1  0.75010953  -0.00000000  0.75357511  1
  Mg  Mg22  1  0.74436454  0.50000000  0.24342166  1
  Mg  Mg23  1  0.74436454  0.50000000  0.75657834  1
  Mg  Mg24  1  0.25061771  0.25157833  -0.00000000  1
  Mg  Mg25  1  0.25610545  0.24453550  0.50000000  1
  Mg  Mg26  1  0.25061771  0.74842167  -0.00000000  1
  Mg  Mg27  1  0.25610545  0.75546450  0.50000000  1
  Mg  Mg28  1  0.75010953  0.24642489  -0.00000000  1
  Mg  Mg29  1  0.74436454  0.24342166  0.50000000  1
  Mg  Mg30  1  0.75010953  0.75357511  -0.00000000  1
  Mg  Mg31  1  0.74436454  0.75657834  0.50000000  1
  O  O32  1  0.25196607  -0.00000000  0.50000000  1
  O  O33  1  0.25196607  0.50000000  -0.00000000  1
  O  O34  1  0.24874896  0.50000000  0.50000000  1
  O  O35  1  0.73608353  -0.00000000  -0.00000000  1
  O  O36  1  0.74859455  -0.00000000  0.50000000  1
  O  O37  1  0.74859455  0.50000000  -0.00000000  1
  O  O38  1  0.75143531  0.50000000  0.50000000  1
  O  O39  1  0.24946833  0.25245383  0.25245383  1
  O  O40  1  0.24946833  0.25245383  0.74754617  1
  O  O41  1  0.24946833  0.74754617  0.25245383  1
  O  O42  1  0.24946833  0.74754617  0.74754617  1
  O  O43  1  0.75085321  0.25070634  0.25070634  1
  O  O44  1  0.75085321  0.25070634  0.74929366  1
  O  O45  1  0.75085321  0.74929366  0.25070634  1
  O  O46  1  0.75085321  0.74929366  0.74929366  1
  O  O47  1  -0.00010579  -0.00000000  0.26463780  1
  O  O48  1  -0.00010579  -0.00000000  0.73536220  1
  O  O49  1  -0.00012844  0.50000000  0.25513284  1
  O  O50  1  -0.00012844  0.50000000  0.74486716  1
  O  O51  1  0.50064795  -0.00000000  0.25389692  1
  O  O52  1  0.50064795  -0.00000000  0.74610308  1
  O  O53  1  0.50041405  0.50000000  0.25154470  1
  O  O54  1  0.50041405  0.50000000  0.74845530  1
  O  O55  1  -0.00010579  0.26463780  -0.00000000  1
  O  O56  1  -0.00012844  0.25513284  0.50000000  1
  O  O57  1  -0.00010579  0.73536220  -0.00000000  1
  O  O58  1  -0.00012844  0.74486716  0.50000000  1
  O  O59  1  0.50064795  0.25389692  -0.00000000  1
  O  O60  1  0.50041405  0.25154470  0.50000000  1
  O  O61  1  0.50064795  0.74610308  -0.00000000  1
  O  O62  1  0.50041405  0.74845530  0.50000000  1
