# generated using pymatgen
data_YTi(WO4)2
_symmetry_space_group_name_H-M   'P 1'
_cell_length_a   5.34938367
_cell_length_b   5.82098322
_cell_length_c   9.72529730
_cell_angle_alpha   88.92068588
_cell_angle_beta   92.68265110
_cell_angle_gamma   90.54636766
_symmetry_Int_Tables_number   1
_chemical_formula_structural   YTi(WO4)2
_chemical_formula_sum   'Y2 Ti2 W4 O16'
_cell_volume   302.43594683
_cell_formula_units_Z   2
loop_
 _symmetry_equiv_pos_site_id
 _symmetry_equiv_pos_as_xyz
  1  'x, y, z'
loop_
 _atom_site_type_symbol
 _atom_site_label
 _atom_site_symmetry_multiplicity
 _atom_site_fract_x
 _atom_site_fract_y
 _atom_site_fract_z
 _atom_site_occupancy
  Y  Y0  1  0.25598142  0.65884195  0.25688342  1
  Y  Y1  1  0.74401758  0.34115705  0.74311658  1
  Ti  Ti2  1  0.77034723  0.32476099  0.23049045  1
  Ti  Ti3  1  0.22965277  0.67523801  0.76950955  1
  W  W4  1  0.25337671  0.15312557  0.49750722  1
  W  W5  1  0.25972365  0.15842558  0.00338472  1
  W  W6  1  0.74662329  0.84687443  0.50249278  1
  W  W7  1  0.74027635  0.84157442  0.99661528  1
  O  O8  1  0.43851155  0.35953222  0.14565486  1
  O  O9  1  0.06042027  0.34977387  0.35617365  1
  O  O10  1  0.56148845  0.64046678  0.85434514  1
  O  O11  1  0.93957873  0.65022613  0.64382635  1
  O  O12  1  0.43508537  0.89092027  0.61472837  1
  O  O13  1  0.08378605  0.89632888  0.88121272  1
  O  O14  1  0.56491463  0.10907973  0.38527163  1
  O  O15  1  0.91621395  0.10367112  0.11878728  1
  O  O16  1  0.88457032  0.59076606  0.13282552  1
  O  O17  1  0.62758202  0.62134540  0.38102886  1
  O  O18  1  0.11542968  0.40923494  0.86717448  1
  O  O19  1  0.37241798  0.37865560  0.61897114  1
  O  O20  1  0.41353308  0.88088394  0.10188868  1
  O  O21  1  0.58646692  0.11911706  0.89811132  1
  O  O22  1  0.07782776  0.88525781  0.40235827  1
  O  O23  1  0.92217224  0.11474319  0.59764173  1
