# generated using pymatgen
data_MgTi2O5
_symmetry_space_group_name_H-M   'P 1'
_cell_length_a   3.72746636
_cell_length_b   5.40722987
_cell_length_c   11.47812623
_cell_angle_alpha   90.00000000
_cell_angle_beta   90.00000000
_cell_angle_gamma   110.16190922
_symmetry_Int_Tables_number   1
_chemical_formula_structural   MgTi2O5
_chemical_formula_sum   'Mg2 Ti4 O10'
_cell_volume   217.16844942
_cell_formula_units_Z   2
loop_
 _symmetry_equiv_pos_site_id
 _symmetry_equiv_pos_as_xyz
  1  'x, y, z'
loop_
 _atom_site_type_symbol
 _atom_site_label
 _atom_site_symmetry_multiplicity
 _atom_site_fract_x
 _atom_site_fract_y
 _atom_site_fract_z
 _atom_site_occupancy
  Mg  Mg0  1  0.89922778  0.79845356  0.75000000  1
  Mg  Mg1  1  0.10077322  0.20154744  0.25000000  1
  Ti  Ti2  1  0.20400872  0.40801645  0.59872169  1
  Ti  Ti3  1  0.79599228  0.59198455  0.40127731  1
  Ti  Ti4  1  0.79599228  0.59198455  0.09872269  1
  Ti  Ti5  1  0.20400872  0.40801645  0.90127831  1
  O  O6  1  0.69903931  0.39807862  0.25000000  1
  O  O7  1  0.30096169  0.60192238  0.75000000  1
  O  O8  1  0.23805450  0.47610700  0.07674117  1
  O  O9  1  0.76194850  0.52389400  0.92325883  1
  O  O10  1  0.76194850  0.52389400  0.57674117  1
  O  O11  1  0.23805450  0.47610700  0.42325783  1
  O  O12  1  0.04151519  0.08302939  0.63016451  1
  O  O13  1  0.95848481  0.91696961  0.36983549  1
  O  O14  1  0.04151519  0.08302939  0.86983549  1
  O  O15  1  0.95848481  0.91696961  0.13016551  1
