# generated using pymatgen
data_CaNi2P2O9
_symmetry_space_group_name_H-M   'P 1'
_cell_length_a   6.46627569
_cell_length_b   7.31946754
_cell_length_c   14.25984228
_cell_angle_alpha   90.07445173
_cell_angle_beta   89.99988681
_cell_angle_gamma   90.00042736
_symmetry_Int_Tables_number   1
_chemical_formula_structural   CaNi2P2O9
_chemical_formula_sum   'Ca4 Ni8 P8 O36'
_cell_volume   674.91341614
_cell_formula_units_Z   4
loop_
 _symmetry_equiv_pos_site_id
 _symmetry_equiv_pos_as_xyz
  1  'x, y, z'
loop_
 _atom_site_type_symbol
 _atom_site_label
 _atom_site_symmetry_multiplicity
 _atom_site_fract_x
 _atom_site_fract_y
 _atom_site_fract_z
 _atom_site_occupancy
  Ca  Ca0  1  0.75002144  0.87859826  0.77974112  1
  Ca  Ca1  1  0.74999023  0.61998674  0.28015395  1
  Ca  Ca2  1  0.24998186  0.12012240  0.22002717  1
  Ca  Ca3  1  0.25001186  0.37969512  0.72002989  1
  Ni  Ni4  1  0.75000824  0.34937469  0.87654079  1
  Ni  Ni5  1  0.24999473  0.65067519  0.12357062  1
  Ni  Ni6  1  0.25002016  0.84998522  0.62335443  1
  Ni  Ni7  1  0.74997807  0.15027406  0.37666658  1
  Ni  Ni8  1  0.50006624  0.00019734  0.00005494  1
  Ni  Ni9  1  0.50011828  0.49996028  0.49997280  1
  Ni  Ni10  1  -0.00009400  0.49996205  0.49998378  1
  Ni  Ni11  1  -0.00008241  0.00019305  0.00005792  1
  P  P12  1  0.24999859  0.35804828  0.93532307  1
  P  P13  1  0.75000083  0.64236147  0.06486750  1
  P  P14  1  0.75000219  0.85743646  0.56473944  1
  P  P15  1  0.24999343  0.14251075  0.43511379  1
  P  P16  1  0.75000862  0.38596732  0.69229156  1
  P  P17  1  0.24998764  0.61364744  0.30767568  1
  P  P18  1  0.25000799  0.88623064  0.80767807  1
  P  P19  1  0.74999183  0.11379234  0.19227590  1
  O  O20  1  0.05234946  0.60452735  0.36769447  1
  O  O21  1  0.55229015  0.39523711  0.63230903  1
  O  O22  1  0.94759637  0.10509766  0.13225612  1
  O  O23  1  0.44764338  0.89503262  0.86770028  1
  O  O24  1  0.94772887  0.39524879  0.63231492  1
  O  O25  1  0.44763661  0.60454395  0.36769318  1
  O  O26  1  0.05238438  0.89503928  0.86770385  1
  O  O27  1  0.55237877  0.10509938  0.13225758  1
  O  O28  1  0.25001888  0.33204170  0.48724407  1
  O  O29  1  0.74999617  0.66797511  0.51261245  1
  O  O30  1  0.75000977  0.83208982  0.01295518  1
  O  O31  1  0.24998217  0.16816224  0.98713656  1
  O  O32  1  0.75001147  0.12988158  0.94639829  1
  O  O33  1  0.24998171  0.87099528  0.05424659  1
  O  O34  1  0.25003462  0.63017475  0.55334764  1
  O  O35  1  0.74998068  0.36993387  0.44653125  1
  O  O36  1  0.75000716  0.20848129  0.75320076  1
  O  O37  1  0.24998895  0.79119590  0.24683951  1
  O  O38  1  0.24999174  0.70911670  0.74640602  1
  O  O39  1  0.75000207  0.29090178  0.25352334  1
  O  O40  1  0.43658482  0.13702502  0.36714756  1
  O  O41  1  0.93657697  0.86282680  0.63267139  1
  O  O42  1  0.56341744  0.63705782  0.13295954  1
  O  O43  1  0.06333070  0.36307941  0.86711965  1
  O  O44  1  0.56344982  0.86283742  0.63268315  1
  O  O45  1  0.06338202  0.13704485  0.36715814  1
  O  O46  1  0.43667826  0.36305767  0.86712725  1
  O  O47  1  0.93657222  0.63703191  0.13296726  1
  O  O48  1  0.74999197  0.96181087  0.27042928  1
  O  O49  1  0.25000953  0.03816737  0.72949071  1
  O  O50  1  0.24999828  0.46216575  0.22931690  1
  O  O51  1  0.74999935  0.53755846  0.77064884  1
  O  O52  1  0.74999299  0.00568584  0.49126618  1
  O  O53  1  0.24999480  0.99452667  0.50864639  1
  O  O54  1  0.24999737  0.50559233  0.00845926  1
  O  O55  1  0.75000228  0.49473754  0.99142042  1
