# generated using pymatgen
data_Co4SbO8
_symmetry_space_group_name_H-M   'P 1'
_cell_length_a   5.91451754
_cell_length_b   5.83218015
_cell_length_c   5.91451754
_cell_angle_alpha   61.20194234
_cell_angle_beta   119.19731593
_cell_angle_gamma   118.79805766
_symmetry_Int_Tables_number   1
_chemical_formula_structural   Co4SbO8
_chemical_formula_sum   'Co4 Sb1 O8'
_cell_volume   147.72988378
_cell_formula_units_Z   1
loop_
 _symmetry_equiv_pos_site_id
 _symmetry_equiv_pos_as_xyz
  1  'x, y, z'
loop_
 _atom_site_type_symbol
 _atom_site_label
 _atom_site_symmetry_multiplicity
 _atom_site_fract_x
 _atom_site_fract_y
 _atom_site_fract_z
 _atom_site_occupancy
  Co  Co0  1  0.38198037  0.11122454  0.11801963  1
  Co  Co1  1  0.61801963  0.88877546  0.88198037  1
  Co  Co2  1  -0.00000000  0.50000000  -0.00000000  1
  Co  Co3  1  0.50000000  0.50000000  0.50000000  1
  Sb  Sb4  1  -0.00000000  0.00000000  0.50000000  1
  O  O5  1  0.25595450  0.70610768  0.24404550  1
  O  O6  1  0.24162709  0.24576425  0.25837291  1
  O  O7  1  0.26246422  0.25935346  0.71703176  1
  O  O8  1  0.78296824  0.25935346  0.23753578  1
  O  O9  1  0.74404550  0.29389232  0.75595450  1
  O  O10  1  0.75837291  0.75423575  0.74162709  1
  O  O11  1  0.73753578  0.74064654  0.28296824  1
  O  O12  1  0.21703176  0.74064654  0.76246422  1
