# generated using pymatgen
data_PrMgTi2O6
_symmetry_space_group_name_H-M   'P 1'
_cell_length_a   5.36331215
_cell_length_b   5.53080315
_cell_length_c   7.70070717
_cell_angle_alpha   90.00313788
_cell_angle_beta   90.00487485
_cell_angle_gamma   89.97117391
_symmetry_Int_Tables_number   1
_chemical_formula_structural   PrMgTi2O6
_chemical_formula_sum   'Pr2 Mg2 Ti4 O12'
_cell_volume   228.42930982
_cell_formula_units_Z   2
loop_
 _symmetry_equiv_pos_site_id
 _symmetry_equiv_pos_as_xyz
  1  'x, y, z'
loop_
 _atom_site_type_symbol
 _atom_site_label
 _atom_site_symmetry_multiplicity
 _atom_site_fract_x
 _atom_site_fract_y
 _atom_site_fract_z
 _atom_site_occupancy
  Pr  Pr0  1  0.01029909  0.95249702  0.74993178  1
  Pr  Pr1  1  0.51022915  0.54752725  0.25007995  1
  Mg  Mg2  1  0.48207940  0.45381413  0.74999073  1
  Mg  Mg3  1  0.98200358  0.04629393  0.25000469  1
  Ti  Ti4  1  0.00068163  0.49449628  0.99933964  1
  Ti  Ti5  1  0.00070396  0.49446239  0.50068074  1
  Ti  Ti6  1  0.50063732  0.00571382  0.49929745  1
  Ti  Ti7  1  0.50067399  0.00567634  0.00071716  1
  O  O8  1  0.07996974  0.45775181  0.25005932  1
  O  O9  1  0.21640720  0.21893622  0.94831419  1
  O  O10  1  0.21631668  0.21904322  0.55156515  1
  O  O11  1  0.31055580  0.69501651  0.55814549  1
  O  O12  1  0.31062596  0.69503509  0.94176104  1
  O  O13  1  0.37252291  0.97728769  0.24998018  1
  O  O14  1  0.57996286  0.04224564  0.75001143  1
  O  O15  1  0.71641136  0.28084458  0.05177440  1
  O  O16  1  0.71647960  0.28090515  0.44831268  1
  O  O17  1  0.81042881  0.80480820  0.05814713  1
  O  O18  1  0.81043010  0.80477994  0.44191701  1
  O  O19  1  0.87257885  0.52286681  0.74996985  1
