# generated using pymatgen
data_MgV3(P2O7)2
_symmetry_space_group_name_H-M   'P 1'
_cell_length_a   7.45711735
_cell_length_b   7.73552818
_cell_length_c   9.55191895
_cell_angle_alpha   90.00000000
_cell_angle_beta   111.68332331
_cell_angle_gamma   90.00000000
_symmetry_Int_Tables_number   1
_chemical_formula_structural   MgV3(P2O7)2
_chemical_formula_sum   'Mg2 V6 P8 O28'
_cell_volume   512.01130014
_cell_formula_units_Z   2
loop_
 _symmetry_equiv_pos_site_id
 _symmetry_equiv_pos_as_xyz
  1  'x, y, z'
loop_
 _atom_site_type_symbol
 _atom_site_label
 _atom_site_symmetry_multiplicity
 _atom_site_fract_x
 _atom_site_fract_y
 _atom_site_fract_z
 _atom_site_occupancy
  Mg  Mg0  1  0.50000000  0.00000000  0.00000000  1
  Mg  Mg1  1  0.50000000  0.50000000  0.50000000  1
  V  V2  1  0.18974698  0.87137896  0.52315658  1
  V  V3  1  0.81025302  0.37137896  0.97684342  1
  V  V4  1  0.81025302  0.12862104  0.47684342  1
  V  V5  1  0.18974698  0.62862104  0.02315658  1
  V  V6  1  0.00000000  0.00000000  0.00000000  1
  V  V7  1  0.00000000  0.50000000  0.50000000  1
  P  P8  1  0.59204869  0.07157552  0.70824013  1
  P  P9  1  0.40795131  0.57157552  0.79175987  1
  P  P10  1  0.40795131  0.92842448  0.29175987  1
  P  P11  1  0.59204869  0.42842448  0.20824013  1
  P  P12  1  0.86330493  0.79206744  0.68453559  1
  P  P13  1  0.13669507  0.29206744  0.81546441  1
  P  P14  1  0.13669507  0.20793256  0.31546441  1
  P  P15  1  0.86330493  0.70793256  0.18453559  1
  O  O16  1  0.79806707  0.62179614  0.59778910  1
  O  O17  1  0.20193293  0.12179614  0.90221090  1
  O  O18  1  0.20193293  0.37820386  0.40221090  1
  O  O19  1  0.79806707  0.87820386  0.09778910  1
  O  O20  1  0.28153760  0.61675253  0.62455107  1
  O  O21  1  0.71846240  0.11675253  0.87544893  1
  O  O22  1  0.71846240  0.38324747  0.37544893  1
  O  O23  1  0.28153760  0.88324747  0.12455107  1
  O  O24  1  0.61410349  0.20368618  0.59643053  1
  O  O25  1  0.38589651  0.70368618  0.90356947  1
  O  O26  1  0.38589651  0.79631382  0.40356947  1
  O  O27  1  0.61410349  0.29631382  0.09643053  1
  O  O28  1  0.66797649  0.88704854  0.67368576  1
  O  O29  1  0.33202351  0.38704854  0.82631424  1
  O  O30  1  0.33202351  0.11295146  0.32631424  1
  O  O31  1  0.66797649  0.61295146  0.17368576  1
  O  O32  1  0.39158401  0.47322227  0.20344168  1
  O  O33  1  0.60841599  0.97322227  0.29655832  1
  O  O34  1  0.60841599  0.52677773  0.79655832  1
  O  O35  1  0.39158401  0.02677773  0.70344168  1
  O  O36  1  0.01900689  0.21930416  0.14595163  1
  O  O37  1  0.98099311  0.71930416  0.35404837  1
  O  O38  1  0.98099311  0.78069584  0.85404837  1
  O  O39  1  0.01900689  0.28069584  0.64595163  1
  O  O40  1  0.96251587  0.58829493  0.10742102  1
  O  O41  1  0.03748413  0.08829493  0.39257898  1
  O  O42  1  0.03748413  0.41170507  0.89257898  1
  O  O43  1  0.96251587  0.91170507  0.60742102  1
