# generated using pymatgen
data_MoPO5
_symmetry_space_group_name_H-M   'P 1'
_cell_length_a   7.15123364
_cell_length_b   7.15123265
_cell_length_c   9.04236726
_cell_angle_alpha   101.46509899
_cell_angle_beta   101.46509862
_cell_angle_gamma   119.82343518
_symmetry_Int_Tables_number   1
_chemical_formula_structural   MoPO5
_chemical_formula_sum   'Mo4 P4 O20'
_cell_volume   368.30439740
_cell_formula_units_Z   4
loop_
 _symmetry_equiv_pos_site_id
 _symmetry_equiv_pos_as_xyz
  1  'x, y, z'
loop_
 _atom_site_type_symbol
 _atom_site_label
 _atom_site_symmetry_multiplicity
 _atom_site_fract_x
 _atom_site_fract_y
 _atom_site_fract_z
 _atom_site_occupancy
  Mo  Mo0  1  0.87753903  0.60617251  0.26066769  1
  Mo  Mo1  1  0.34550481  0.61687034  0.73933231  1
  Mo  Mo2  1  0.86687034  0.09550481  0.23933231  1
  Mo  Mo3  1  0.85617251  0.62753903  0.76066769  1
  P  P4  1  0.03004583  0.03225164  0.57035099  1
  P  P5  1  0.70969484  0.21190065  0.92964901  1
  P  P6  1  0.46190065  0.45969484  0.42964901  1
  P  P7  1  0.28225164  0.78004583  0.07035099  1
  O  O8  1  0.60145661  0.55991740  0.32325322  1
  O  O9  1  0.65932811  0.66292072  0.83663212  1
  O  O10  1  0.30558924  0.60348288  0.95653792  1
  O  O11  1  0.80991740  0.35145661  0.82325322  1
  O  O12  1  0.21827850  0.25407262  0.31908092  1
  O  O13  1  0.43378753  0.63660906  0.53988782  1
  O  O14  1  0.07269598  0.57628860  0.66336788  1
  O  O15  1  0.82628860  0.82269598  0.16336788  1
  O  O16  1  0.91292072  0.40932811  0.33663212  1
  O  O17  1  0.14919758  0.68499170  0.18091908  1
  O  O18  1  0.23666319  0.27820539  0.67674678  1
  O  O19  1  0.50407262  0.96827850  0.81908092  1
  O  O20  1  0.93499170  0.89919758  0.68091908  1
  O  O21  1  0.14390071  0.84672124  0.96011218  1
  O  O22  1  0.09672124  0.89390071  0.46011218  1
  O  O23  1  0.88660906  0.18378753  0.03988782  1
  O  O24  1  0.85348288  0.05558924  0.45653792  1
  O  O25  1  0.64694495  0.34905132  0.04346208  1
  O  O26  1  0.52820539  0.98666319  0.17674678  1
  O  O27  1  0.59905132  0.39694495  0.54346208  1
