# generated using pymatgen
data_ZnFe(Si2O5)2
_symmetry_space_group_name_H-M   'P 1'
_cell_length_a   7.33542815
_cell_length_b   7.33542815
_cell_length_c   14.92919123
_cell_angle_alpha   90.00000000
_cell_angle_beta   90.00000000
_cell_angle_gamma   90.00000000
_symmetry_Int_Tables_number   1
_chemical_formula_structural   ZnFe(Si2O5)2
_chemical_formula_sum   'Zn4 Fe4 Si16 O40'
_cell_volume   803.31747802
_cell_formula_units_Z   4
loop_
 _symmetry_equiv_pos_site_id
 _symmetry_equiv_pos_as_xyz
  1  'x, y, z'
loop_
 _atom_site_type_symbol
 _atom_site_label
 _atom_site_symmetry_multiplicity
 _atom_site_fract_x
 _atom_site_fract_y
 _atom_site_fract_z
 _atom_site_occupancy
  Zn  Zn0  1  0.25000000  0.75000000  0.50000000  1
  Zn  Zn1  1  0.75000000  0.25000000  0.50000000  1
  Zn  Zn2  1  0.75000000  0.25000000  0.00000000  1
  Zn  Zn3  1  0.25000000  0.75000000  0.00000000  1
  Fe  Fe4  1  0.25000000  0.25000000  0.56741068  1
  Fe  Fe5  1  0.75000000  0.75000000  0.93258932  1
  Fe  Fe6  1  0.75000000  0.75000000  0.43258932  1
  Fe  Fe7  1  0.25000000  0.25000000  0.06741068  1
  Si  Si8  1  0.90795864  0.49009027  0.64521112  1
  Si  Si9  1  0.59204136  0.00990973  0.64521112  1
  Si  Si10  1  0.99009027  0.40795864  0.85478888  1
  Si  Si11  1  0.49009027  0.59204136  0.64521112  1
  Si  Si12  1  0.00990973  0.90795864  0.64521112  1
  Si  Si13  1  0.09204136  0.99009027  0.85478888  1
  Si  Si14  1  0.40795864  0.50990973  0.85478888  1
  Si  Si15  1  0.50990973  0.09204136  0.85478888  1
  Si  Si16  1  0.09204136  0.50990973  0.35478888  1
  Si  Si17  1  0.40795864  0.99009027  0.35478888  1
  Si  Si18  1  0.00990973  0.59204136  0.14521112  1
  Si  Si19  1  0.50990973  0.40795864  0.35478888  1
  Si  Si20  1  0.99009027  0.09204136  0.35478888  1
  Si  Si21  1  0.90795864  0.00990973  0.14521112  1
  Si  Si22  1  0.59204136  0.49009027  0.14521112  1
  Si  Si23  1  0.49009027  0.90795864  0.14521112  1
  O  O24  1  0.97942855  0.33578814  0.57575671  1
  O  O25  1  0.52057145  0.16421186  0.57575671  1
  O  O26  1  0.83578814  0.47942855  0.92424329  1
  O  O27  1  0.33578814  0.52057145  0.57575671  1
  O  O28  1  0.16421186  0.97942855  0.57575671  1
  O  O29  1  0.02057145  0.83578814  0.92424329  1
  O  O30  1  0.47942855  0.66421186  0.92424329  1
  O  O31  1  0.66421186  0.02057145  0.92424329  1
  O  O32  1  0.02057145  0.66421186  0.42424329  1
  O  O33  1  0.47942855  0.83578814  0.42424329  1
  O  O34  1  0.16421186  0.52057145  0.07575671  1
  O  O35  1  0.66421186  0.47942855  0.42424329  1
  O  O36  1  0.83578814  0.02057145  0.42424329  1
  O  O37  1  0.97942855  0.16421186  0.07575671  1
  O  O38  1  0.52057145  0.33578814  0.07575671  1
  O  O39  1  0.00215890  0.31069894  0.37390569  1
  O  O40  1  0.33578814  0.97942855  0.07575671  1
  O  O41  1  0.50215990  0.81069894  0.62609431  1
  O  O42  1  0.18930106  0.49784010  0.87390569  1
  O  O43  1  0.68930106  0.50215990  0.62609431  1
  O  O44  1  0.81069894  -0.00215990  0.62609431  1
  O  O45  1  0.00215890  0.18930106  0.87390569  1
  O  O46  1  0.49784010  0.31069894  0.87390569  1
  O  O47  1  0.31069894  0.00215890  0.87390569  1
  O  O48  1  0.44104459  0.94104459  0.25000000  1
  O  O49  1  0.55895541  0.44104459  0.25000000  1
  O  O50  1  0.94104459  0.05895641  0.25000000  1
  O  O51  1  0.05895641  0.55895541  0.25000000  1
  O  O52  1  0.55895541  0.05895641  0.75000000  1
  O  O53  1  0.44104459  0.55895541  0.75000000  1
  O  O54  1  0.05895641  0.94104459  0.75000000  1
  O  O55  1  0.94104459  0.44104459  0.75000000  1
  O  O56  1  0.68930106  -0.00215990  0.12609431  1
  O  O57  1  0.50215990  0.68930106  0.12609431  1
  O  O58  1  -0.00215990  0.81069894  0.12609431  1
  O  O59  1  0.18930106  0.00215890  0.37390569  1
  O  O60  1  0.31069894  0.49784010  0.37390569  1
  O  O61  1  0.81069894  0.50215990  0.12609431  1
  O  O62  1  0.49784010  0.18930106  0.37390569  1
  O  O63  1  -0.00215990  0.68930106  0.62609431  1
