# generated using pymatgen
data_TiBi(PO4)3
_symmetry_space_group_name_H-M   'P 1'
_cell_length_a   9.00069097
_cell_length_b   9.00069076
_cell_length_c   9.00069133
_cell_angle_alpha   58.54434051
_cell_angle_beta   58.54434355
_cell_angle_gamma   58.54434743
_symmetry_Int_Tables_number   1
_chemical_formula_structural   TiBi(PO4)3
_chemical_formula_sum   'Ti2 Bi2 P6 O24'
_cell_volume   498.43471910
_cell_formula_units_Z   2
loop_
 _symmetry_equiv_pos_site_id
 _symmetry_equiv_pos_as_xyz
  1  'x, y, z'
loop_
 _atom_site_type_symbol
 _atom_site_label
 _atom_site_symmetry_multiplicity
 _atom_site_fract_x
 _atom_site_fract_y
 _atom_site_fract_z
 _atom_site_occupancy
  Ti  Ti0  1  0.13939883  0.13939883  0.13939883  1
  Ti  Ti1  1  0.63939883  0.63939883  0.63939883  1
  Bi  Bi2  1  0.35437044  0.35437044  0.35437044  1
  Bi  Bi3  1  0.85437044  0.85437044  0.85437044  1
  P  P4  1  0.03326752  0.45541713  0.75416365  1
  P  P5  1  0.45541713  0.75416365  0.03326752  1
  P  P6  1  0.75416365  0.03326752  0.45541713  1
  P  P7  1  0.25416365  0.95541713  0.53326752  1
  P  P8  1  0.53326752  0.25416365  0.95541713  1
  P  P9  1  0.95541713  0.53326752  0.25416365  1
  O  O10  1  0.11829680  0.52854354  0.27666161  1
  O  O11  1  0.27666161  0.11829680  0.52854354  1
  O  O12  1  0.05734270  0.28313999  0.92917825  1
  O  O13  1  0.52854354  0.27666161  0.11829680  1
  O  O14  1  0.02854354  0.61829680  0.77666161  1
  O  O15  1  0.22031059  0.42939784  0.59079510  1
  O  O16  1  0.28313999  0.92917825  0.05734270  1
  O  O17  1  0.42939784  0.59079510  0.22031059  1
  O  O18  1  0.21716099  0.99888332  0.36541573  1
  O  O19  1  0.59079510  0.22031059  0.42939784  1
  O  O20  1  0.09079510  0.92939784  0.72031059  1
  O  O21  1  0.36541573  0.21716099  0.99888332  1
  O  O22  1  0.61829680  0.77666161  0.02854354  1
  O  O23  1  0.92917825  0.05734269  0.28313999  1
  O  O24  1  0.42917825  0.78313999  0.55734269  1
  O  O25  1  0.77666161  0.02854354  0.61829680  1
  O  O26  1  0.55734269  0.42917825  0.78313999  1
  O  O27  1  0.72031059  0.09079510  0.92939784  1
  O  O28  1  0.78313999  0.55734270  0.42917825  1
  O  O29  1  0.99888332  0.36541573  0.21716099  1
  O  O30  1  0.49888332  0.71716099  0.86541573  1
  O  O31  1  0.92939784  0.72031059  0.09079510  1
  O  O32  1  0.71716099  0.86541573  0.49888332  1
  O  O33  1  0.86541573  0.49888332  0.71716099  1
