# generated using pymatgen
data_CaMn2(PO5)2
_symmetry_space_group_name_H-M   'P 1'
_cell_length_a   6.86996610
_cell_length_b   6.86996548
_cell_length_c   8.88156886
_cell_angle_alpha   102.77141890
_cell_angle_beta   102.77142330
_cell_angle_gamma   115.36713914
_symmetry_Int_Tables_number   1
_chemical_formula_structural   CaMn2(PO5)2
_chemical_formula_sum   'Ca2 Mn4 P4 O20'
_cell_volume   344.86174029
_cell_formula_units_Z   2
loop_
 _symmetry_equiv_pos_site_id
 _symmetry_equiv_pos_as_xyz
  1  'x, y, z'
loop_
 _atom_site_type_symbol
 _atom_site_label
 _atom_site_symmetry_multiplicity
 _atom_site_fract_x
 _atom_site_fract_y
 _atom_site_fract_z
 _atom_site_occupancy
  Ca  Ca0  1  0.49619616  0.99619616  0.50000000  1
  Ca  Ca1  1  0.24619616  0.24619616  1.00000000  1
  Mn  Mn2  1  0.87183331  0.61882783  0.25090765  1
  Mn  Mn3  1  0.36792018  0.62092465  0.74909235  1
  Mn  Mn4  1  0.87092465  0.11792018  0.24909235  1
  Mn  Mn5  1  0.86882783  0.62183331  0.75090765  1
  P  P6  1  0.03691513  0.03671073  0.58368794  1
  P  P7  1  0.70322720  0.20302280  0.91631206  1
  P  P8  1  0.45302280  0.45322720  0.41631206  1
  P  P9  1  0.28671073  0.78691513  0.08368794  1
  O  O10  1  0.57309233  0.55489208  0.30174261  1
  O  O11  1  0.66017407  0.66375355  0.83398031  1
  O  O12  1  0.32054297  0.60543497  0.97031771  1
  O  O13  1  0.80489208  0.32309232  0.80174261  1
  O  O14  1  0.22062412  0.23548033  0.30031663  1
  O  O15  1  0.41555618  0.63388390  0.52716680  1
  O  O16  1  0.07619375  0.57977224  0.66601969  1
  O  O17  1  0.82977224  0.82619375  0.16601969  1
  O  O18  1  0.91375355  0.41017407  0.33398031  1
  O  O19  1  0.17030749  0.68516369  0.19968337  1
  O  O20  1  0.25315047  0.27135071  0.69825739  1
  O  O21  1  0.48548033  0.97062412  0.80031663  1
  O  O22  1  0.93516369  0.92030749  0.69968337  1
  O  O23  1  0.13839038  0.85671810  0.97283320  1
  O  O24  1  0.10671810  0.88839038  0.47283320  1
  O  O25  1  0.88388390  0.16555618  0.02716680  1
  O  O26  1  0.85543497  0.07054297  0.47031771  1
  O  O27  1  0.63511727  0.35022626  0.02968229  1
  O  O28  1  0.52135071  0.00315047  0.19825739  1
  O  O29  1  0.60022626  0.38511727  0.52968229  1
