# generated using pymatgen
data_PrMg(FeO3)2
_symmetry_space_group_name_H-M   'P 1'
_cell_length_a   5.31951611
_cell_length_b   5.48377362
_cell_length_c   7.69579813
_cell_angle_alpha   90.00185397
_cell_angle_beta   90.00862208
_cell_angle_gamma   90.00334103
_symmetry_Int_Tables_number   1
_chemical_formula_structural   PrMg(FeO3)2
_chemical_formula_sum   'Pr2 Mg2 Fe4 O12'
_cell_volume   224.49429450
_cell_formula_units_Z   2
loop_
 _symmetry_equiv_pos_site_id
 _symmetry_equiv_pos_as_xyz
  1  'x, y, z'
loop_
 _atom_site_type_symbol
 _atom_site_label
 _atom_site_symmetry_multiplicity
 _atom_site_fract_x
 _atom_site_fract_y
 _atom_site_fract_z
 _atom_site_occupancy
  Pr  Pr0  1  0.01032187  0.95671962  0.74998822  1
  Pr  Pr1  1  0.51029702  0.54325362  0.25000470  1
  Mg  Mg2  1  0.47688532  0.44125333  0.74993687  1
  Mg  Mg3  1  0.97685059  0.05869500  0.24997542  1
  Fe  Fe4  1  0.99961703  0.49807320  0.99846961  1
  Fe  Fe5  1  0.99963561  0.49796631  0.50156579  1
  Fe  Fe6  1  0.49956900  0.00203802  0.49841989  1
  Fe  Fe7  1  0.49963296  0.00210601  0.00157480  1
  O  O8  1  0.08114594  0.45325571  0.24999352  1
  O  O9  1  0.22224847  0.22294922  0.94473655  1
  O  O10  1  0.22229074  0.22310924  0.55529030  1
  O  O11  1  0.30896400  0.69427871  0.55896748  1
  O  O12  1  0.30889813  0.69424237  0.94101645  1
  O  O13  1  0.36994622  0.97500048  0.25000522  1
  O  O14  1  0.58119766  0.04676926  0.75002734  1
  O  O15  1  0.72229910  0.27692145  0.05532641  1
  O  O16  1  0.72232327  0.27700528  0.44468784  1
  O  O17  1  0.80895418  0.80568811  0.05896289  1
  O  O18  1  0.80892392  0.80570977  0.44100224  1
  O  O19  1  0.86999398  0.52496529  0.75005046  1
