# generated using pymatgen
data_ZnSn2(PO4)2
_symmetry_space_group_name_H-M   'P 1'
_cell_length_a   5.23296512
_cell_length_b   9.62658762
_cell_length_c   16.51770981
_cell_angle_alpha   87.07365445
_cell_angle_beta   80.85742151
_cell_angle_gamma   74.23665730
_symmetry_Int_Tables_number   1
_chemical_formula_structural   ZnSn2(PO4)2
_chemical_formula_sum   'Zn4 Sn8 P8 O32'
_cell_volume   790.59572103
_cell_formula_units_Z   4
loop_
 _symmetry_equiv_pos_site_id
 _symmetry_equiv_pos_as_xyz
  1  'x, y, z'
loop_
 _atom_site_type_symbol
 _atom_site_label
 _atom_site_symmetry_multiplicity
 _atom_site_fract_x
 _atom_site_fract_y
 _atom_site_fract_z
 _atom_site_occupancy
  Zn  Zn0  1  0.38142652  0.84847402  0.83977127  1
  Zn  Zn1  1  0.07244817  0.64896872  0.66068345  1
  Zn  Zn2  1  0.92742031  0.35245539  0.33935339  1
  Zn  Zn3  1  0.61787288  0.14859253  0.16096325  1
  Sn  Sn4  1  0.18843626  0.19811322  0.98950522  1
  Sn  Sn5  1  0.37779256  0.29899516  0.51056041  1
  Sn  Sn6  1  0.81270180  0.79757739  0.01043157  1
  Sn  Sn7  1  0.50005412  0.49864735  0.00294084  1
  Sn  Sn8  1  0.62410076  0.69863344  0.48969828  1
  Sn  Sn9  1  0.65648619  0.75249748  0.25136812  1
  Sn  Sn10  1  0.34111880  0.25102718  0.75010342  1
  Sn  Sn11  1  0.99908971  0.99803461  0.50144765  1
  P  P12  1  0.08887145  0.58497982  0.86153192  1
  P  P13  1  0.69280269  0.44346586  0.62346826  1
  P  P14  1  0.90901049  0.41437177  0.13837141  1
  P  P15  1  0.23913547  0.94386133  0.12422140  1
  P  P16  1  0.46261349  0.08797921  0.36164675  1
  P  P17  1  0.54133362  0.91284405  0.63843679  1
  P  P18  1  0.30705229  0.55732561  0.37591561  1
  P  P19  1  0.75845138  0.05523473  0.87607509  1
  O  O20  1  0.73147046  0.32096580  0.11045562  1
  O  O21  1  0.64452708  0.91761305  0.89660951  1
  O  O22  1  0.84097176  0.82118638  0.60897094  1
  O  O23  1  0.73862384  0.33189458  0.55336361  1
  O  O24  1  0.16739899  0.38601575  0.06916670  1
  O  O25  1  0.60583341  0.38330790  0.70784734  1
  O  O26  1  0.62278806  0.16765995  0.94597532  1
  O  O27  1  0.93530420  0.98816101  0.12151805  1
  O  O28  1  0.26286267  0.66989682  0.44546917  1
  O  O29  1  0.46030649  0.58113703  0.60370187  1
  O  O30  1  0.75456622  0.57509584  0.13132363  1
  O  O31  1  0.58208195  0.13966141  0.27924654  1
  O  O32  1  0.35019826  0.08287218  0.10527120  1
  O  O33  1  0.95321707  0.48977665  0.62022948  1
  O  O34  1  0.26526727  0.67747099  0.89076897  1
  O  O35  1  0.23968237  0.42341866  0.86727461  1
  O  O36  1  0.00353984  0.63920737  0.77907204  1
  O  O37  1  0.37601250  0.83359369  0.05356560  1
  O  O38  1  0.53942183  0.07386051  0.63168787  1
  O  O39  1  0.42903677  0.85829462  0.72083530  1
  O  O40  1  0.04360393  0.51423665  0.37846070  1
  O  O41  1  0.37742623  0.88445311  0.57022918  1
  O  O42  1  0.06255646  0.01007712  0.87817173  1
  O  O43  1  0.30316371  0.88257437  0.20825991  1
  O  O44  1  0.53668683  0.41873161  0.39614840  1
  O  O45  1  0.16606229  0.18256633  0.39009016  1
  O  O46  1  0.99889278  0.36271583  0.22049106  1
  O  O47  1  0.62783536  0.11493571  0.42993589  1
  O  O48  1  0.82788718  0.61316119  0.92966495  1
  O  O49  1  0.69273751  0.11514591  0.79192900  1
  O  O50  1  0.39857418  0.61583177  0.29148525  1
  O  O51  1  0.46183355  0.92709432  0.36805732  1
