# generated using pymatgen
data_CaSb2P2O9
_symmetry_space_group_name_H-M   'P 1'
_cell_length_a   7.00175778
_cell_length_b   7.14889256
_cell_length_c   15.79085945
_cell_angle_alpha   90.00000000
_cell_angle_beta   90.00000000
_cell_angle_gamma   90.00000000
_symmetry_Int_Tables_number   1
_chemical_formula_structural   CaSb2P2O9
_chemical_formula_sum   'Ca4 Sb8 P8 O36'
_cell_volume   790.40853425
_cell_formula_units_Z   4
loop_
 _symmetry_equiv_pos_site_id
 _symmetry_equiv_pos_as_xyz
  1  'x, y, z'
loop_
 _atom_site_type_symbol
 _atom_site_label
 _atom_site_symmetry_multiplicity
 _atom_site_fract_x
 _atom_site_fract_y
 _atom_site_fract_z
 _atom_site_occupancy
  Ca  Ca0  1  0.75000000  0.90177851  0.77866156  1
  Ca  Ca1  1  0.75000000  0.59822149  0.27866156  1
  Ca  Ca2  1  0.25000100  0.40177751  0.72133844  1
  Ca  Ca3  1  0.25000100  0.09822149  0.22133844  1
  Sb  Sb4  1  0.75000000  0.39289814  0.88310061  1
  Sb  Sb5  1  0.25000100  0.60710186  0.11689939  1
  Sb  Sb6  1  0.25000100  0.89289814  0.61689939  1
  Sb  Sb7  1  0.75000000  0.10710186  0.38310061  1
  Sb  Sb8  1  0.50000000  -0.00000000  -0.00000000  1
  Sb  Sb9  1  0.50000000  0.50000000  0.50000000  1
  Sb  Sb10  1  0.00000000  0.50000000  0.50000000  1
  Sb  Sb11  1  0.00000000  -0.00000000  -0.00000000  1
  P  P12  1  0.25000100  0.39265376  0.92040296  1
  P  P13  1  0.75000000  0.60734624  0.07959804  1
  P  P14  1  0.75000000  0.89265376  0.57959704  1
  P  P15  1  0.25000100  0.10734724  0.42040296  1
  P  P16  1  0.75000000  0.40157623  0.69186989  1
  P  P17  1  0.75000000  0.09842377  0.19186989  1
  P  P18  1  0.25000100  0.90157623  0.80813011  1
  P  P19  1  0.25000100  0.59842277  0.30813011  1
  O  O20  1  0.06347914  0.61184066  0.36248520  1
  O  O21  1  0.56347814  0.38815834  0.63751480  1
  O  O22  1  0.93652086  0.11184066  0.13751480  1
  O  O23  1  0.43652086  0.88815934  0.86248520  1
  O  O24  1  0.93652086  0.38815834  0.63751480  1
  O  O25  1  0.43652086  0.61184066  0.36248520  1
  O  O26  1  0.06347914  0.88815934  0.86248520  1
  O  O27  1  0.56347814  0.11184066  0.13751480  1
  O  O28  1  0.25000100  0.28151214  0.48398547  1
  O  O29  1  0.75000000  0.71848886  0.51601453  1
  O  O30  1  0.75000000  0.78151114  0.01601353  1
  O  O31  1  0.25000100  0.21848886  0.98398547  1
  O  O32  1  0.75000000  0.11952610  0.92406844  1
  O  O33  1  0.25000100  0.88047390  0.07593056  1
  O  O34  1  0.25000100  0.61952610  0.57593056  1
  O  O35  1  0.75000000  0.38047490  0.42406944  1
  O  O36  1  0.75000000  0.23629443  0.75821449  1
  O  O37  1  0.25000100  0.76370557  0.24178651  1
  O  O38  1  0.25000100  0.73629443  0.74178551  1
  O  O39  1  0.75000000  0.26370657  0.25821349  1
  O  O40  1  0.42589354  0.12442429  0.36121858  1
  O  O41  1  0.92589354  0.87557571  0.63878142  1
  O  O42  1  0.57410646  0.62442329  0.13878142  1
  O  O43  1  0.07410646  0.37557571  0.86121858  1
  O  O44  1  0.57410646  0.87557571  0.63878142  1
  O  O45  1  0.07410646  0.12442429  0.36121858  1
  O  O46  1  0.42589354  0.37557571  0.86121858  1
  O  O47  1  0.92589354  0.62442329  0.13878142  1
  O  O48  1  0.75000000  0.42645943  0.02812662  1
  O  O49  1  0.25000100  0.08131118  0.75404854  1
  O  O50  1  0.25000100  0.41868782  0.25404854  1
  O  O51  1  0.75000000  0.58131118  0.74595146  1
  O  O52  1  0.75000000  0.07354057  0.52812662  1
  O  O53  1  0.25000100  0.92645943  0.47187338  1
  O  O54  1  0.25000100  0.57353957  0.97187238  1
  O  O55  1  0.75000000  0.91868882  0.24595146  1
