# generated using pymatgen
data_MgSn2(PO4)2
_symmetry_space_group_name_H-M   'P 1'
_cell_length_a   5.32150650
_cell_length_b   9.62475668
_cell_length_c   16.34430493
_cell_angle_alpha   87.48229089
_cell_angle_beta   80.64031913
_cell_angle_gamma   74.01469071
_symmetry_Int_Tables_number   1
_chemical_formula_structural   MgSn2(PO4)2
_chemical_formula_sum   'Mg4 Sn8 P8 O32'
_cell_volume   794.04209396
_cell_formula_units_Z   4
loop_
 _symmetry_equiv_pos_site_id
 _symmetry_equiv_pos_as_xyz
  1  'x, y, z'
loop_
 _atom_site_type_symbol
 _atom_site_label
 _atom_site_symmetry_multiplicity
 _atom_site_fract_x
 _atom_site_fract_y
 _atom_site_fract_z
 _atom_site_occupancy
  Mg  Mg0  1  0.37761809  0.85253263  0.84497987  1
  Mg  Mg1  1  0.07711175  0.64650877  0.65456962  1
  Mg  Mg2  1  0.92243244  0.35368022  0.34373000  1
  Mg  Mg3  1  0.62027225  0.14594403  0.15474783  1
  Sn  Sn4  1  0.19622696  0.19727528  0.98753351  1
  Sn  Sn5  1  0.38383037  0.29962247  0.51155281  1
  Sn  Sn6  1  0.80222313  0.79693967  0.01161241  1
  Sn  Sn7  1  0.49796022  0.49568587  0.99925640  1
  Sn  Sn8  1  0.61528113  0.70103308  0.48810544  1
  Sn  Sn9  1  0.65010126  0.75048058  0.25102964  1
  Sn  Sn10  1  0.34833008  0.24942728  0.74972114  1
  Sn  Sn11  1  0.99722664  0.00417410  0.50131776  1
  P  P12  1  0.09051808  0.58718574  0.86174044  1
  P  P13  1  0.69746731  0.43780238  0.62176424  1
  P  P14  1  0.90761103  0.41284578  0.13712386  1
  P  P15  1  0.24162757  0.93751823  0.12172710  1
  P  P16  1  0.45462556  0.08677235  0.36185697  1
  P  P17  1  0.54279316  0.91282184  0.63805120  1
  P  P18  1  0.30439951  0.55956833  0.37771256  1
  P  P19  1  0.75718795  0.06062013  0.87755793  1
  O  O20  1  0.74005100  0.31856620  0.10676619  1
  O  O21  1  0.63128403  0.92910928  0.90036118  1
  O  O22  1  0.83338907  0.81856806  0.60644725  1
  O  O23  1  0.75412232  0.32003372  0.55266778  1
  O  O24  1  0.17911782  0.37696887  0.07338315  1
  O  O25  1  0.60612987  0.38118648  0.70756289  1
  O  O26  1  0.62725041  0.17819569  0.94678911  1
  O  O27  1  0.94336881  0.99036200  0.12183921  1
  O  O28  1  0.24964788  0.67704874  0.44656593  1
  O  O29  1  0.46290238  0.56932665  0.59904734  1
  O  O30  1  0.76301733  0.57386072  0.12619940  1
  O  O31  1  0.55603746  0.12933151  0.27453538  1
  O  O32  1  0.36745491  0.06932779  0.09871010  1
  O  O33  1  0.94357503  0.49049475  0.62094888  1
  O  O34  1  0.25002464  0.68395670  0.89380724  1
  O  O35  1  0.24266952  0.42709053  0.87313806  1
  O  O36  1  0.03649394  0.63091549  0.77430272  1
  O  O37  1  0.36903252  0.82033447  0.05248941  1
  O  O38  1  0.54073373  0.07381684  0.62700792  1
  O  O39  1  0.44534031  0.86789741  0.72521088  1
  O  O40  1  0.05661435  0.50821083  0.37886823  1
  O  O41  1  0.36665663  0.87858937  0.57526961  1
  O  O42  1  0.05517505  0.00890467  0.87794783  1
  O  O43  1  0.30609802  0.88141514  0.20740873  1
  O  O44  1  0.53800576  0.42724378  0.40031739  1
  O  O45  1  0.16484191  0.18288633  0.39229087  1
  O  O46  1  0.96716011  0.36769343  0.22389475  1
  O  O47  1  0.63004061  0.12079131  0.42498533  1
  O  O48  1  0.81662213  0.61993527  0.92395762  1
  O  O49  1  0.69445004  0.11707658  0.79180929  1
  O  O50  1  0.39809644  0.61446041  0.29159616  1
  O  O51  1  0.45250948  0.92653223  0.37386542  1
