# generated using pymatgen
data_BiO2
_symmetry_space_group_name_H-M   'P 1'
_cell_length_a   5.58486988
_cell_length_b   7.81996829
_cell_length_c   7.81996790
_cell_angle_alpha   59.99999571
_cell_angle_beta   45.56472183
_cell_angle_gamma   45.56472808
_symmetry_Int_Tables_number   1
_chemical_formula_structural   BiO2
_chemical_formula_sum   'Bi4 O8'
_cell_volume   174.09613135
_cell_formula_units_Z   4
loop_
 _symmetry_equiv_pos_site_id
 _symmetry_equiv_pos_as_xyz
  1  'x, y, z'
loop_
 _atom_site_type_symbol
 _atom_site_label
 _atom_site_symmetry_multiplicity
 _atom_site_fract_x
 _atom_site_fract_y
 _atom_site_fract_z
 _atom_site_occupancy
  Bi  Bi0  1  0.56533262  0.14488946  0.14488946  1
  Bi  Bi1  1  0.60077604  0.13151344  0.63385576  1
  Bi  Bi2  1  0.60077604  0.63385576  0.13151244  1
  Bi  Bi3  1  0.60077604  0.63385576  0.63385576  1
  O  O4  1  0.30504010  0.41695170  0.41695170  1
  O  O5  1  0.30504010  0.41695170  0.86105451  1
  O  O6  1  0.30504010  0.86105451  0.41695170  1
  O  O7  1  0.92691589  0.35769404  0.35769404  1
  O  O8  1  0.48085416  0.83971461  0.83971461  1
  O  O9  1  0.81393397  0.34797039  0.91904782  1
  O  O10  1  0.81393397  0.91904782  0.34797039  1
  O  O11  1  0.81393397  0.91904782  0.91904782  1
