# generated using pymatgen
data_AlCr3O6
_symmetry_space_group_name_H-M   'P 1'
_cell_length_a   17.73360382
_cell_length_b   5.90858442
_cell_length_c   5.90859338
_cell_angle_alpha   59.99793911
_cell_angle_beta   60.01161694
_cell_angle_gamma   60.01156904
_symmetry_Int_Tables_number   1
_chemical_formula_structural   AlCr3O6
_chemical_formula_sum   'Al4 Cr12 O24'
_cell_volume   437.84345712
_cell_formula_units_Z   4
loop_
 _symmetry_equiv_pos_site_id
 _symmetry_equiv_pos_as_xyz
  1  'x, y, z'
loop_
 _atom_site_type_symbol
 _atom_site_label
 _atom_site_symmetry_multiplicity
 _atom_site_fract_x
 _atom_site_fract_y
 _atom_site_fract_z
 _atom_site_occupancy
  Al  Al0  1  0.54524343  0.62140017  0.62139842  1
  Al  Al1  1  0.87297308  0.62693944  0.62693946  1
  Al  Al2  1  0.12702692  0.37306056  0.37306054  1
  Al  Al3  1  0.45475657  0.37859983  0.37860158  1
  Cr  Cr4  1  -0.00000000  0.50000000  0.00000000  1
  Cr  Cr5  1  0.33203161  0.50782527  0.99812077  1
  Cr  Cr6  1  0.66796839  0.49217473  0.00187923  1
  Cr  Cr7  1  -0.00000000  -0.00000000  0.00000000  1
  Cr  Cr8  1  0.33205186  0.99809165  0.99809072  1
  Cr  Cr9  1  0.66794814  0.00190835  0.00190928  1
  Cr  Cr10  1  0.17112196  0.99566111  0.99566062  1
  Cr  Cr11  1  0.50000000  -0.00000000  0.00000000  1
  Cr  Cr12  1  0.82887804  0.00433889  0.00433938  1
  Cr  Cr13  1  -0.00000000  -0.00000000  0.50000000  1
  Cr  Cr14  1  0.33203302  0.99810795  0.50783493  1
  Cr  Cr15  1  0.66796698  0.00189205  0.49216507  1
  O  O16  1  0.06320272  0.77012875  0.77013020  1
  O  O17  1  0.41876752  0.74791177  0.74791314  1
  O  O18  1  0.74486380  0.75507741  0.75507538  1
  O  O19  1  0.08416905  0.24738856  0.75284200  1
  O  O20  1  0.41810011  0.24413341  0.75756788  1
  O  O21  1  0.74169545  0.23954592  0.79560617  1
  O  O22  1  0.08416766  0.75284164  0.24739161  1
  O  O23  1  0.41809897  0.75756562  0.24413523  1
  O  O24  1  0.74169637  0.79560946  0.23954129  1
  O  O25  1  0.08413039  0.24750360  0.24750670  1
  O  O26  1  0.41812172  0.24408388  0.24408297  1
  O  O27  1  0.74173512  0.23945988  0.23945458  1
  O  O28  1  0.25830455  0.76045408  0.20439383  1
  O  O29  1  0.58189989  0.75586659  0.24243212  1
  O  O30  1  0.91583095  0.75261144  0.24715800  1
  O  O31  1  0.25513620  0.24492259  0.24492462  1
  O  O32  1  0.58123248  0.25208823  0.25208686  1
  O  O33  1  0.93679728  0.22987125  0.22986980  1
  O  O34  1  0.25830363  0.20439054  0.76045871  1
  O  O35  1  0.58190103  0.24243438  0.75586477  1
  O  O36  1  0.91583234  0.24715836  0.75260839  1
  O  O37  1  0.25826488  0.76054012  0.76054542  1
  O  O38  1  0.58187828  0.75591612  0.75591703  1
  O  O39  1  0.91586961  0.75249640  0.75249330  1
