# generated using pymatgen
data_PrZn(BiO3)2
_symmetry_space_group_name_H-M   'P 1'
_cell_length_a   5.71539932
_cell_length_b   6.49596909
_cell_length_c   8.63523581
_cell_angle_alpha   89.91119821
_cell_angle_beta   90.00413390
_cell_angle_gamma   89.99666375
_symmetry_Int_Tables_number   1
_chemical_formula_structural   PrZn(BiO3)2
_chemical_formula_sum   'Pr2 Zn2 Bi4 O12'
_cell_volume   320.60050809
_cell_formula_units_Z   2
loop_
 _symmetry_equiv_pos_site_id
 _symmetry_equiv_pos_as_xyz
  1  'x, y, z'
loop_
 _atom_site_type_symbol
 _atom_site_label
 _atom_site_symmetry_multiplicity
 _atom_site_fract_x
 _atom_site_fract_y
 _atom_site_fract_z
 _atom_site_occupancy
  Pr  Pr0  1  0.03902482  0.91614097  0.74958654  1
  Pr  Pr1  1  0.53900023  0.58377386  0.25042373  1
  Zn  Zn2  1  0.52895181  0.65211850  0.74989594  1
  Zn  Zn3  1  0.02898258  0.84786943  0.25009557  1
  Bi  Bi4  1  0.00686370  0.46856942  0.99168320  1
  Bi  Bi5  1  0.00676506  0.46840186  0.50833992  1
  Bi  Bi6  1  0.50675949  0.03162474  0.49166252  1
  Bi  Bi7  1  0.50684298  0.03144317  0.00829884  1
  O  O8  1  0.13053099  0.51703383  0.24962096  1
  O  O9  1  0.16057935  0.16375131  0.93529679  1
  O  O10  1  0.16033257  0.16337080  0.56497496  1
  O  O11  1  0.30726845  0.70765339  0.57664766  1
  O  O12  1  0.30697573  0.70751503  0.92378802  1
  O  O13  1  0.35279385  0.94060639  0.24975366  1
  O  O14  1  0.63055471  0.98297925  0.75037765  1
  O  O15  1  0.66047958  0.33627713  0.06475638  1
  O  O16  1  0.66017904  0.33669863  0.43492553  1
  O  O17  1  0.80702245  0.79245679  0.07618002  1
  O  O18  1  0.80728253  0.79227814  0.42344796  1
  O  O19  1  0.85280808  0.55943635  0.75024316  1
