# generated using pymatgen
data_CrO2
_symmetry_space_group_name_H-M   'P 1'
_cell_length_a   2.99871456
_cell_length_b   8.68041497
_cell_length_c   10.40384857
_cell_angle_alpha   90.01462821
_cell_angle_beta   90.00001886
_cell_angle_gamma   90.00002996
_symmetry_Int_Tables_number   1
_chemical_formula_structural   CrO2
_chemical_formula_sum   'Cr8 O16'
_cell_volume   270.81307219
_cell_formula_units_Z   8
loop_
 _symmetry_equiv_pos_site_id
 _symmetry_equiv_pos_as_xyz
  1  'x, y, z'
loop_
 _atom_site_type_symbol
 _atom_site_label
 _atom_site_symmetry_multiplicity
 _atom_site_fract_x
 _atom_site_fract_y
 _atom_site_fract_z
 _atom_site_occupancy
  Cr  Cr0  1  0.24999900  0.41578564  0.10517540  1
  Cr  Cr1  1  0.75000000  0.08418666  0.60509865  1
  Cr  Cr2  1  0.25000000  0.91588081  0.39492351  1
  Cr  Cr3  1  0.75000000  0.58415316  0.89484862  1
  Cr  Cr4  1  0.74999900  0.55728934  0.38502451  1
  Cr  Cr5  1  0.25000000  0.44275227  0.61493887  1
  Cr  Cr6  1  0.75000000  0.05708528  0.11507905  1
  Cr  Cr7  1  0.25000000  0.94286502  0.88491402  1
  O  O8  1  0.24999900  0.92152956  0.06845025  1
  O  O9  1  0.75000000  0.07842766  0.93159143  1
  O  O10  1  0.24999900  0.42164941  0.43147756  1
  O  O11  1  0.75000000  0.57840076  0.56845787  1
  O  O12  1  0.25000000  0.02840527  0.71775712  1
  O  O13  1  0.74999900  0.97163893  0.28225762  1
  O  O14  1  0.24999900  0.52826120  0.78220769  1
  O  O15  1  0.74999900  0.47173452  0.21778897  1
  O  O16  1  0.25000000  0.61077119  0.01592911  1
  O  O17  1  0.74999900  0.38916637  0.98402813  1
  O  O18  1  0.25000000  0.11081640  0.48405350  1
  O  O19  1  0.74999900  0.88924993  0.51599892  1
  O  O20  1  0.74999900  0.79866486  0.85872557  1
  O  O21  1  0.25000000  0.20125092  0.14129808  1
  O  O22  1  0.25000000  0.70138225  0.35873501  1
  O  O23  1  0.74999900  0.29865258  0.64124057  1
