# generated using pymatgen
data_CaSn3(P2O7)2
_symmetry_space_group_name_H-M   'P 1'
_cell_length_a   8.34486494
_cell_length_b   8.31367146
_cell_length_c   10.11145669
_cell_angle_alpha   90.00000000
_cell_angle_beta   108.31155807
_cell_angle_gamma   90.00000000
_symmetry_Int_Tables_number   1
_chemical_formula_structural   CaSn3(P2O7)2
_chemical_formula_sum   'Ca2 Sn6 P8 O28'
_cell_volume   665.97479691
_cell_formula_units_Z   2
loop_
 _symmetry_equiv_pos_site_id
 _symmetry_equiv_pos_as_xyz
  1  'x, y, z'
loop_
 _atom_site_type_symbol
 _atom_site_label
 _atom_site_symmetry_multiplicity
 _atom_site_fract_x
 _atom_site_fract_y
 _atom_site_fract_z
 _atom_site_occupancy
  Ca  Ca0  1  0.50000000  0.00000000  -0.00000000  1
  Ca  Ca1  1  0.50000000  0.50000000  0.50000000  1
  Sn  Sn2  1  0.20338072  0.88130140  0.53736908  1
  Sn  Sn3  1  0.79661928  0.38130140  0.96263092  1
  Sn  Sn4  1  0.79661928  0.11869860  0.46263092  1
  Sn  Sn5  1  0.20338072  0.61869860  0.03736908  1
  Sn  Sn6  1  -0.00000000  0.00000000  -0.00000000  1
  Sn  Sn7  1  -0.00000000  0.50000000  0.50000000  1
  P  P8  1  0.59046283  0.05185139  0.70764116  1
  P  P9  1  0.40953717  0.55185139  0.79235884  1
  P  P10  1  0.40953717  0.94814861  0.29235884  1
  P  P11  1  0.59046283  0.44814861  0.20764116  1
  P  P12  1  0.82451213  0.79464778  0.67523507  1
  P  P13  1  0.17548787  0.29464778  0.82476493  1
  P  P14  1  0.17548787  0.20535222  0.32476493  1
  P  P15  1  0.82451213  0.70535222  0.17523507  1
  O  O16  1  0.77541399  0.63405803  0.59882950  1
  O  O17  1  0.22458601  0.13405803  0.90117050  1
  O  O18  1  0.22458601  0.36594197  0.40117050  1
  O  O19  1  0.77541399  0.86594197  0.09882950  1
  O  O20  1  0.32082558  0.57389112  0.63435865  1
  O  O21  1  0.67917442  0.07389112  0.86564135  1
  O  O22  1  0.67917442  0.42610888  0.36564135  1
  O  O23  1  0.32082558  0.92610888  0.13435865  1
  O  O24  1  0.63905209  0.17720986  0.61472345  1
  O  O25  1  0.36094791  0.67720986  0.88527655  1
  O  O26  1  0.36094791  0.82279014  0.38527655  1
  O  O27  1  0.63905209  0.32279014  0.11472345  1
  O  O28  1  0.64261879  0.87494254  0.66620000  1
  O  O29  1  0.35738121  0.37494254  0.83380000  1
  O  O30  1  0.35738121  0.12505746  0.33380000  1
  O  O31  1  0.64261879  0.62505746  0.16620000  1
  O  O32  1  0.40079476  0.46468298  0.18424325  1
  O  O33  1  0.59920524  0.96468298  0.31575675  1
  O  O34  1  0.59920524  0.53531702  0.81575675  1
  O  O35  1  0.40079476  0.03531702  0.68424325  1
  O  O36  1  0.06694443  0.21662293  0.17292330  1
  O  O37  1  0.93305557  0.71662293  0.32707670  1
  O  O38  1  0.93305557  0.78337707  0.82707670  1
  O  O39  1  0.06694443  0.28337707  0.67292330  1
  O  O40  1  0.90394661  0.58512524  0.09581254  1
  O  O41  1  0.09605339  0.08512524  0.40418746  1
  O  O42  1  0.09605339  0.41487476  0.90418746  1
  O  O43  1  0.90394661  0.91487476  0.59581254  1
