# generated using pymatgen
data_Ba2YCr3O7
_symmetry_space_group_name_H-M   'P 1'
_cell_length_a   3.93193073
_cell_length_b   4.03853964
_cell_length_c   11.72901407
_cell_angle_alpha   90.00004671
_cell_angle_beta   90.00022305
_cell_angle_gamma   89.99955908
_symmetry_Int_Tables_number   1
_chemical_formula_structural   Ba2YCr3O7
_chemical_formula_sum   'Ba2 Y1 Cr3 O7'
_cell_volume   186.24804185
_cell_formula_units_Z   1
loop_
 _symmetry_equiv_pos_site_id
 _symmetry_equiv_pos_as_xyz
  1  'x, y, z'
loop_
 _atom_site_type_symbol
 _atom_site_label
 _atom_site_symmetry_multiplicity
 _atom_site_fract_x
 _atom_site_fract_y
 _atom_site_fract_z
 _atom_site_occupancy
  Ba  Ba0  1  0.50001255  0.50000134  0.81897780  1
  Ba  Ba1  1  0.50001379  0.50000012  0.18104776  1
  Y  Y2  1  0.49996526  0.49998591  0.49994756  1
  Cr  Cr3  1  0.99996175  0.99997950  0.64909751  1
  Cr  Cr4  1  0.99997970  0.99999135  0.35088536  1
  Cr  Cr5  1  0.00019159  0.00004527  0.00004086  1
  O  O6  1  0.00002504  0.50004362  0.99990815  1
  O  O7  1  0.49996533  0.99998447  0.61966589  1
  O  O8  1  0.49996411  0.99998844  0.38045908  1
  O  O9  1  0.99995941  0.49998958  0.62103282  1
  O  O10  1  0.99996803  0.49999033  0.37907969  1
  O  O11  1  0.99999220  0.00000162  0.82441553  1
  O  O12  1  0.00000025  0.99999944  0.17544200  1
