# generated using pymatgen
data_Eu2Ni2O5
_symmetry_space_group_name_H-M   'P 1'
_cell_length_a   5.31404374
_cell_length_b   5.55808555
_cell_length_c   8.69082213
_cell_angle_alpha   108.64886705
_cell_angle_beta   107.80192734
_cell_angle_gamma   90.00000000
_symmetry_Int_Tables_number   1
_chemical_formula_structural   Eu2Ni2O5
_chemical_formula_sum   'Eu4 Ni4 O10'
_cell_volume   230.20498216
_cell_formula_units_Z   2
loop_
 _symmetry_equiv_pos_site_id
 _symmetry_equiv_pos_as_xyz
  1  'x, y, z'
loop_
 _atom_site_type_symbol
 _atom_site_label
 _atom_site_symmetry_multiplicity
 _atom_site_fract_x
 _atom_site_fract_y
 _atom_site_fract_z
 _atom_site_occupancy
  Eu  Eu0  1  0.61336223  0.12758717  0.21935827  1
  Eu  Eu1  1  0.39400396  0.87241283  0.78064173  1
  Eu  Eu2  1  0.11336223  0.59177109  0.21935827  1
  Eu  Eu3  1  0.89400396  0.40822891  0.78064173  1
  Ni  Ni4  1  0.01194489  0.00000000  0.00000000  1
  Ni  Ni5  1  0.51194489  0.50000000  0.00000000  1
  Ni  Ni6  1  0.22006324  0.19178721  0.50000000  1
  Ni  Ni7  1  0.72006324  0.80821279  0.50000000  1
  O  O8  1  0.24503297  0.24035812  0.97295096  1
  O  O9  1  0.27208201  0.75964188  0.02704904  1
  O  O10  1  0.74503297  0.23259284  0.97295096  1
  O  O11  1  0.77208201  0.76740716  0.02704904  1
  O  O12  1  0.16703827  0.19848520  0.26972016  1
  O  O13  1  0.89731811  0.80151480  0.73027984  1
  O  O14  1  0.66703827  0.57123496  0.26972016  1
  O  O15  1  0.39731811  0.42876504  0.73027984  1
  O  O16  1  0.84315430  0.14914003  0.50000000  1
  O  O17  1  0.34315430  0.85085997  0.50000000  1
