# generated using pymatgen
data_CaLaCrNiO6
_symmetry_space_group_name_H-M   'P 1'
_cell_length_a   5.46351036
_cell_length_b   5.54401347
_cell_length_c   7.66091916
_cell_angle_alpha   90.00000000
_cell_angle_beta   90.07911249
_cell_angle_gamma   90.00000000
_symmetry_Int_Tables_number   1
_chemical_formula_structural   CaLaCrNiO6
_chemical_formula_sum   'Ca2 La2 Cr2 Ni2 O12'
_cell_volume   232.04729683
_cell_formula_units_Z   2
loop_
 _symmetry_equiv_pos_site_id
 _symmetry_equiv_pos_as_xyz
  1  'x, y, z'
loop_
 _atom_site_type_symbol
 _atom_site_label
 _atom_site_symmetry_multiplicity
 _atom_site_fract_x
 _atom_site_fract_y
 _atom_site_fract_z
 _atom_site_occupancy
  Ca  Ca0  1  0.48898507  0.45405850  0.75080922  1
  Ca  Ca1  1  0.98898507  0.04594150  0.25080922  1
  La  La2  1  0.00842721  0.96393389  0.74868700  1
  La  La3  1  0.50842721  0.53606611  0.24868700  1
  Cr  Cr4  1  0.50099513  0.00108186  0.49897278  1
  Cr  Cr5  1  0.00099513  0.49891814  0.99897278  1
  Ni  Ni6  1  0.50073135  0.99984005  0.00045641  1
  Ni  Ni7  1  0.00073135  0.50015995  0.50045641  1
  O  O8  1  0.07148093  0.47966843  0.23745851  1
  O  O9  1  0.20607928  0.22172708  0.95912625  1
  O  O10  1  0.22778463  0.20513542  0.53885718  1
  O  O11  1  0.27527645  0.69862618  0.95799918  1
  O  O12  1  0.30042685  0.72026120  0.54467239  1
  O  O13  1  0.41981110  0.98295658  0.26296110  1
  O  O14  1  0.57148093  0.02033157  0.73745851  1
  O  O15  1  0.70607928  0.27827292  0.45912625  1
  O  O16  1  0.72778463  0.29486458  0.03885718  1
  O  O17  1  0.77527645  0.80137382  0.45799918  1
  O  O18  1  0.80042685  0.77973880  0.04467239  1
  O  O19  1  0.91981110  0.51704342  0.76296110  1
