# generated using pymatgen
data_Na2V2O5
_symmetry_space_group_name_H-M   'P 1'
_cell_length_a   5.41702554
_cell_length_b   5.63507818
_cell_length_c   8.23687135
_cell_angle_alpha   110.00268837
_cell_angle_beta   109.19764674
_cell_angle_gamma   90.00000000
_symmetry_Int_Tables_number   1
_chemical_formula_structural   Na2V2O5
_chemical_formula_sum   'Na4 V4 O10'
_cell_volume   221.32778496
_cell_formula_units_Z   2
loop_
 _symmetry_equiv_pos_site_id
 _symmetry_equiv_pos_as_xyz
  1  'x, y, z'
loop_
 _atom_site_type_symbol
 _atom_site_label
 _atom_site_symmetry_multiplicity
 _atom_site_fract_x
 _atom_site_fract_y
 _atom_site_fract_z
 _atom_site_occupancy
  Na  Na0  1  0.60472317  0.13564584  0.21350756  1
  Na  Na1  1  0.39121561  0.86435416  0.78649244  1
  Na  Na2  1  0.10472317  0.57786172  0.21350756  1
  Na  Na3  1  0.89121561  0.42213828  0.78649244  1
  V  V4  1  0.99404090  -0.00000000  -0.00000000  1
  V  V5  1  0.49404090  0.50000000  -0.00000000  1
  V  V6  1  0.20684177  0.17859946  0.50000000  1
  V  V7  1  0.70684177  0.82140054  0.50000000  1
  O  O8  1  0.26668516  0.23832348  0.97452592  1
  O  O9  1  0.29215923  0.76167652  0.02547408  1
  O  O10  1  0.76668516  0.23620244  0.97452592  1
  O  O11  1  0.79215923  0.76379756  0.02547408  1
  O  O12  1  0.16394753  0.19966528  0.28192368  1
  O  O13  1  0.88202385  0.80033472  0.71807632  1
  O  O14  1  0.66394753  0.58225839  0.28192368  1
  O  O15  1  0.38202385  0.41774161  0.71807632  1
  O  O16  1  0.86236279  0.12041841  0.50000000  1
  O  O17  1  0.36236279  0.87958159  0.50000000  1
