# generated using pymatgen
data_Ba2YCo3O8
_symmetry_space_group_name_H-M   'P 1'
_cell_length_a   3.91400111
_cell_length_b   3.91400738
_cell_length_c   12.10007360
_cell_angle_alpha   90.00004383
_cell_angle_beta   89.99998306
_cell_angle_gamma   90.00004070
_symmetry_Int_Tables_number   1
_chemical_formula_structural   Ba2YCo3O8
_chemical_formula_sum   'Ba2 Y1 Co3 O8'
_cell_volume   185.36622119
_cell_formula_units_Z   1
loop_
 _symmetry_equiv_pos_site_id
 _symmetry_equiv_pos_as_xyz
  1  'x, y, z'
loop_
 _atom_site_type_symbol
 _atom_site_label
 _atom_site_symmetry_multiplicity
 _atom_site_fract_x
 _atom_site_fract_y
 _atom_site_fract_z
 _atom_site_occupancy
  Ba  Ba0  1  0.49999900  0.50000000  0.16764547  1
  Ba  Ba1  1  0.49999900  0.50000000  0.83258440  1
  Y  Y2  1  0.50000100  0.50000000  0.49997360  1
  Co  Co3  1  1.00000000  0.00000100  0.33886374  1
  Co  Co4  1  0.00000000  1.00000000  0.00015141  1
  Co  Co5  1  0.00000000  0.99999900  0.66105178  1
  O  O6  1  0.00000000  0.50000100  0.38239577  1
  O  O7  1  0.50000000  0.00000100  0.38239577  1
  O  O8  1  0.50000100  0.00000000  0.00009918  1
  O  O9  1  0.99999900  1.00000000  0.19154430  1
  O  O10  1  1.00000000  0.50000000  0.61739802  1
  O  O11  1  0.50000100  0.99999900  0.61739802  1
  O  O12  1  0.99999900  0.00000000  0.80839835  1
  O  O13  1  0.00000100  0.50000000  0.00009918  1
