# generated using pymatgen
data_Sr2YTlCo2O7
_symmetry_space_group_name_H-M   'P 1'
_cell_length_a   3.84650619
_cell_length_b   3.84650619
_cell_length_c   12.25014353
_cell_angle_alpha   90.00000000
_cell_angle_beta   90.00000000
_cell_angle_gamma   90.00000000
_symmetry_Int_Tables_number   1
_chemical_formula_structural   Sr2YTlCo2O7
_chemical_formula_sum   'Sr2 Y1 Tl1 Co2 O7'
_cell_volume   181.24834452
_cell_formula_units_Z   1
loop_
 _symmetry_equiv_pos_site_id
 _symmetry_equiv_pos_as_xyz
  1  'x, y, z'
loop_
 _atom_site_type_symbol
 _atom_site_label
 _atom_site_symmetry_multiplicity
 _atom_site_fract_x
 _atom_site_fract_y
 _atom_site_fract_z
 _atom_site_occupancy
  Sr  Sr0  1  0.50000000  0.50000000  0.79435357  1
  Sr  Sr1  1  0.50000000  0.50000000  0.20564643  1
  Y  Y2  1  0.50000000  0.50000000  0.50000000  1
  Tl  Tl3  1  0.00000000  -0.00000000  0.00000000  1
  Co  Co4  1  0.00000000  0.00000000  0.64551036  1
  Co  Co5  1  -0.00000000  -0.00000000  0.35448964  1
  O  O6  1  0.50000000  0.00000000  0.61920523  1
  O  O7  1  -0.00000000  0.50000000  0.61920523  1
  O  O8  1  0.50000000  -0.00000000  0.38079477  1
  O  O9  1  0.00000000  0.50000000  0.38079477  1
  O  O10  1  0.00000000  0.00000000  0.81908112  1
  O  O11  1  0.00000000  -0.00000000  0.18091888  1
  O  O12  1  0.50000000  0.50000000  0.00000000  1
