# generated using pymatgen
data_BaCaWF7
_symmetry_space_group_name_H-M   'P 1'
_cell_length_a   5.97731203
_cell_length_b   10.27059208
_cell_length_c   10.66116122
_cell_angle_alpha   90.00000000
_cell_angle_beta   90.00000000
_cell_angle_gamma   91.33923180
_symmetry_Int_Tables_number   1
_chemical_formula_structural   BaCaWF7
_chemical_formula_sum   'Ba4 Ca4 W4 F28'
_cell_volume   654.31559482
_cell_formula_units_Z   4
loop_
 _symmetry_equiv_pos_site_id
 _symmetry_equiv_pos_as_xyz
  1  'x, y, z'
loop_
 _atom_site_type_symbol
 _atom_site_label
 _atom_site_symmetry_multiplicity
 _atom_site_fract_x
 _atom_site_fract_y
 _atom_site_fract_z
 _atom_site_occupancy
  Ba  Ba0  1  0.26981034  0.50053222  0.33655955  1
  Ba  Ba1  1  0.73018966  0.99946778  0.83655955  1
  Ba  Ba2  1  0.73018966  0.49946778  0.66344045  1
  Ba  Ba3  1  0.26981034  0.00053222  0.16344045  1
  Ca  Ca4  1  0.69613965  0.81891723  0.40641435  1
  Ca  Ca5  1  0.30386035  0.68108277  0.90641435  1
  Ca  Ca6  1  0.69613965  0.31891723  0.09358565  1
  Ca  Ca7  1  0.30386035  0.18108277  0.59358565  1
  W  W8  1  0.18949993  0.80997657  0.62057522  1
  W  W9  1  0.81050007  0.19002343  0.37942478  1
  W  W10  1  0.18949993  0.30997657  0.87942478  1
  W  W11  1  0.81050007  0.69002343  0.12057522  1
  F  F12  1  0.11993737  0.10727807  0.42450997  1
  F  F13  1  0.35061981  0.37593889  0.04417226  1
  F  F14  1  0.48186229  0.73489100  0.70793790  1
  F  F15  1  0.51813771  0.26510900  0.29206210  1
  F  F16  1  0.92927217  0.36531931  0.46355393  1
  F  F17  1  0.28996932  0.48915556  0.79433204  1
  F  F18  1  0.01114320  0.74474487  0.78244024  1
  F  F19  1  0.07072783  0.13468069  0.96355393  1
  F  F20  1  0.35061981  0.87593889  0.45582774  1
  F  F21  1  0.51813771  0.76510900  0.20793790  1
  F  F22  1  0.11993737  0.60727807  0.07549003  1
  F  F23  1  0.88006263  0.89272193  0.57549003  1
  F  F24  1  0.98885680  0.75525513  0.28244024  1
  F  F25  1  0.41282295  0.87896469  0.96001696  1
  F  F26  1  0.07072783  0.63468069  0.53644607  1
  F  F27  1  0.92927217  0.86531931  0.03644607  1
  F  F28  1  0.98885680  0.25525513  0.21755976  1
  F  F29  1  0.88006263  0.39272193  0.92450997  1
  F  F30  1  0.58717705  0.62103531  0.46001696  1
  F  F31  1  0.64938019  0.62406111  0.95582774  1
  F  F32  1  0.58717705  0.12103531  0.03998304  1
  F  F33  1  0.01114320  0.24474487  0.71755976  1
  F  F34  1  0.41282295  0.37896469  0.53998304  1
  F  F35  1  0.71003068  0.01084444  0.29433204  1
  F  F36  1  0.71003068  0.51084444  0.20566796  1
  F  F37  1  0.28996932  0.98915556  0.70566796  1
  F  F38  1  0.64938019  0.12406111  0.54417226  1
  F  F39  1  0.48186229  0.23489100  0.79206210  1
