# generated using pymatgen
data_CrSiW
_symmetry_space_group_name_H-M   'P 1'
_cell_length_a   4.87568064
_cell_length_b   4.82153176
_cell_length_c   7.66630206
_cell_angle_alpha   90.00000000
_cell_angle_beta   90.00000000
_cell_angle_gamma   119.63665682
_symmetry_Int_Tables_number   1
_chemical_formula_structural   CrSiW
_chemical_formula_sum   'Cr4 Si4 W4'
_cell_volume   156.64455519
_cell_formula_units_Z   4
loop_
 _symmetry_equiv_pos_site_id
 _symmetry_equiv_pos_as_xyz
  1  'x, y, z'
loop_
 _atom_site_type_symbol
 _atom_site_label
 _atom_site_symmetry_multiplicity
 _atom_site_fract_x
 _atom_site_fract_y
 _atom_site_fract_z
 _atom_site_occupancy
  Cr  Cr0  1  0.00627806  0.00317865  0.50193423  1
  Cr  Cr1  1  0.00627806  0.00317865  0.99806577  1
  Cr  Cr2  1  0.16240670  0.33854893  0.75000000  1
  Cr  Cr3  1  0.16243562  0.82388356  0.75000000  1
  Si  Si4  1  0.65280676  0.82634767  0.75000000  1
  Si  Si5  1  0.83309181  0.66386736  0.25000000  1
  Si  Si6  1  0.83306891  0.16921438  0.25000000  1
  Si  Si7  1  0.33752722  0.16875977  0.25000000  1
  W  W8  1  0.66855467  0.33426998  0.56018140  1
  W  W9  1  0.33449876  0.66724053  0.42822435  1
  W  W10  1  0.33449876  0.66724053  0.07177565  1
  W  W11  1  0.66855467  0.33426998  0.93981860  1
