# generated using pymatgen
data_CuMoO4
_symmetry_space_group_name_H-M   'P 1'
_cell_length_a   6.69547411
_cell_length_b   8.88857703
_cell_length_c   12.13386511
_cell_angle_alpha   90.00000000
_cell_angle_beta   90.17771545
_cell_angle_gamma   90.00000000
_symmetry_Int_Tables_number   1
_chemical_formula_structural   CuMoO4
_chemical_formula_sum   'Cu8 Mo8 O32'
_cell_volume   722.12212088
_cell_formula_units_Z   8
loop_
 _symmetry_equiv_pos_site_id
 _symmetry_equiv_pos_as_xyz
  1  'x, y, z'
loop_
 _atom_site_type_symbol
 _atom_site_label
 _atom_site_symmetry_multiplicity
 _atom_site_fract_x
 _atom_site_fract_y
 _atom_site_fract_z
 _atom_site_occupancy
  Cu  Cu0  1  0.78418209  0.16024845  0.87949913  1
  Cu  Cu1  1  0.37277741  0.04515762  0.61415505  1
  Cu  Cu2  1  0.62722259  0.95484238  0.38584495  1
  Cu  Cu3  1  0.21581791  0.83975155  0.12050087  1
  Cu  Cu4  1  0.78418209  0.33975155  0.37949913  1
  Cu  Cu5  1  0.37277741  0.45484238  0.11415505  1
  Cu  Cu6  1  0.21581791  0.66024845  0.62050087  1
  Cu  Cu7  1  0.62722259  0.54515762  0.88584495  1
  Mo  Mo8  1  0.10492549  0.44978374  0.85724633  1
  Mo  Mo9  1  0.10492549  0.05021626  0.35724633  1
  Mo  Mo10  1  0.59589040  0.09778025  0.14091222  1
  Mo  Mo11  1  0.89507451  0.94978374  0.64275367  1
  Mo  Mo12  1  0.40410960  0.90221975  0.85908778  1
  Mo  Mo13  1  0.40410960  0.59778025  0.35908778  1
  Mo  Mo14  1  0.59589040  0.40221975  0.64091222  1
  Mo  Mo15  1  0.89507451  0.55021626  0.14275367  1
  O  O16  1  0.04088887  0.24543956  0.37569038  1
  O  O17  1  0.64972960  0.99817063  0.58510152  1
  O  O18  1  0.20698267  0.62184590  0.45557596  1
  O  O19  1  0.79301733  0.12184590  0.04442404  1
  O  O20  1  0.04088887  0.25456044  0.87569038  1
  O  O21  1  0.95911113  0.75456044  0.62430962  1
  O  O22  1  0.08970633  0.07398026  0.59140916  1
  O  O23  1  0.48576479  0.91211552  0.12630957  1
  O  O24  1  0.48576479  0.58788448  0.62630957  1
  O  O25  1  0.31462305  0.87364436  0.71476050  1
  O  O26  1  0.68537695  0.37364436  0.78523950  1
  O  O27  1  0.51423521  0.08788448  0.87369043  1
  O  O28  1  0.91029367  0.92601974  0.40859084  1
  O  O29  1  0.87351997  0.51499224  0.28629957  1
  O  O30  1  0.41598349  0.26132933  0.61154839  1
  O  O31  1  0.41598349  0.23867067  0.11154839  1
  O  O32  1  0.12648003  0.01499224  0.21370043  1
  O  O33  1  0.51423521  0.41211552  0.37369043  1
  O  O34  1  0.12648003  0.48500776  0.71370043  1
  O  O35  1  0.79301733  0.37815410  0.54442404  1
  O  O36  1  0.64972960  0.50182937  0.08510152  1
  O  O37  1  0.68537695  0.12635564  0.28523950  1
  O  O38  1  0.95911113  0.74543956  0.12430962  1
  O  O39  1  0.08970633  0.42601974  0.09140916  1
  O  O40  1  0.20698267  0.87815410  0.95557596  1
  O  O41  1  0.58401651  0.76132933  0.88845161  1
  O  O42  1  0.35027040  0.00182937  0.41489848  1
  O  O43  1  0.35027040  0.49817063  0.91489848  1
  O  O44  1  0.91029367  0.57398026  0.90859084  1
  O  O45  1  0.58401651  0.73867067  0.38845161  1
  O  O46  1  0.31462305  0.62635564  0.21476050  1
  O  O47  1  0.87351997  0.98500776  0.78629957  1
