# generated using pymatgen
data_Si
_symmetry_space_group_name_H-M   'P 1'
_cell_length_a   3.87173932
_cell_length_b   6.36089523
_cell_length_c   7.20868023
_cell_angle_alpha   96.56158940
_cell_angle_beta   105.57782914
_cell_angle_gamma   89.99999943
_symmetry_Int_Tables_number   1
_chemical_formula_structural   Si
_chemical_formula_sum   Si8
_cell_volume   169.80443099
_cell_formula_units_Z   8
loop_
 _symmetry_equiv_pos_site_id
 _symmetry_equiv_pos_as_xyz
  1  'x, y, z'
loop_
 _atom_site_type_symbol
 _atom_site_label
 _atom_site_symmetry_multiplicity
 _atom_site_fract_x
 _atom_site_fract_y
 _atom_site_fract_z
 _atom_site_occupancy
  Si  Si0  1  0.05572263  0.87392931  0.11144525  1
  Si  Si1  1  0.94427737  0.12607069  0.88855475  1
  Si  Si2  1  0.55921683  0.65371590  0.11843366  1
  Si  Si3  1  0.44078317  0.34628410  0.88156634  1
  Si  Si4  1  0.21295656  0.05707104  0.42591313  1
  Si  Si5  1  0.78704344  0.94292896  0.57408687  1
  Si  Si6  1  0.72725017  0.58572731  0.45450033  1
  Si  Si7  1  0.27274983  0.41427269  0.54549967  1
