# generated using pymatgen
data_La5Sm3Co7CuO20
_symmetry_space_group_name_H-M   'P 1'
_cell_length_a   10.83343721
_cell_length_b   11.50257775
_cell_length_c   17.62121978
_cell_angle_alpha   109.00687037
_cell_angle_beta   107.89862247
_cell_angle_gamma   90.01355206
_symmetry_Int_Tables_number   1
_chemical_formula_structural   La5Sm3Co7CuO20
_chemical_formula_sum   'La20 Sm12 Co28 Cu4 O80'
_cell_volume   1963.30452008
_cell_formula_units_Z   4
loop_
 _symmetry_equiv_pos_site_id
 _symmetry_equiv_pos_as_xyz
  1  'x, y, z'
loop_
 _atom_site_type_symbol
 _atom_site_label
 _atom_site_symmetry_multiplicity
 _atom_site_fract_x
 _atom_site_fract_y
 _atom_site_fract_z
 _atom_site_occupancy
  La  La0  1  0.30789609  0.06513365  0.61033078  1
  La  La1  1  0.30891468  0.56682415  0.61116867  1
  La  La2  1  0.80685264  0.06586619  0.61060079  1
  La  La3  1  0.80697366  0.56670491  0.61237755  1
  La  La4  1  0.19676949  0.43341996  0.38907395  1
  La  La5  1  0.19018382  0.43581904  0.89065112  1
  La  La6  1  0.19513328  0.93417179  0.38670375  1
  La  La7  1  0.69558426  0.43310102  0.38762751  1
  La  La8  1  0.69570062  0.93322161  0.38661755  1
  La  La9  1  0.05533624  0.29423639  0.11179329  1
  La  La10  1  0.05696433  0.29492239  0.61092093  1
  La  La11  1  0.05576462  0.79647015  0.61239266  1
  La  La12  1  0.55820058  0.29593954  0.61252588  1
  La  La13  1  0.44590252  0.20333491  0.38720781  1
  La  La14  1  0.44799607  0.20513186  0.89095465  1
  La  La15  1  0.44582812  0.70474772  0.38795297  1
  La  La16  1  0.44586973  0.70710417  0.88985381  1
  La  La17  1  0.94434211  0.20415239  0.38673230  1
  La  La18  1  0.94485252  0.20336594  0.88892306  1
  La  La19  1  0.94527060  0.70404177  0.38717516  1
  Sm  Sm20  1  0.29941473  0.06678859  0.10770833  1
  Sm  Sm21  1  0.29975702  0.56924829  0.10906799  1
  Sm  Sm22  1  0.79704206  0.06611411  0.10739493  1
  Sm  Sm23  1  0.80164708  0.56885535  0.10821467  1
  Sm  Sm24  1  0.18944467  0.93266649  0.89242373  1
  Sm  Sm25  1  0.69685728  0.43429753  0.89279137  1
  Sm  Sm26  1  0.69250459  0.93043985  0.89002327  1
  Sm  Sm27  1  0.04955875  0.78985246  0.10850770  1
  Sm  Sm28  1  0.55369743  0.29034053  0.10941344  1
  Sm  Sm29  1  0.55109672  0.79208760  0.10806952  1
  Sm  Sm30  1  0.55567970  0.79286181  0.61005942  1
  Sm  Sm31  1  0.94223987  0.71260062  0.89218419  1
  Co  Co32  1  0.00508592  -0.00014575  0.49961865  1
  Co  Co33  1  0.00484676  0.50035846  0.49995638  1
  Co  Co34  1  0.50587166  0.99929433  0.50040469  1
  Co  Co35  1  0.50593953  0.50018328  0.00259730  1
  Co  Co36  1  0.50578163  0.49997702  0.49993145  1
  Co  Co37  1  0.25586609  0.25079005  0.00128199  1
  Co  Co38  1  0.25535428  0.24968922  0.49977720  1
  Co  Co39  1  0.25468913  0.75228180  0.00217363  1
  Co  Co40  1  0.25572015  0.75054920  0.50062584  1
  Co  Co41  1  0.75558366  0.24985127  0.00115520  1
  Co  Co42  1  0.75482016  0.24987533  0.49978649  1
  Co  Co43  1  0.75461201  0.74992405  0.49999262  1
  Co  Co44  1  0.10604635  0.09189934  0.24881216  1
  Co  Co45  1  0.10969461  0.09308321  0.75254413  1
  Co  Co46  1  0.10670718  0.59597697  0.24947690  1
  Co  Co47  1  0.10701603  0.59793067  0.75307908  1
  Co  Co48  1  0.60500378  0.09175283  0.24752509  1
  Co  Co49  1  0.60829147  0.09264135  0.75137428  1
  Co  Co50  1  0.60463393  0.59281785  0.24535565  1
  Co  Co51  1  0.60996857  0.59578942  0.75031953  1
  Co  Co52  1  0.35841058  0.40481739  0.24667293  1
  Co  Co53  1  0.36083413  0.40616674  0.75214614  1
  Co  Co54  1  0.35447291  0.90406458  0.24605234  1
  Co  Co55  1  0.35889837  0.90535137  0.74992869  1
  Co  Co56  1  0.85307442  0.40396385  0.24592983  1
  Co  Co57  1  0.85551496  0.40881576  0.75083815  1
  Co  Co58  1  0.85619070  0.90543049  0.24789819  1
  Co  Co59  1  0.85416445  0.90270702  0.74966079  1
  Cu  Cu60  1  0.00148951  -0.00002283  0.00191515  1
  Cu  Cu61  1  0.00189224  0.50188378  0.00069490  1
  Cu  Cu62  1  0.50240776  0.99966342  0.00131605  1
  Cu  Cu63  1  0.75338235  0.75106607  0.00173962  1
  O  O64  1  0.11901599  0.11862879  0.48247984  1
  O  O65  1  0.12124402  0.11728605  0.98496221  1
  O  O66  1  0.11977477  0.61916511  0.48358975  1
  O  O67  1  0.11393953  0.62403941  0.98536178  1
  O  O68  1  0.61927755  0.11777566  0.48252191  1
  O  O69  1  0.61946810  0.11790996  0.98587972  1
  O  O70  1  0.61908469  0.62038923  0.48413355  1
  O  O71  1  0.62256139  0.61805358  0.98348118  1
  O  O72  1  0.13601033  0.38480251  0.01773747  1
  O  O73  1  0.13633508  0.38194282  0.51673592  1
  O  O74  1  0.13286557  0.88150360  0.01777344  1
  O  O75  1  0.13649056  0.88077025  0.51709316  1
  O  O76  1  0.63801763  0.38121522  0.02183814  1
  O  O77  1  0.63635215  0.38139237  0.51654045  1
  O  O78  1  0.63551133  0.88061313  0.01748392  1
  O  O79  1  0.63589549  0.87951619  0.51971443  1
  O  O80  1  0.36954253  0.11302896  0.48272962  1
  O  O81  1  0.36664973  0.11059626  0.98405816  1
  O  O82  1  0.37141473  0.61600015  0.48421521  1
  O  O83  1  0.36980265  0.61587682  0.98702229  1
  O  O84  1  0.86960729  0.11452160  0.48321820  1
  O  O85  1  0.86429504  0.10844143  0.98227606  1
  O  O86  1  0.86930131  0.61449702  0.48225908  1
  O  O87  1  0.86822465  0.61449668  0.98483119  1
  O  O88  1  0.38834637  0.38874017  0.02337695  1
  O  O89  1  0.38692004  0.38582981  0.51674779  1
  O  O90  1  0.38576863  0.88929844  0.01948071  1
  O  O91  1  0.39045243  0.88341338  0.51916672  1
  O  O92  1  0.88122513  0.39104268  0.01544093  1
  O  O93  1  0.88580823  0.38571446  0.51565645  1
  O  O94  1  0.88149046  0.88386802  0.01477482  1
  O  O95  1  0.88558426  0.88431601  0.51557625  1
  O  O96  1  0.11119554  0.12079239  0.14876448  1
  O  O97  1  0.08914894  0.10914092  0.64193350  1
  O  O98  1  0.11117505  0.62254925  0.14851398  1
  O  O99  1  0.08765564  0.61160039  0.64184380  1
  O  O100  1  0.61001849  0.12088579  0.14754330  1
  O  O101  1  0.59019100  0.11128180  0.64181999  1
  O  O102  1  0.60247001  0.61688549  0.14050174  1
  O  O103  1  0.58897220  0.61167806  0.63954606  1
  O  O104  1  0.44848711  0.39052858  0.35825630  1
  O  O105  1  0.46010969  0.39111085  0.86124676  1
  O  O106  1  0.44690013  0.89073739  0.35816895  1
  O  O107  1  0.46458509  0.88102138  0.85217022  1
  O  O108  1  0.94569989  0.39058814  0.35745289  1
  O  O109  1  0.95156615  0.37958570  0.85299107  1
  O  O110  1  0.94566859  0.89151961  0.35952136  1
  O  O111  1  0.96156756  0.88061110  0.85221098  1
  O  O112  1  0.34992991  0.27552154  0.14056943  1
  O  O113  1  0.34023832  0.28091419  0.64123066  1
  O  O114  1  0.35105978  0.77801161  0.13997255  1
  O  O115  1  0.34655043  0.78158846  0.64014283  1
  O  O116  1  0.84419324  0.27515462  0.13942099  1
  O  O117  1  0.83833455  0.28287702  0.64105961  1
  O  O118  1  0.85975282  0.77622441  0.14740085  1
  O  O119  1  0.83722083  0.77941508  0.63892733  1
  O  O120  1  0.19764067  0.21788516  0.35977633  1
  O  O121  1  0.20100969  0.22183153  0.86110373  1
  O  O122  1  0.19732098  0.72075802  0.36070201  1
  O  O123  1  0.20387443  0.72345129  0.86192696  1
  O  O124  1  0.69682044  0.21759266  0.35826045  1
  O  O125  1  0.69872922  0.22261997  0.86021472  1
  O  O126  1  0.69546489  0.71796017  0.35738193  1
  O  O127  1  0.71227197  0.72413119  0.85233571  1
  O  O128  1  0.41508715  0.06866026  0.24436535  1
  O  O129  1  0.41905492  0.07207454  0.75080124  1
  O  O130  1  0.41607532  0.56982549  0.24414993  1
  O  O131  1  0.42157933  0.57003001  0.75041821  1
  O  O132  1  0.91487123  0.06953532  0.24418535  1
  O  O133  1  0.91961129  0.06760217  0.74975439  1
  O  O134  1  0.91538399  0.56770481  0.24399040  1
  O  O135  1  0.92091522  0.57612723  0.75617244  1
  O  O136  1  0.17157305  0.43140092  0.25030619  1
  O  O137  1  0.17216287  0.43242071  0.75108631  1
  O  O138  1  0.16526656  0.92428748  0.24465834  1
  O  O139  1  0.17342219  0.92976499  0.75619147  1
  O  O140  1  0.66391918  0.42650054  0.24460978  1
  O  O141  1  0.66916057  0.43132060  0.75606285  1
  O  O142  1  0.66402446  0.92323172  0.24382865  1
  O  O143  1  0.66625055  0.92608343  0.75032657  1
