# generated using pymatgen
data_La7SmCo5Cu3O20
_symmetry_space_group_name_H-M   'P 1'
_cell_length_a   10.75222764
_cell_length_b   11.37285065
_cell_length_c   17.92907857
_cell_angle_alpha   108.34540346
_cell_angle_beta   107.39136960
_cell_angle_gamma   89.98453099
_symmetry_Int_Tables_number   1
_chemical_formula_structural   La7SmCo5Cu3O20
_chemical_formula_sum   'La28 Sm4 Co20 Cu12 O80'
_cell_volume   1975.19219596
_cell_formula_units_Z   4
loop_
 _symmetry_equiv_pos_site_id
 _symmetry_equiv_pos_as_xyz
  1  'x, y, z'
loop_
 _atom_site_type_symbol
 _atom_site_label
 _atom_site_symmetry_multiplicity
 _atom_site_fract_x
 _atom_site_fract_y
 _atom_site_fract_z
 _atom_site_occupancy
  La  La0  1  0.30328458  0.06462305  0.11110479  1
  La  La1  1  0.30820698  0.06365923  0.60990011  1
  La  La2  1  0.30701456  0.56691104  0.61182778  1
  La  La3  1  0.80560694  0.06469261  0.61060916  1
  La  La4  1  0.80649710  0.56686615  0.11109774  1
  La  La5  1  0.80789267  0.56686274  0.61219565  1
  La  La6  1  0.19517189  0.43364551  0.38837868  1
  La  La7  1  0.19426096  0.43523227  0.89052484  1
  La  La8  1  0.19865468  0.93357989  0.38684244  1
  La  La9  1  0.19545571  0.93497927  0.88889635  1
  La  La10  1  0.69485410  0.43494708  0.38867612  1
  La  La11  1  0.69424716  0.93335039  0.38845697  1
  La  La12  1  0.69569742  0.93458168  0.88917916  1
  La  La13  1  0.05580990  0.29548936  0.11170619  1
  La  La14  1  0.05823184  0.29656249  0.61049534  1
  La  La15  1  0.05710235  0.79600774  0.61208646  1
  La  La16  1  0.55885760  0.29513549  0.11112445  1
  La  La17  1  0.55972686  0.29753636  0.61285179  1
  La  La18  1  0.55427868  0.79641569  0.11227164  1
  La  La19  1  0.55756712  0.79514332  0.61185765  1
  La  La20  1  0.44806104  0.20429065  0.38835592  1
  La  La21  1  0.44913554  0.20538900  0.88913607  1
  La  La22  1  0.44408243  0.70279928  0.38616809  1
  La  La23  1  0.44543937  0.70367584  0.88851028  1
  La  La24  1  0.94675248  0.20306659  0.38712886  1
  La  La25  1  0.94414120  0.20529811  0.88887678  1
  La  La26  1  0.94485884  0.70342256  0.38788098  1
  La  La27  1  0.94509456  0.70352115  0.88889789  1
  Sm  Sm28  1  0.30130206  0.56810788  0.10862994  1
  Sm  Sm29  1  0.80358403  0.06687423  0.10912812  1
  Sm  Sm30  1  0.69447698  0.43300977  0.89191183  1
  Sm  Sm31  1  0.05478174  0.79202524  0.10995515  1
  Co  Co32  1  0.00444293  0.99824653  0.49832701  1
  Co  Co33  1  0.25537776  0.25123293  0.00121493  1
  Co  Co34  1  0.25571825  0.25020842  0.49975975  1
  Co  Co35  1  0.75479845  0.25061630  0.50002762  1
  Co  Co36  1  0.10571896  0.09353268  0.25005080  1
  Co  Co37  1  0.10910852  0.09754026  0.75068679  1
  Co  Co38  1  0.10921369  0.59509551  0.24835925  1
  Co  Co39  1  0.10933572  0.59370833  0.75105659  1
  Co  Co40  1  0.61070746  0.09583650  0.25138635  1
  Co  Co41  1  0.60886129  0.09732909  0.75118118  1
  Co  Co42  1  0.60502162  0.59383481  0.24798294  1
  Co  Co43  1  0.60998968  0.59394416  0.75204120  1
  Co  Co44  1  0.35618845  0.40442643  0.24572414  1
  Co  Co45  1  0.35889978  0.40319937  0.74858551  1
  Co  Co46  1  0.35498074  0.90324258  0.24762306  1
  Co  Co47  1  0.35935086  0.90612176  0.75058635  1
  Co  Co48  1  0.85763280  0.40357136  0.24862162  1
  Co  Co49  1  0.85552839  0.40349077  0.74921140  1
  Co  Co50  1  0.86060752  0.90612736  0.25006870  1
  Co  Co51  1  0.85906781  0.90628884  0.75095985  1
  Cu  Cu52  1  0.00318496  0.99931717  0.00202294  1
  Cu  Cu53  1  0.00245168  0.50064188  0.00039651  1
  Cu  Cu54  1  0.00333940  0.50038289  0.49932547  1
  Cu  Cu55  1  0.50430891  0.00018159  0.00135893  1
  Cu  Cu56  1  0.50399571  0.99932271  0.50009049  1
  Cu  Cu57  1  0.50335852  0.50085311  0.00017491  1
  Cu  Cu58  1  0.50361027  0.50078049  0.49986883  1
  Cu  Cu59  1  0.25324269  0.75079459  0.00100892  1
  Cu  Cu60  1  0.25357578  0.74885961  0.49918306  1
  Cu  Cu61  1  0.75422524  0.24984629  0.00044522  1
  Cu  Cu62  1  0.75396749  0.75074553  0.00114159  1
  Cu  Cu63  1  0.75268356  0.74883205  0.49932192  1
  O  O64  1  0.12109682  0.11958211  0.48478852  1
  O  O65  1  0.11901507  0.11940623  0.98665192  1
  O  O66  1  0.12056333  0.62022477  0.48701195  1
  O  O67  1  0.12146735  0.62317879  0.99074222  1
  O  O68  1  0.62033511  0.11953639  0.48704033  1
  O  O69  1  0.62304213  0.12128358  0.98967551  1
  O  O70  1  0.62101202  0.62089233  0.48697955  1
  O  O71  1  0.62098387  0.61737612  0.98433851  1
  O  O72  1  0.13528666  0.38432191  0.01528625  1
  O  O73  1  0.13318576  0.38068697  0.51290490  1
  O  O74  1  0.13260495  0.87826907  0.01707407  1
  O  O75  1  0.13772268  0.87913086  0.51534544  1
  O  O76  1  0.63248565  0.37797930  0.00959201  1
  O  O77  1  0.63278678  0.38061336  0.51255525  1
  O  O78  1  0.63741003  0.88350694  0.01653374  1
  O  O79  1  0.63289019  0.87857128  0.51177823  1
  O  O80  1  0.37221963  0.11500016  0.48659487  1
  O  O81  1  0.37270193  0.11613634  0.98684679  1
  O  O82  1  0.37051689  0.61648035  0.48686400  1
  O  O83  1  0.36999025  0.61654570  0.98890331  1
  O  O84  1  0.87081289  0.11628855  0.48543134  1
  O  O85  1  0.87011821  0.11521536  0.99028869  1
  O  O86  1  0.87173139  0.61685545  0.48755976  1
  O  O87  1  0.86864633  0.61368193  0.98550390  1
  O  O88  1  0.38465039  0.38906302  0.01610533  1
  O  O89  1  0.38521200  0.38431409  0.51251207  1
  O  O90  1  0.38302538  0.88376612  0.01271644  1
  O  O91  1  0.38373343  0.88209882  0.51117282  1
  O  O92  1  0.88002406  0.38333521  0.00952531  1
  O  O93  1  0.88562087  0.38526197  0.51350604  1
  O  O94  1  0.88706464  0.88666206  0.01989444  1
  O  O95  1  0.88280938  0.88260185  0.51445764  1
  O  O96  1  0.09923882  0.11634281  0.14704016  1
  O  O97  1  0.08815735  0.10704414  0.63987073  1
  O  O98  1  0.10216087  0.61429617  0.14427622  1
  O  O99  1  0.09609112  0.61336471  0.64622108  1
  O  O100  1  0.60394193  0.11377911  0.14689472  1
  O  O101  1  0.59396850  0.11385616  0.64520374  1
  O  O102  1  0.59853347  0.61339552  0.14384353  1
  O  O103  1  0.59610798  0.61215524  0.64625339  1
  O  O104  1  0.44879574  0.38670842  0.35181247  1
  O  O105  1  0.45694381  0.38679142  0.85368222  1
  O  O106  1  0.44622046  0.88601464  0.35340305  1
  O  O107  1  0.45133473  0.88720857  0.85590420  1
  O  O108  1  0.95003495  0.38648543  0.35422919  1
  O  O109  1  0.95297401  0.38698679  0.85434313  1
  O  O110  1  0.94944719  0.89430921  0.36089172  1
  O  O111  1  0.95037380  0.88732279  0.85634220  1
  O  O112  1  0.33652402  0.28144399  0.13661575  1
  O  O113  1  0.33592611  0.28310826  0.63769785  1
  O  O114  1  0.34508783  0.77990111  0.14327500  1
  O  O115  1  0.34626420  0.78319290  0.64535880  1
  O  O116  1  0.84312749  0.28030637  0.14312772  1
  O  O117  1  0.83400639  0.28446164  0.63812066  1
  O  O118  1  0.85651059  0.78128635  0.14656559  1
  O  O119  1  0.84443289  0.78291839  0.64576148  1
  O  O120  1  0.19686960  0.21423608  0.36054998  1
  O  O121  1  0.19939316  0.21673287  0.86215176  1
  O  O122  1  0.19927173  0.71764032  0.35457551  1
  O  O123  1  0.19979147  0.71727681  0.85668435  1
  O  O124  1  0.69669682  0.21722881  0.36173719  1
  O  O125  1  0.70009837  0.21984460  0.85688859  1
  O  O126  1  0.69835371  0.71538105  0.35415016  1
  O  O127  1  0.70153532  0.71968759  0.85687814  1
  O  O128  1  0.41951246  0.07137705  0.24937153  1
  O  O129  1  0.41781125  0.07412296  0.75003961  1
  O  O130  1  0.41321069  0.57087633  0.24356711  1
  O  O131  1  0.41879929  0.57106935  0.75021438  1
  O  O132  1  0.91345569  0.07220089  0.24506623  1
  O  O133  1  0.91960534  0.07389151  0.74994651  1
  O  O134  1  0.91969083  0.57140773  0.24957094  1
  O  O135  1  0.91930347  0.57015496  0.75060980  1
  O  O136  1  0.16882752  0.42757808  0.25021856  1
  O  O137  1  0.16970199  0.42506018  0.75057138  1
  O  O138  1  0.16322738  0.92369573  0.24437990  1
  O  O139  1  0.16995393  0.93127862  0.75078783  1
  O  O140  1  0.66788574  0.42705653  0.24973988  1
  O  O141  1  0.66931813  0.42733980  0.75591512  1
  O  O142  1  0.67082314  0.92819142  0.25031119  1
  O  O143  1  0.66926846  0.93027005  0.75070156  1
