# generated using pymatgen
data_Ba4Sr4Co3Cu5O24
_symmetry_space_group_name_H-M   'P 1'
_cell_length_a   7.92457627
_cell_length_b   7.92298757
_cell_length_c   7.90444262
_cell_angle_alpha   89.96335125
_cell_angle_beta   90.00649860
_cell_angle_gamma   89.89055643
_symmetry_Int_Tables_number   1
_chemical_formula_structural   Ba4Sr4Co3Cu5O24
_chemical_formula_sum   'Ba4 Sr4 Co3 Cu5 O24'
_cell_volume   496.28984812
_cell_formula_units_Z   1
loop_
 _symmetry_equiv_pos_site_id
 _symmetry_equiv_pos_as_xyz
  1  'x, y, z'
loop_
 _atom_site_type_symbol
 _atom_site_label
 _atom_site_symmetry_multiplicity
 _atom_site_fract_x
 _atom_site_fract_y
 _atom_site_fract_z
 _atom_site_occupancy
  Ba  Ba0  1  0.24898211  0.75144680  0.24843304  1
  Ba  Ba1  1  0.24891340  0.75162003  0.75230064  1
  Ba  Ba2  1  0.75126331  0.24859229  0.24787640  1
  Ba  Ba3  1  0.75091080  0.75140214  0.75173744  1
  Sr  Sr4  1  0.24811968  0.24793528  0.24553028  1
  Sr  Sr5  1  0.24812339  0.24821093  0.75384805  1
  Sr  Sr6  1  0.75214729  0.24793186  0.75383828  1
  Sr  Sr7  1  0.75159754  0.75203517  0.24609597  1
  Co  Co8  1  0.99988741  0.49718308  0.49990168  1
  Co  Co9  1  0.50021345  0.00226380  0.49990836  1
  Co  Co10  1  0.49985430  0.49690399  0.50001109  1
  Cu  Cu11  1  0.99993157  0.00031892  0.00008431  1
  Cu  Cu12  1  0.99985310  0.00042665  0.49999015  1
  Cu  Cu13  1  0.99994366  0.49923654  0.00014631  1
  Cu  Cu14  1  0.50002256  0.00090616  0.00013588  1
  Cu  Cu15  1  0.50009193  0.49943046  0.00026530  1
  O  O16  1  0.25083139  0.01206466  0.00001008  1
  O  O17  1  0.25215720  0.00822453  0.49990219  1
  O  O18  1  0.25116833  0.48744125  0.00008942  1
  O  O19  1  0.24081310  0.49279961  0.49991192  1
  O  O20  1  0.74908353  0.00223244  0.99959068  1
  O  O21  1  0.74759592  0.00141872  0.50021954  1
  O  O22  1  0.74896373  0.49777452  0.99958828  1
  O  O23  1  0.75941790  0.49810589  0.50024302  1
  O  O24  1  0.00473625  0.25085532  0.99510411  1
  O  O25  1  0.00324582  0.25125295  0.50304129  1
  O  O26  1  0.99464627  0.74893979  0.00536040  1
  O  O27  1  0.99636982  0.74675133  0.49656850  1
  O  O28  1  0.49500119  0.25118205  0.99496709  1
  O  O29  1  0.49743252  0.24147332  0.50152410  1
  O  O30  1  0.50558398  0.74900798  0.00561210  1
  O  O31  1  0.50286049  0.76027927  0.49787853  1
  O  O32  1  0.00033784  0.00178189  0.25144460  1
  O  O33  1  0.99977751  0.01188172  0.74849414  1
  O  O34  1  0.00022120  0.49796646  0.25620919  1
  O  O35  1  0.00002295  0.49189835  0.74391510  1
  O  O36  1  0.49981546  0.00171277  0.25619860  1
  O  O37  1  0.50004766  0.00818343  0.74386507  1
  O  O38  1  0.49990975  0.49897990  0.26864494  1
  O  O39  1  0.50010471  0.49194776  0.73151393  1
