# generated using pymatgen
data_NaMn3O6
_symmetry_space_group_name_H-M   'P 1'
_cell_length_a   5.77915736
_cell_length_b   6.17660429
_cell_length_c   14.52908194
_cell_angle_alpha   95.72847734
_cell_angle_beta   90.00490633
_cell_angle_gamma   117.88386858
_symmetry_Int_Tables_number   1
_chemical_formula_structural   NaMn3O6
_chemical_formula_sum   'Na4 Mn12 O24'
_cell_volume   455.47563904
_cell_formula_units_Z   4
loop_
 _symmetry_equiv_pos_site_id
 _symmetry_equiv_pos_as_xyz
  1  'x, y, z'
loop_
 _atom_site_type_symbol
 _atom_site_label
 _atom_site_symmetry_multiplicity
 _atom_site_fract_x
 _atom_site_fract_y
 _atom_site_fract_z
 _atom_site_occupancy
  Na  Na0  1  0.63917628  0.97020552  0.19081015  1
  Na  Na1  1  0.58059043  0.97052515  0.69091683  1
  Na  Na2  1  0.17313818  0.03451703  0.81010135  1
  Na  Na3  1  0.11029979  0.03424911  0.31018628  1
  Mn  Mn4  1  0.23250255  0.96862530  0.51524460  1
  Mn  Mn5  1  0.76623293  0.03634682  0.48587901  1
  Mn  Mn6  1  0.98962073  0.48106642  0.15821034  1
  Mn  Mn7  1  0.47841696  0.46197631  0.15743619  1
  Mn  Mn8  1  0.01270171  0.52399299  0.84298973  1
  Mn  Mn9  1  0.52037620  0.54278942  0.84372726  1
  Mn  Mn10  1  0.52020656  0.03658809  0.98579136  1
  Mn  Mn11  1  0.98613901  0.96865116  0.01525216  1
  Mn  Mn12  1  0.74155432  0.48114485  0.65820066  1
  Mn  Mn13  1  0.23366578  0.46202488  0.65744476  1
  Mn  Mn14  1  0.76135125  0.52381527  0.34299868  1
  Mn  Mn15  1  0.27251489  0.54270048  0.34373055  1
  O  O16  1  0.16131867  0.82720727  0.93430120  1
  O  O17  1  0.67126001  0.83194814  0.93420373  1
  O  O18  1  0.83621082  0.17785532  0.06685475  1
  O  O19  1  0.34146705  0.17311022  0.06687593  1
  O  O20  1  0.41065522  0.83171744  0.43427192  1
  O  O21  1  0.91571797  0.82692062  0.43440007  1
  O  O22  1  0.59162613  0.17790558  0.56683920  1
  O  O23  1  0.08175479  0.17322650  0.56684802  1
  O  O24  1  0.18858546  0.37125197  0.89312806  1
  O  O25  1  0.67103616  0.35281865  0.89157328  1
  O  O26  1  0.31802981  0.63361994  0.10806152  1
  O  O27  1  0.81896098  0.65208826  0.10962414  1
  O  O28  1  0.93191821  0.35264201  0.39155490  1
  O  O29  1  0.43269924  0.37093895  0.39306043  1
  O  O30  1  0.08318702  0.65218971  0.60965638  1
  O  O31  1  0.56569079  0.63385901  0.60813204  1
  O  O32  1  0.34013383  0.68934181  0.77801252  1
  O  O33  1  0.84004100  0.68522043  0.77610547  1
  O  O34  1  0.15158141  0.31558937  0.22316174  1
  O  O35  1  0.65549666  0.31957536  0.22511461  1
  O  O36  1  0.09527261  0.68525353  0.27613240  1
  O  O37  1  0.59928882  0.68932836  0.27802801  1
  O  O38  1  0.91426757  0.31955316  0.72512284  1
  O  O39  1  0.41418617  0.31559760  0.72316189  1
