# generated using pymatgen
data_Cr3In(CoS4)2
_symmetry_space_group_name_H-M   'P 1'
_cell_length_a   7.09881233
_cell_length_b   7.16777476
_cell_length_c   7.09881233
_cell_angle_alpha   90.00000000
_cell_angle_beta   60.00000000
_cell_angle_gamma   119.68224112
_symmetry_Int_Tables_number   1
_chemical_formula_structural   Cr3In(CoS4)2
_chemical_formula_sum   'Cr3 In1 Co2 S8'
_cell_volume   256.63153014
_cell_formula_units_Z   1
loop_
 _symmetry_equiv_pos_site_id
 _symmetry_equiv_pos_as_xyz
  1  'x, y, z'
loop_
 _atom_site_type_symbol
 _atom_site_label
 _atom_site_symmetry_multiplicity
 _atom_site_fract_x
 _atom_site_fract_y
 _atom_site_fract_z
 _atom_site_occupancy
  Cr  Cr0  1  0.50000000  0.50000000  0.50000000  1
  Cr  Cr1  1  -0.00000000  0.50000000  0.00000000  1
  Cr  Cr2  1  -0.00000000  0.50000000  0.50000000  1
  In  In3  1  0.50000000  0.00000000  0.50000000  1
  Co  Co4  1  0.24881661  0.12322492  0.12559169  1
  Co  Co5  1  0.75118339  0.87677508  0.87440831  1
  S  S6  1  0.98366108  0.72549161  0.25816946  1
  S  S7  1  0.01189394  0.27645895  0.24405303  1
  S  S8  1  0.52051198  0.27645895  0.73543499  1
  S  S9  1  0.52051198  0.27645895  0.24405303  1
  S  S10  1  0.01633892  0.27450839  0.74183054  1
  S  S11  1  0.98810606  0.72354105  0.75594697  1
  S  S12  1  0.47948802  0.72354105  0.26456501  1
  S  S13  1  0.47948802  0.72354105  0.75594697  1
