# generated using pymatgen
data_SnH4
_symmetry_space_group_name_H-M   'P 1'
_cell_length_a   4.00769498
_cell_length_b   4.84652430
_cell_length_c   7.02428409
_cell_angle_alpha   90.00000000
_cell_angle_beta   106.57524349
_cell_angle_gamma   90.00000000
_symmetry_Int_Tables_number   1
_chemical_formula_structural   SnH4
_chemical_formula_sum   'Sn2 H8'
_cell_volume   130.76596973
_cell_formula_units_Z   2
loop_
 _symmetry_equiv_pos_site_id
 _symmetry_equiv_pos_as_xyz
  1  'x, y, z'
loop_
 _atom_site_type_symbol
 _atom_site_label
 _atom_site_symmetry_multiplicity
 _atom_site_fract_x
 _atom_site_fract_y
 _atom_site_fract_z
 _atom_site_occupancy
  Sn  Sn0  1  0.72663970  0.75000000  0.45327940  1
  Sn  Sn1  1  0.27336030  0.25000000  0.54672060  1
  H  H2  1  0.50293464  0.25000000  0.00586928  1
  H  H3  1  0.49706536  0.75000000  0.99413072  1
  H  H4  1  0.55866924  0.25000000  0.11733848  1
  H  H5  1  0.44133076  0.75000000  0.88266152  1
  H  H6  1  0.02760966  0.99117932  0.05521931  1
  H  H7  1  0.97239034  0.00882068  0.94478069  1
  H  H8  1  0.02760966  0.50882068  0.05521931  1
  H  H9  1  0.97239034  0.49117932  0.94478069  1
