# generated using pymatgen
data_Sr7CaTi8O20
_symmetry_space_group_name_H-M   'P 1'
_cell_length_a   11.25748461
_cell_length_b   11.23257149
_cell_length_c   17.62558535
_cell_angle_alpha   108.55023389
_cell_angle_beta   108.79457530
_cell_angle_gamma   90.06439448
_symmetry_Int_Tables_number   1
_chemical_formula_structural   Sr7CaTi8O20
_chemical_formula_sum   'Sr28 Ca4 Ti32 O80'
_cell_volume   1986.92841630
_cell_formula_units_Z   4
loop_
 _symmetry_equiv_pos_site_id
 _symmetry_equiv_pos_as_xyz
  1  'x, y, z'
loop_
 _atom_site_type_symbol
 _atom_site_label
 _atom_site_symmetry_multiplicity
 _atom_site_fract_x
 _atom_site_fract_y
 _atom_site_fract_z
 _atom_site_occupancy
  Sr  Sr0  1  0.30740171  0.05948587  0.61983190  1
  Sr  Sr1  1  0.30586510  0.55878927  0.61905806  1
  Sr  Sr2  1  0.80695633  0.05754202  0.61824549  1
  Sr  Sr3  1  0.80475740  0.56334181  0.11685335  1
  Sr  Sr4  1  0.80640141  0.55938168  0.61913162  1
  Sr  Sr5  1  0.18955751  0.43921465  0.38478093  1
  Sr  Sr6  1  0.18635303  0.44052928  0.88045071  1
  Sr  Sr7  1  0.19235518  0.93998369  0.38789603  1
  Sr  Sr8  1  0.18703432  0.94042338  0.87957897  1
  Sr  Sr9  1  0.69170584  0.44064547  0.38690899  1
  Sr  Sr10  1  0.68864082  0.44068751  0.88236792  1
  Sr  Sr11  1  0.68866992  0.93698630  0.38476902  1
  Sr  Sr12  1  0.68837670  0.93949232  0.88042627  1
  Sr  Sr13  1  0.05904174  0.30396703  0.11645939  1
  Sr  Sr14  1  0.05565869  0.30936619  0.61895983  1
  Sr  Sr15  1  0.05570392  0.80888342  0.61785107  1
  Sr  Sr16  1  0.55816438  0.30328326  0.11327663  1
  Sr  Sr17  1  0.55617375  0.31062732  0.62049776  1
  Sr  Sr18  1  0.55739597  0.80253044  0.11533073  1
  Sr  Sr19  1  0.55681315  0.80893652  0.61894489  1
  Sr  Sr20  1  0.44336225  0.19732289  0.38827746  1
  Sr  Sr21  1  0.43762619  0.18897985  0.88103350  1
  Sr  Sr22  1  0.43933310  0.69855866  0.38545784  1
  Sr  Sr23  1  0.43797939  0.68996688  0.88147750  1
  Sr  Sr24  1  0.93771194  0.19259131  0.38539037  1
  Sr  Sr25  1  0.93799583  0.18934099  0.88218009  1
  Sr  Sr26  1  0.93927127  0.69590568  0.38326254  1
  Sr  Sr27  1  0.93576212  0.68772997  0.87965877  1
  Ca  Ca28  1  0.30475019  0.05973549  0.10274576  1
  Ca  Ca29  1  0.30809548  0.56337874  0.10491107  1
  Ca  Ca30  1  0.80079301  0.05782871  0.10493525  1
  Ca  Ca31  1  0.05933330  0.79113106  0.10433368  1
  Ti  Ti32  1  0.00124351  0.99853120  0.00192037  1
  Ti  Ti33  1  0.99810011  0.00072465  0.50028267  1
  Ti  Ti34  1  0.99958766  0.49933909  0.00134846  1
  Ti  Ti35  1  0.99741483  0.49949574  0.49985752  1
  Ti  Ti36  1  0.49961143  0.99881583  0.99990552  1
  Ti  Ti37  1  0.49857717  0.00228678  0.50174994  1
  Ti  Ti38  1  0.49860795  0.49813423  0.99989927  1
  Ti  Ti39  1  0.49774824  0.50133333  0.50110227  1
  Ti  Ti40  1  0.24891481  0.25104697  0.99967252  1
  Ti  Ti41  1  0.24809193  0.24952363  0.50147119  1
  Ti  Ti42  1  0.24863898  0.75082457  0.99940134  1
  Ti  Ti43  1  0.24776970  0.74938301  0.50048890  1
  Ti  Ti44  1  0.74987306  0.24899623  0.99973751  1
  Ti  Ti45  1  0.74692959  0.24952737  0.50135093  1
  Ti  Ti46  1  0.75085549  0.75169533  0.00166587  1
  Ti  Ti47  1  0.74696535  0.74852320  0.49999042  1
  Ti  Ti48  1  0.10714424  0.09659681  0.24554806  1
  Ti  Ti49  1  0.11669889  0.11765481  0.75077598  1
  Ti  Ti50  1  0.11583451  0.61234785  0.24858674  1
  Ti  Ti51  1  0.12471279  0.61733854  0.75019200  1
  Ti  Ti52  1  0.60751352  0.11313054  0.24815251  1
  Ti  Ti53  1  0.61827826  0.11702273  0.75111355  1
  Ti  Ti54  1  0.61234283  0.61400474  0.24833362  1
  Ti  Ti55  1  0.62553861  0.61713878  0.75122660  1
  Ti  Ti56  1  0.36916763  0.39653963  0.24743513  1
  Ti  Ti57  1  0.37516029  0.38415176  0.75149968  1
  Ti  Ti58  1  0.35881767  0.89234195  0.24590210  1
  Ti  Ti59  1  0.36649782  0.88341617  0.75075729  1
  Ti  Ti60  1  0.86481820  0.38663366  0.24886758  1
  Ti  Ti61  1  0.87545029  0.38281826  0.75122026  1
  Ti  Ti62  1  0.85916238  0.89241182  0.24821179  1
  Ti  Ti63  1  0.86773789  0.88298862  0.75119772  1
  O  O64  1  0.12105557  0.12332504  0.49674730  1
  O  O65  1  0.12145230  0.12064945  0.99292760  1
  O  O66  1  0.11902013  0.62038779  0.49256800  1
  O  O67  1  0.12021276  0.62206871  0.99380236  1
  O  O68  1  0.62004621  0.12275131  0.49585855  1
  O  O69  1  0.62067937  0.11984257  0.99210967  1
  O  O70  1  0.62077331  0.62323825  0.49761513  1
  O  O71  1  0.61990012  0.62095747  0.99250723  1
  O  O72  1  0.13391822  0.38444520  0.01446628  1
  O  O73  1  0.12462629  0.37624983  0.50405752  1
  O  O74  1  0.13243088  0.88148378  0.01374779  1
  O  O75  1  0.12536916  0.87753110  0.50633873  1
  O  O76  1  0.62897135  0.37789294  0.00843807  1
  O  O77  1  0.62531260  0.37878792  0.50741439  1
  O  O78  1  0.63201300  0.88243187  0.01024514  1
  O  O79  1  0.62445303  0.87737250  0.50489541  1
  O  O80  1  0.37105431  0.12399749  0.49685603  1
  O  O81  1  0.37009597  0.12075637  0.99386568  1
  O  O82  1  0.36858365  0.62122961  0.49216518  1
  O  O83  1  0.36845761  0.62003153  0.99265217  1
  O  O84  1  0.86832352  0.12125005  0.49299071  1
  O  O85  1  0.87154698  0.11892881  0.99604313  1
  O  O86  1  0.86891806  0.62074828  0.49216417  1
  O  O87  1  0.87234253  0.62338498  0.99497081  1
  O  O88  1  0.37820343  0.38069023  0.01206543  1
  O  O89  1  0.37259640  0.37604962  0.50163256  1
  O  O90  1  0.37884473  0.88124253  0.01212394  1
  O  O91  1  0.37533056  0.87815373  0.50520521  1
  O  O92  1  0.88124953  0.37957168  0.01281546  1
  O  O93  1  0.87387778  0.37644224  0.50473096  1
  O  O94  1  0.88471971  0.88180519  0.01696305  1
  O  O95  1  0.87260291  0.87475944  0.50026398  1
  O  O96  1  0.07581606  0.09006182  0.13266515  1
  O  O97  1  0.05796481  0.07584439  0.62900493  1
  O  O98  1  0.06533425  0.59464586  0.13170042  1
  O  O99  1  0.05911165  0.57763826  0.62862149  1
  O  O100  1  0.56426751  0.08599797  0.12957234  1
  O  O101  1  0.56272879  0.07738920  0.62978392  1
  O  O102  1  0.56037859  0.58056996  0.12749139  1
  O  O103  1  0.55635877  0.57673011  0.62947991  1
  O  O104  1  0.43783204  0.41955097  0.36602674  1
  O  O105  1  0.42967827  0.41503471  0.87227796  1
  O  O106  1  0.42894396  0.92770113  0.36716445  1
  O  O107  1  0.43239870  0.91622651  0.87246362  1
  O  O108  1  0.93200494  0.41339359  0.36801756  1
  O  O109  1  0.93309217  0.41720484  0.87384005  1
  O  O110  1  0.93953572  0.92585608  0.36792264  1
  O  O111  1  0.93385835  0.91536734  0.87395960  1
  O  O112  1  0.31635686  0.28391912  0.13408993  1
  O  O113  1  0.31137063  0.30398330  0.62928793  1
  O  O114  1  0.31175260  0.78545219  0.13041373  1
  O  O115  1  0.31276735  0.80015227  0.62920834  1
  O  O116  1  0.81196316  0.28386081  0.13217650  1
  O  O117  1  0.81137314  0.29996737  0.62986584  1
  O  O118  1  0.80982652  0.79483567  0.13118126  1
  O  O119  1  0.81546698  0.80257913  0.62943314  1
  O  O120  1  0.18148402  0.18858470  0.36481743  1
  O  O121  1  0.18536758  0.20593438  0.87366426  1
  O  O122  1  0.18144116  0.70260152  0.36891798  1
  O  O123  1  0.18169958  0.70591146  0.87292132  1
  O  O124  1  0.67235576  0.19963713  0.36925208  1
  O  O125  1  0.68905835  0.20356803  0.87328359  1
  O  O126  1  0.67190422  0.69255479  0.36963074  1
  O  O127  1  0.68656251  0.70603349  0.87361786  1
  O  O128  1  0.44585470  0.03379094  0.23946330  1
  O  O129  1  0.49611519  0.00276269  0.75370126  1
  O  O130  1  0.45331676  0.53605308  0.23940289  1
  O  O131  1  0.49603209  0.50618327  0.75518779  1
  O  O132  1  0.94709245  0.03932755  0.23938367  1
  O  O133  1  0.99727125  0.00242602  0.75511756  1
  O  O134  1  0.97739327  0.51156285  0.24711074  1
  O  O135  1  0.99507757  0.50477101  0.75314649  1
  O  O136  1  0.22379092  0.47953371  0.25003407  1
  O  O137  1  0.24569863  0.50017175  0.75233810  1
  O  O138  1  0.19398531  0.95001450  0.24076507  1
  O  O139  1  0.24649635  0.00259742  0.75218130  1
  O  O140  1  0.72939899  0.48997877  0.24807827  1
  O  O141  1  0.74523578  0.49788953  0.75253687  1
  O  O142  1  0.71698368  0.98463291  0.25188543  1
  O  O143  1  0.74637357  0.99977289  0.75251683  1
