# generated using pymatgen
data_Co3Pt
_symmetry_space_group_name_H-M   'P 1'
_cell_length_a   2.62855791
_cell_length_b   2.62855791
_cell_length_c   8.45557839
_cell_angle_alpha   90.00000000
_cell_angle_beta   81.05806948
_cell_angle_gamma   120.00000000
_symmetry_Int_Tables_number   1
_chemical_formula_structural   Co3Pt
_chemical_formula_sum   'Co3 Pt1'
_cell_volume   49.77359476
_cell_formula_units_Z   1
loop_
 _symmetry_equiv_pos_site_id
 _symmetry_equiv_pos_as_xyz
  1  'x, y, z'
loop_
 _atom_site_type_symbol
 _atom_site_label
 _atom_site_symmetry_multiplicity
 _atom_site_fract_x
 _atom_site_fract_y
 _atom_site_fract_z
 _atom_site_occupancy
  Co  Co0  1  0.48924037  0.24462018  0.26613945  1
  Co  Co1  1  -0.00000000  0.50000000  0.50000000  1
  Co  Co2  1  0.51075963  0.75537982  0.73386055  1
  Pt  Pt3  1  -0.00000000  0.00000000  -0.00000000  1
