# generated using pymatgen
data_UGaPd
_symmetry_space_group_name_H-M   'P 1'
_cell_length_a   4.21514076
_cell_length_b   6.94818036
_cell_length_c   6.94456390
_cell_angle_alpha   120.01722627
_cell_angle_beta   90.00000000
_cell_angle_gamma   90.00000000
_symmetry_Int_Tables_number   1
_chemical_formula_structural   UGaPd
_chemical_formula_sum   'U3 Ga3 Pd3'
_cell_volume   176.10973460
_cell_formula_units_Z   3
loop_
 _symmetry_equiv_pos_site_id
 _symmetry_equiv_pos_as_xyz
  1  'x, y, z'
loop_
 _atom_site_type_symbol
 _atom_site_label
 _atom_site_symmetry_multiplicity
 _atom_site_fract_x
 _atom_site_fract_y
 _atom_site_fract_z
 _atom_site_occupancy
  U  U0  1  0.50000000  0.57204658  1.00000000  1
  U  U1  1  0.50000000  0.42927005  0.43025716  1
  U  U2  1  0.50000000  0.99901289  0.56974284  1
  Ga  Ga3  1  -0.00000000  0.23754995  1.00000000  1
  Ga  Ga4  1  -0.00000000  0.76300403  0.76324071  1
  Ga  Ga5  1  -0.00000000  0.99976333  0.23675929  1
  Pd  Pd6  1  0.00000000  0.33250775  0.66616627  1
  Pd  Pd7  1  0.00000000  0.66634148  0.33383373  1
  Pd  Pd8  1  0.50000000  0.00040394  0.00000000  1
