# generated using pymatgen
data_MgZn2
_symmetry_space_group_name_H-M   'P 1'
_cell_length_a   2.98055651
_cell_length_b   14.64390586
_cell_length_c   4.66974822
_cell_angle_alpha   90.00000000
_cell_angle_beta   90.00000000
_cell_angle_gamma   90.00000000
_symmetry_Int_Tables_number   1
_chemical_formula_structural   MgZn2
_chemical_formula_sum   'Mg4 Zn8'
_cell_volume   203.82044892
_cell_formula_units_Z   4
loop_
 _symmetry_equiv_pos_site_id
 _symmetry_equiv_pos_as_xyz
  1  'x, y, z'
loop_
 _atom_site_type_symbol
 _atom_site_label
 _atom_site_symmetry_multiplicity
 _atom_site_fract_x
 _atom_site_fract_y
 _atom_site_fract_z
 _atom_site_occupancy
  Mg  Mg0  1  0.00000000  0.88979692  0.25000000  1
  Mg  Mg1  1  0.50000000  0.61020308  0.75000000  1
  Mg  Mg2  1  0.50000000  0.38979692  0.25000000  1
  Mg  Mg3  1  -0.00000000  0.11020308  0.75000000  1
  Zn  Zn4  1  -0.00000000  0.55666618  0.25000000  1
  Zn  Zn5  1  0.50000000  0.72066115  0.25000000  1
  Zn  Zn6  1  0.00000000  0.77933885  0.75000000  1
  Zn  Zn7  1  0.50000000  0.94333382  0.75000000  1
  Zn  Zn8  1  0.50000000  0.05666618  0.25000000  1
  Zn  Zn9  1  0.00000000  0.22066115  0.25000000  1
  Zn  Zn10  1  0.50000000  0.27933885  0.75000000  1
  Zn  Zn11  1  -0.00000000  0.44333382  0.75000000  1
