# generated using pymatgen
data_CeSe2
_symmetry_space_group_name_H-M   'P 1'
_cell_length_a   6.88300878
_cell_length_b   6.91533227
_cell_length_c   7.16172657
_cell_angle_alpha   90.00000000
_cell_angle_beta   90.00000000
_cell_angle_gamma   90.00000000
_symmetry_Int_Tables_number   1
_chemical_formula_structural   CeSe2
_chemical_formula_sum   'Ce4 Se8'
_cell_volume   340.88595774
_cell_formula_units_Z   4
loop_
 _symmetry_equiv_pos_site_id
 _symmetry_equiv_pos_as_xyz
  1  'x, y, z'
loop_
 _atom_site_type_symbol
 _atom_site_label
 _atom_site_symmetry_multiplicity
 _atom_site_fract_x
 _atom_site_fract_y
 _atom_site_fract_z
 _atom_site_occupancy
  Ce  Ce0  1  0.27666053  0.74699250  0.45255781  1
  Ce  Ce1  1  0.72333947  0.24699250  0.54744219  1
  Ce  Ce2  1  0.27666053  0.24699250  0.04744219  1
  Ce  Ce3  1  0.72333947  0.74699250  0.95255781  1
  Se  Se4  1  0.06630665  0.89521880  0.13570310  1
  Se  Se5  1  0.93369335  0.39521880  0.86429690  1
  Se  Se6  1  0.06630665  0.39521880  0.36429690  1
  Se  Se7  1  0.93369335  0.89521880  0.63570310  1
  Se  Se8  1  0.55256444  0.00178871  0.25265686  1
  Se  Se9  1  0.44743556  0.50178871  0.74734314  1
  Se  Se10  1  0.55256444  0.50178871  0.24734314  1
  Se  Se11  1  0.44743556  0.00178871  0.75265686  1
