# generated using pymatgen
data_ErFeGe2
_symmetry_space_group_name_H-M   'P 1'
_cell_length_a   4.19475658
_cell_length_b   4.14306677
_cell_length_c   8.53267673
_cell_angle_alpha   104.05046976
_cell_angle_beta   90.00000000
_cell_angle_gamma   90.00000000
_symmetry_Int_Tables_number   1
_chemical_formula_structural   ErFeGe2
_chemical_formula_sum   'Er2 Fe2 Ge4'
_cell_volume   143.85420021
_cell_formula_units_Z   2
loop_
 _symmetry_equiv_pos_site_id
 _symmetry_equiv_pos_as_xyz
  1  'x, y, z'
loop_
 _atom_site_type_symbol
 _atom_site_label
 _atom_site_symmetry_multiplicity
 _atom_site_fract_x
 _atom_site_fract_y
 _atom_site_fract_z
 _atom_site_occupancy
  Er  Er0  1  0.75000000  0.10938666  0.21877332  1
  Er  Er1  1  0.25000000  0.89061334  0.78122668  1
  Fe  Fe2  1  0.75000000  0.31883268  0.63766536  1
  Fe  Fe3  1  0.25000000  0.68116732  0.36233464  1
  Ge  Ge4  1  0.75000000  0.45534284  0.91068568  1
  Ge  Ge5  1  0.25000000  0.54465716  0.08931432  1
  Ge  Ge6  1  0.75000000  0.74916879  0.49833758  1
  Ge  Ge7  1  0.25000000  0.25083121  0.50166242  1
