# generated using pymatgen
data_VH10S2(NO4)2
_symmetry_space_group_name_H-M   'P 1'
_cell_length_a   5.14139614
_cell_length_b   6.72181149
_cell_length_c   13.48433979
_cell_angle_alpha   90.00000000
_cell_angle_beta   90.00000000
_cell_angle_gamma   93.95434131
_symmetry_Int_Tables_number   1
_chemical_formula_structural   VH10S2(NO4)2
_chemical_formula_sum   'V2 H20 S4 N4 O16'
_cell_volume   464.90255777
_cell_formula_units_Z   2
loop_
 _symmetry_equiv_pos_site_id
 _symmetry_equiv_pos_as_xyz
  1  'x, y, z'
loop_
 _atom_site_type_symbol
 _atom_site_label
 _atom_site_symmetry_multiplicity
 _atom_site_fract_x
 _atom_site_fract_y
 _atom_site_fract_z
 _atom_site_occupancy
  V  V0  1  0.50000000  0.50000000  0.00000000  1
  V  V1  1  0.00000000  0.00000000  0.50000000  1
  H  H2  1  0.97881721  0.14743340  0.18083717  1
  H  H3  1  0.92920331  0.65513363  0.43416349  1
  H  H4  1  0.92037343  0.60705781  0.82537915  1
  H  H5  1  0.02118279  0.85256660  0.81916283  1
  H  H6  1  0.12191995  0.25515841  0.28017865  1
  H  H7  1  0.17658587  0.68173634  0.75067036  1
  H  H8  1  0.37808005  0.24484159  0.78017865  1
  H  H9  1  0.32341413  0.81826366  0.25067036  1
  H  H10  1  0.47881721  0.64743340  0.31916283  1
  H  H11  1  0.42037343  0.10705781  0.67462085  1
  H  H12  1  0.42920331  0.15513363  0.06583651  1
  H  H13  1  0.52118279  0.35256660  0.68083717  1
  H  H14  1  0.57079669  0.84486637  0.93416349  1
  H  H15  1  0.57962657  0.89294219  0.32537915  1
  H  H16  1  0.67658587  0.18173634  0.74932964  1
  H  H17  1  0.62191995  0.75515841  0.21982135  1
  H  H18  1  0.82341413  0.31826366  0.24932964  1
  H  H19  1  0.87808005  0.74484159  0.71982135  1
  H  H20  1  0.07079669  0.34486637  0.56583651  1
  H  H21  1  0.07962657  0.39294219  0.17462085  1
  S  S22  1  0.01905357  0.75952853  0.06675893  1
  S  S23  1  0.51905357  0.25952853  0.43324107  1
  S  S24  1  0.48094643  0.74047147  0.56675893  1
  S  S25  1  0.98094643  0.24047147  0.93324107  1
  N  N26  1  -0.00019936  0.72037098  0.77914876  1
  N  N27  1  0.49980064  0.22037098  0.72085124  1
  N  N28  1  0.50019936  0.77962902  0.27914876  1
  N  N29  1  0.00019936  0.27962902  0.22085124  1
  O  O30  1  0.97025797  0.22090044  0.58200944  1
  O  O31  1  0.08198949  0.89753184  0.15331646  1
  O  O32  1  0.18857707  0.57637120  0.08436316  1
  O  O33  1  0.26537069  0.33367033  0.90711337  1
  O  O34  1  0.23462931  0.16632967  0.40711337  1
  O  O35  1  0.31142293  0.92362880  0.58436316  1
  O  O36  1  0.41801051  0.60246816  0.65331646  1
  O  O37  1  0.52974203  0.27909956  0.08200944  1
  O  O38  1  0.47025797  0.72090044  0.91799056  1
  O  O39  1  0.58198949  0.39753184  0.34668354  1
  O  O40  1  0.68857707  0.07637120  0.41563684  1
  O  O41  1  0.76537069  0.83367033  0.59288663  1
  O  O42  1  0.73462931  0.66632967  0.09288663  1
  O  O43  1  0.81142293  0.42362880  0.91563684  1
  O  O44  1  0.91801051  0.10246816  0.84668354  1
  O  O45  1  0.02974203  0.77909956  0.41799056  1
