# generated using pymatgen
data_Ti3Cr2Sn(PO4)6
_symmetry_space_group_name_H-M   'P 1'
_cell_length_a   8.79580741
_cell_length_b   8.79580768
_cell_length_c   8.79580746
_cell_angle_alpha   59.10186712
_cell_angle_beta   59.10186559
_cell_angle_gamma   59.10186105
_symmetry_Int_Tables_number   1
_chemical_formula_structural   Ti3Cr2Sn(PO4)6
_chemical_formula_sum   'Ti3 Cr2 Sn1 P6 O24'
_cell_volume   471.33297878
_cell_formula_units_Z   1
loop_
 _symmetry_equiv_pos_site_id
 _symmetry_equiv_pos_as_xyz
  1  'x, y, z'
loop_
 _atom_site_type_symbol
 _atom_site_label
 _atom_site_symmetry_multiplicity
 _atom_site_fract_x
 _atom_site_fract_y
 _atom_site_fract_z
 _atom_site_occupancy
  Ti  Ti0  1  0.14436090  0.14436090  0.14436090  1
  Ti  Ti1  1  0.35522372  0.35522372  0.35522372  1
  Ti  Ti2  1  0.64387950  0.64387950  0.64387950  1
  Cr  Cr3  1  0.00236957  0.00236957  0.00236957  1
  Cr  Cr4  1  0.49922373  0.49922373  0.49922373  1
  Sn  Sn5  1  0.85568024  0.85568024  0.85568024  1
  P  P6  1  0.25269434  0.53856702  0.95891470  1
  P  P7  1  0.53856702  0.95891470  0.25269434  1
  P  P8  1  0.95891470  0.25269434  0.53856702  1
  P  P9  1  0.04323852  0.74851411  0.45512149  1
  P  P10  1  0.45512149  0.04323852  0.74851411  1
  P  P11  1  0.74851411  0.45512149  0.04323852  1
  O  O12  1  0.12039423  0.30481710  0.50014410  1
  O  O13  1  0.30481710  0.50014410  0.12039423  1
  O  O14  1  0.05988069  0.91618797  0.26678046  1
  O  O15  1  0.50014410  0.12039423  0.30481710  1
  O  O16  1  0.01497187  0.80059467  0.61282153  1
  O  O17  1  0.23214766  0.58183599  0.43663139  1
  O  O18  1  0.26678046  0.05988069  0.91618797  1
  O  O19  1  0.43663139  0.23214766  0.58183599  1
  O  O20  1  0.19619147  0.37996863  0.99713714  1
  O  O21  1  0.58183599  0.43663139  0.23214766  1
  O  O22  1  0.08632820  0.73154987  0.94396851  1
  O  O23  1  0.37996863  0.99713714  0.19619147  1
  O  O24  1  0.61282153  0.01497187  0.80059467  1
  O  O25  1  0.91618797  0.26678046  0.05988069  1
  O  O26  1  0.41791579  0.55829896  0.76863077  1
  O  O27  1  0.80059467  0.61282153  0.01497187  1
  O  O28  1  0.55829896  0.76863077  0.41791579  1
  O  O29  1  0.73154987  0.94396851  0.08632820  1
  O  O30  1  0.76863077  0.41791579  0.55829896  1
  O  O31  1  0.99713714  0.19619147  0.37996863  1
  O  O32  1  0.49953596  0.87790717  0.69757199  1
  O  O33  1  0.94396851  0.08632820  0.73154987  1
  O  O34  1  0.69757199  0.49953596  0.87790717  1
  O  O35  1  0.87790717  0.69757199  0.49953596  1
