# generated using pymatgen
data_Tl3Cu4As8Pb3S20
_symmetry_space_group_name_H-M   'P 1'
_cell_length_a   7.77736198
_cell_length_b   16.97337140
_cell_length_c   9.43509700
_cell_angle_alpha   60.49574087
_cell_angle_beta   70.49501666
_cell_angle_gamma   62.52297760
_symmetry_Int_Tables_number   1
_chemical_formula_structural   Tl3Cu4As8Pb3S20
_chemical_formula_sum   'Tl3 Cu4 As8 Pb3 S20'
_cell_volume   952.49236382
_cell_formula_units_Z   1
loop_
 _symmetry_equiv_pos_site_id
 _symmetry_equiv_pos_as_xyz
  1  'x, y, z'
loop_
 _atom_site_type_symbol
 _atom_site_label
 _atom_site_symmetry_multiplicity
 _atom_site_fract_x
 _atom_site_fract_y
 _atom_site_fract_z
 _atom_site_occupancy
  Tl  Tl0  1  0.30549338  0.08678094  0.13918138  1
  Tl  Tl1  1  0.70700334  0.41118909  0.87925427  1
  Tl  Tl2  1  0.72521981  0.77818198  0.41416211  1
  Cu  Cu3  1  0.12355112  0.39861127  0.06102038  1
  Cu  Cu4  1  0.13185512  0.90041054  0.06428531  1
  Cu  Cu5  1  0.86069185  0.09547307  0.94773017  1
  Cu  Cu6  1  0.87687795  0.60282292  0.92292721  1
  As  As7  1  0.07746572  0.03458098  0.62581790  1
  As  As8  1  0.10062497  0.51160540  0.62934656  1
  As  As9  1  0.53732637  0.18816460  0.20203942  1
  As  As10  1  0.46890814  0.29861002  0.80726160  1
  As  As11  1  0.54241122  0.69553101  0.19392420  1
  As  As12  1  0.45451940  0.81227269  0.79428303  1
  As  As13  1  0.91182400  0.48378359  0.35989048  1
  As  As14  1  0.91637759  0.97378888  0.38523308  1
  Pb  Pb15  1  0.25543601  0.23274667  0.56466790  1
  Pb  Pb16  1  0.29199525  0.60465863  0.14680582  1
  Pb  Pb17  1  0.69523721  0.89886962  0.84542019  1
  S  S18  1  0.10619086  0.16694018  0.41507953  1
  S  S19  1  0.17958018  0.03617218  0.82812387  1
  S  S20  1  0.15941662  0.30308391  0.93787208  1
  S  S21  1  0.36942684  0.33558548  0.22223934  1
  S  S22  1  0.13321352  0.65029661  0.41452300  1
  S  S23  1  0.62736462  0.08149012  0.46375463  1
  S  S24  1  0.38076919  0.40461782  0.54269599  1
  S  S25  1  0.18694197  0.52763452  0.82307754  1
  S  S26  1  0.61290262  0.15224997  0.79771284  1
  S  S27  1  0.83713199  0.19023763  0.06703532  1
  S  S28  1  0.16001022  0.80167395  0.94859600  1
  S  S29  1  0.39331308  0.84109915  0.20183465  1
  S  S30  1  0.81011701  0.47400668  0.16645139  1
  S  S31  1  0.63769666  0.59458147  0.44705562  1
  S  S32  1  0.35529598  0.91316409  0.54556465  1
  S  S33  1  0.87010843  0.35543774  0.58184289  1
  S  S34  1  0.62257107  0.66718110  0.77651011  1
  S  S35  1  0.84466149  0.70062579  0.04522840  1
  S  S36  1  0.82648799  0.95792632  0.18889703  1
  S  S37  1  0.90398122  0.83746341  0.60355409  1
