# generated using pymatgen
data_V2Bi4O11
_symmetry_space_group_name_H-M   'P 1'
_cell_length_a   6.00229474
_cell_length_b   5.67116000
_cell_length_c   15.90399220
_cell_angle_alpha   90.00000000
_cell_angle_beta   109.32856262
_cell_angle_gamma   90.00000000
_symmetry_Int_Tables_number   1
_chemical_formula_structural   V2Bi4O11
_chemical_formula_sum   'V4 Bi8 O22'
_cell_volume   510.85765322
_cell_formula_units_Z   2
loop_
 _symmetry_equiv_pos_site_id
 _symmetry_equiv_pos_as_xyz
  1  'x, y, z'
loop_
 _atom_site_type_symbol
 _atom_site_label
 _atom_site_symmetry_multiplicity
 _atom_site_fract_x
 _atom_site_fract_y
 _atom_site_fract_z
 _atom_site_occupancy
  V  V0  1  0.08007303  0.98822723  0.49241101  1
  V  V1  1  0.00092676  0.99749603  0.00727395  1
  V  V2  1  0.50092676  0.50250397  0.50727395  1
  V  V3  1  0.58007303  0.51177277  0.99241101  1
  Bi  Bi4  1  0.12888173  0.49558329  0.64709833  1
  Bi  Bi5  1  0.30382122  0.99379324  0.82429662  1
  Bi  Bi6  1  0.20412442  0.48097302  0.16138286  1
  Bi  Bi7  1  0.27887751  0.98018976  0.31073812  1
  Bi  Bi8  1  0.70412442  0.01902698  0.66138286  1
  Bi  Bi9  1  0.77887751  0.51981024  0.81073812  1
  Bi  Bi10  1  0.62888173  0.00441671  0.14709833  1
  Bi  Bi11  1  0.80382122  0.50620676  0.32429662  1
  O  O12  1  0.03644537  0.23578078  0.74031941  1
  O  O13  1  0.02456985  0.75808916  0.74284618  1
  O  O14  1  0.45964582  0.28876193  0.03932999  1
  O  O15  1  0.03475966  0.23836066  0.23131359  1
  O  O16  1  0.03367343  0.71089008  0.23971645  1
  O  O17  1  0.46425641  0.49992322  0.87676602  1
  O  O18  1  0.35062637  0.24116470  0.51243109  1
  O  O19  1  0.35508475  0.77142500  0.51392012  1
  O  O20  1  0.53475966  0.26163934  0.73131359  1
  O  O21  1  0.53367343  0.78910992  0.73971645  1
  O  O22  1  0.22764549  0.00323888  0.11017930  1
  O  O23  1  0.85062637  0.25883530  0.01243109  1
  O  O24  1  0.53869688  0.49909325  0.40376271  1
  O  O25  1  0.72764549  0.49676112  0.61017930  1
  O  O26  1  0.44149129  0.74348986  0.02361425  1
  O  O27  1  0.53644537  0.26421922  0.24031941  1
  O  O28  1  0.52456985  0.74191084  0.24284618  1
  O  O29  1  0.03869688  0.00090675  0.90376271  1
  O  O30  1  0.95964582  0.21123807  0.53932999  1
  O  O31  1  0.94149129  0.75651014  0.52361425  1
  O  O32  1  0.96425641  0.00007678  0.37676602  1
  O  O33  1  0.85508475  0.72857500  0.01392012  1
