# generated using pymatgen
data_Sr2Ca2Fe(CoO4)3
_symmetry_space_group_name_H-M   'P 1'
_cell_length_a   7.68009514
_cell_length_b   7.59093469
_cell_length_c   7.82143419
_cell_angle_alpha   90.00000000
_cell_angle_beta   90.00000000
_cell_angle_gamma   89.99622381
_symmetry_Int_Tables_number   1
_chemical_formula_structural   Sr2Ca2Fe(CoO4)3
_chemical_formula_sum   'Sr4 Ca4 Fe2 Co6 O24'
_cell_volume   455.98257835
_cell_formula_units_Z   2
loop_
 _symmetry_equiv_pos_site_id
 _symmetry_equiv_pos_as_xyz
  1  'x, y, z'
loop_
 _atom_site_type_symbol
 _atom_site_label
 _atom_site_symmetry_multiplicity
 _atom_site_fract_x
 _atom_site_fract_y
 _atom_site_fract_z
 _atom_site_occupancy
  Sr  Sr0  1  0.25345030  0.25100272  0.25000000  1
  Sr  Sr1  1  0.25371854  0.25035814  0.75000000  1
  Sr  Sr2  1  0.74668238  0.25046830  0.75000000  1
  Sr  Sr3  1  0.74664490  0.74856164  0.25000000  1
  Ca  Ca4  1  0.25954017  0.75521708  0.25000000  1
  Ca  Ca5  1  0.25945156  0.75346683  0.75000000  1
  Ca  Ca6  1  0.74042686  0.24589466  0.25000000  1
  Ca  Ca7  1  0.73921591  0.75353201  0.75000000  1
  Fe  Fe8  1  -0.00007411  0.99781271  -0.00019599  1
  Fe  Fe9  1  -0.00007411  0.99781271  0.50019599  1
  Co  Co10  1  0.99996080  0.50051190  -0.00002428  1
  Co  Co11  1  0.99996080  0.50051190  0.50002428  1
  Co  Co12  1  0.50015434  0.99876825  0.00011426  1
  Co  Co13  1  0.50015434  0.99876825  0.49988574  1
  Co  Co14  1  0.49989116  0.50169919  0.99986583  1
  Co  Co15  1  0.49989116  0.50169919  0.50013417  1
  O  O16  1  0.24733153  0.99338224  0.99989918  1
  O  O17  1  0.24733153  0.99338224  0.50010082  1
  O  O18  1  0.26527204  0.50397889  0.99975903  1
  O  O19  1  0.26527204  0.50397889  0.50024097  1
  O  O20  1  0.75272209  0.99820399  0.99967992  1
  O  O21  1  0.75272209  0.99820399  0.50032008  1
  O  O22  1  0.73481597  0.50040911  0.99938677  1
  O  O23  1  0.73481597  0.50040911  0.50061323  1
  O  O24  1  0.99836025  0.26294818  0.00119552  1
  O  O25  1  0.99836025  0.26294818  0.49880448  1
  O  O26  1  0.00121020  0.73699133  0.99918911  1
  O  O27  1  0.00121020  0.73699133  0.50081089  1
  O  O28  1  0.50146124  0.23717015  0.99875622  1
  O  O29  1  0.50146124  0.23717015  0.50124378  1
  O  O30  1  0.49870700  0.76188789  0.00273904  1
  O  O31  1  0.49870700  0.76188789  0.49726096  1
  O  O32  1  0.00060452  0.99746269  0.25000000  1
  O  O33  1  0.00030266  0.99439290  0.75000000  1
  O  O34  1  0.00046192  0.50188249  0.25000000  1
  O  O35  1  0.00012995  0.50353752  0.75000000  1
  O  O36  1  0.49923433  0.00040540  0.25000000  1
  O  O37  1  0.49971910  0.98887865  0.75000000  1
  O  O38  1  0.50087672  0.49662054  0.25000000  1
  O  O39  1  0.49991516  0.52079079  0.75000000  1
