# generated using pymatgen
data_CrH5O4
_symmetry_space_group_name_H-M   'P 1'
_cell_length_a   3.09289273
_cell_length_b   5.86107707
_cell_length_c   4.36547783
_cell_angle_alpha   78.61028519
_cell_angle_beta   90.00000000
_cell_angle_gamma   90.00000000
_symmetry_Int_Tables_number   1
_chemical_formula_structural   CrH5O4
_chemical_formula_sum   'Cr1 H5 O4'
_cell_volume   77.57754303
_cell_formula_units_Z   1
loop_
 _symmetry_equiv_pos_site_id
 _symmetry_equiv_pos_as_xyz
  1  'x, y, z'
loop_
 _atom_site_type_symbol
 _atom_site_label
 _atom_site_symmetry_multiplicity
 _atom_site_fract_x
 _atom_site_fract_y
 _atom_site_fract_z
 _atom_site_occupancy
  Cr  Cr0  1  0.50000000  0.45651105  0.04779544  1
  H  H1  1  0.25916861  0.21417216  0.63059141  1
  H  H2  1  0.74083139  0.21417216  0.63059141  1
  H  H3  1  0.50000000  0.91793870  0.05336506  1
  H  H4  1  -0.00000000  0.52507575  0.57451569  1
  H  H5  1  0.50000000  0.78607557  0.41806465  1
  O  O6  1  -0.00000000  0.32837232  0.32772005  1
  O  O7  1  -0.00000000  0.59497535  0.76680979  1
  O  O8  1  0.50000000  0.18025658  0.79765897  1
  O  O9  1  0.50000000  0.76538335  0.20168754  1
