# generated using pymatgen
data_V9(P2O7)8
_symmetry_space_group_name_H-M   'P 1'
_cell_length_a   10.82904262
_cell_length_b   9.82320749
_cell_length_c   12.93460722
_cell_angle_alpha   83.04191741
_cell_angle_beta   65.91705367
_cell_angle_gamma   109.48196928
_symmetry_Int_Tables_number   1
_chemical_formula_structural   V9(P2O7)8
_chemical_formula_sum   'V9 P16 O56'
_cell_volume   1130.11611566
_cell_formula_units_Z   1
loop_
 _symmetry_equiv_pos_site_id
 _symmetry_equiv_pos_as_xyz
  1  'x, y, z'
loop_
 _atom_site_type_symbol
 _atom_site_label
 _atom_site_symmetry_multiplicity
 _atom_site_fract_x
 _atom_site_fract_y
 _atom_site_fract_z
 _atom_site_occupancy
  V  V0  1  0.06021454  0.05470057  0.18673331  1
  V  V1  1  0.20588337  0.80964514  0.57292816  1
  V  V2  1  0.43753251  0.44620854  0.29871392  1
  V  V3  1  0.29293226  0.69990797  0.93232414  1
  V  V4  1  0.50000000  0.50000000  0.50000000  1
  V  V5  1  0.70706774  0.30009203  0.06767586  1
  V  V6  1  0.56246749  0.55379146  0.70128608  1
  V  V7  1  0.79411663  0.19035486  0.42707184  1
  V  V8  1  0.93978546  0.94529943  0.81326669  1
  P  P9  1  0.05237451  0.73148558  0.17103356  1
  P  P10  1  0.08986021  0.27316950  0.37090252  1
  P  P11  1  0.26562606  0.95875699  0.77017931  1
  P  P12  1  0.19207335  0.14092990  0.52420352  1
  P  P13  1  0.45145063  0.76480947  0.34144843  1
  P  P14  1  0.23109202  0.53823640  0.72910151  1
  P  P15  1  0.40652536  0.21832056  0.13261855  1
  P  P16  1  0.68532398  0.62763379  0.01475194  1
  P  P17  1  0.31467602  0.37236621  0.98524806  1
  P  P18  1  0.59347464  0.78167944  0.86738145  1
  P  P19  1  0.76890798  0.46176360  0.27089849  1
  P  P20  1  0.54854937  0.23519053  0.65855157  1
  P  P21  1  0.80792665  0.85907010  0.47579648  1
  P  P22  1  0.73437394  0.04124301  0.22982069  1
  P  P23  1  0.91013979  0.72683050  0.62909748  1
  P  P24  1  0.94762549  0.26851442  0.82896644  1
  O  O25  1  0.07690576  0.89463235  0.12045392  1
  O  O26  1  0.12703854  0.67957898  0.05659742  1
  O  O27  1  0.09173132  0.69435997  0.26292276  1
  O  O28  1  0.04781977  0.70504825  0.54249608  1
  O  O29  1  0.03079668  0.20310503  0.28990543  1
  O  O30  1  0.17748231  0.22163920  0.03792790  1
  O  O31  1  0.27894224  0.50650949  0.00914958  1
  O  O32  1  0.10859498  0.94463801  0.83758499  1
  O  O33  1  0.23871693  0.41024099  0.30984938  1
  O  O34  1  0.10535074  0.14691924  0.44815642  1
  O  O35  1  0.40528133  0.76212349  0.24976621  1
  O  O36  1  0.18122409  0.60775438  0.65156421  1
  O  O37  1  0.40598915  0.35779128  0.05471365  1
  O  O38  1  0.08570546  0.10789495  0.65371792  1
  O  O39  1  0.25142666  0.09139820  0.19464450  1
  O  O40  1  0.37759333  0.82791052  0.44239585  1
  O  O41  1  0.28363376  0.88686422  0.66695438  1
  O  O42  1  0.12443818  0.36345330  0.78949452  1
  O  O43  1  0.23260287  0.61031874  0.82611617  1
  O  O44  1  0.43997553  0.60424425  0.39972320  1
  O  O45  1  0.58570646  0.59858521  0.14707904  1
  O  O46  1  0.32573739  0.30104125  0.47294628  1
  O  O47  1  0.24234831  0.01589215  0.49480954  1
  O  O48  1  0.32336077  0.89588894  0.84493963  1
  O  O49  1  0.53584014  0.18385218  0.05089157  1
  O  O50  1  0.46391768  0.28430692  0.21608269  1
  O  O51  1  0.62914775  0.86550014  0.29276274  1
  O  O52  1  0.38825285  0.53982997  0.65380608  1
  O  O53  1  0.61174715  0.46017003  0.34619392  1
  O  O54  1  0.37085225  0.13449986  0.70723726  1
  O  O55  1  0.53608232  0.71569308  0.78391731  1
  O  O56  1  0.46415986  0.81614782  0.94910843  1
  O  O57  1  0.67663923  0.10411106  0.15506037  1
  O  O58  1  0.75765169  0.98410785  0.50519046  1
  O  O59  1  0.67426261  0.69895875  0.52705372  1
  O  O60  1  0.41429354  0.40141479  0.85292096  1
  O  O61  1  0.56002447  0.39575575  0.60027680  1
  O  O62  1  0.76739713  0.38968126  0.17388383  1
  O  O63  1  0.87556182  0.63654670  0.21050548  1
  O  O64  1  0.71636624  0.11313578  0.33304562  1
  O  O65  1  0.62240667  0.17208948  0.55760415  1
  O  O66  1  0.74857334  0.90860180  0.80535550  1
  O  O67  1  0.91429454  0.89210505  0.34628208  1
  O  O68  1  0.59401085  0.64220872  0.94528635  1
  O  O69  1  0.81877591  0.39224562  0.34843579  1
  O  O70  1  0.59471867  0.23787651  0.75023379  1
  O  O71  1  0.89464926  0.85308076  0.55184358  1
  O  O72  1  0.76128307  0.58975901  0.69015062  1
  O  O73  1  0.89140502  0.05536199  0.16241501  1
  O  O74  1  0.72105776  0.49349051  0.99085042  1
  O  O75  1  0.82251769  0.77836080  0.96207210  1
  O  O76  1  0.96920332  0.79689497  0.71009457  1
  O  O77  1  0.95218023  0.29495175  0.45750392  1
  O  O78  1  0.90826868  0.30564003  0.73707724  1
  O  O79  1  0.87296146  0.32042102  0.94340258  1
  O  O80  1  0.92309424  0.10536765  0.87954608  1
