# generated using pymatgen
data_NiTeO4
_symmetry_space_group_name_H-M   'P 1'
_cell_length_a   6.11584885
_cell_length_b   6.12354040
_cell_length_c   6.12354033
_cell_angle_alpha   60.39356191
_cell_angle_beta   60.04154122
_cell_angle_gamma   60.04154156
_symmetry_Int_Tables_number   1
_chemical_formula_structural   NiTeO4
_chemical_formula_sum   'Ni2 Te2 O8'
_cell_volume   162.74065781
_cell_formula_units_Z   2
loop_
 _symmetry_equiv_pos_site_id
 _symmetry_equiv_pos_as_xyz
  1  'x, y, z'
loop_
 _atom_site_type_symbol
 _atom_site_label
 _atom_site_symmetry_multiplicity
 _atom_site_fract_x
 _atom_site_fract_y
 _atom_site_fract_z
 _atom_site_occupancy
  Ni  Ni0  1  0.00000000  0.50000000  0.50000000  1
  Ni  Ni1  1  0.50000000  0.50000000  0.50000000  1
  Te  Te2  1  0.50000000  -0.00000000  0.50000000  1
  Te  Te3  1  0.50000000  0.50000000  0.00000000  1
  O  O4  1  0.27928035  0.25159021  0.25159021  1
  O  O5  1  0.28037575  0.24335961  0.69588890  1
  O  O6  1  0.28037575  0.69588890  0.24335961  1
  O  O7  1  0.71754023  0.25159021  0.25159021  1
  O  O8  1  0.28245977  0.74840979  0.74840979  1
  O  O9  1  0.71962425  0.75664039  0.30411110  1
  O  O10  1  0.71962425  0.30411110  0.75664039  1
  O  O11  1  0.72071965  0.74840979  0.74840979  1
