# generated using pymatgen
data_Cr2B3Os
_symmetry_space_group_name_H-M   'P 1'
_cell_length_a   2.91788561
_cell_length_b   4.26381713
_cell_length_c   17.37833346
_cell_angle_alpha   89.54532263
_cell_angle_beta   90.00000000
_cell_angle_gamma   90.00000000
_symmetry_Int_Tables_number   1
_chemical_formula_structural   Cr2B3Os
_chemical_formula_sum   'Cr8 B12 Os4'
_cell_volume   216.20278494
_cell_formula_units_Z   4
loop_
 _symmetry_equiv_pos_site_id
 _symmetry_equiv_pos_as_xyz
  1  'x, y, z'
loop_
 _atom_site_type_symbol
 _atom_site_label
 _atom_site_symmetry_multiplicity
 _atom_site_fract_x
 _atom_site_fract_y
 _atom_site_fract_z
 _atom_site_occupancy
  Cr  Cr0  1  0.25000000  0.11188650  0.39474838  1
  Cr  Cr1  1  0.25000000  0.11342893  0.72659673  1
  Cr  Cr2  1  0.75000000  0.61254085  0.10703651  1
  Cr  Cr3  1  0.75000000  0.62365167  0.43646501  1
  Cr  Cr4  1  0.75000000  0.62284993  0.76554223  1
  Cr  Cr5  1  0.75000000  0.88943326  0.27999025  1
  Cr  Cr6  1  0.75000000  0.89060726  0.61065926  1
  Cr  Cr7  1  0.75000000  0.88113079  0.93702601  1
  B  B8  1  0.25000000  0.87879360  0.18009508  1
  B  B9  1  0.25000000  0.88562092  0.51150517  1
  B  B10  1  0.25000000  0.88484485  0.84156385  1
  B  B11  1  0.25000000  0.61675174  0.01016460  1
  B  B12  1  0.25000000  0.61656298  0.34759033  1
  B  B13  1  0.25000000  0.61488705  0.67719014  1
  B  B14  1  0.75000000  0.09947737  0.15850403  1
  B  B15  1  0.75000000  0.09973621  0.48806546  1
  B  B16  1  0.75000000  0.09789814  0.81870929  1
  B  B17  1  0.75000000  0.39235217  0.32780295  1
  B  B18  1  0.75000000  0.39029942  0.65704995  1
  B  B19  1  0.75000000  0.39974858  0.98827757  1
  Os  Os20  1  0.25000000  0.38657093  0.23116042  1
  Os  Os21  1  0.25000000  0.39038236  0.55863056  1
  Os  Os22  1  0.25000000  0.39287759  0.88676183  1
  Os  Os23  1  0.25000000  0.10766691  0.05886439  1
