# generated using pymatgen
data_LiFe2(PO4)3
_symmetry_space_group_name_H-M   'P 1'
_cell_length_a   8.61814589
_cell_length_b   8.61814589
_cell_length_c   8.72383381
_cell_angle_alpha   59.96477819
_cell_angle_beta   59.96477820
_cell_angle_gamma   60.52057308
_symmetry_Int_Tables_number   1
_chemical_formula_structural   LiFe2(PO4)3
_chemical_formula_sum   'Li2 Fe4 P6 O24'
_cell_volume   459.69136426
_cell_formula_units_Z   2
loop_
 _symmetry_equiv_pos_site_id
 _symmetry_equiv_pos_as_xyz
  1  'x, y, z'
loop_
 _atom_site_type_symbol
 _atom_site_label
 _atom_site_symmetry_multiplicity
 _atom_site_fract_x
 _atom_site_fract_y
 _atom_site_fract_z
 _atom_site_occupancy
  Li  Li0  1  0.50000000  -0.00000000  0.00000000  1
  Li  Li1  1  0.00000000  0.50000000  0.50000000  1
  Fe  Fe2  1  0.36104545  0.85965704  0.85130260  1
  Fe  Fe3  1  0.63895455  0.14034296  0.14869740  1
  Fe  Fe4  1  0.14034296  0.63895455  0.64869740  1
  Fe  Fe5  1  0.85965704  0.36104545  0.35130260  1
  P  P6  1  0.25475359  0.44997616  0.03504977  1
  P  P7  1  0.44997616  0.25475359  0.53504977  1
  P  P8  1  0.04155624  0.95844376  0.25000000  1
  P  P9  1  0.55002384  0.74524641  0.46495023  1
  P  P10  1  0.95844376  0.04155624  0.75000000  1
  P  P11  1  0.74524641  0.55002384  0.96495023  1
  O  O12  1  0.44179798  0.09522278  0.72967459  1
  O  O13  1  0.18958788  0.47313017  0.88749978  1
  O  O14  1  0.23350011  0.93784730  0.08521098  1
  O  O15  1  0.74413274  0.58479039  0.44209888  1
  O  O16  1  0.90477722  0.55820202  0.77032541  1
  O  O17  1  0.32027290  0.61432029  0.97496038  1
  O  O18  1  0.61432029  0.32027290  0.47496038  1
  O  O19  1  0.76649989  0.06215270  0.91478902  1
  O  O20  1  0.55820202  0.90477722  0.27032541  1
  O  O21  1  0.12320205  0.00924463  0.79801131  1
  O  O22  1  0.93784730  0.23350011  0.58521098  1
  O  O23  1  0.67972710  0.38567971  0.02503962  1
  O  O24  1  0.87679795  0.99075537  0.20198869  1
  O  O25  1  0.52686983  0.81041212  0.61250022  1
  O  O26  1  0.81041212  0.52686983  0.11250022  1
  O  O27  1  0.00924463  0.12320205  0.29801131  1
  O  O28  1  0.41520961  0.25586726  0.05790112  1
  O  O29  1  0.25586726  0.41520961  0.55790112  1
  O  O30  1  0.99075537  0.87679795  0.70198869  1
  O  O31  1  0.06215270  0.76649989  0.41478902  1
  O  O32  1  0.38567971  0.67972710  0.52503962  1
  O  O33  1  0.09522278  0.44179798  0.22967459  1
  O  O34  1  0.58479039  0.74413274  0.94209888  1
  O  O35  1  0.47313017  0.18958788  0.38749978  1
