# generated using pymatgen
data_Sr2Cr2O7
_symmetry_space_group_name_H-M   'P 1'
_cell_length_a   7.12553008
_cell_length_b   7.21263285
_cell_length_c   13.08053421
_cell_angle_alpha   82.31711521
_cell_angle_beta   87.57129047
_cell_angle_gamma   88.86223614
_symmetry_Int_Tables_number   1
_chemical_formula_structural   Sr2Cr2O7
_chemical_formula_sum   'Sr8 Cr8 O28'
_cell_volume   665.55720977
_cell_formula_units_Z   4
loop_
 _symmetry_equiv_pos_site_id
 _symmetry_equiv_pos_as_xyz
  1  'x, y, z'
loop_
 _atom_site_type_symbol
 _atom_site_label
 _atom_site_symmetry_multiplicity
 _atom_site_fract_x
 _atom_site_fract_y
 _atom_site_fract_z
 _atom_site_occupancy
  Sr  Sr0  1  0.07638490  0.84583429  0.15588146  1
  Sr  Sr1  1  0.23460724  0.22465563  0.35113955  1
  Sr  Sr2  1  0.33128262  0.76362097  0.85970007  1
  Sr  Sr3  1  0.37335408  0.37582780  0.63754823  1
  Sr  Sr4  1  0.62664592  0.62417220  0.36245177  1
  Sr  Sr5  1  0.66871738  0.23637903  0.14029993  1
  Sr  Sr6  1  0.76539276  0.77534437  0.64886045  1
  Sr  Sr7  1  0.92361510  0.15416571  0.84411854  1
  Cr  Cr8  1  0.15499946  0.31266505  0.08874954  1
  Cr  Cr9  1  0.16436660  0.69516888  0.40830038  1
  Cr  Cr10  1  0.23035833  0.89651671  0.60832161  1
  Cr  Cr11  1  0.43212992  0.28266696  0.89404248  1
  Cr  Cr12  1  0.56787008  0.71733304  0.10595752  1
  Cr  Cr13  1  0.76964167  0.10348329  0.39167839  1
  Cr  Cr14  1  0.83563340  0.30483112  0.59169962  1
  Cr  Cr15  1  0.84500054  0.68733495  0.91125046  1
  O  O16  1  0.01488740  0.37415208  0.65551854  1
  O  O17  1  0.06511953  0.47827303  0.15417616  1
  O  O18  1  0.00565487  0.83058763  0.95154129  1
  O  O19  1  0.08273974  0.78536067  0.52627791  1
  O  O20  1  0.07587852  0.91670295  0.71160797  1
  O  O21  1  0.30664891  0.17038978  0.16601760  1
  O  O22  1  0.30205203  0.85306105  0.33657446  1
  O  O23  1  0.30076450  0.10195835  0.54358346  1
  O  O24  1  0.31008528  0.50340574  0.44548231  1
  O  O25  1  0.29120728  0.14477378  0.83451305  1
  O  O26  1  0.29582053  0.41919255  0.97792178  1
  O  O27  1  0.37753939  0.81354534  0.04639730  1
  O  O28  1  0.40311376  0.74700539  0.65567718  1
  O  O29  1  0.50288236  0.53660249  0.19896311  1
  O  O30  1  0.49711764  0.46339751  0.80103689  1
  O  O31  1  0.59688624  0.25299461  0.34432282  1
  O  O32  1  0.62246061  0.18645466  0.95360270  1
  O  O33  1  0.70417947  0.58080745  0.02207822  1
  O  O34  1  0.70879272  0.85522622  0.16548695  1
  O  O35  1  0.68991472  0.49659426  0.55451769  1
  O  O36  1  0.69923550  0.89804165  0.45641654  1
  O  O37  1  0.69794797  0.14693895  0.66342554  1
  O  O38  1  0.69335109  0.82961022  0.83398240  1
  O  O39  1  0.92412148  0.08329705  0.28839203  1
  O  O40  1  0.91726026  0.21463933  0.47372209  1
  O  O41  1  0.99434513  0.16941237  0.04845871  1
  O  O42  1  0.93488047  0.52172697  0.84582384  1
  O  O43  1  0.98511260  0.62584792  0.34448146  1
