# generated using pymatgen
data_YbRe2
_symmetry_space_group_name_H-M   'P 1'
_cell_length_a   5.42272245
_cell_length_b   5.42272245
_cell_length_c   8.63708645
_cell_angle_alpha   90.00000000
_cell_angle_beta   90.00000000
_cell_angle_gamma   119.90270454
_symmetry_Int_Tables_number   1
_chemical_formula_structural   YbRe2
_chemical_formula_sum   'Yb4 Re8'
_cell_volume   220.16972768
_cell_formula_units_Z   4
loop_
 _symmetry_equiv_pos_site_id
 _symmetry_equiv_pos_as_xyz
  1  'x, y, z'
loop_
 _atom_site_type_symbol
 _atom_site_label
 _atom_site_symmetry_multiplicity
 _atom_site_fract_x
 _atom_site_fract_y
 _atom_site_fract_z
 _atom_site_occupancy
  Yb  Yb0  1  0.66667517  0.33332483  0.56224861  1
  Yb  Yb1  1  0.33332483  0.66667517  0.43775139  1
  Yb  Yb2  1  0.33332483  0.66667517  0.06224861  1
  Yb  Yb3  1  0.66667517  0.33332483  0.93775139  1
  Re  Re4  1  0.00000000  -0.00000000  0.50000000  1
  Re  Re5  1  0.00000000  -0.00000000  -0.00000000  1
  Re  Re6  1  0.17288337  0.34603179  0.75000000  1
  Re  Re7  1  0.17315472  0.82684528  0.75000000  1
  Re  Re8  1  0.65396821  0.82711663  0.75000000  1
  Re  Re9  1  0.82711663  0.65396821  0.25000000  1
  Re  Re10  1  0.82684528  0.17315472  0.25000000  1
  Re  Re11  1  0.34603179  0.17288337  0.25000000  1
