# generated using pymatgen
data_Ti3Cr2Ni(PO4)6
_symmetry_space_group_name_H-M   'P 1'
_cell_length_a   8.61796533
_cell_length_b   8.61796515
_cell_length_c   8.61796543
_cell_angle_alpha   60.11835475
_cell_angle_beta   60.11835341
_cell_angle_gamma   60.11835564
_symmetry_Int_Tables_number   1
_chemical_formula_structural   Ti3Cr2Ni(PO4)6
_chemical_formula_sum   'Ti3 Cr2 Ni1 P6 O24'
_cell_volume   453.79758284
_cell_formula_units_Z   1
loop_
 _symmetry_equiv_pos_site_id
 _symmetry_equiv_pos_as_xyz
  1  'x, y, z'
loop_
 _atom_site_type_symbol
 _atom_site_label
 _atom_site_symmetry_multiplicity
 _atom_site_fract_x
 _atom_site_fract_y
 _atom_site_fract_z
 _atom_site_occupancy
  Ti  Ti0  1  0.14442527  0.14442527  0.14442527  1
  Ti  Ti1  1  0.35462595  0.35462595  0.35462595  1
  Ti  Ti2  1  0.64633998  0.64633998  0.64633998  1
  Cr  Cr3  1  0.99734663  0.99734663  0.99734663  1
  Cr  Cr4  1  0.49899265  0.49899265  0.49899265  1
  Ni  Ni5  1  0.85616567  0.85616567  0.85616567  1
  P  P6  1  0.04405283  0.75216788  0.45739715  1
  P  P7  1  0.45739715  0.04405283  0.75216788  1
  P  P8  1  0.25031014  0.54424362  0.95635029  1
  P  P9  1  0.54424362  0.95635029  0.25031014  1
  P  P10  1  0.95635029  0.25031014  0.54424362  1
  P  P11  1  0.75216788  0.45739715  0.04405283  1
  O  O12  1  0.11678024  0.31896982  0.49081688  1
  O  O13  1  0.31896982  0.49081688  0.11678024  1
  O  O14  1  0.05769713  0.91381169  0.25822372  1
  O  O15  1  0.49081688  0.11678024  0.31896982  1
  O  O16  1  0.01402822  0.80989208  0.60944511  1
  O  O17  1  0.23758043  0.58588295  0.43097824  1
  O  O18  1  0.25822372  0.05769713  0.91381169  1
  O  O19  1  0.43097824  0.23758043  0.58588295  1
  O  O20  1  0.18942758  0.38007764  0.00148692  1
  O  O21  1  0.58588295  0.43097824  0.23758043  1
  O  O22  1  0.09173718  0.73624612  0.94695320  1
  O  O23  1  0.38007764  0.00148692  0.18942758  1
  O  O24  1  0.60944511  0.01402822  0.80989208  1
  O  O25  1  0.91381169  0.25822372  0.05769713  1
  O  O26  1  0.41655066  0.55480796  0.76396341  1
  O  O27  1  0.80989208  0.60944511  0.01402822  1
  O  O28  1  0.55480796  0.76396341  0.41655066  1
  O  O29  1  0.73624612  0.94695320  0.09173718  1
  O  O30  1  0.76396341  0.41655066  0.55480796  1
  O  O31  1  0.00148692  0.18942758  0.38007764  1
  O  O32  1  0.50182235  0.87884418  0.69155624  1
  O  O33  1  0.94695320  0.09173718  0.73624612  1
  O  O34  1  0.69155624  0.50182235  0.87884418  1
  O  O35  1  0.87884418  0.69155624  0.50182235  1
