# generated using pymatgen
data_LiFe2(PO4)3
_symmetry_space_group_name_H-M   'P 1'
_cell_length_a   8.64506434
_cell_length_b   8.68198842
_cell_length_c   12.30022913
_cell_angle_alpha   90.00000000
_cell_angle_beta   89.85946169
_cell_angle_gamma   90.00000000
_symmetry_Int_Tables_number   1
_chemical_formula_structural   LiFe2(PO4)3
_chemical_formula_sum   'Li4 Fe8 P12 O48'
_cell_volume   923.20750700
_cell_formula_units_Z   4
loop_
 _symmetry_equiv_pos_site_id
 _symmetry_equiv_pos_as_xyz
  1  'x, y, z'
loop_
 _atom_site_type_symbol
 _atom_site_label
 _atom_site_symmetry_multiplicity
 _atom_site_fract_x
 _atom_site_fract_y
 _atom_site_fract_z
 _atom_site_occupancy
  Li  Li0  1  -0.00000000  -0.00000000  0.50000000  1
  Li  Li1  1  0.50000000  0.50000000  0.50000000  1
  Li  Li2  1  0.50000000  0.50000000  0.00000000  1
  Li  Li3  1  -0.00000000  -0.00000000  0.00000000  1
  Fe  Fe4  1  0.78457694  0.49804485  0.85408169  1
  Fe  Fe5  1  0.28441401  0.00166712  0.35828955  1
  Fe  Fe6  1  0.28441401  0.99833288  0.85828955  1
  Fe  Fe7  1  0.71558599  0.00166712  0.14171045  1
  Fe  Fe8  1  0.21542306  0.50195515  0.14591831  1
  Fe  Fe9  1  0.21542306  0.49804485  0.64591831  1
  Fe  Fe10  1  0.78457694  0.50195515  0.35408169  1
  Fe  Fe11  1  0.71558599  0.99833288  0.64171045  1
  P  P12  1  -0.00000000  0.20369835  0.75000000  1
  P  P13  1  -0.00000000  0.79630165  0.25000000  1
  P  P14  1  0.35210643  0.85476028  0.60360871  1
  P  P15  1  0.50000000  0.29148146  0.75000000  1
  P  P16  1  0.84855617  0.64270978  0.60532264  1
  P  P17  1  0.84855617  0.35729022  0.10532364  1
  P  P18  1  0.35210643  0.14523972  0.10360871  1
  P  P19  1  0.64789357  0.14523972  0.39639129  1
  P  P20  1  0.50000000  0.70851854  0.25000000  1
  P  P21  1  0.15144383  0.35729022  0.39467736  1
  P  P22  1  0.15144383  0.64270978  0.89467736  1
  P  P23  1  0.64789357  0.85476028  0.89639129  1
  O  O24  1  0.85531103  0.82067585  0.58973811  1
  O  O25  1  0.12452979  0.30231734  0.69443620  1
  O  O26  1  0.61802747  0.80805167  0.18807123  1
  O  O27  1  0.71614121  0.09406816  0.28701938  1
  O  O28  1  0.24904819  0.06979617  0.01474372  1
  O  O29  1  0.14468897  0.17932415  0.41026189  1
  O  O30  1  0.57257308  0.39730240  0.83810871  1
  O  O31  1  0.25098891  0.42314151  0.48929693  1
  O  O32  1  0.85531103  0.17932415  0.08973811  1
  O  O33  1  0.87547021  0.30231734  0.80556380  1
  O  O34  1  0.07040637  0.90144652  0.33971399  1
  O  O35  1  0.01575657  0.58450989  0.60363837  1
  O  O36  1  0.65513416  0.67712029  0.91360024  1
  O  O37  1  0.07040637  0.09855348  0.83971399  1
  O  O38  1  0.01575657  0.41549011  0.10363837  1
  O  O39  1  0.14468897  0.82067585  0.91026189  1
  O  O40  1  0.65513416  0.32287971  0.41360024  1
  O  O41  1  0.28385879  0.90593184  0.71298062  1
  O  O42  1  0.98424343  0.58450989  0.89636163  1
  O  O43  1  0.98424343  0.41549011  0.39636163  1
  O  O44  1  0.76408424  0.40569802  0.21016077  1
  O  O45  1  0.47591033  0.10302294  0.40716444  1
  O  O46  1  0.34486584  0.67712029  0.58639976  1
  O  O47  1  0.52408967  0.89697706  0.59283556  1
  O  O48  1  0.57257308  0.60269760  0.33810871  1
  O  O49  1  0.74901109  0.57685849  0.51070307  1
  O  O50  1  0.75095181  0.06979617  0.48525628  1
  O  O51  1  0.24904819  0.93020383  0.51474372  1
  O  O52  1  0.28385879  0.09406816  0.21298062  1
  O  O53  1  0.34486584  0.32287971  0.08639976  1
  O  O54  1  0.87547021  0.69768266  0.30556380  1
  O  O55  1  0.23591576  0.40569802  0.28983923  1
  O  O56  1  0.23591576  0.59430198  0.78983923  1
  O  O57  1  0.92959363  0.09855348  0.66028601  1
  O  O58  1  0.74901109  0.42314151  0.01070307  1
  O  O59  1  0.52408967  0.10302294  0.09283556  1
  O  O60  1  0.75095181  0.93020383  0.98525628  1
  O  O61  1  0.71614121  0.90593184  0.78701938  1
  O  O62  1  0.47591033  0.89697706  0.90716444  1
  O  O63  1  0.25098891  0.57685849  0.98929693  1
  O  O64  1  0.42742692  0.60269760  0.16189129  1
  O  O65  1  0.42742692  0.39730240  0.66189129  1
  O  O66  1  0.76408424  0.59430198  0.71016077  1
  O  O67  1  0.12452979  0.69768266  0.19443620  1
  O  O68  1  0.38197253  0.80805167  0.31192877  1
  O  O69  1  0.61802747  0.19194833  0.68807123  1
  O  O70  1  0.38197253  0.19194833  0.81192877  1
  O  O71  1  0.92959363  0.90144652  0.16028601  1
