# generated using pymatgen
data_FePSe
_symmetry_space_group_name_H-M   'P 1'
_cell_length_a   5.71437628
_cell_length_b   5.73688187
_cell_length_c   5.80583593
_cell_angle_alpha   112.68718044
_cell_angle_beta   90.00000000
_cell_angle_gamma   90.00000000
_symmetry_Int_Tables_number   1
_chemical_formula_structural   FePSe
_chemical_formula_sum   'Fe4 P4 Se4'
_cell_volume   175.60401492
_cell_formula_units_Z   4
loop_
 _symmetry_equiv_pos_site_id
 _symmetry_equiv_pos_as_xyz
  1  'x, y, z'
loop_
 _atom_site_type_symbol
 _atom_site_label
 _atom_site_symmetry_multiplicity
 _atom_site_fract_x
 _atom_site_fract_y
 _atom_site_fract_z
 _atom_site_occupancy
  Fe  Fe0  1  0.49090409  0.73585950  0.21217463  1
  Fe  Fe1  1  0.99090409  0.26414050  0.28782537  1
  Fe  Fe2  1  0.50909591  0.26414050  0.78782537  1
  Fe  Fe3  1  0.00909591  0.73585950  0.71217463  1
  P  P4  1  0.13457559  0.85857502  0.11826266  1
  P  P5  1  0.63457559  0.14142498  0.38173734  1
  P  P6  1  0.86542441  0.14142498  0.88173734  1
  P  P7  1  0.36542441  0.85857502  0.61826266  1
  Se  Se8  1  0.87125492  0.66169496  0.31504627  1
  Se  Se9  1  0.37125492  0.33830504  0.18495373  1
  Se  Se10  1  0.12874508  0.33830504  0.68495373  1
  Se  Se11  1  0.62874508  0.66169496  0.81504627  1
