# generated using pymatgen
data_TiCr(BIr)2
_symmetry_space_group_name_H-M   'P 1'
_cell_length_a   3.19368450
_cell_length_b   8.58416167
_cell_length_c   8.58518896
_cell_angle_alpha   119.99603587
_cell_angle_beta   90.00000000
_cell_angle_gamma   90.00000000
_symmetry_Int_Tables_number   1
_chemical_formula_structural   TiCr(BIr)2
_chemical_formula_sum   'Ti3 Cr3 B6 Ir6'
_cell_volume   203.83921375
_cell_formula_units_Z   3
loop_
 _symmetry_equiv_pos_site_id
 _symmetry_equiv_pos_as_xyz
  1  'x, y, z'
loop_
 _atom_site_type_symbol
 _atom_site_label
 _atom_site_symmetry_multiplicity
 _atom_site_fract_x
 _atom_site_fract_y
 _atom_site_fract_z
 _atom_site_occupancy
  Ti  Ti0  1  0.00000000  0.41045379  0.00000000  1
  Ti  Ti1  1  -0.00000000  0.58967259  0.58964985  1
  Ti  Ti2  1  -0.00000000  0.00002274  0.41035015  1
  Cr  Cr3  1  0.00000000  0.16959392  0.17031750  1
  Cr  Cr4  1  0.00000000  0.99927642  0.82968250  1
  Cr  Cr5  1  -0.00000000  0.83042671  1.00000000  1
  B  B6  1  0.50000000  0.00026630  1.00000000  1
  B  B7  1  0.50000000  0.20271852  0.00000000  1
  B  B8  1  0.50000000  0.79716272  0.79721432  1
  B  B9  1  0.50000000  0.99994840  0.20278568  1
  B  B10  1  -0.00000000  0.66651527  0.33305041  1
  B  B11  1  -0.00000000  0.33346487  0.66694959  1
  Ir  Ir12  1  0.50000000  0.46149891  0.27670588  1
  Ir  Ir13  1  0.50000000  0.81521075  0.53831170  1
  Ir  Ir14  1  0.50000000  0.72340681  0.18463760  1
  Ir  Ir15  1  0.50000000  0.18479303  0.72329412  1
  Ir  Ir16  1  0.50000000  0.27689905  0.46168830  1
  Ir  Ir17  1  0.50000000  0.53876921  0.81536240  1
