# generated using pymatgen
data_Be46Ru7
_symmetry_space_group_name_H-M   'P 1'
_cell_length_a   4.18019987
_cell_length_b   4.18052375
_cell_length_c   32.84404153
_cell_angle_alpha   90.00000000
_cell_angle_beta   90.00273178
_cell_angle_gamma   59.99742988
_symmetry_Int_Tables_number   1
_chemical_formula_structural   Be46Ru7
_chemical_formula_sum   'Be46 Ru7'
_cell_volume   497.05416601
_cell_formula_units_Z   1
loop_
 _symmetry_equiv_pos_site_id
 _symmetry_equiv_pos_as_xyz
  1  'x, y, z'
loop_
 _atom_site_type_symbol
 _atom_site_label
 _atom_site_symmetry_multiplicity
 _atom_site_fract_x
 _atom_site_fract_y
 _atom_site_fract_z
 _atom_site_occupancy
  Be  Be0  1  0.99979637  0.00010182  0.12432559  1
  Be  Be1  1  0.99996590  0.00001705  0.45868487  1
  Be  Be2  1  0.99997897  0.00001051  0.79274484  1
  Be  Be3  1  0.99984627  0.00007687  0.20899919  1
  Be  Be4  1  0.99995090  0.00002455  0.54070761  1
  Be  Be5  1  0.99998294  0.00000853  0.87468910  1
  Be  Be6  1  0.33350182  0.33324909  0.11444813  1
  Be  Be7  1  0.33332703  0.33333648  0.44784772  1
  Be  Be8  1  0.33336114  0.33331943  0.78113680  1
  Be  Be9  1  0.33342895  0.33328552  0.21867006  1
  Be  Be10  1  0.33336798  0.33331601  0.55211232  1
  Be  Be11  1  0.33334417  0.33332791  0.88574488  1
  Be  Be12  1  0.67313643  0.16343179  0.06175646  1
  Be  Be13  1  0.66667973  0.16666014  0.39438997  1
  Be  Be14  1  0.67497758  0.16251121  0.72990586  1
  Be  Be15  1  0.16341690  0.16343908  0.06177157  1
  Be  Be16  1  0.16663357  0.16668304  0.39438759  1
  Be  Be17  1  0.16249873  0.16250607  0.72990627  1
  Be  Be18  1  0.16341690  0.67314402  0.06177157  1
  Be  Be19  1  0.16663357  0.66668339  0.39438759  1
  Be  Be20  1  0.16249873  0.67499519  0.72990627  1
  Be  Be21  1  0.66702494  0.16648753  0.27245329  1
  Be  Be22  1  0.67530097  0.16234951  0.60334354  1
  Be  Be23  1  0.67268382  0.16365809  0.93818126  1
  Be  Be24  1  0.16647680  0.16647862  0.27244179  1
  Be  Be25  1  0.16233434  0.16234101  0.60334300  1
  Be  Be26  1  0.16363489  0.16365720  0.93817800  1
  Be  Be27  1  0.16647680  0.66704458  0.27244179  1
  Be  Be28  1  0.16233434  0.67532466  0.60334300  1
  Be  Be29  1  0.16363489  0.67270791  0.93817800  1
  Be  Be30  1  0.66664926  0.66667537  0.03248465  1
  Be  Be31  1  0.66667648  0.66666176  0.36556908  1
  Be  Be32  1  0.66664157  0.66667921  0.69762782  1
  Be  Be33  1  0.66654564  0.66672718  0.30074123  1
  Be  Be34  1  0.66660316  0.66669842  0.63596731  1
  Be  Be35  1  0.66664511  0.66667745  0.96761380  1
  Be  Be36  1  0.99233793  0.50383104  0.16619387  1
  Be  Be37  1  0.99286585  0.50356707  0.50019155  1
  Be  Be38  1  0.99293142  0.50353429  0.83355498  1
  Be  Be39  1  0.50391732  0.50380536  0.16619670  1
  Be  Be40  1  0.50355341  0.50355988  0.50019134  1
  Be  Be41  1  0.50353767  0.50353715  0.83355617  1
  Be  Be42  1  0.50391732  0.99227732  0.16619670  1
  Be  Be43  1  0.50355341  0.99288671  0.50019134  1
  Be  Be44  1  0.50353767  0.99292518  0.83355617  1
  Be  Be45  1  0.33353887  0.33323057  0.33328059  1
  Ru  Ru46  1  0.66663811  0.66668095  0.10091009  1
  Ru  Ru47  1  0.66654445  0.66672777  0.43544557  1
  Ru  Ru48  1  0.66667606  0.66666197  0.76885398  1
  Ru  Ru49  1  0.66670785  0.66664607  0.23047053  1
  Ru  Ru50  1  0.66668314  0.66665843  0.56510672  1
  Ru  Ru51  1  0.66664670  0.66667665  0.89911670  1
  Ru  Ru52  1  0.00000520  0.99999740  0.66678517  1
