# generated using pymatgen
data_Rb2SbAuCl6
_symmetry_space_group_name_H-M   'P 1'
_cell_length_a   7.60387760
_cell_length_b   7.60387793
_cell_length_c   7.60387791
_cell_angle_alpha   59.99999890
_cell_angle_beta   59.99999838
_cell_angle_gamma   59.99999848
_symmetry_Int_Tables_number   1
_chemical_formula_structural   Rb2SbAuCl6
_chemical_formula_sum   'Rb2 Sb1 Au1 Cl6'
_cell_volume   310.87827727
_cell_formula_units_Z   1
loop_
 _symmetry_equiv_pos_site_id
 _symmetry_equiv_pos_as_xyz
  1  'x, y, z'
loop_
 _atom_site_type_symbol
 _atom_site_label
 _atom_site_symmetry_multiplicity
 _atom_site_fract_x
 _atom_site_fract_y
 _atom_site_fract_z
 _atom_site_occupancy
  Rb  Rb0  1  0.25000000  0.25000000  0.25000000  1
  Rb  Rb1  1  0.75000000  0.75000000  0.75000000  1
  Sb  Sb2  1  0.00000000  -0.00000000  -0.00000000  1
  Au  Au3  1  0.50000000  0.50000000  0.50000000  1
  Cl  Cl4  1  0.24810188  0.75189812  0.24810188  1
  Cl  Cl5  1  0.75189812  0.75189812  0.24810188  1
  Cl  Cl6  1  0.75189812  0.24810188  0.75189812  1
  Cl  Cl7  1  0.75189812  0.24810188  0.24810188  1
  Cl  Cl8  1  0.24810188  0.75189812  0.75189812  1
  Cl  Cl9  1  0.24810188  0.24810188  0.75189812  1
