# generated using pymatgen
data_CdGeP2
_symmetry_space_group_name_H-M   'P 1'
_cell_length_a   4.07060288
_cell_length_b   4.07060288
_cell_length_c   7.03760013
_cell_angle_alpha   73.18969901
_cell_angle_beta   90.00000000
_cell_angle_gamma   120.00000000
_symmetry_Int_Tables_number   1
_chemical_formula_structural   CdGeP2
_chemical_formula_sum   'Cd1 Ge1 P2'
_cell_volume   95.19121647
_cell_formula_units_Z   1
loop_
 _symmetry_equiv_pos_site_id
 _symmetry_equiv_pos_as_xyz
  1  'x, y, z'
loop_
 _atom_site_type_symbol
 _atom_site_label
 _atom_site_symmetry_multiplicity
 _atom_site_fract_x
 _atom_site_fract_y
 _atom_site_fract_z
 _atom_site_occupancy
  Cd  Cd0  1  0.00436038  0.00872076  0.98691886  1
  Ge  Ge1  1  0.49322042  0.98644084  0.52033875  1
  P  P2  1  0.87269182  0.74538363  0.38192455  1
  P  P3  1  0.37972738  0.75945477  0.86081785  1
