# generated using pymatgen
data_Li2MnCoO4
_symmetry_space_group_name_H-M   'P 1'
_cell_length_a   5.04476041
_cell_length_b   5.09654953
_cell_length_c   6.11030647
_cell_angle_alpha   101.74323298
_cell_angle_beta   94.98616654
_cell_angle_gamma   100.95552418
_symmetry_Int_Tables_number   1
_chemical_formula_structural   Li2MnCoO4
_chemical_formula_sum   'Li4 Mn2 Co2 O8'
_cell_volume   149.71526250
_cell_formula_units_Z   2
loop_
 _symmetry_equiv_pos_site_id
 _symmetry_equiv_pos_as_xyz
  1  'x, y, z'
loop_
 _atom_site_type_symbol
 _atom_site_label
 _atom_site_symmetry_multiplicity
 _atom_site_fract_x
 _atom_site_fract_y
 _atom_site_fract_z
 _atom_site_occupancy
  Li  Li0  1  0.75000000  0.50000000  0.12500000  1
  Li  Li1  1  0.75000000  0.50000000  0.62500000  1
  Li  Li2  1  0.25411731  0.49726677  0.37295508  1
  Li  Li3  1  0.24588269  0.50273323  0.87704492  1
  Mn  Mn4  1  0.00181877  0.99947299  0.49685024  1
  Mn  Mn5  1  0.49818123  0.00052701  0.75314976  1
  Co  Co6  1  -0.00117798  -0.00024085  0.00117137  1
  Co  Co7  1  0.50117798  0.00024085  0.24882863  1
  O  O8  1  0.86853397  0.23028624  0.82553116  1
  O  O9  1  0.85570440  0.22860522  0.31490707  1
  O  O10  1  0.36037581  0.22814465  0.07210435  1
  O  O11  1  0.36548427  0.23362666  0.57062788  1
  O  O12  1  0.63146603  0.76971376  0.42446884  1
  O  O13  1  0.64429560  0.77139478  0.93509293  1
  O  O14  1  0.13451573  0.76637334  0.67937212  1
  O  O15  1  0.13962419  0.77185535  0.17789565  1
