# generated using pymatgen
data_Nd3AlSi5N10O
_symmetry_space_group_name_H-M   'P 1'
_cell_length_a   4.91519465
_cell_length_b   20.37794261
_cell_length_c   14.45904279
_cell_angle_alpha   44.80219042
_cell_angle_beta   90.00000000
_cell_angle_gamma   90.00000000
_symmetry_Int_Tables_number   1
_chemical_formula_structural   Nd3AlSi5N10O
_chemical_formula_sum   'Nd12 Al4 Si20 N40 O4'
_cell_volume   1020.51887623
_cell_formula_units_Z   4
loop_
 _symmetry_equiv_pos_site_id
 _symmetry_equiv_pos_as_xyz
  1  'x, y, z'
loop_
 _atom_site_type_symbol
 _atom_site_label
 _atom_site_symmetry_multiplicity
 _atom_site_fract_x
 _atom_site_fract_y
 _atom_site_fract_z
 _atom_site_occupancy
  Nd  Nd0  1  0.01891131  0.06059221  0.18907208  1
  Nd  Nd1  1  0.01392680  0.24630021  0.31652732  1
  Nd  Nd2  1  0.01891131  0.56059221  0.18974350  1
  Nd  Nd3  1  0.01392680  0.25369979  0.68347268  1
  Nd  Nd4  1  0.01392680  0.75369979  0.30912774  1
  Nd  Nd5  1  0.01891131  0.43940779  0.81092792  1
  Nd  Nd6  1  0.01392680  0.74630021  0.69087226  1
  Nd  Nd7  1  0.01891131  0.93940779  0.81025650  1
  Nd  Nd8  1  0.04231783  -0.00001619  0.50300632  1
  Nd  Nd9  1  0.04231783  0.50001619  0.49699368  1
  Nd  Nd10  1  0.04231783  0.49998381  0.99702606  1
  Nd  Nd11  1  0.04231783  0.00001619  0.00297394  1
  Al  Al12  1  0.48469104  0.07240596  0.57346906  1
  Al  Al13  1  0.48469104  0.92759404  0.21828098  1
  Al  Al14  1  0.48469104  0.42759404  0.42653094  1
  Al  Al15  1  0.48469104  0.57240596  0.78171902  1
  Si  Si16  1  0.48014618  0.57205577  0.56745425  1
  Si  Si17  1  0.48042722  0.35763439  0.71327784  1
  Si  Si18  1  0.48042722  0.14236561  0.28672216  1
  Si  Si19  1  0.47855312  0.85585748  0.71706581  1
  Si  Si20  1  0.48014618  0.42794423  0.21156579  1
  Si  Si21  1  0.47855312  0.64414252  0.28293419  1
  Si  Si22  1  0.47855312  0.35585748  0.07121922  1
  Si  Si23  1  0.48042722  0.85763439  0.07145339  1
  Si  Si24  1  0.47855312  0.14414252  0.92878078  1
  Si  Si25  1  0.48014618  0.92794423  0.43254575  1
  Si  Si26  1  0.48042722  0.64236561  0.92854661  1
  Si  Si27  1  0.48014618  0.07205577  0.78843421  1
  Si  Si28  1  0.97105030  0.24941596  0.11716570  1
  Si  Si29  1  0.97554555  0.13355798  0.61902623  1
  Si  Si30  1  0.97554555  0.36644202  0.38097377  1
  Si  Si31  1  0.97554555  0.63355798  0.61385781  1
  Si  Si32  1  0.97105030  0.25058404  0.88283430  1
  Si  Si33  1  0.97105030  0.75058404  0.11599763  1
  Si  Si34  1  0.97554555  0.86644202  0.38614219  1
  Si  Si35  1  0.97105030  0.74941596  0.88400237  1
  N  N36  1  0.31844377  0.24856229  0.14214380  1
  N  N37  1  0.31826567  0.11009031  0.64915777  1
  N  N38  1  0.31844377  0.75143771  0.13926839  1
  N  N39  1  0.31826567  0.38990969  0.35084223  1
  N  N40  1  0.31844377  0.25143771  0.85785620  1
  N  N41  1  0.31826567  0.61009031  0.63066162  1
  N  N42  1  0.31844377  0.74856229  0.86073161  1
  N  N43  1  0.31826567  0.88990969  0.36933838  1
  N  N44  1  0.36325775  0.05091167  0.08374020  1
  N  N45  1  0.36894952  0.13475445  0.40667105  1
  N  N46  1  0.37070753  0.36788782  0.17427840  1
  N  N47  1  0.37108964  0.54431728  0.08607802  1
  N  N48  1  0.37070753  0.13211218  0.82572160  1
  N  N49  1  0.36894952  0.36524555  0.59332895  1
  N  N50  1  0.37108964  0.45568272  0.67471258  1
  N  N51  1  0.37070753  0.63211218  0.41005405  1
  N  N52  1  0.36325775  0.44908833  0.91625980  1
  N  N53  1  0.36894952  0.86524555  0.17617995  1
  N  N54  1  0.36894952  0.63475445  0.82382005  1
  N  N55  1  0.37070753  0.86788782  0.58994595  1
  N  N56  1  0.36325775  0.94908833  0.68556355  1
  N  N57  1  0.37108964  0.95568272  0.91392198  1
  N  N58  1  0.37108964  0.04431728  0.32528742  1
  N  N59  1  0.36325775  0.55091167  0.31443645  1
  N  N60  1  0.83403030  0.15093728  0.26414181  1
  N  N61  1  0.86193260  0.41528527  0.43259835  1
  N  N62  1  0.83220535  0.65341318  0.26321643  1
  N  N63  1  0.86193260  0.08471473  0.56740165  1
  N  N64  1  0.83220535  0.34658682  0.07004280  1
  N  N65  1  0.83249397  0.08379448  0.76630073  1
  N  N66  1  0.83249397  0.41620552  0.23369927  1
  N  N67  1  0.83403030  0.34906272  0.73585819  1
  N  N68  1  0.83249397  0.58379448  0.56611030  1
  N  N69  1  0.86193260  0.58471473  0.76316889  1
  N  N70  1  0.83249397  0.91620552  0.43388970  1
  N  N71  1  0.83220535  0.15341318  0.92995720  1
  N  N72  1  0.83403030  0.84906272  0.06601636  1
  N  N73  1  0.86193260  0.91528527  0.23683111  1
  N  N74  1  0.83403030  0.65093728  0.93398364  1
  N  N75  1  0.83220535  0.84658682  0.73678357  1
  O  O76  1  0.92263229  0.25000000  0.50000000  1
  O  O77  1  0.93029681  0.25000000  0.00000000  1
  O  O78  1  0.92263229  0.75000000  0.50000000  1
  O  O79  1  0.93029681  0.75000000  0.00000000  1
