# generated using pymatgen
data_Cu3O4
_symmetry_space_group_name_H-M   'P 1'
_cell_length_a   6.37749151
_cell_length_b   6.37749101
_cell_length_c   6.37749170
_cell_angle_alpha   59.99999643
_cell_angle_beta   59.99999904
_cell_angle_gamma   60.00000368
_symmetry_Int_Tables_number   1
_chemical_formula_structural   Cu3O4
_chemical_formula_sum   'Cu6 O8'
_cell_volume   183.41491381
_cell_formula_units_Z   2
loop_
 _symmetry_equiv_pos_site_id
 _symmetry_equiv_pos_as_xyz
  1  'x, y, z'
loop_
 _atom_site_type_symbol
 _atom_site_label
 _atom_site_symmetry_multiplicity
 _atom_site_fract_x
 _atom_site_fract_y
 _atom_site_fract_z
 _atom_site_occupancy
  Cu  Cu0  1  0.50000000  -0.00000000  0.50000000  1
  Cu  Cu1  1  0.50000000  0.50000000  0.00000000  1
  Cu  Cu2  1  -0.00000000  0.50000000  0.50000000  1
  Cu  Cu3  1  -0.00000000  0.50000000  0.00000000  1
  Cu  Cu4  1  -0.00000000  -0.00000000  0.50000000  1
  Cu  Cu5  1  0.50000000  -0.00000000  0.00000000  1
  O  O6  1  0.14243104  0.14243104  0.14243104  1
  O  O7  1  0.85756896  0.42729311  0.85756896  1
  O  O8  1  0.14243104  0.57270689  0.14243104  1
  O  O9  1  0.42729311  0.85756896  0.85756896  1
  O  O10  1  0.14243104  0.14243104  0.57270689  1
  O  O11  1  0.57270689  0.14243104  0.14243104  1
  O  O12  1  0.85756896  0.85756896  0.42729311  1
  O  O13  1  0.85756896  0.85756896  0.85756896  1
