# generated using pymatgen
data_RbAg4I5
_symmetry_space_group_name_H-M   'P 1'
_cell_length_a   11.78845300
_cell_length_b   12.35386178
_cell_length_c   11.68096276
_cell_angle_alpha   90.82135453
_cell_angle_beta   92.65829800
_cell_angle_gamma   86.76638072
_symmetry_Int_Tables_number   1
_chemical_formula_structural   RbAg4I5
_chemical_formula_sum   'Rb4 Ag16 I20'
_cell_volume   1696.47942116
_cell_formula_units_Z   4
loop_
 _symmetry_equiv_pos_site_id
 _symmetry_equiv_pos_as_xyz
  1  'x, y, z'
loop_
 _atom_site_type_symbol
 _atom_site_label
 _atom_site_symmetry_multiplicity
 _atom_site_fract_x
 _atom_site_fract_y
 _atom_site_fract_z
 _atom_site_occupancy
  Rb  Rb0  1  0.16549084  0.12673191  0.10741023  1
  Rb  Rb1  1  0.41651951  0.72019088  0.50901761  1
  Rb  Rb2  1  0.52998635  0.36927629  0.85470519  1
  Rb  Rb3  1  0.92596312  0.63028049  0.30487019  1
  Ag  Ag4  1  0.41013591  0.91152465  0.22883738  1
  Ag  Ag5  1  0.40702158  0.30164130  0.31926434  1
  Ag  Ag6  1  0.79587301  0.59425713  0.91813543  1
  Ag  Ag7  1  0.71496095  0.03350050  0.80922803  1
  Ag  Ag8  1  0.69331312  0.23360128  0.55082713  1
  Ag  Ag9  1  0.60018781  0.71742723  0.02855983  1
  Ag  Ag10  1  0.84119967  0.32781588  0.17873694  1
  Ag  Ag11  1  0.87849263  0.82131408  0.58567275  1
  Ag  Ag12  1  0.89153606  0.29565849  0.43247219  1
  Ag  Ag13  1  0.82818965  0.99759444  0.03272099  1
  Ag  Ag14  1  0.05175335  0.94226848  0.71640517  1
  Ag  Ag15  1  0.75086913  0.97271648  0.26718046  1
  Ag  Ag16  1  0.07705231  0.55891948  0.73640326  1
  Ag  Ag17  1  0.06547610  0.22480483  0.61621637  1
  Ag  Ag18  1  0.15488675  0.78403081  0.04365149  1
  Ag  Ag19  1  0.96224140  0.36767732  0.81509897  1
  I  I20  1  0.02777254  0.57903896  0.97025220  1
  I  I21  1  0.05630906  0.35704549  0.28999631  1
  I  I22  1  0.09418499  0.70719692  0.56859993  1
  I  I23  1  0.22807361  0.92076759  0.87443750  1
  I  I24  1  0.19619391  0.34834984  0.74822637  1
  I  I25  1  0.34677259  0.70609195  0.18001569  1
  I  I26  1  0.34694734  0.07508925  0.36999915  1
  I  I27  1  0.35830849  0.33034970  0.08935410  1
  I  I28  1  0.59191166  0.64441354  0.79453983  1
  I  I29  1  0.45966213  0.42639089  0.50774091  1
  I  I30  1  0.59159363  0.94119247  0.06358218  1
  I  I31  1  0.54699309  0.12429515  0.67809734  1
  I  I32  1  0.70249298  0.81359901  0.42528131  1
  I  I33  1  0.69286481  0.52155059  0.13385600  1
  I  I34  1  0.69469650  0.19639250  0.30562177  1
  I  I35  1  0.85642767  0.85174890  0.82814307  1
  I  I36  1  0.81651829  0.42339498  0.62199115  1
  I  I37  1  0.85328866  0.21977945  0.95483807  1
  I  I38  1  0.98749991  0.90111879  0.19166846  1
  I  I39  1  0.95133789  0.05996209  0.53134470  1
