# generated using pymatgen
data_LiFe2(PO4)3
_symmetry_space_group_name_H-M   'P 1'
_cell_length_a   8.68573218
_cell_length_b   12.19903656
_cell_length_c   8.80223535
_cell_angle_alpha   90.00000000
_cell_angle_beta   90.00000000
_cell_angle_gamma   89.99577899
_symmetry_Int_Tables_number   1
_chemical_formula_structural   LiFe2(PO4)3
_chemical_formula_sum   'Li4 Fe8 P12 O48'
_cell_volume   932.66341622
_cell_formula_units_Z   4
loop_
 _symmetry_equiv_pos_site_id
 _symmetry_equiv_pos_as_xyz
  1  'x, y, z'
loop_
 _atom_site_type_symbol
 _atom_site_label
 _atom_site_symmetry_multiplicity
 _atom_site_fract_x
 _atom_site_fract_y
 _atom_site_fract_z
 _atom_site_occupancy
  Li  Li0  1  0.22391543  0.82143286  0.72026593  1
  Li  Li1  1  0.29504923  0.31787521  0.27743947  1
  Li  Li2  1  0.72391543  0.32143286  0.77973407  1
  Li  Li3  1  0.79504923  0.81787521  0.22256053  1
  Fe  Fe4  1  0.25133711  0.61557628  0.53296730  1
  Fe  Fe5  1  0.24937370  0.88312579  0.04488656  1
  Fe  Fe6  1  0.24908225  0.11478802  0.46508751  1
  Fe  Fe7  1  0.25138292  0.38273496  0.95540073  1
  Fe  Fe8  1  0.74908225  0.61478802  0.03491249  1
  Fe  Fe9  1  0.75138292  0.88273496  0.54459927  1
  Fe  Fe10  1  0.75133711  0.11557628  0.96703270  1
  Fe  Fe11  1  0.74937370  0.38312579  0.45511344  1
  P  P12  1  0.03796098  0.49719577  0.24784793  1
  P  P13  1  0.10557881  0.85396832  0.39317392  1
  P  P14  1  0.11119748  0.14797337  0.10782423  1
  P  P15  1  0.39550538  0.35319989  0.60621020  1
  P  P16  1  0.39079692  0.64677115  0.89018174  1
  P  P17  1  0.46133111  0.00247450  0.75091252  1
  P  P18  1  0.53796098  0.99719577  0.25215207  1
  P  P19  1  0.60557881  0.35396832  0.10682608  1
  P  P20  1  0.61119748  0.64797337  0.39217577  1
  P  P21  1  0.89550538  0.85319989  0.89378980  1
  P  P22  1  0.89079692  0.14677115  0.60981826  1
  P  P23  1  0.96133111  0.50247450  0.74908748  1
  O  O24  1  0.05949068  0.43285897  0.85754563  1
  O  O25  1  0.05957113  0.58239019  0.65561941  1
  O  O26  1  0.07479850  0.85633175  0.89236816  1
  O  O27  1  0.06534655  0.16430548  0.58951610  1
  O  O28  1  0.11578030  0.57870113  0.35781112  1
  O  O29  1  0.14975939  0.97228329  0.43347517  1
  O  O30  1  0.14628389  0.82808275  0.22635714  1
  O  O31  1  0.15874204  0.23663196  0.99383164  1
  O  O32  1  0.16456296  0.42995993  0.16734797  1
  O  O33  1  0.16772131  0.18062462  0.26830032  1
  O  O34  1  0.17746098  0.03634354  0.06021880  1
  O  O35  1  0.18848284  0.77679989  0.50703007  1
  O  O36  1  0.31267254  0.72552912  0.00409502  1
  O  O37  1  0.33040522  0.46551718  0.55668278  1
  O  O38  1  0.34169176  0.32400467  0.76684176  1
  O  O39  1  0.34040849  0.06969167  0.66310231  1
  O  O40  1  0.34051686  0.26858365  0.48681292  1
  O  O41  1  0.34346979  0.67914460  0.72598695  1
  O  O42  1  0.34647710  0.52835132  0.92398978  1
  O  O43  1  0.36901094  0.91959399  0.84877711  1
  O  O44  1  0.43313956  0.63663500  0.39473210  1
  O  O45  1  0.42892932  0.33836514  0.09397141  1
  O  O46  1  0.44084180  0.91492316  0.15965247  1
  O  O47  1  0.44092476  0.06513087  0.36240061  1
  O  O48  1  0.55949068  0.93285897  0.64245437  1
  O  O49  1  0.55957113  0.08239019  0.84438059  1
  O  O50  1  0.56534655  0.66430548  0.91048390  1
  O  O51  1  0.57479850  0.35633175  0.60763184  1
  O  O52  1  0.61578030  0.07870113  0.14218888  1
  O  O53  1  0.64975939  0.47228329  0.06652483  1
  O  O54  1  0.64628389  0.32808275  0.27364286  1
  O  O55  1  0.65874204  0.73663196  0.50616836  1
  O  O56  1  0.66456296  0.92995993  0.33265203  1
  O  O57  1  0.66772131  0.68062462  0.23169968  1
  O  O58  1  0.67746098  0.53634354  0.43978120  1
  O  O59  1  0.68848284  0.27679989  0.99296993  1
  O  O60  1  0.81267254  0.22552912  0.49590498  1
  O  O61  1  0.83040522  0.96551718  0.94331722  1
  O  O62  1  0.84169176  0.82400467  0.73315824  1
  O  O63  1  0.84040849  0.56969167  0.83689769  1
  O  O64  1  0.84051686  0.76858365  0.01318708  1
  O  O65  1  0.84346979  0.17914460  0.77401305  1
  O  O66  1  0.84647710  0.02835132  0.57601022  1
  O  O67  1  0.86901094  0.41959399  0.65122289  1
  O  O68  1  0.92892932  0.83836514  0.40602859  1
  O  O69  1  0.93313956  0.13663500  0.10526790  1
  O  O70  1  0.94084180  0.41492316  0.34034753  1
  O  O71  1  0.94092476  0.56513087  0.13759939  1
