# generated using pymatgen
data_Li7Co5O12
_symmetry_space_group_name_H-M   'P 1'
_cell_length_a   2.92426977
_cell_length_b   11.94580328
_cell_length_c   6.40676871
_cell_angle_alpha   104.21182599
_cell_angle_beta   77.21863983
_cell_angle_gamma   84.77777836
_symmetry_Int_Tables_number   1
_chemical_formula_structural   Li7Co5O12
_chemical_formula_sum   'Li7 Co5 O12'
_cell_volume   209.06543409
_cell_formula_units_Z   1
loop_
 _symmetry_equiv_pos_site_id
 _symmetry_equiv_pos_as_xyz
  1  'x, y, z'
loop_
 _atom_site_type_symbol
 _atom_site_label
 _atom_site_symmetry_multiplicity
 _atom_site_fract_x
 _atom_site_fract_y
 _atom_site_fract_z
 _atom_site_occupancy
  Li  Li0  1  0.75252475  0.24825942  0.24690149  1
  Li  Li1  1  0.73911798  0.58656521  0.91993480  1
  Li  Li2  1  0.24747525  0.41840758  0.08643151  1
  Li  Li3  1  0.23906657  0.75365271  0.76049726  1
  Li  Li4  1  0.76093343  0.91301429  0.57283574  1
  Li  Li5  1  0.26088202  0.08010079  0.41339920  1
  Li  Li6  1  0.50000000  0.83333300  0.16666700  1
  Co  Co7  1  -0.00055020  0.99288037  0.01068592  1
  Co  Co8  1  0.00055020  0.67378663  0.32264708  1
  Co  Co9  1  -0.00000000  0.33333300  0.66666700  1
  Co  Co10  1  0.50674806  0.49820472  0.49874925  1
  Co  Co11  1  0.49325194  0.16846228  0.83458375  1
  O  O12  1  0.36855973  0.12277756  0.10117112  1
  O  O13  1  0.40968492  0.44463904  0.76346443  1
  O  O14  1  0.86666274  0.28702602  0.93793506  1
  O  O15  1  0.88526202  0.61256609  0.60206363  1
  O  O16  1  0.36777999  0.78111783  0.45312609  1
  O  O17  1  0.87681877  0.96681751  0.27497171  1
  O  O18  1  0.13333726  0.37964098  0.39539794  1
  O  O19  1  0.12318123  0.69984849  0.05836229  1
  O  O20  1  0.63144027  0.54388944  0.23216188  1
  O  O21  1  0.63222001  0.88554917  0.88020691  1
  O  O22  1  0.11473798  0.05410091  0.73126937  1
  O  O23  1  0.59031508  0.22202696  0.56986957  1
