# generated using pymatgen
data_Li2MnCoO4
_symmetry_space_group_name_H-M   'P 1'
_cell_length_a   3.05267298
_cell_length_b   5.07832366
_cell_length_c   9.86334274
_cell_angle_alpha   76.89237724
_cell_angle_beta   90.00000000
_cell_angle_gamma   90.00000000
_symmetry_Int_Tables_number   1
_chemical_formula_structural   Li2MnCoO4
_chemical_formula_sum   'Li4 Mn2 Co2 O8'
_cell_volume   148.92224517
_cell_formula_units_Z   2
loop_
 _symmetry_equiv_pos_site_id
 _symmetry_equiv_pos_as_xyz
  1  'x, y, z'
loop_
 _atom_site_type_symbol
 _atom_site_label
 _atom_site_symmetry_multiplicity
 _atom_site_fract_x
 _atom_site_fract_y
 _atom_site_fract_z
 _atom_site_occupancy
  Li  Li0  1  0.00000000  0.24961795  0.24950707  1
  Li  Li1  1  0.50000000  -0.00026131  0.49928464  1
  Li  Li2  1  0.00000000  0.75026131  0.75071536  1
  Li  Li3  1  0.50000000  0.50038205  0.00049293  1
  Mn  Mn4  1  -0.00000000  0.49854431  0.49855759  1
  Mn  Mn5  1  0.50000000  0.25145569  0.75144241  1
  Co  Co6  1  -0.00000000  0.00012589  0.00188633  1
  Co  Co7  1  0.50000000  0.74987411  0.24811367  1
  O  O8  1  0.00000000  0.85095995  0.37374354  1
  O  O9  1  0.50000000  0.60459808  0.62776767  1
  O  O10  1  -0.00000000  0.35575301  0.87952532  1
  O  O11  1  0.50000000  0.10175986  0.12568488  1
  O  O12  1  0.00000000  0.64824014  0.12431512  1
  O  O13  1  0.50000000  0.39424699  0.37047468  1
  O  O14  1  -0.00000000  0.14540192  0.62223233  1
  O  O15  1  0.50000000  0.89904005  0.87625646  1
