# generated using pymatgen
data_Li2MnCoO4
_symmetry_space_group_name_H-M   'P 1'
_cell_length_a   3.05948538
_cell_length_b   8.11097246
_cell_length_c   6.04792819
_cell_angle_alpha   89.35148922
_cell_angle_beta   90.00000000
_cell_angle_gamma   90.00000000
_symmetry_Int_Tables_number   1
_chemical_formula_structural   Li2MnCoO4
_chemical_formula_sum   'Li4 Mn2 Co2 O8'
_cell_volume   150.07215369
_cell_formula_units_Z   2
loop_
 _symmetry_equiv_pos_site_id
 _symmetry_equiv_pos_as_xyz
  1  'x, y, z'
loop_
 _atom_site_type_symbol
 _atom_site_label
 _atom_site_symmetry_multiplicity
 _atom_site_fract_x
 _atom_site_fract_y
 _atom_site_fract_z
 _atom_site_occupancy
  Li  Li0  1  0.00000000  0.49894448  0.99845097  1
  Li  Li1  1  0.50000000  0.75105552  0.75154903  1
  Li  Li2  1  -0.00000000  0.00136031  0.50158894  1
  Li  Li3  1  0.50000000  0.24863969  0.24841106  1
  Mn  Mn4  1  0.00000000  0.50036557  0.50199015  1
  Mn  Mn5  1  0.50000000  0.74963443  0.24800985  1
  Co  Co6  1  0.00000000  0.00085503  0.99749924  1
  Co  Co7  1  0.50000000  0.24914497  0.75250076  1
  O  O8  1  0.00000000  0.73782357  0.49292446  1
  O  O9  1  0.50000000  0.98873641  0.23782013  1
  O  O10  1  -0.00000000  0.23868469  0.99039910  1
  O  O11  1  0.50000000  0.48822729  0.74479806  1
  O  O12  1  0.00000000  0.26126359  0.51217987  1
  O  O13  1  0.50000000  0.51217643  0.25707554  1
  O  O14  1  0.00000000  0.76177271  0.00520194  1
  O  O15  1  0.50000000  0.01131531  0.75960090  1
