# generated using pymatgen
data_Li5Co3O8
_symmetry_space_group_name_H-M   'P 1'
_cell_length_a   2.98501244
_cell_length_b   9.70602733
_cell_length_c   5.00106383
_cell_angle_alpha   103.09014544
_cell_angle_beta   90.00000000
_cell_angle_gamma   90.00000000
_symmetry_Int_Tables_number   1
_chemical_formula_structural   Li5Co3O8
_chemical_formula_sum   'Li5 Co3 O8'
_cell_volume   141.12880670
_cell_formula_units_Z   1
loop_
 _symmetry_equiv_pos_site_id
 _symmetry_equiv_pos_as_xyz
  1  'x, y, z'
loop_
 _atom_site_type_symbol
 _atom_site_label
 _atom_site_symmetry_multiplicity
 _atom_site_fract_x
 _atom_site_fract_y
 _atom_site_fract_z
 _atom_site_occupancy
  Li  Li0  1  0.50000000  0.00155599  0.50399745  1
  Li  Li1  1  0.00000000  0.25000000  0.75000000  1
  Li  Li2  1  0.50000000  0.49844401  0.99600255  1
  Li  Li3  1  0.00000000  0.75000000  0.25000000  1
  Li  Li4  1  0.50000000  0.75000000  0.75000000  1
  Co  Co5  1  0.00000000  0.98932207  0.99413654  1
  Co  Co6  1  0.00000000  0.51067793  0.50586346  1
  Co  Co7  1  0.50000000  0.25000000  0.25000000  1
  O  O8  1  0.50000000  0.88423845  0.11942000  1
  O  O9  1  -0.00000000  0.12095206  0.34097307  1
  O  O10  1  0.50000000  0.37293016  0.60505425  1
  O  O11  1  0.00000000  0.61110421  0.83762099  1
  O  O12  1  0.50000000  0.12706984  0.89494575  1
  O  O13  1  0.00000000  0.37904794  0.15902693  1
  O  O14  1  0.50000000  0.61576155  0.38058000  1
  O  O15  1  0.00000000  0.88889579  0.66237901  1
