# generated using pymatgen
data_Li6Mn3CoO10
_symmetry_space_group_name_H-M   'P 1'
_cell_length_a   2.90701078
_cell_length_b   9.86976889
_cell_length_c   6.66495842
_cell_angle_alpha   101.94118003
_cell_angle_beta   77.40360961
_cell_angle_gamma   90.00000273
_symmetry_Int_Tables_number   1
_chemical_formula_structural   Li6Mn3CoO10
_chemical_formula_sum   'Li6 Mn3 Co1 O10'
_cell_volume   182.38259058
_cell_formula_units_Z   1
loop_
 _symmetry_equiv_pos_site_id
 _symmetry_equiv_pos_as_xyz
  1  'x, y, z'
loop_
 _atom_site_type_symbol
 _atom_site_label
 _atom_site_symmetry_multiplicity
 _atom_site_fract_x
 _atom_site_fract_y
 _atom_site_fract_z
 _atom_site_occupancy
  Li  Li0  1  0.30508460  0.09417667  0.38983081  1
  Li  Li1  1  0.89328827  0.31275097  0.21342347  1
  Li  Li2  1  0.70140422  0.89049552  0.59719156  1
  Li  Li3  1  0.10256134  0.69700166  0.79487731  1
  Li  Li4  1  0.49326968  0.51277809  0.01346065  1
  Li  Li5  1  0.80192322  0.59711268  0.39615356  1
  Mn  Mn6  1  0.99676921  0.99634486  0.00646158  1
  Mn  Mn7  1  0.20874642  0.40520515  0.58250716  1
  Mn  Mn8  1  0.59966399  0.20396700  0.80067203  1
  Co  Co9  1  0.38589680  0.78284602  0.22820641  1
  O  O10  1  0.45274427  0.12839667  0.09451145  1
  O  O11  1  0.06255730  0.33963729  0.87488541  1
  O  O12  1  0.86441033  0.94630506  0.27117934  1
  O  O13  1  0.25373437  0.75829208  0.49253125  1
  O  O14  1  0.65678788  0.53013407  0.68642425  1
  O  O15  1  0.13564889  0.06449389  0.72870222  1
  O  O16  1  0.74793886  0.26688347  0.50412229  1
  O  O17  1  0.54631338  0.86993128  0.90737324  1
  O  O18  1  0.95124176  0.65921346  0.09751647  1
  O  O19  1  0.34001523  0.44403410  0.31996954  1
