# generated using pymatgen
data_Li4MnCo2O7
_symmetry_space_group_name_H-M   'P 1'
_cell_length_a   4.98437502
_cell_length_b   7.81833114
_cell_length_c   6.57104705
_cell_angle_alpha   85.77012351
_cell_angle_beta   97.82003386
_cell_angle_gamma   100.79194919
_symmetry_Int_Tables_number   1
_chemical_formula_structural   Li4MnCo2O7
_chemical_formula_sum   'Li8 Mn2 Co4 O14'
_cell_volume   248.89527916
_cell_formula_units_Z   2
loop_
 _symmetry_equiv_pos_site_id
 _symmetry_equiv_pos_as_xyz
  1  'x, y, z'
loop_
 _atom_site_type_symbol
 _atom_site_label
 _atom_site_symmetry_multiplicity
 _atom_site_fract_x
 _atom_site_fract_y
 _atom_site_fract_z
 _atom_site_occupancy
  Li  Li0  1  0.91523088  0.35153257  0.85770445  1
  Li  Li1  1  0.22762612  0.93418143  0.42800955  1
  Li  Li2  1  0.49927247  0.49377946  0.99971259  1
  Li  Li3  1  0.07142900  0.64285700  0.14285700  1
  Li  Li4  1  0.36831538  0.21064404  0.71878913  1
  Li  Li5  1  0.64358453  0.79193454  0.28600141  1
  Li  Li6  1  0.77454162  0.07507096  0.56692587  1
  Li  Li7  1  0.57142900  0.14285700  0.14285700  1
  Mn  Mn8  1  0.00251212  0.00544805  0.00199406  1
  Mn  Mn9  1  0.14034488  0.28026595  0.28371994  1
  Co  Co10  1  0.27971369  0.57076576  0.56939053  1
  Co  Co11  1  0.86314331  0.71494924  0.71632447  1
  Co  Co12  1  0.43548289  0.86628457  0.86229032  1
  Co  Co13  1  0.70737411  0.41942943  0.42342368  1
  O  O14  1  0.69708634  0.09897346  0.86200774  1
  O  O15  1  0.97776085  0.67593973  0.44057186  1
  O  O16  1  0.22504756  0.23616320  0.01441417  1
  O  O17  1  0.83146191  0.39323407  0.16514509  1
  O  O18  1  0.11527570  0.95905301  0.73953742  1
  O  O19  1  0.38809025  0.50949555  0.29065834  1
  O  O20  1  0.54169105  0.81214596  0.59254253  1
  O  O21  1  0.16509715  0.60977427  0.84514214  1
  O  O22  1  0.44577066  0.18674154  0.42370726  1
  O  O23  1  0.75476675  0.77621845  0.99505566  1
  O  O24  1  0.31139509  0.89247993  0.12056891  1
  O  O25  1  0.60116595  0.47356804  0.69317147  1
  O  O26  1  0.91780944  0.04955180  0.27130083  1
  O  O27  1  0.02758130  0.32666099  0.54617658  1
