# generated using pymatgen
data_Li4MnCo2O7
_symmetry_space_group_name_H-M   'P 1'
_cell_length_a   5.04192511
_cell_length_b   10.09911088
_cell_length_c   5.16668521
_cell_angle_alpha   98.82196372
_cell_angle_beta   79.47560455
_cell_angle_gamma   79.96569937
_symmetry_Int_Tables_number   1
_chemical_formula_structural   Li4MnCo2O7
_chemical_formula_sum   'Li8 Mn2 Co4 O14'
_cell_volume   249.99683002
_cell_formula_units_Z   2
loop_
 _symmetry_equiv_pos_site_id
 _symmetry_equiv_pos_as_xyz
  1  'x, y, z'
loop_
 _atom_site_type_symbol
 _atom_site_label
 _atom_site_symmetry_multiplicity
 _atom_site_fract_x
 _atom_site_fract_y
 _atom_site_fract_z
 _atom_site_occupancy
  Li  Li0  1  0.29869997  0.92989358  0.43471626  1
  Li  Li1  1  0.69974055  0.06742833  0.57332308  1
  Li  Li2  1  0.14995674  0.21487010  0.71318040  1
  Li  Li3  1  0.43610390  0.64628001  0.14317795  1
  Li  Li4  1  0.84561207  0.78529135  0.27929088  1
  Li  Li5  1  0.57006273  0.35678269  0.85833382  1
  Li  Li6  1  0.99778773  0.49920031  0.99938232  1
  Li  Li7  1  0.57023315  0.85864841  0.85787906  1
  Mn  Mn8  1  0.00327298  0.99691952  0.99077413  1
  Mn  Mn9  1  0.13961506  0.71690209  0.72176507  1
  Co  Co10  1  0.43159755  0.13620752  0.12984032  1
  Co  Co11  1  0.85302520  0.28490446  0.28676364  1
  Co  Co12  1  0.28862101  0.42933100  0.43193700  1
  Co  Co13  1  0.71139784  0.57932961  0.58119689  1
  O  O14  1  0.19335291  0.82411898  0.04662281  1
  O  O15  1  0.65055282  0.97735371  0.20174389  1
  O  O16  1  0.08391192  0.10140704  0.31352490  1
  O  O17  1  0.34976769  0.54496842  0.78020388  1
  O  O18  1  0.80732224  0.67701837  0.91164131  1
  O  O19  1  0.50958721  0.25716308  0.49159751  1
  O  O20  1  0.93175346  0.39802800  0.62393797  1
  O  O21  1  0.33177161  0.03609692  0.79572643  1
  O  O22  1  0.77891479  0.16812336  0.94122291  1
  O  O23  1  0.21311896  0.31274473  0.09337483  1
  O  O24  1  0.49324112  0.73842601  0.51078841  1
  O  O25  1  0.94733783  0.88947357  0.66600028  1
  O  O26  1  0.63849940  0.45993219  0.23041798  1
  O  O27  1  0.07514155  0.61315663  0.39163608  1
