# generated using pymatgen
data_Li5Mn2CoO8
_symmetry_space_group_name_H-M   'P 1'
_cell_length_a   2.91680888
_cell_length_b   10.09052585
_cell_length_c   5.06361935
_cell_angle_alpha   79.81103128
_cell_angle_beta   74.84824651
_cell_angle_gamma   91.69954435
_symmetry_Int_Tables_number   1
_chemical_formula_structural   Li5Mn2CoO8
_chemical_formula_sum   'Li5 Mn2 Co1 O8'
_cell_volume   141.13116520
_cell_formula_units_Z   1
loop_
 _symmetry_equiv_pos_site_id
 _symmetry_equiv_pos_as_xyz
  1  'x, y, z'
loop_
 _atom_site_type_symbol
 _atom_site_label
 _atom_site_symmetry_multiplicity
 _atom_site_fract_x
 _atom_site_fract_y
 _atom_site_fract_z
 _atom_site_occupancy
  Li  Li0  1  0.74462570  0.12658690  0.50431671  1
  Li  Li1  1  0.25537430  0.37341310  0.49568329  1
  Li  Li2  1  0.74236271  0.63951912  0.49513891  1
  Li  Li3  1  0.25763729  0.86048088  0.50486109  1
  Li  Li4  1  0.50000000  0.75000000  -0.00000000  1
  Mn  Mn5  1  0.00356011  0.99281597  0.00574328  1
  Mn  Mn6  1  0.99643989  0.50718403  0.99425672  1
  Co  Co7  1  0.50000000  0.25000000  -0.00000000  1
  O  O8  1  0.41060582  0.06483749  0.21574962  1
  O  O9  1  0.85311136  0.31480807  0.22652898  1
  O  O10  1  0.39739577  0.55259345  0.22013965  1
  O  O11  1  0.87829090  0.82965046  0.23996471  1
  O  O12  1  0.14688864  0.18519193  0.77347102  1
  O  O13  1  0.58939418  0.43516251  0.78425038  1
  O  O14  1  0.12170910  0.67034954  0.76003529  1
  O  O15  1  0.60260423  0.94740655  0.77986035  1
