# generated using pymatgen
data_Li5Mn2CoO8
_symmetry_space_group_name_H-M   'P 1'
_cell_length_a   2.88497829
_cell_length_b   7.80284588
_cell_length_c   6.51029742
_cell_angle_alpha   89.91861449
_cell_angle_beta   77.29924990
_cell_angle_gamma   79.73057841
_symmetry_Int_Tables_number   1
_chemical_formula_structural   Li5Mn2CoO8
_chemical_formula_sum   'Li5 Mn2 Co1 O8'
_cell_volume   140.56837999
_cell_formula_units_Z   1
loop_
 _symmetry_equiv_pos_site_id
 _symmetry_equiv_pos_as_xyz
  1  'x, y, z'
loop_
 _atom_site_type_symbol
 _atom_site_label
 _atom_site_symmetry_multiplicity
 _atom_site_fract_x
 _atom_site_fract_y
 _atom_site_fract_z
 _atom_site_occupancy
  Li  Li0  1  0.75887350  0.37259490  0.10552945  1
  Li  Li1  1  0.72931710  0.88651684  0.62970498  1
  Li  Li2  1  0.27068290  0.61348316  0.87029502  1
  Li  Li3  1  0.24112650  0.12740510  0.39447055  1
  Li  Li4  1  0.50000000  0.25000000  0.75000000  1
  Mn  Mn5  1  0.99650422  0.00518584  0.98692060  1
  Mn  Mn6  1  0.00349578  0.49481416  0.51307940  1
  Co  Co7  1  0.50000000  0.75000000  0.25000000  1
  O  O8  1  0.38175352  0.16513794  0.06296069  1
  O  O9  1  0.40133546  0.66584581  0.55700929  1
  O  O10  1  0.88959879  0.44305117  0.79310265  1
  O  O11  1  0.89225127  0.91856685  0.29379596  1
  O  O12  1  0.10774873  0.58143315  0.20620404  1
  O  O13  1  0.11040121  0.05694883  0.70689735  1
  O  O14  1  0.59866454  0.83415419  0.94299071  1
  O  O15  1  0.61824648  0.33486206  0.43703931  1
