# generated using pymatgen
data_Li7Mn2(CoO4)3
_symmetry_space_group_name_H-M   'P 1'
_cell_length_a   5.92297882
_cell_length_b   5.88421795
_cell_length_c   6.53299545
_cell_angle_alpha   77.04100737
_cell_angle_beta   75.92990344
_cell_angle_gamma   89.77886164
_symmetry_Int_Tables_number   1
_chemical_formula_structural   Li7Mn2(CoO4)3
_chemical_formula_sum   'Li7 Mn2 Co3 O12'
_cell_volume   214.92336839
_cell_formula_units_Z   1
loop_
 _symmetry_equiv_pos_site_id
 _symmetry_equiv_pos_as_xyz
  1  'x, y, z'
loop_
 _atom_site_type_symbol
 _atom_site_label
 _atom_site_symmetry_multiplicity
 _atom_site_fract_x
 _atom_site_fract_y
 _atom_site_fract_z
 _atom_site_occupancy
  Li  Li0  1  0.83060015  0.83002236  0.65961023  1
  Li  Li1  1  0.50066616  0.99233159  0.00860573  1
  Li  Li2  1  0.16666700  0.16666700  0.33333300  1
  Li  Li3  1  0.50273285  0.50331064  0.00705677  1
  Li  Li4  1  0.16666700  0.66666700  0.33333300  1
  Li  Li5  1  0.83266684  0.34100141  0.65806127  1
  Li  Li6  1  0.66666700  0.66666700  0.33333300  1
  Mn  Mn7  1  0.99537153  0.99902319  0.00104058  1
  Mn  Mn8  1  0.33796147  0.33430981  0.66562642  1
  Co  Co9  1  0.66666700  0.16666700  0.33333300  1
  Co  Co10  1  0.98954776  0.50413002  0.01296155  1
  Co  Co11  1  0.34378524  0.82920298  0.65370545  1
  O  O12  1  0.23173540  0.76658599  0.98883949  1
  O  O13  1  0.91246482  0.93305041  0.31312805  1
  O  O14  1  0.56773726  0.09486459  0.66235816  1
  O  O15  1  0.91891905  0.41238540  0.31420924  1
  O  O16  1  0.55875959  0.56723728  0.67581493  1
  O  O17  1  0.23590266  0.24220592  0.98318850  1
  O  O18  1  0.41441395  0.92094760  0.35245776  1
  O  O19  1  0.09743134  0.09112808  0.68347750  1
  O  O20  1  0.76559574  0.23846841  0.00430884  1
  O  O21  1  0.10159860  0.56674801  0.67782651  1
  O  O22  1  0.77457341  0.76609572  0.99085207  1
  O  O23  1  0.42086818  0.40028259  0.35353895  1
