# generated using pymatgen
data_Li7Mn2(CoO4)3
_symmetry_space_group_name_H-M   'P 1'
_cell_length_a   5.05374335
_cell_length_b   7.80899814
_cell_length_c   5.90945093
_cell_angle_alpha   77.99694948
_cell_angle_beta   72.27391278
_cell_angle_gamma   77.82002929
_symmetry_Int_Tables_number   1
_chemical_formula_structural   Li7Mn2(CoO4)3
_chemical_formula_sum   'Li7 Mn2 Co3 O12'
_cell_volume   214.53903529
_cell_formula_units_Z   1
loop_
 _symmetry_equiv_pos_site_id
 _symmetry_equiv_pos_as_xyz
  1  'x, y, z'
loop_
 _atom_site_type_symbol
 _atom_site_label
 _atom_site_symmetry_multiplicity
 _atom_site_fract_x
 _atom_site_fract_y
 _atom_site_fract_z
 _atom_site_occupancy
  Li  Li0  1  0.00043393  0.00987291  0.49986972  1
  Li  Li1  1  -0.00000000  0.33333300  0.16666700  1
  Li  Li2  1  0.50000000  0.83333300  0.66666700  1
  Li  Li3  1  0.48775090  0.17476303  0.33901240  1
  Li  Li4  1  0.99956607  0.65679409  0.83346328  1
  Li  Li5  1  0.51224910  0.49190397  0.99432060  1
  Li  Li6  1  -0.00000000  0.33333300  0.66666700  1
  Mn  Mn7  1  0.00004925  0.00371043  0.99837496  1
  Mn  Mn8  1  -0.00004925  0.66295657  0.33495804  1
  Co  Co9  1  0.50000000  0.83333300  0.16666700  1
  Co  Co10  1  0.51157900  0.17208218  0.82234098  1
  Co  Co11  1  0.48842100  0.49458482  0.51099202  1
  O  O12  1  0.76936876  0.90368554  0.31780802  1
  O  O13  1  0.75735071  0.22628288  0.00481518  1
  O  O14  1  0.25108932  0.74674202  0.46784902  1
  O  O15  1  0.24833554  0.07418764  0.14569279  1
  O  O16  1  0.76175146  0.59255760  0.64004354  1
  O  O17  1  0.27515332  0.41905861  0.81819657  1
  O  O18  1  0.23824854  0.07410940  0.69328946  1
  O  O19  1  0.24264929  0.44038312  0.32851882  1
  O  O20  1  0.74891068  0.91992398  0.86548498  1
  O  O21  1  0.72484668  0.24760839  0.51513643  1
  O  O22  1  0.23063124  0.76298146  0.01552498  1
  O  O23  1  0.75166446  0.59247936  0.18764021  1
