# generated using pymatgen
data_Li4MnCo2O7
_symmetry_space_group_name_H-M   'P 1'
_cell_length_a   5.89665995
_cell_length_b   6.51843653
_cell_length_c   7.68062437
_cell_angle_alpha   114.68649467
_cell_angle_beta   111.79959009
_cell_angle_gamma   75.94560869
_symmetry_Int_Tables_number   1
_chemical_formula_structural   Li4MnCo2O7
_chemical_formula_sum   'Li8 Mn2 Co4 O14'
_cell_volume   247.70612272
_cell_formula_units_Z   2
loop_
 _symmetry_equiv_pos_site_id
 _symmetry_equiv_pos_as_xyz
  1  'x, y, z'
loop_
 _atom_site_type_symbol
 _atom_site_label
 _atom_site_symmetry_multiplicity
 _atom_site_fract_x
 _atom_site_fract_y
 _atom_site_fract_z
 _atom_site_occupancy
  Li  Li0  1  0.21515421  0.42857543  0.14526452  1
  Li  Li1  1  0.92877958  0.85378182  0.28977308  1
  Li  Li2  1  0.65051338  0.29870518  0.44001184  1
  Li  Li3  1  0.35714300  0.71428600  0.57142900  1
  Li  Li4  1  0.06377262  0.12986582  0.70284516  1
  Li  Li5  1  0.78550542  0.57479018  0.85308392  1
  Li  Li6  1  0.49913179  -0.00000443  0.99759248  1
  Li  Li7  1  0.85714300  0.71428600  0.57142900  1
  Mn  Mn8  1  0.99734669  0.99916048  0.99639607  1
  Mn  Mn9  1  0.71693931  0.42941052  0.14646093  1
  Co  Co10  1  0.44154419  0.85702140  0.29805466  1
  Co  Co11  1  0.14325028  0.28426253  0.43008835  1
  Co  Co12  1  0.57103572  0.14430847  0.71276865  1
  Co  Co13  1  0.27274081  0.57155060  0.84480234  1
  O  O14  1  0.89570804  0.28032129  0.94432114  1
  O  O15  1  0.60522454  0.69576191  0.07488566  1
  O  O16  1  0.28626843  0.13235030  0.21126601  1
  O  O17  1  0.01689670  0.54519952  0.34863086  1
  O  O18  1  0.71684241  0.00421250  0.49633516  1
  O  O19  1  0.47065008  0.41757607  0.64866062  1
  O  O20  1  0.17833330  0.86746515  0.80587833  1
  O  O21  1  0.53595270  0.56110585  0.33697867  1
  O  O22  1  0.24363492  0.01099593  0.49419638  1
  O  O23  1  0.99744359  0.42435850  0.64652184  1
  O  O24  1  0.69738930  0.88337248  0.79422714  1
  O  O25  1  0.42801757  0.29622070  0.93159099  1
  O  O26  1  0.10906046  0.73281009  0.06797134  1
  O  O27  1  0.81857796  0.14824971  0.19853586  1
