# generated using pymatgen
data_Li4MnCo2O7
_symmetry_space_group_name_H-M   'P 1'
_cell_length_a   5.13543980
_cell_length_b   7.66074226
_cell_length_c   7.71071429
_cell_angle_alpha   118.98009240
_cell_angle_beta   109.08114857
_cell_angle_gamma   83.35979495
_symmetry_Int_Tables_number   1
_chemical_formula_structural   Li4MnCo2O7
_chemical_formula_sum   'Li8 Mn2 Co4 O14'
_cell_volume   250.45068801
_cell_formula_units_Z   2
loop_
 _symmetry_equiv_pos_site_id
 _symmetry_equiv_pos_as_xyz
  1  'x, y, z'
loop_
 _atom_site_type_symbol
 _atom_site_label
 _atom_site_symmetry_multiplicity
 _atom_site_fract_x
 _atom_site_fract_y
 _atom_site_fract_z
 _atom_site_occupancy
  Li  Li0  1  0.50819353  0.21403379  0.07797027  1
  Li  Li1  1  0.50586585  0.48563041  0.49346353  1
  Li  Li2  1  0.50143274  0.64529556  0.21563582  1
  Li  Li3  1  0.50240243  0.92740368  0.64385058  1
  Li  Li4  1  0.50080297  0.07517378  0.36472595  1
  Li  Li5  1  0.48563376  0.35422784  0.77391359  1
  Li  Li6  1  0.49787857  0.78931624  0.93091369  1
  Li  Li7  1  0.99503137  0.28506223  0.42806086  1
  Mn  Mn8  1  0.00404529  0.00313125  0.00508120  1
  Mn  Mn9  1  0.99944521  0.42807581  0.14376311  1
  Co  Co10  1  0.99830031  0.57200560  0.85692242  1
  Co  Co11  1  0.01169719  0.87325545  0.29682266  1
  Co  Co12  1  0.98727975  0.14902119  0.70328094  1
  Co  Co13  1  0.00062676  0.70608564  0.56799862  1
  O  O14  1  0.21636106  0.97245421  0.82209894  1
  O  O15  1  0.22349973  0.24502567  0.22746807  1
  O  O16  1  0.21937426  0.40015923  0.96132836  1
  O  O17  1  0.23133097  0.65733853  0.37658490  1
  O  O18  1  0.23764806  0.83958055  0.10904681  1
  O  O19  1  0.23992899  0.08931996  0.53170999  1
  O  O20  1  0.22035859  0.54858742  0.68961459  1
  O  O21  1  0.77127776  0.46831069  0.31134900  1
  O  O22  1  0.77999896  0.75999845  0.77009406  1
  O  O23  1  0.76951253  0.88667561  0.46861208  1
  O  O24  1  0.77737408  0.18552068  0.91337928  1
  O  O25  1  0.75237396  0.31171149  0.61143657  1
  O  O26  1  0.78918683  0.60368560  0.03927770  1
  O  O27  1  0.77313849  0.02391344  0.16559643  1
