# generated using pymatgen
data_Li7Mn2(CoO4)3
_symmetry_space_group_name_H-M   'P 1'
_cell_length_a   5.87205782
_cell_length_b   6.45098331
_cell_length_c   6.47375689
_cell_angle_alpha   108.32184336
_cell_angle_beta   114.45714239
_cell_angle_gamma   77.04425086
_symmetry_Int_Tables_number   1
_chemical_formula_structural   Li7Mn2(CoO4)3
_chemical_formula_sum   'Li7 Mn2 Co3 O12'
_cell_volume   210.65015750
_cell_formula_units_Z   1
loop_
 _symmetry_equiv_pos_site_id
 _symmetry_equiv_pos_as_xyz
  1  'x, y, z'
loop_
 _atom_site_type_symbol
 _atom_site_label
 _atom_site_symmetry_multiplicity
 _atom_site_fract_x
 _atom_site_fract_y
 _atom_site_fract_z
 _atom_site_occupancy
  Li  Li0  1  0.41095187  0.66328812  0.16222175  1
  Li  Li1  1  0.09280685  0.34056900  0.82943577  1
  Li  Li2  1  0.76570837  0.99267938  0.50404705  1
  Li  Li3  1  0.92238213  0.67004588  0.17111225  1
  Li  Li4  1  0.56762463  0.34065362  0.82928595  1
  Li  Li5  1  0.24052615  0.99276400  0.50389723  1
  Li  Li6  1  0.16666700  0.66666700  0.66666700  1
  Mn  Mn7  1  0.00268397  0.99486396  0.99416438  1
  Mn  Mn8  1  0.33064903  0.33846904  0.33916862  1
  Co  Co9  1  0.66666700  0.66666700  0.66666700  1
  Co  Co10  1  0.49363342  0.99874755  0.99059848  1
  Co  Co11  1  0.83969958  0.33458545  0.34273452  1
  O  O12  1  0.03418601  0.68774250  0.91832656  1
  O  O13  1  0.67882964  0.33234662  0.55439136  1
  O  O14  1  0.35243870  0.00854270  0.22305166  1
  O  O15  1  0.55350079  0.69139870  0.90780521  1
  O  O16  1  0.21870019  0.32910815  0.56995221  1
  O  O17  1  0.87966742  0.02058868  0.24454880  1
  O  O18  1  0.77983321  0.64193530  0.42552879  1
  O  O19  1  0.45366558  0.31274432  0.08878420  1
  O  O20  1  0.11463281  0.00422485  0.76338079  1
  O  O21  1  0.29914799  0.64559150  0.41500744  1
  O  O22  1  0.98089430  0.32479030  0.11028134  1
  O  O23  1  0.65450336  0.00098638  0.77894164  1
