# generated using pymatgen
data_CaZnO2
_symmetry_space_group_name_H-M   'P 1'
_cell_length_a   3.56813107
_cell_length_b   3.56813107
_cell_length_c   5.48117106
_cell_angle_alpha   90.00098299
_cell_angle_beta   89.99901701
_cell_angle_gamma   119.99831541
_symmetry_Int_Tables_number   1
_chemical_formula_structural   CaZnO2
_chemical_formula_sum   'Ca1 Zn1 O2'
_cell_volume   60.43561656
_cell_formula_units_Z   1
loop_
 _symmetry_equiv_pos_site_id
 _symmetry_equiv_pos_as_xyz
  1  'x, y, z'
loop_
 _atom_site_type_symbol
 _atom_site_label
 _atom_site_symmetry_multiplicity
 _atom_site_fract_x
 _atom_site_fract_y
 _atom_site_fract_z
 _atom_site_occupancy
  Ca  Ca0  1  0.33332642  0.66667358  0.50605316  1
  Zn  Zn1  1  0.66667645  0.33332355  0.99157586  1
  O  O2  1  0.33332514  0.66667486  0.08434787  1
  O  O3  1  0.66667199  0.33332801  0.63202311  1
