# generated using pymatgen
data_Li4MnCo2O7
_symmetry_space_group_name_H-M   'P 1'
_cell_length_a   5.92035331
_cell_length_b   7.73337587
_cell_length_c   6.54484105
_cell_angle_alpha   104.06153238
_cell_angle_beta   75.91078214
_cell_angle_gamma   68.37046310
_symmetry_Int_Tables_number   1
_chemical_formula_structural   Li4MnCo2O7
_chemical_formula_sum   'Li8 Mn2 Co4 O14'
_cell_volume   251.10654714
_cell_formula_units_Z   2
loop_
 _symmetry_equiv_pos_site_id
 _symmetry_equiv_pos_as_xyz
  1  'x, y, z'
loop_
 _atom_site_type_symbol
 _atom_site_label
 _atom_site_symmetry_multiplicity
 _atom_site_fract_x
 _atom_site_fract_y
 _atom_site_fract_z
 _atom_site_occupancy
  Li  Li0  1  0.36530292  0.70955278  0.14291000  1
  Li  Li1  1  0.20014927  0.43898949  0.28746524  1
  Li  Li2  1  0.64227509  0.28753442  0.85379774  1
  Li  Li3  1  0.50339936  0.99369153  0.00078994  1
  Li  Li4  1  0.93022781  0.85183087  0.56704966  1
  Li  Li5  1  0.78467842  0.57464816  0.72506996  1
  Li  Li6  1  0.07433241  0.14253313  0.42703729  1
  Li  Li7  1  0.85275427  0.71563878  0.14239097  1
  Mn  Mn8  1  -0.00041988  0.99796114  0.00177505  1
  Mn  Mn9  1  0.57426770  0.13954214  0.42355311  1
  Co  Co10  1  0.71659137  0.43493907  0.28078083  1
  Co  Co11  1  0.44659481  0.84900380  0.56113286  1
  Co  Co12  1  0.27550967  0.57667111  0.71840850  1
  Co  Co13  1  0.14405887  0.29161582  0.86011074  1
  O  O14  1  0.94114855  0.94572007  0.27896297  1
  O  O15  1  0.79722306  0.64807352  0.44477822  1
  O  O16  1  0.24917848  0.48773143  0.97714072  1
  O  O17  1  0.09288880  0.20818694  0.13225440  1
  O  O18  1  0.53506867  0.07597586  0.69288416  1
  O  O19  1  0.36252957  0.79879144  0.86783989  1
  O  O20  1  0.66558740  0.35063997  0.55038305  1
  O  O21  1  0.75537960  0.48904607  0.01006474  1
  O  O22  1  0.63005069  0.19720880  0.14786396  1
  O  O23  1  0.05329616  0.06963302  0.73483943  1
  O  O24  1  0.90997845  0.79654523  0.86196528  1
  O  O25  1  0.32783475  0.63919560  0.43701982  1
  O  O26  1  0.20531682  0.34506423  0.56471980  1
  O  O27  1  0.46479690  0.94403558  0.30701167  1
