# generated using pymatgen
data_Li4MnCo2O7
_symmetry_space_group_name_H-M   'P 1'
_cell_length_a   4.98998840
_cell_length_b   5.09190421
_cell_length_c   10.59379959
_cell_angle_alpha   85.37671937
_cell_angle_beta   103.13625988
_cell_angle_gamma   107.94794289
_symmetry_Int_Tables_number   1
_chemical_formula_structural   Li4MnCo2O7
_chemical_formula_sum   'Li8 Mn2 Co4 O14'
_cell_volume   249.35711722
_cell_formula_units_Z   2
loop_
 _symmetry_equiv_pos_site_id
 _symmetry_equiv_pos_as_xyz
  1  'x, y, z'
loop_
 _atom_site_type_symbol
 _atom_site_label
 _atom_site_symmetry_multiplicity
 _atom_site_fract_x
 _atom_site_fract_y
 _atom_site_fract_z
 _atom_site_occupancy
  Li  Li0  1  0.07447890  0.50029377  0.14678031  1
  Li  Li1  1  0.63825211  0.50133305  0.27894852  1
  Li  Li2  1  0.19841299  0.49156033  0.41930336  1
  Li  Li3  1  0.78344354  0.49886493  0.56555889  1
  Li  Li4  1  0.36681817  0.50490786  0.71690102  1
  Li  Li5  1  0.93291142  0.50023839  0.86490300  1
  Li  Li6  1  0.50232743  0.49516740  0.01043333  1
  Li  Li7  1  0.56247816  0.99490202  0.13923506  1
  Mn  Mn8  1  0.99737865  0.99664554  0.00232771  1
  Mn  Mn9  1  0.86630223  0.00807797  0.71749228  1
  Co  Co10  1  0.13231050  0.99383405  0.27820757  1
  Co  Co11  1  0.70988883  0.99423202  0.42021976  1
  Co  Co12  1  0.29189398  0.00661370  0.56871640  1
  Co  Co13  1  0.43216050  0.00215384  0.85867229  1
  O  O14  1  0.73725631  0.21571976  0.98823354  1
  O  O15  1  0.27986154  0.22738821  0.13082115  1
  O  O16  1  0.89302471  0.22869345  0.29110892  1
  O  O17  1  0.46262109  0.23131913  0.43324631  1
  O  O18  1  0.03764029  0.23343107  0.58431042  1
  O  O19  1  0.61629883  0.22910841  0.72099230  1
  O  O20  1  0.16985548  0.21854338  0.85677224  1
  O  O21  1  0.38463441  0.76439723  0.29243942  1
  O  O22  1  0.96494321  0.76543353  0.43506129  1
  O  O23  1  0.56689339  0.78311199  0.58543360  1
  O  O24  1  0.12426206  0.78995352  0.71891392  1
  O  O25  1  0.69279188  0.78639244  0.85557912  1
  O  O26  1  0.24326397  0.77712826  0.98686432  1
  O  O27  1  0.83759541  0.76055476  0.13252394  1
