# generated using pymatgen
data_Li4MnCo2O7
_symmetry_space_group_name_H-M   'P 1'
_cell_length_a   5.10200686
_cell_length_b   7.67094015
_cell_length_c   7.70552817
_cell_angle_alpha   118.83270286
_cell_angle_beta   107.91350820
_cell_angle_gamma   77.86997197
_symmetry_Int_Tables_number   1
_chemical_formula_structural   Li4MnCo2O7
_chemical_formula_sum   'Li8 Mn2 Co4 O14'
_cell_volume   250.68812242
_cell_formula_units_Z   2
loop_
 _symmetry_equiv_pos_site_id
 _symmetry_equiv_pos_as_xyz
  1  'x, y, z'
loop_
 _atom_site_type_symbol
 _atom_site_label
 _atom_site_symmetry_multiplicity
 _atom_site_fract_x
 _atom_site_fract_y
 _atom_site_fract_z
 _atom_site_occupancy
  Li  Li0  1  0.50355471  0.21620652  0.14865973  1
  Li  Li1  1  0.50183471  0.34909730  0.56295350  1
  Li  Li2  1  0.49605278  0.63879469  0.42312444  1
  Li  Li3  1  0.50228581  0.78538654  0.85601473  1
  Li  Li4  1  0.49543648  0.07449644  0.71257760  1
  Li  Li5  1  0.49972964  0.49933537  0.00208869  1
  Li  Li6  1  0.49759033  0.93778347  0.29524332  1
  Li  Li7  1  0.99651915  0.14313710  0.42680210  1
  Mn  Mn8  1  0.00661726  0.00058654  0.00508887  1
  Mn  Mn9  1  0.00225177  0.71831478  0.14745582  1
  Co  Co10  1  0.00461222  0.28323238  0.84755399  1
  Co  Co11  1  0.99167673  0.42248217  0.29440626  1
  Co  Co12  1  0.00080278  0.56827127  0.71280370  1
  Co  Co13  1  0.99467727  0.86601496  0.56703056  1
  O  O14  1  0.23078872  0.03262667  0.85625339  1
  O  O15  1  0.23067212  0.17172321  0.26232681  1
  O  O16  1  0.21761193  0.47548131  0.14240081  1
  O  O17  1  0.22090194  0.60997051  0.57521418  1
  O  O18  1  0.23031879  0.87415700  0.41104625  1
  O  O19  1  0.22959695  0.33744978  0.72483352  1
  O  O20  1  0.22986734  0.76550041  0.01358384  1
  O  O21  1  0.75579600  0.40027197  0.42227555  1
  O  O22  1  0.78266618  0.54493628  0.86877101  1
  O  O23  1  0.79000697  0.81843062  0.73242077  1
  O  O24  1  0.78002824  0.95092152  0.13286030  1
  O  O25  1  0.77657001  0.23506434  0.99698118  1
  O  O26  1  0.76912088  0.68149829  0.27820253  1
  O  O27  1  0.76241232  0.09882855  0.58102653  1
