# generated using pymatgen
data_Li7Mn2(CoO4)3
_symmetry_space_group_name_H-M   'P 1'
_cell_length_a   5.13436148
_cell_length_b   7.69982149
_cell_length_c   5.89170965
_cell_angle_alpha   78.65360157
_cell_angle_beta   106.50254991
_cell_angle_gamma   83.59994912
_symmetry_Int_Tables_number   1
_chemical_formula_structural   Li7Mn2(CoO4)3
_chemical_formula_sum   'Li7 Mn2 Co3 O12'
_cell_volume   215.46374306
_cell_formula_units_Z   1
loop_
 _symmetry_equiv_pos_site_id
 _symmetry_equiv_pos_as_xyz
  1  'x, y, z'
loop_
 _atom_site_type_symbol
 _atom_site_label
 _atom_site_symmetry_multiplicity
 _atom_site_fract_x
 _atom_site_fract_y
 _atom_site_fract_z
 _atom_site_occupancy
  Li  Li0  1  0.49473297  0.17646830  0.08628940  1
  Li  Li1  1  0.50050088  0.16876241  0.58000122  1
  Li  Li2  1  0.50526981  0.49019708  0.24704656  1
  Li  Li3  1  0.49950671  0.49789671  0.75332664  1
  Li  Li4  1  0.49493300  0.83410211  0.41640421  1
  Li  Li5  1  0.50506438  0.83257438  0.91692523  1
  Li  Li6  1  0.99999872  0.33333068  0.16666670  1
  Mn  Mn7  1  0.00370454  0.00261733  0.00260495  1
  Mn  Mn8  1  0.99628748  0.66404786  0.33073319  1
  Co  Co9  1  0.99687846  0.01133175  0.49410820  1
  Co  Co10  1  0.99999736  0.33333376  0.66665949  1
  Co  Co11  1  0.00312353  0.65532000  0.83924596  1
  O  O12  1  0.23197728  0.07785934  0.80064937  1
  O  O13  1  0.23218508  0.07422968  0.27469700  1
  O  O14  1  0.23603878  0.43116044  0.94437426  1
  O  O15  1  0.22195313  0.42850308  0.46407591  1
  O  O16  1  0.21934923  0.75486654  0.12824928  1
  O  O17  1  0.21697835  0.75559985  0.60186685  1
  O  O18  1  0.76398015  0.23551082  0.38894503  1
  O  O19  1  0.77804546  0.23816937  0.86924629  1
  O  O20  1  0.76802402  0.58880183  0.53269146  1
  O  O21  1  0.76780900  0.59245108  0.05863215  1
  O  O22  1  0.78301946  0.91106355  0.73147158  1
  O  O23  1  0.78064220  0.91180206  0.20508906  1
