# generated using pymatgen
data_Li7Mn2(CoO4)3
_symmetry_space_group_name_H-M   'P 1'
_cell_length_a   5.13083409
_cell_length_b   7.75607425
_cell_length_c   5.82663840
_cell_angle_alpha   79.05563981
_cell_angle_beta   106.19491202
_cell_angle_gamma   83.76734730
_symmetry_Int_Tables_number   1
_chemical_formula_structural   Li7Mn2(CoO4)3
_chemical_formula_sum   'Li7 Mn2 Co3 O12'
_cell_volume   215.38912554
_cell_formula_units_Z   1
loop_
 _symmetry_equiv_pos_site_id
 _symmetry_equiv_pos_as_xyz
  1  'x, y, z'
loop_
 _atom_site_type_symbol
 _atom_site_label
 _atom_site_symmetry_multiplicity
 _atom_site_fract_x
 _atom_site_fract_y
 _atom_site_fract_z
 _atom_site_occupancy
  Li  Li0  1  0.50814925  0.18526000  0.08712796  1
  Li  Li1  1  0.50528962  0.17621806  0.58200483  1
  Li  Li2  1  0.50128533  0.49337700  0.25281780  1
  Li  Li3  1  0.50688781  0.49763625  0.75320374  1
  Li  Li4  1  0.49102021  0.82361995  0.41385117  1
  Li  Li5  1  0.49172987  0.82665707  0.91412565  1
  Li  Li6  1  0.99897392  0.33330263  0.16680708  1
  Mn  Mn7  1  0.00220248  0.00285882  0.00019908  1
  Mn  Mn8  1  0.99687068  0.00317239  0.49471531  1
  Co  Co9  1  0.99590548  0.33978140  0.65709903  1
  Co  Co10  1  0.99353912  0.65523273  0.32777674  1
  Co  Co11  1  0.01258434  0.64890133  0.84380483  1
  O  O12  1  0.22346393  0.07439147  0.78449325  1
  O  O13  1  0.22224890  0.07070743  0.28692571  1
  O  O14  1  0.24106191  0.43018206  0.95069900  1
  O  O15  1  0.23395868  0.41634839  0.47227922  1
  O  O16  1  0.22447238  0.76323300  0.11429706  1
  O  O17  1  0.21269899  0.76150621  0.60305341  1
  O  O18  1  0.77038745  0.23368178  0.38924523  1
  O  O19  1  0.78451511  0.23697722  0.87454695  1
  O  O20  1  0.75732457  0.58234023  0.54951825  1
  O  O21  1  0.76140071  0.59683902  0.05330008  1
  O  O22  1  0.78661378  0.91820794  0.71742157  1
  O  O23  1  0.77741548  0.92956763  0.21068704  1
