# generated using pymatgen
data_Li7Mn2(CoO4)3
_symmetry_space_group_name_H-M   'P 1'
_cell_length_a   5.89389524
_cell_length_b   5.88829064
_cell_length_c   7.65328256
_cell_angle_alpha   100.81770785
_cell_angle_beta   111.50014574
_cell_angle_gamma   59.91579326
_symmetry_Int_Tables_number   1
_chemical_formula_structural   Li7Mn2(CoO4)3
_chemical_formula_sum   'Li7 Mn2 Co3 O12'
_cell_volume   213.83219299
_cell_formula_units_Z   1
loop_
 _symmetry_equiv_pos_site_id
 _symmetry_equiv_pos_as_xyz
  1  'x, y, z'
loop_
 _atom_site_type_symbol
 _atom_site_label
 _atom_site_symmetry_multiplicity
 _atom_site_fract_x
 _atom_site_fract_y
 _atom_site_fract_z
 _atom_site_occupancy
  Li  Li0  1  0.50285330  0.33234872  0.33778425  1
  Li  Li1  1  0.49527984  0.16882260  0.66547583  1
  Li  Li2  1  0.50286985  0.83086411  0.33437189  1
  Li  Li3  1  0.48582588  0.66413432  0.65766196  1
  Li  Li4  1  0.50180761  0.50030820  0.99977256  1
  Li  Li5  1  0.50494593  0.00094744  0.00387133  1
  Li  Li6  1  0.00376042  0.82978521  0.33335428  1
  Mn  Mn7  1  0.00362557  0.99699934  0.00440747  1
  Mn  Mn8  1  0.00120656  0.33291502  0.33433923  1
  Co  Co9  1  0.99243506  0.67685968  0.65609358  1
  Co  Co10  1  0.00068007  0.51155137  0.00230526  1
  Co  Co11  1  0.00099870  0.16025022  0.66336666  1
  O  O12  1  0.22118602  0.02824805  0.50256241  1
  O  O13  1  0.23318694  0.84286564  0.83724505  1
  O  O14  1  0.23104516  0.48636689  0.49161479  1
  O  O15  1  0.21684022  0.35603771  0.83193443  1
  O  O16  1  0.22833928  0.16476186  0.16697533  1
  O  O17  1  0.23051895  0.68838407  0.15097116  1
  O  O18  1  0.78399647  0.63194754  0.16834388  1
  O  O19  1  0.76454985  0.48895950  0.49109895  1
  O  O20  1  0.78060111  0.16762022  0.16670842  1
  O  O21  1  0.76516446  0.98227365  0.51298576  1
  O  O22  1  0.76904889  0.84533182  0.85064716  1
  O  O23  1  0.77923385  0.31141681  0.83610835  1
