# generated using pymatgen
data_Li7Mn2(CoO4)3
_symmetry_space_group_name_H-M   'P 1'
_cell_length_a   5.04139423
_cell_length_b   8.73449889
_cell_length_c   5.16479167
_cell_angle_alpha   106.35124321
_cell_angle_beta   79.58870597
_cell_angle_gamma   94.57203380
_symmetry_Int_Tables_number   1
_chemical_formula_structural   Li7Mn2(CoO4)3
_chemical_formula_sum   'Li7 Mn2 Co3 O12'
_cell_volume   214.53502262
_cell_formula_units_Z   1
loop_
 _symmetry_equiv_pos_site_id
 _symmetry_equiv_pos_as_xyz
  1  'x, y, z'
loop_
 _atom_site_type_symbol
 _atom_site_label
 _atom_site_symmetry_multiplicity
 _atom_site_fract_x
 _atom_site_fract_y
 _atom_site_fract_z
 _atom_site_occupancy
  Li  Li0  1  0.25735929  0.91346854  0.41898874  1
  Li  Li1  1  0.73153274  0.07333200  0.58211097  1
  Li  Li2  1  0.26010503  0.24865711  0.74789856  1
  Li  Li3  1  0.25779021  0.59567694  0.08792219  1
  Li  Li4  1  0.74039833  0.74899371  0.24608683  1
  Li  Li5  1  0.74972768  0.41920499  0.91716785  1
  Li  Li6  1  0.49986458  0.83493261  0.83440481  1
  Mn  Mn7  1  0.00299005  0.99725497  0.99260927  1
  Mn  Mn8  1  0.00048623  0.33328601  0.33349533  1
  Co  Co9  1  0.49835528  0.16179160  0.15640759  1
  Co  Co10  1  0.49968519  0.50829445  0.50937182  1
  Co  Co11  1  0.99156555  0.67258804  0.68130254  1
  O  O12  1  0.10795561  0.80279570  0.03591846  1
  O  O13  1  0.63666941  0.97811311  0.19945056  1
  O  O14  1  0.12506903  0.12748654  0.34015981  1
  O  O15  1  0.12347897  0.44512510  0.67384403  1
  O  O16  1  0.64089033  0.62260646  0.85753470  1
  O  O17  1  0.64529553  0.30222440  0.52836797  1
  O  O18  1  0.35108640  0.04158435  0.80521591  1
  O  O19  1  0.87150179  0.20715300  0.99170101  1
  O  O20  1  0.36354397  0.35883969  0.13922549  1
  O  O21  1  0.36794017  0.69161850  0.46334778  1
  O  O22  1  0.89156500  0.88471992  0.65671654  1
  O  O23  1  0.88514363  0.53025228  0.30075123  1
