# generated using pymatgen
data_Li7Mn5O12
_symmetry_space_group_name_H-M   'P 1'
_cell_length_a   2.87124619
_cell_length_b   5.34715692
_cell_length_c   14.60335817
_cell_angle_alpha   87.44967528
_cell_angle_beta   90.00000000
_cell_angle_gamma   90.00000000
_symmetry_Int_Tables_number   1
_chemical_formula_structural   Li7Mn5O12
_chemical_formula_sum   'Li7 Mn5 O12'
_cell_volume   223.98334537
_cell_formula_units_Z   1
loop_
 _symmetry_equiv_pos_site_id
 _symmetry_equiv_pos_as_xyz
  1  'x, y, z'
loop_
 _atom_site_type_symbol
 _atom_site_label
 _atom_site_symmetry_multiplicity
 _atom_site_fract_x
 _atom_site_fract_y
 _atom_site_fract_z
 _atom_site_occupancy
  Li  Li0  1  0.50000000  0.17762899  0.17553300  1
  Li  Li1  1  0.50000000  0.48903801  0.49113400  1
  Li  Li2  1  0.50000000  0.83333300  0.83333300  1
  Li  Li3  1  -0.00000000  0.67636587  0.17784663  1
  Li  Li4  1  0.00000000  0.99030113  0.48882037  1
  Li  Li5  1  0.00000000  0.33333300  0.83333300  1
  Li  Li6  1  0.50000000  0.83333300  0.33333300  1
  Mn  Mn7  1  0.00000000  0.00257715  0.00254097  1
  Mn  Mn8  1  0.00000000  0.33333300  0.33333300  1
  Mn  Mn9  1  -0.00000000  0.66408985  0.66412603  1
  Mn  Mn10  1  0.50000000  0.50325574  0.00061915  1
  Mn  Mn11  1  0.50000000  0.16341126  0.66604785  1
  O  O12  1  0.50000000  0.85383500  0.07820008  1
  O  O13  1  0.50000000  0.18220981  0.40886261  1
  O  O14  1  0.50000000  0.52240079  0.74365685  1
  O  O15  1  0.00000000  0.35571693  0.07544633  1
  O  O16  1  -0.00000000  0.62215453  0.40748184  1
  O  O17  1  -0.00000000  0.01948302  0.74441564  1
  O  O18  1  0.50000000  0.48445719  0.25780439  1
  O  O19  1  0.50000000  0.81283200  0.58846692  1
  O  O20  1  0.50000000  0.14426521  0.92300915  1
  O  O21  1  0.00000000  0.04451247  0.25918516  1
  O  O22  1  -0.00000000  0.31095007  0.59122067  1
  O  O23  1  -0.00000000  0.64718298  0.92225036  1
