# generated using pymatgen
data_Li7Mn2(CoO4)3
_symmetry_space_group_name_H-M   'P 1'
_cell_length_a   5.04476327
_cell_length_b   6.50202596
_cell_length_c   6.65922297
_cell_angle_alpha   83.64659738
_cell_angle_beta   98.39290319
_cell_angle_gamma   96.45108086
_symmetry_Int_Tables_number   1
_chemical_formula_structural   Li7Mn2(CoO4)3
_chemical_formula_sum   'Li7 Mn2 Co3 O12'
_cell_volume   213.73339471
_cell_formula_units_Z   1
loop_
 _symmetry_equiv_pos_site_id
 _symmetry_equiv_pos_as_xyz
  1  'x, y, z'
loop_
 _atom_site_type_symbol
 _atom_site_label
 _atom_site_symmetry_multiplicity
 _atom_site_fract_x
 _atom_site_fract_y
 _atom_site_fract_z
 _atom_site_occupancy
  Li  Li0  1  0.74217492  0.24306842  0.25149795  1
  Li  Li1  1  0.74699484  0.58832419  0.92319964  1
  Li  Li2  1  0.25686778  0.07817593  0.40561150  1
  Li  Li3  1  0.26327060  0.42496525  0.08526775  1
  Li  Li4  1  0.74155208  0.91407541  0.57901690  1
  Li  Li5  1  0.25208972  0.75039245  0.75514850  1
  Li  Li6  1  0.50119311  0.83589211  0.16501496  1
  Mn  Mn7  1  0.00424565  0.99853885  0.00640082  1
  Mn  Mn8  1  0.99816336  0.33224375  0.66579125  1
  Co  Co9  1  -0.01031527  0.66817097  0.32275645  1
  Co  Co10  1  0.49935452  0.16311905  0.84044599  1
  Co  Co11  1  0.49746161  0.51020966  0.49099065  1
  O  O12  1  0.87539557  0.28106978  0.93813952  1
  O  O13  1  0.88048382  0.60728964  0.62209158  1
  O  O14  1  0.34957322  0.11957262  0.11339158  1
  O  O15  1  0.36270032  0.43155847  0.78573382  1
  O  O16  1  0.89013437  0.95982283  0.27045739  1
  O  O17  1  0.36675562  0.76958663  0.46320440  1
  O  O18  1  0.64474360  0.22676640  0.54879114  1
  O  O19  1  0.64155823  0.54357486  0.21987934  1
  O  O20  1  0.12147247  0.05252181  0.72706091  1
  O  O21  1  0.12473904  0.37220880  0.40017800  1
  O  O22  1  0.63775297  0.90515316  0.87572560  1
  O  O23  1  0.11163785  0.72369895  0.04420436  1
