# generated using pymatgen
data_Li7Mn2(CoO4)3
_symmetry_space_group_name_H-M   'P 1'
_cell_length_a   5.90090896
_cell_length_b   5.87274697
_cell_length_c   6.46737218
_cell_angle_alpha   103.33874371
_cell_angle_beta   104.58804103
_cell_angle_gamma   87.17627662
_symmetry_Int_Tables_number   1
_chemical_formula_structural   Li7Mn2(CoO4)3
_chemical_formula_sum   'Li7 Mn2 Co3 O12'
_cell_volume   211.03792369
_cell_formula_units_Z   1
loop_
 _symmetry_equiv_pos_site_id
 _symmetry_equiv_pos_as_xyz
  1  'x, y, z'
loop_
 _atom_site_type_symbol
 _atom_site_label
 _atom_site_symmetry_multiplicity
 _atom_site_fract_x
 _atom_site_fract_y
 _atom_site_fract_z
 _atom_site_occupancy
  Li  Li0  1  0.16869051  0.17010227  0.66151584  1
  Li  Li1  1  0.83152633  0.33444199  0.33138739  1
  Li  Li2  1  0.49713970  0.49845386  0.00515069  1
  Li  Li3  1  0.17015683  0.65750201  0.65596489  1
  Li  Li4  1  0.83542369  0.83406877  0.33512269  1
  Li  Li5  1  0.49992706  0.00739634  0.01298848  1
  Li  Li6  1  0.33234194  0.33427282  0.33561761  1
  Mn  Mn7  1  0.00638739  0.00212924  0.00040090  1
  Mn  Mn8  1  0.66039236  0.16780609  0.66161127  1
  Co  Co9  1  0.00329457  0.49845012  0.00648565  1
  Co  Co10  1  0.65910037  0.66328136  0.66207208  1
  Co  Co11  1  0.33222433  0.83327834  0.33044489  1
  O  O12  1  0.91242180  0.93134296  0.68227535  1
  O  O13  1  0.59182522  0.09143714  0.35583738  1
  O  O14  1  0.21560907  0.24130453  0.99955468  1
  O  O15  1  0.88882912  0.41191139  0.68050086  1
  O  O16  1  0.57219225  0.60766516  0.35170378  1
  O  O17  1  0.24643162  0.76516809  0.00392804  1
  O  O18  1  0.43211397  0.40729615  0.67538527  1
  O  O19  1  0.07852081  0.57960352  0.31136808  1
  O  O20  1  0.77774350  0.75201967  0.98075632  1
  O  O21  1  0.44119941  0.92351948  0.65675168  1
  O  O22  1  0.09353083  0.06020609  0.31473945  1
  O  O23  1  0.75297730  0.22734262  0.98843671  1
