# generated using pymatgen
data_Li7Mn2(CoO4)3
_symmetry_space_group_name_H-M   'P 1'
_cell_length_a   5.86433690
_cell_length_b   6.49688839
_cell_length_c   6.56094153
_cell_angle_alpha   108.29579676
_cell_angle_beta   115.83595866
_cell_angle_gamma   77.09579469
_symmetry_Int_Tables_number   1
_chemical_formula_structural   Li7Mn2(CoO4)3
_chemical_formula_sum   'Li7 Mn2 Co3 O12'
_cell_volume   212.51478222
_cell_formula_units_Z   1
loop_
 _symmetry_equiv_pos_site_id
 _symmetry_equiv_pos_as_xyz
  1  'x, y, z'
loop_
 _atom_site_type_symbol
 _atom_site_label
 _atom_site_symmetry_multiplicity
 _atom_site_fract_x
 _atom_site_fract_y
 _atom_site_fract_z
 _atom_site_occupancy
  Li  Li0  1  0.41674052  0.67006915  0.16845894  1
  Li  Li1  1  0.25645551  0.98938206  0.50382553  1
  Li  Li2  1  0.07187735  0.34107425  0.83046239  1
  Li  Li3  1  0.91411061  0.66482307  0.16094335  1
  Li  Li4  1  0.75108165  0.99142031  0.49960830  1
  Li  Li5  1  0.58726379  0.34094962  0.83101467  1
  Li  Li6  1  0.66790831  0.66533418  0.66902115  1
  Mn  Mn7  1  0.99421291  0.99859260  0.99597356  1
  Mn  Mn8  1  0.83766326  0.33299030  0.33801958  1
  Co  Co9  1  0.49868023  0.99734007  0.99536524  1
  Co  Co10  1  0.34213129  0.34925052  0.34527434  1
  Co  Co11  1  0.16542899  0.66861392  0.67278122  1
  O  O12  1  0.10800839  0.99807304  0.76020107  1
  O  O13  1  0.95911997  0.31800258  0.09466998  1
  O  O14  1  0.80850152  0.64358891  0.41697747  1
  O  O15  1  0.64048658  0.00112010  0.78152634  1
  O  O16  1  0.48861849  0.31559923  0.10192494  1
  O  O17  1  0.28758533  0.65014113  0.41502806  1
  O  O18  1  0.71036138  0.32543360  0.55908062  1
  O  O19  1  0.51777862  0.68717789  0.90882870  1
  O  O20  1  0.35403226  0.01425567  0.22077654  1
  O  O21  1  0.18984767  0.33543437  0.56832183  1
  O  O22  1  0.04290990  0.68761096  0.91846234  1
  O  O23  1  0.88919549  0.01372247  0.24345385  1
