# generated using pymatgen
data_Li7Mn2(CoO4)3
_symmetry_space_group_name_H-M   'P 1'
_cell_length_a   5.84969530
_cell_length_b   6.51954126
_cell_length_c   6.61313041
_cell_angle_alpha   108.23711463
_cell_angle_beta   117.13606496
_cell_angle_gamma   77.05125659
_symmetry_Int_Tables_number   1
_chemical_formula_structural   Li7Mn2(CoO4)3
_chemical_formula_sum   'Li7 Mn2 Co3 O12'
_cell_volume   212.18221920
_cell_formula_units_Z   1
loop_
 _symmetry_equiv_pos_site_id
 _symmetry_equiv_pos_as_xyz
  1  'x, y, z'
loop_
 _atom_site_type_symbol
 _atom_site_label
 _atom_site_symmetry_multiplicity
 _atom_site_fract_x
 _atom_site_fract_y
 _atom_site_fract_z
 _atom_site_occupancy
  Li  Li0  1  0.41525126  0.66960306  0.16931264  1
  Li  Li1  1  0.08619943  0.33803465  0.83464045  1
  Li  Li2  1  0.75968014  -0.00474059  0.50065555  1
  Li  Li3  1  0.91682272  0.66547405  0.16792091  1
  Li  Li4  1  0.57666512  0.33854344  0.82969343  1
  Li  Li5  1  0.24973567  0.99252591  0.49841991  1
  Li  Li6  1  0.17037320  0.66797916  0.66679460  1
  Mn  Mn7  1  0.00242907  -0.00248762  0.99632889  1
  Mn  Mn8  1  0.66769422  0.66973029  0.66479991  1
  Co  Co9  1  0.32909287  0.33626787  0.34282779  1
  Co  Co10  1  0.49528666  0.99531190  0.99666959  1
  Co  Co11  1  0.83893658  0.34147018  0.34063735  1
  O  O12  1  0.02057802  0.68609255  0.90831103  1
  O  O13  1  0.70375600  0.35440359  0.58442249  1
  O  O14  1  0.34258052  0.00081873  0.23750634  1
  O  O15  1  0.54743473  0.68892050  0.90302185  1
  O  O16  1  0.20054127  0.32850730  0.56336664  1
  O  O17  1  0.85583905  0.00676552  0.21756883  1
  O  O18  1  0.78508663  0.65622458  0.42845788  1
  O  O19  1  0.46688762  0.30806615  0.09878472  1
  O  O20  1  0.13806240  0.00413985  0.78384536  1
  O  O21  1  0.31854528  0.65887251  0.43068801  1
  O  O22  1  0.96003495  0.31667825  0.08765629  1
  O  O23  1  0.65248659  0.98279818  0.74766955  1
