# generated using pymatgen
data_Cd2Sb6S11
_symmetry_space_group_name_H-M   'P 1'
_cell_length_a   3.88468848
_cell_length_b   9.36275002
_cell_length_c   13.26977811
_cell_angle_alpha   86.62829547
_cell_angle_beta   90.00000000
_cell_angle_gamma   90.00000000
_symmetry_Int_Tables_number   1
_chemical_formula_structural   Cd2Sb6S11
_chemical_formula_sum   'Cd2 Sb6 S11'
_cell_volume   481.80451915
_cell_formula_units_Z   1
loop_
 _symmetry_equiv_pos_site_id
 _symmetry_equiv_pos_as_xyz
  1  'x, y, z'
loop_
 _atom_site_type_symbol
 _atom_site_label
 _atom_site_symmetry_multiplicity
 _atom_site_fract_x
 _atom_site_fract_y
 _atom_site_fract_z
 _atom_site_occupancy
  Cd  Cd0  1  0.50000000  0.25150327  0.72459311  1
  Cd  Cd1  1  0.00000000  0.71896228  0.18911172  1
  Sb  Sb2  1  0.50000000  0.75400375  0.77812618  1
  Sb  Sb3  1  0.00000000  0.26475162  0.29510532  1
  Sb  Sb4  1  -0.00000000  0.44456235  0.00240623  1
  Sb  Sb5  1  0.50000000  0.55502021  0.49291291  1
  Sb  Sb6  1  0.00000000  0.92397452  0.51935993  1
  Sb  Sb7  1  0.50000000  0.05624637  0.02148445  1
  S  S8  1  0.00000000  0.82452029  0.88872893  1
  S  S9  1  0.50000000  0.19432489  0.40925799  1
  S  S10  1  0.00000000  0.34590888  0.62244383  1
  S  S11  1  0.50000000  0.65523204  0.07426038  1
  S  S12  1  0.00000000  0.21911856  0.89470363  1
  S  S13  1  0.50000000  0.81041370  0.40559337  1
  S  S14  1  0.50000000  0.97587139  0.66644581  1
  S  S15  1  0.00000000  0.99949023  0.15562986  1
  S  S16  1  0.00000000  0.67825450  0.60612665  1
  S  S17  1  0.50000000  0.30701733  0.10233424  1
  S  S18  1  0.00000000  0.52782378  0.34357546  1
