# generated using pymatgen
data_Li7Mn2(CoO4)3
_symmetry_space_group_name_H-M   'P 1'
_cell_length_a   5.01415488
_cell_length_b   5.10688536
_cell_length_c   8.87547769
_cell_angle_alpha   89.86915024
_cell_angle_beta   89.99954842
_cell_angle_gamma   108.18700540
_symmetry_Int_Tables_number   1
_chemical_formula_structural   Li7Mn2(CoO4)3
_chemical_formula_sum   'Li7 Mn2 Co3 O12'
_cell_volume   215.91734589
_cell_formula_units_Z   1
loop_
 _symmetry_equiv_pos_site_id
 _symmetry_equiv_pos_as_xyz
  1  'x, y, z'
loop_
 _atom_site_type_symbol
 _atom_site_label
 _atom_site_symmetry_multiplicity
 _atom_site_fract_x
 _atom_site_fract_y
 _atom_site_fract_z
 _atom_site_occupancy
  Li  Li0  1  0.99699606  0.49504236  0.17926814  1
  Li  Li1  1  0.50061233  0.49916487  0.34333891  1
  Li  Li2  1  -0.00070461  0.50206964  0.49580795  1
  Li  Li3  1  0.49131676  0.49390367  0.65805234  1
  Li  Li4  1  0.00221577  0.50044578  0.82761921  1
  Li  Li5  1  0.50534237  0.50244141  0.00067714  1
  Li  Li6  1  0.99598076  0.99752667  0.33514723  1
  Mn  Mn7  1  0.00304303  0.00358100  0.00425710  1
  Mn  Mn8  1  0.50038133  -0.00019297  0.17020799  1
  Co  Co9  1  0.49659853  0.99540926  0.49135597  1
  Co  Co10  1  0.00359039  0.99811118  0.65953337  1
  Co  Co11  1  0.50726294  0.00739574  0.82563289  1
  O  O12  1  0.74833045  0.22346569  0.00706042  1
  O  O13  1  0.25014054  0.22264018  0.15461686  1
  O  O14  1  0.72014709  0.23221970  0.32097699  1
  O  O15  1  0.24830375  0.22735962  0.50630674  1
  O  O16  1  0.74440654  0.23138680  0.67086316  1
  O  O17  1  0.23844233  0.22461789  0.84358911  1
  O  O18  1  0.27794734  0.76578210  0.32189418  1
  O  O19  1  0.73953153  0.76758099  0.50831285  1
  O  O20  1  0.24967398  0.76621060  0.67411914  1
  O  O21  1  0.76771337  0.78008962  0.84346507  1
  O  O22  1  0.25930195  0.78441510  0.00424244  1
  O  O23  1  0.75342546  0.77933311  0.15365478  1
