# generated using pymatgen
data_Li7Mn2(CoO4)3
_symmetry_space_group_name_H-M   'P 1'
_cell_length_a   5.82043049
_cell_length_b   5.91737749
_cell_length_c   7.73660176
_cell_angle_alpha   112.45293330
_cell_angle_beta   101.22216834
_cell_angle_gamma   60.61216948
_symmetry_Int_Tables_number   1
_chemical_formula_structural   Li7Mn2(CoO4)3
_chemical_formula_sum   'Li7 Mn2 Co3 O12'
_cell_volume   214.56404369
_cell_formula_units_Z   1
loop_
 _symmetry_equiv_pos_site_id
 _symmetry_equiv_pos_as_xyz
  1  'x, y, z'
loop_
 _atom_site_type_symbol
 _atom_site_label
 _atom_site_symmetry_multiplicity
 _atom_site_fract_x
 _atom_site_fract_y
 _atom_site_fract_z
 _atom_site_occupancy
  Li  Li0  1  0.49899712  0.50594937  0.00532261  1
  Li  Li1  1  0.00013144  0.49747152  0.00149874  1
  Li  Li2  1  0.16788513  0.82806949  0.32827580  1
  Li  Li3  1  0.66293092  0.84075386  0.32695794  1
  Li  Li4  1  0.83270279  0.16813998  0.66837326  1
  Li  Li5  1  0.33499552  0.16416042  0.67235878  1
  Li  Li6  1  0.49879392  -0.00187663  -0.00004285  1
  Mn  Mn7  1  0.00084822  0.99966718  0.00051196  1
  Mn  Mn8  1  0.82776768  0.67416494  0.66785465  1
  Co  Co9  1  0.66468715  0.32108628  0.32579080  1
  Co  Co10  1  0.17850873  0.32307390  0.32628287  1
  Co  Co11  1  0.33811046  0.67306578  0.67229855  1
  O  O12  1  0.69276006  0.05192126  0.83162821  1
  O  O13  1  0.15893733  0.06812808  0.83991659  1
  O  O14  1  0.33920196  0.41662813  0.18713884  1
  O  O15  1  0.84509094  0.38397090  0.15488836  1
  O  O16  1  0.00804785  0.73418085  0.51281505  1
  O  O17  1  0.51923071  0.74327941  0.51022411  1
  O  O18  1  0.30885739  0.92932541  0.16217778  1
  O  O19  1  0.84165362  0.93073369  0.16382195  1
  O  O20  1  0.98291384  0.28725544  0.49873903  1
  O  O21  1  0.49256546  0.26336959  0.49762379  1
  O  O22  1  0.66165807  0.58909628  0.81150352  1
  O  O23  1  0.14272370  0.60838487  0.83403965  1
