# generated using pymatgen
data_Li9Mn2Co5O16
_symmetry_space_group_name_H-M   'P 1'
_cell_length_a   5.08755857
_cell_length_b   10.56917630
_cell_length_c   5.79143047
_cell_angle_alpha   97.41552703
_cell_angle_beta   105.84216984
_cell_angle_gamma   104.89072563
_symmetry_Int_Tables_number   1
_chemical_formula_structural   Li9Mn2Co5O16
_chemical_formula_sum   'Li9 Mn2 Co5 O16'
_cell_volume   282.79893189
_cell_formula_units_Z   1
loop_
 _symmetry_equiv_pos_site_id
 _symmetry_equiv_pos_as_xyz
  1  'x, y, z'
loop_
 _atom_site_type_symbol
 _atom_site_label
 _atom_site_symmetry_multiplicity
 _atom_site_fract_x
 _atom_site_fract_y
 _atom_site_fract_z
 _atom_site_occupancy
  Li  Li0  1  0.61780167  0.12011410  0.18355259  1
  Li  Li1  1  0.61693647  0.11781450  0.67875028  1
  Li  Li2  1  0.88120654  0.37538376  0.56497696  1
  Li  Li3  1  0.87349809  0.37651610  0.06073672  1
  Li  Li4  1  0.12998240  0.62850461  0.93960748  1
  Li  Li5  1  0.12717374  0.62855829  0.44160358  1
  Li  Li6  1  0.37496413  0.87530234  0.32127921  1
  Li  Li7  1  0.37526840  0.87501348  0.80692385  1
  Li  Li8  1  0.00216691  0.00036252  0.50532697  1
  Mn  Mn9  1  0.00661402  0.00157472  0.99693737  1
  Mn  Mn10  1  0.24614844  0.24522041  0.37616251  1
  Co  Co11  1  0.24717820  0.24695076  0.86983480  1
  Co  Co12  1  0.50176022  0.50283941  0.74760093  1
  Co  Co13  1  0.50017875  0.50087605  0.24456664  1
  Co  Co14  1  0.74846144  0.75990119  0.13466211  1
  Co  Co15  1  0.75625893  0.75787689  0.62246799  1
  O  O16  1  0.29356173  0.07134579  0.85300844  1
  O  O17  1  0.29356315  0.07020362  0.32775073  1
  O  O18  1  0.52593391  0.30825696  0.20303644  1
  O  O19  1  0.52630748  0.30286737  0.70230868  1
  O  O20  1  0.78962267  0.55612320  0.59555883  1
  O  O21  1  0.79171597  0.56452151  0.09505189  1
  O  O22  1  0.05858462  0.82760199  0.97331060  1
  O  O23  1  0.04201993  0.80417964  0.47333830  1
  O  O24  1  0.97051279  0.19545301  0.53810522  1
  O  O25  1  0.96630945  0.18373119  0.03933327  1
  O  O26  1  0.20749815  0.42814945  0.90118070  1
  O  O27  1  0.20214117  0.42686258  0.39784061  1
  O  O28  1  0.44897735  0.68660815  0.28975236  1
  O  O29  1  0.45853114  0.68608549  0.78522305  1
  O  O30  1  0.70914124  0.94196189  0.68215387  1
  O  O31  1  0.70998087  0.93323904  0.14805303  1
