# generated using pymatgen
data_Li9Co7O16
_symmetry_space_group_name_H-M   'P 1'
_cell_length_a   4.99845125
_cell_length_b   5.77841932
_cell_length_c   10.19348075
_cell_angle_alpha   106.92704203
_cell_angle_beta   80.40150110
_cell_angle_gamma   90.47339822
_symmetry_Int_Tables_number   1
_chemical_formula_structural   Li9Co7O16
_chemical_formula_sum   'Li9 Co7 O16'
_cell_volume   277.46786344
_cell_formula_units_Z   1
loop_
 _symmetry_equiv_pos_site_id
 _symmetry_equiv_pos_as_xyz
  1  'x, y, z'
loop_
 _atom_site_type_symbol
 _atom_site_label
 _atom_site_symmetry_multiplicity
 _atom_site_fract_x
 _atom_site_fract_y
 _atom_site_fract_z
 _atom_site_occupancy
  Li  Li0  1  0.25246201  0.12106084  0.24948689  1
  Li  Li1  1  0.25457664  0.62459697  0.75036973  1
  Li  Li2  1  0.74727426  0.37468478  0.25106337  1
  Li  Li3  1  0.74622125  0.87037820  0.74910650  1
  Li  Li4  1  0.25377875  0.62962180  0.25089350  1
  Li  Li5  1  0.25272574  0.12531522  0.74893663  1
  Li  Li6  1  0.74542336  0.87540303  0.24963027  1
  Li  Li7  1  0.74753799  0.37893916  0.75051311  1
  Li  Li8  1  0.50000000  0.75000000  0.00000000  1
  Co  Co9  1  0.00519859  0.99494011  0.00045446  1
  Co  Co10  1  0.99480141  0.50505989  0.99954554  1
  Co  Co11  1  -0.00343238  0.49984049  0.50165636  1
  Co  Co12  1  0.50000000  0.25000000  0.00000000  1
  Co  Co13  1  0.50000000  0.75000000  0.50000000  1
  Co  Co14  1  0.00343238  0.00015951  0.49834364  1
  Co  Co15  1  0.50000000  0.25000000  0.50000000  1
  O  O16  1  0.09924810  0.80834321  0.11086156  1
  O  O17  1  0.12837596  0.31017775  0.62016461  1
  O  O18  1  0.63706688  0.07280469  0.10418952  1
  O  O19  1  0.62407304  0.55064560  0.62486083  1
  O  O20  1  0.13692990  0.30310231  0.10791273  1
  O  O21  1  0.13768057  0.80978882  0.61608880  1
  O  O22  1  0.64413051  0.53647566  0.10762864  1
  O  O23  1  0.62229562  0.04191515  0.61362190  1
  O  O24  1  0.37770438  0.45808485  0.38637810  1
  O  O25  1  0.35586949  0.96352434  0.89237136  1
  O  O26  1  0.86231943  0.69021118  0.38391120  1
  O  O27  1  0.86307010  0.19689769  0.89208727  1
  O  O28  1  0.37592696  0.94935440  0.37513917  1
  O  O29  1  0.36293312  0.42719531  0.89581048  1
  O  O30  1  0.87162404  0.18982225  0.37983539  1
  O  O31  1  0.90075190  0.69165679  0.88913844  1
