# generated using pymatgen
data_Li9Mn2Co5O16
_symmetry_space_group_name_H-M   'P 1'
_cell_length_a   5.78255601
_cell_length_b   5.85966533
_cell_length_c   8.81101580
_cell_angle_alpha   89.09775950
_cell_angle_beta   71.07564755
_cell_angle_gamma   89.44563298
_symmetry_Int_Tables_number   1
_chemical_formula_structural   Li9Mn2Co5O16
_chemical_formula_sum   'Li9 Mn2 Co5 O16'
_cell_volume   282.37536462
_cell_formula_units_Z   1
loop_
 _symmetry_equiv_pos_site_id
 _symmetry_equiv_pos_as_xyz
  1  'x, y, z'
loop_
 _atom_site_type_symbol
 _atom_site_label
 _atom_site_symmetry_multiplicity
 _atom_site_fract_x
 _atom_site_fract_y
 _atom_site_fract_z
 _atom_site_occupancy
  Li  Li0  1  0.62259074  0.25080952  0.24123681  1
  Li  Li1  1  0.37565265  0.74969961  0.76055037  1
  Li  Li2  1  0.24979172  0.00050906  0.49595904  1
  Li  Li3  1  0.00085064  0.49958152  0.00237313  1
  Li  Li4  1  0.86643764  0.74968410  0.75565555  1
  Li  Li5  1  0.49710154  0.49898825  0.99826331  1
  Li  Li6  1  0.13416869  0.24951616  0.24426017  1
  Li  Li7  1  0.75173773  0.00309419  0.50118264  1
  Li  Li8  1  0.49633087  0.00005962  0.00315896  1
  Mn  Mn9  1  0.00226276  0.99800464  0.00123345  1
  Mn  Mn10  1  0.62329363  0.75372898  0.24536783  1
  Co  Co11  1  0.75454507  0.49944815  0.50035322  1
  Co  Co12  1  0.25142868  0.49638296  0.50099675  1
  Co  Co13  1  0.37562717  0.24563907  0.75883324  1
  Co  Co14  1  0.12834166  0.75185880  0.24659046  1
  Co  Co15  1  0.86419443  0.24545688  0.75863241  1
  O  O16  1  0.76790017  0.23520085  0.99554954  1
  O  O17  1  0.51439960  0.74157990  0.48197667  1
  O  O18  1  0.37561504  0.97296067  0.25129626  1
  O  O19  1  0.12705491  0.47767324  0.74261406  1
  O  O20  1  0.01600912  0.73288358  0.48310891  1
  O  O21  1  0.62515592  0.49502540  0.74559246  1
  O  O22  1  0.23511779  0.23430811  0.99659687  1
  O  O23  1  0.87887692  0.97917665  0.23871078  1
  O  O24  1  0.49364081  0.27016394  0.50002873  1
  O  O25  1  0.22922654  0.76466091  0.01561812  1
  O  O26  1  0.11512495  0.99764915  0.77017755  1
  O  O27  1  0.87261744  0.52790192  0.25424086  1
  O  O28  1  0.75495023  0.76436875  0.01601548  1
  O  O29  1  0.37856033  0.52821727  0.24777895  1
  O  O30  1  0.99430736  0.26309249  0.50218028  1
  O  O31  1  0.62708724  0.02267569  0.74386715  1
