# generated using pymatgen
data_Li9Co7O16
_symmetry_space_group_name_H-M   'P 1'
_cell_length_a   5.12384645
_cell_length_b   5.81007374
_cell_length_c   9.69183463
_cell_angle_alpha   89.96391009
_cell_angle_beta   80.25042612
_cell_angle_gamma   89.93466013
_symmetry_Int_Tables_number   1
_chemical_formula_structural   Li9Co7O16
_chemical_formula_sum   'Li9 Co7 O16'
_cell_volume   284.35790667
_cell_formula_units_Z   1
loop_
 _symmetry_equiv_pos_site_id
 _symmetry_equiv_pos_as_xyz
  1  'x, y, z'
loop_
 _atom_site_type_symbol
 _atom_site_label
 _atom_site_symmetry_multiplicity
 _atom_site_fract_x
 _atom_site_fract_y
 _atom_site_fract_z
 _atom_site_occupancy
  Li  Li0  1  0.50062929  0.25269066  0.99980704  1
  Li  Li1  1  0.24179506  0.50225634  0.24639758  1
  Li  Li2  1  0.49937071  0.74730934  0.00019296  1
  Li  Li3  1  0.25271437  0.99870880  0.24610288  1
  Li  Li4  1  0.74728563  0.00129120  0.75389712  1
  Li  Li5  1  0.75820494  0.49774366  0.75360242  1
  Li  Li6  1  0.00124074  0.74596752  0.49995686  1
  Li  Li7  1  0.99875926  0.25403248  0.50004314  1
  Li  Li8  1  0.00000000  0.50000000  0.00000000  1
  Co  Co9  1  0.00000000  0.00000000  0.00000000  1
  Co  Co10  1  0.75679767  0.25499852  0.24305136  1
  Co  Co11  1  0.50000000  0.50000000  0.50000000  1
  Co  Co12  1  0.24320233  0.74500148  0.75694864  1
  Co  Co13  1  0.75596051  0.74631610  0.24330320  1
  Co  Co14  1  0.50000000  0.00000000  0.50000000  1
  Co  Co15  1  0.24403949  0.25368390  0.75669680  1
  O  O16  1  0.34350532  -0.00097690  0.88149627  1
  O  O17  1  0.10395994  0.22804144  0.11971195  1
  O  O18  1  0.37897643  0.49922137  0.85962074  1
  O  O19  1  0.10411386  0.77065417  0.12005302  1
  O  O20  1  0.60726876  0.76089035  0.61303526  1
  O  O21  1  0.60787097  0.23455984  0.61438993  1
  O  O22  1  0.86682011  0.50080142  0.37145517  1
  O  O23  1  0.83419086  0.00144614  0.37583272  1
  O  O24  1  0.62102357  0.50077863  0.14037926  1
  O  O25  1  0.39212903  0.76544016  0.38561007  1
  O  O26  1  0.65649468  0.00097690  0.11850373  1
  O  O27  1  0.39273124  0.23910965  0.38696474  1
  O  O28  1  0.89588614  0.22934583  0.87994698  1
  O  O29  1  0.89604006  0.77195856  0.88028805  1
  O  O30  1  0.16580914  0.99855386  0.62416728  1
  O  O31  1  0.13317989  0.49919858  0.62854483  1
