# generated using pymatgen
data_CCl3
_symmetry_space_group_name_H-M   'P 1'
_cell_length_a   6.99329397
_cell_length_b   6.79619714
_cell_length_c   6.79619714
_cell_angle_alpha   74.66806540
_cell_angle_beta   69.05762161
_cell_angle_gamma   110.94237839
_symmetry_Int_Tables_number   1
_chemical_formula_structural   CCl3
_chemical_formula_sum   'C2 Cl6'
_cell_volume   251.65985956
_cell_formula_units_Z   2
loop_
 _symmetry_equiv_pos_site_id
 _symmetry_equiv_pos_as_xyz
  1  'x, y, z'
loop_
 _atom_site_type_symbol
 _atom_site_label
 _atom_site_symmetry_multiplicity
 _atom_site_fract_x
 _atom_site_fract_y
 _atom_site_fract_z
 _atom_site_occupancy
  C  C0  1  0.12077720  0.08678589  0.91321411  1
  C  C1  1  0.87922280  0.96600869  0.03399131  1
  Cl  Cl2  1  0.28150336  0.29802861  0.96990127  1
  Cl  Cl3  1  0.28150336  0.03009873  0.70197139  1
  Cl  Cl4  1  0.00000000  0.38363603  0.61636397  1
  Cl  Cl5  1  0.71849664  0.74859536  0.98347475  1
  Cl  Cl6  1  0.71849664  0.01652525  0.25140464  1
  Cl  Cl7  1  0.00000000  0.62832144  0.37167856  1
