# generated using pymatgen
data_Li7Mn5O12
_symmetry_space_group_name_H-M   'P 1'
_cell_length_a   2.87528945
_cell_length_b   14.79004965
_cell_length_c   5.35636184
_cell_angle_alpha   97.57728571
_cell_angle_beta   90.00000000
_cell_angle_gamma   84.42184134
_symmetry_Int_Tables_number   1
_chemical_formula_structural   Li7Mn5O12
_chemical_formula_sum   'Li7 Mn5 O12'
_cell_volume   224.70566377
_cell_formula_units_Z   1
loop_
 _symmetry_equiv_pos_site_id
 _symmetry_equiv_pos_as_xyz
  1  'x, y, z'
loop_
 _atom_site_type_symbol
 _atom_site_label
 _atom_site_symmetry_multiplicity
 _atom_site_fract_x
 _atom_site_fract_y
 _atom_site_fract_z
 _atom_site_occupancy
  Li  Li0  1  0.42101224  0.15797652  0.23423975  1
  Li  Li1  1  0.25007596  0.49984808  0.74963796  1
  Li  Li2  1  0.07771098  0.84457705  0.26515917  1
  Li  Li3  1  0.92228902  0.15542295  0.73484083  1
  Li  Li4  1  0.74992404  0.50015192  0.25036204  1
  Li  Li5  1  0.57898776  0.84202348  0.76576025  1
  Li  Li6  1  0.50000000  -0.00000000  0.50000000  1
  Mn  Mn7  1  0.00000000  -0.00000000  -0.00000000  1
  Mn  Mn8  1  0.83442464  0.33114971  0.49607980  1
  Mn  Mn9  1  0.66652770  0.66694560  0.00360837  1
  Mn  Mn10  1  0.33347230  0.33305440  0.99639163  1
  Mn  Mn11  1  0.16557536  0.66885029  0.50392020  1
  O  O12  1  0.46237355  0.07525389  0.88598091  1
  O  O13  1  0.29480346  0.41039308  0.39491506  1
  O  O14  1  0.12894447  0.74211007  0.89399707  1
  O  O15  1  0.96291094  0.07417913  0.32817701  1
  O  O16  1  0.79423978  0.41152045  0.89166938  1
  O  O17  1  0.62748949  0.74502002  0.39357377  1
  O  O18  1  0.37251051  0.25497998  0.60642623  1
  O  O19  1  0.20576022  0.58847955  0.10833062  1
  O  O20  1  0.03708906  0.92582087  0.67182299  1
  O  O21  1  0.87105553  0.25788993  0.10600293  1
  O  O22  1  0.70519654  0.58960692  0.60508494  1
  O  O23  1  0.53762645  0.92474611  0.11401909  1
