# generated using pymatgen
data_Li9Mn2Co5O16
_symmetry_space_group_name_H-M   'P 1'
_cell_length_a   5.11776423
_cell_length_b   10.06409732
_cell_length_c   5.80130056
_cell_angle_alpha   74.52755193
_cell_angle_beta   90.51925530
_cell_angle_gamma   80.09525050
_symmetry_Int_Tables_number   1
_chemical_formula_structural   Li9Mn2Co5O16
_chemical_formula_sum   'Li9 Mn2 Co5 O16'
_cell_volume   283.20330207
_cell_formula_units_Z   1
loop_
 _symmetry_equiv_pos_site_id
 _symmetry_equiv_pos_as_xyz
  1  'x, y, z'
loop_
 _atom_site_type_symbol
 _atom_site_label
 _atom_site_symmetry_multiplicity
 _atom_site_fract_x
 _atom_site_fract_y
 _atom_site_fract_z
 _atom_site_occupancy
  Li  Li0  1  0.49903843  0.99479221  0.73514346  1
  Li  Li1  1  0.24730447  0.24428797  0.37243348  1
  Li  Li2  1  0.50537038  0.99678335  0.26355324  1
  Li  Li3  1  0.24296632  0.24864349  0.88576488  1
  Li  Li4  1  0.75469907  0.75207740  0.12159588  1
  Li  Li5  1  0.75419235  0.75238460  0.62027195  1
  Li  Li6  1  0.00069002  0.50614591  0.49606622  1
  Li  Li7  1  0.00039013  0.50484980  0.99567488  1
  Li  Li8  1  0.00088563  0.00127190  0.49121688  1
  Mn  Mn9  1  0.00268344  0.00301527  0.00061524  1
  Mn  Mn10  1  0.75305260  0.24519519  0.62750856  1
  Co  Co11  1  0.49617516  0.50171520  0.25600046  1
  Co  Co12  1  0.23668814  0.75624065  0.86237153  1
  Co  Co13  1  0.75134365  0.24636078  0.13305003  1
  Co  Co14  1  0.49886033  0.50025698  0.75791944  1
  Co  Co15  1  0.24279554  0.75753775  0.37333463  1
  O  O16  1  0.34796328  0.88628280  0.05312350  1
  O  O17  1  0.09431419  0.12601932  0.69971928  1
  O  O18  1  0.37893407  0.86323283  0.55613990  1
  O  O19  1  0.09613413  0.12562299  0.17465939  1
  O  O20  1  0.61581735  0.61438629  0.43602584  1
  O  O21  1  0.60251311  0.62212535  0.93492474  1
  O  O22  1  0.85354141  0.36220562  0.82791907  1
  O  O23  1  0.86170529  0.35831687  0.32977345  1
  O  O24  1  0.63332726  0.13849350  0.43557318  1
  O  O25  1  0.40545140  0.37394229  0.07543359  1
  O  O26  1  0.65360212  0.12929571  0.93442098  1
  O  O27  1  0.40280230  0.37178623  0.57784379  1
  O  O28  1  0.90235207  0.87642024  0.82070317  1
  O  O29  1  0.88839067  0.88351893  0.28516320  1
  O  O30  1  0.14200288  0.62937896  0.18662890  1
  O  O31  1  0.13401281  0.62741362  0.67943025  1
