# generated using pymatgen
data_Li9Co7O16
_symmetry_space_group_name_H-M   'P 1'
_cell_length_a   5.10461423
_cell_length_b   7.69542405
_cell_length_c   7.69542492
_cell_angle_alpha   97.75814131
_cell_angle_beta   77.00834645
_cell_angle_gamma   77.00834241
_symmetry_Int_Tables_number   1
_chemical_formula_structural   Li9Co7O16
_chemical_formula_sum   'Li9 Co7 O16'
_cell_volume   281.48237689
_cell_formula_units_Z   1
loop_
 _symmetry_equiv_pos_site_id
 _symmetry_equiv_pos_as_xyz
  1  'x, y, z'
loop_
 _atom_site_type_symbol
 _atom_site_label
 _atom_site_symmetry_multiplicity
 _atom_site_fract_x
 _atom_site_fract_y
 _atom_site_fract_z
 _atom_site_occupancy
  Li  Li0  1  0.50000000  0.12844381  0.87155619  1
  Li  Li1  1  0.50899390  0.49623341  0.99623341  1
  Li  Li2  1  0.50000000  0.87551755  0.12448245  1
  Li  Li3  1  0.50000000  0.25000000  0.25000000  1
  Li  Li4  1  0.50000000  0.62448245  0.37551755  1
  Li  Li5  1  0.49100610  0.00376659  0.50376659  1
  Li  Li6  1  0.50000000  0.37155619  0.62844381  1
  Li  Li7  1  0.50000000  0.75000000  0.75000000  1
  Li  Li8  1  -0.00000000  0.25000000  0.75000000  1
  Co  Co9  1  0.00000000  0.00181782  0.99818218  1
  Co  Co10  1  1.00000000  0.49818218  0.50181782  1
  Co  Co11  1  0.00006941  0.37239750  0.11952012  1
  Co  Co12  1  -0.00000000  0.75000000  0.25000000  1
  Co  Co13  1  -0.00006941  0.12760250  0.38047988  1
  Co  Co14  1  -0.00006941  0.88047988  0.62760250  1
  Co  Co15  1  0.00006941  0.61952012  0.87239750  1
  O  O16  1  0.22515691  0.99320319  0.76768211  1
  O  O17  1  0.23534070  0.38999927  0.88999927  1
  O  O18  1  0.22206794  0.76642154  0.00280021  1
  O  O19  1  0.21924923  0.11963189  0.12350266  1
  O  O20  1  0.22206794  0.50280021  0.26642154  1
  O  O21  1  0.23636152  0.87546453  0.37546453  1
  O  O22  1  0.22515691  0.26768211  0.49320319  1
  O  O23  1  0.21924923  0.62350266  0.61963189  1
  O  O24  1  0.77484309  0.23231789  0.00679681  1
  O  O25  1  0.76363848  0.62453547  0.12453547  1
  O  O26  1  0.77793206  0.99719979  0.23357846  1
  O  O27  1  0.78075077  0.38036811  0.37649734  1
  O  O28  1  0.77793206  0.73357846  0.49719979  1
  O  O29  1  0.76465930  0.11000073  0.61000073  1
  O  O30  1  0.77484309  0.50679681  0.73231789  1
  O  O31  1  0.78075077  0.87649734  0.88036811  1
