# generated using pymatgen
data_Li9Mn2Co5O16
_symmetry_space_group_name_H-M   'P 1'
_cell_length_a   4.96991211
_cell_length_b   5.87874821
_cell_length_c   9.74100488
_cell_angle_alpha   81.41759481
_cell_angle_beta   86.40864834
_cell_angle_gamma   90.08212795
_symmetry_Int_Tables_number   1
_chemical_formula_structural   Li9Mn2Co5O16
_chemical_formula_sum   'Li9 Mn2 Co5 O16'
_cell_volume   280.84529392
_cell_formula_units_Z   1
loop_
 _symmetry_equiv_pos_site_id
 _symmetry_equiv_pos_as_xyz
  1  'x, y, z'
loop_
 _atom_site_type_symbol
 _atom_site_label
 _atom_site_symmetry_multiplicity
 _atom_site_fract_x
 _atom_site_fract_y
 _atom_site_fract_z
 _atom_site_occupancy
  Li  Li0  1  0.61477262  0.94102296  0.24726736  1
  Li  Li1  1  0.38522738  0.55897704  0.75273264  1
  Li  Li2  1  0.13777232  0.18948192  0.24622414  1
  Li  Li3  1  0.13518366  0.68998956  0.24734672  1
  Li  Li4  1  0.86222768  0.31051808  0.75377586  1
  Li  Li5  1  0.61546192  0.43663491  0.24627439  1
  Li  Li6  1  0.38453808  0.06336509  0.75372561  1
  Li  Li7  1  0.86481634  0.81001044  0.75265328  1
  Li  Li8  1  0.50000000  0.25000000  0.00000000  1
  Mn  Mn9  1  -0.00021645  0.00308736  0.00006273  1
  Mn  Mn10  1  0.00021645  0.49691264  0.99993727  1
  Co  Co11  1  0.75078379  0.62512796  0.49956092  1
  Co  Co12  1  0.24921621  0.87487204  0.50043908  1
  Co  Co13  1  0.75098339  0.12494569  0.49948925  1
  Co  Co14  1  0.50000000  0.75000000  0.00000000  1
  Co  Co15  1  0.24901661  0.37505431  0.50051075  1
  O  O16  1  0.84391735  0.22279713  0.11098236  1
  O  O17  1  0.55341388  0.84512731  0.61711632  1
  O  O18  1  0.30694209  0.48875674  0.11006176  1
  O  O19  1  0.30703978  0.95740702  0.11015755  1
  O  O20  1  0.05480782  0.59500553  0.61702844  1
  O  O21  1  0.81703407  0.72369879  0.10713409  1
  O  O22  1  0.55367116  0.34410640  0.61849342  1
  O  O23  1  0.05462953  0.09466057  0.61684225  1
  O  O24  1  0.44658612  0.65487269  0.38288368  1
  O  O25  1  0.15608265  0.27720287  0.88901764  1
  O  O26  1  0.94519218  0.90499447  0.38297156  1
  O  O27  1  0.94537047  0.40533943  0.38315775  1
  O  O28  1  0.69305791  0.01124326  0.88993824  1
  O  O29  1  0.44632884  0.15589360  0.38150658  1
  O  O30  1  0.18296593  0.77630121  0.89286591  1
  O  O31  1  0.69296022  0.54259298  0.88984245  1
