# generated using pymatgen
data_Li9Co7O16
_symmetry_space_group_name_H-M   'P 1'
_cell_length_a   5.10273982
_cell_length_b   7.75849858
_cell_length_c   7.64513761
_cell_angle_alpha   97.54923402
_cell_angle_beta   102.91200339
_cell_angle_gamma   102.57589457
_symmetry_Int_Tables_number   1
_chemical_formula_structural   Li9Co7O16
_chemical_formula_sum   'Li9 Co7 O16'
_cell_volume   282.73405977
_cell_formula_units_Z   1
loop_
 _symmetry_equiv_pos_site_id
 _symmetry_equiv_pos_as_xyz
  1  'x, y, z'
loop_
 _atom_site_type_symbol
 _atom_site_label
 _atom_site_symmetry_multiplicity
 _atom_site_fract_x
 _atom_site_fract_y
 _atom_site_fract_z
 _atom_site_occupancy
  Li  Li0  1  0.49210483  0.12219948  0.87133719  1
  Li  Li1  1  0.50255274  0.49797197  0.99772661  1
  Li  Li2  1  0.50000000  0.37500000  0.62500000  1
  Li  Li3  1  0.50262565  0.75085285  0.74359150  1
  Li  Li4  1  0.50789517  0.62780052  0.37866281  1
  Li  Li5  1  0.49737435  -0.00085285  0.50640850  1
  Li  Li6  1  0.50000000  0.87500000  0.12500000  1
  Li  Li7  1  0.49744726  0.25202803  0.25227339  1
  Li  Li8  1  0.00000000  0.87500000  0.62500000  1
  Co  Co9  1  0.00255012  0.99807198  0.99836698  1
  Co  Co10  1  -0.00255012  0.75192802  0.25163302  1
  Co  Co11  1  0.00000000  0.37500000  0.12500000  1
  Co  Co12  1  0.00266294  0.12030591  0.38185418  1
  Co  Co13  1  0.99930252  0.50405889  0.50072302  1
  Co  Co14  1  0.00069748  0.24594111  0.74927698  1
  Co  Co15  1  0.99733706  0.62969409  0.86814582  1
  O  O16  1  0.22304752  0.88171746  0.88843614  1
  O  O17  1  0.23136717  0.23353171  0.00065164  1
  O  O18  1  0.23422194  0.12821183  0.61558784  1
  O  O19  1  0.23614401  0.49678524  0.75325087  1
  O  O20  1  0.22749030  0.37480072  0.36635530  1
  O  O21  1  0.22392720  0.74046766  0.47857797  1
  O  O22  1  0.21454462  0.63018206  0.12404054  1
  O  O23  1  0.21878328  0.98556787  0.23782815  1
  O  O24  1  0.77250970  0.37519828  0.88364370  1
  O  O25  1  0.78121672  0.76443213  0.01217185  1
  O  O26  1  0.76577806  0.62178817  0.63441216  1
  O  O27  1  0.77607280  0.00953234  0.77142103  1
  O  O28  1  0.77695248  0.86828254  0.36156486  1
  O  O29  1  0.76385599  0.25321476  0.49675013  1
  O  O30  1  0.78545538  0.11981794  0.12596046  1
  O  O31  1  0.76863283  0.51646829  0.24934936  1
