# generated using pymatgen
data_Li9Co7O16
_symmetry_space_group_name_H-M   'P 1'
_cell_length_a   2.88046077
_cell_length_b   9.69095248
_cell_length_c   9.98940279
_cell_angle_alpha   85.59855714
_cell_angle_beta   89.99999956
_cell_angle_gamma   81.45327472
_symmetry_Int_Tables_number   1
_chemical_formula_structural   Li9Co7O16
_chemical_formula_sum   'Li9 Co7 O16'
_cell_volume   274.92002155
_cell_formula_units_Z   1
loop_
 _symmetry_equiv_pos_site_id
 _symmetry_equiv_pos_as_xyz
  1  'x, y, z'
loop_
 _atom_site_type_symbol
 _atom_site_label
 _atom_site_symmetry_multiplicity
 _atom_site_fract_x
 _atom_site_fract_y
 _atom_site_fract_z
 _atom_site_occupancy
  Li  Li0  1  0.37811181  0.24377638  0.06502632  1
  Li  Li1  1  0.11969356  0.76061289  0.19480684  1
  Li  Li2  1  0.88030644  0.23938711  0.30519316  1
  Li  Li3  1  0.62188819  0.75622362  0.43497368  1
  Li  Li4  1  0.37544149  0.24911702  0.56324191  1
  Li  Li5  1  0.12402516  0.75194967  0.68546534  1
  Li  Li6  1  0.87597484  0.24805033  0.81453466  1
  Li  Li7  1  0.62455851  0.75088298  0.93675809  1
  Li  Li8  1  0.50000000  0.00000000  0.25000000  1
  Co  Co9  1  0.00039604  0.99920791  0.00377185  1
  Co  Co10  1  0.99960396  0.00079209  0.49622815  1
  Co  Co11  1  0.75148603  0.49702794  0.12493978  1
  Co  Co12  1  0.24851397  0.50297206  0.37506022  1
  Co  Co13  1  0.74858832  0.50282335  0.62620171  1
  Co  Co14  1  0.50000000  0.00000000  0.75000000  1
  Co  Co15  1  0.25141168  0.49717665  0.87379829  1
  O  O16  1  0.44868367  0.10263266  0.90816298  1
  O  O17  1  0.19412619  0.61174762  0.02282242  1
  O  O18  1  0.94362992  0.11274016  0.13782531  1
  O  O19  1  0.68884534  0.62230931  0.28003775  1
  O  O20  1  0.44470310  0.11059380  0.42125812  1
  O  O21  1  0.19125148  0.61749704  0.53749563  1
  O  O22  1  0.94732648  0.10534704  0.66011141  1
  O  O23  1  0.69316431  0.61367139  0.77723690  1
  O  O24  1  0.31115466  0.37769069  0.21996225  1
  O  O25  1  0.05637008  0.88725984  0.36217469  1
  O  O26  1  0.80587381  0.38825238  0.47717758  1
  O  O27  1  0.55131633  0.89736734  0.59183702  1
  O  O28  1  0.30683569  0.38632861  0.72276310  1
  O  O29  1  0.05267352  0.89465296  0.83988859  1
  O  O30  1  0.80874852  0.38250296  0.96250437  1
  O  O31  1  0.55529690  0.88940620  0.07874188  1
