# generated using pymatgen
data_Li9Mn2Co5O16
_symmetry_space_group_name_H-M   'P 1'
_cell_length_a   5.79805203
_cell_length_b   6.55905321
_cell_length_c   8.84180160
_cell_angle_alpha   80.93045924
_cell_angle_beta   70.95285473
_cell_angle_gamma   63.45447049
_symmetry_Int_Tables_number   1
_chemical_formula_structural   Li9Mn2Co5O16
_chemical_formula_sum   'Li9 Mn2 Co5 O16'
_cell_volume   284.30705637
_cell_formula_units_Z   1
loop_
 _symmetry_equiv_pos_site_id
 _symmetry_equiv_pos_as_xyz
  1  'x, y, z'
loop_
 _atom_site_type_symbol
 _atom_site_label
 _atom_site_symmetry_multiplicity
 _atom_site_fract_x
 _atom_site_fract_y
 _atom_site_fract_z
 _atom_site_occupancy
  Li  Li0  1  0.49828874  0.25080014  0.24421071  1
  Li  Li1  1  0.99004040  0.74488633  0.75716788  1
  Li  Li2  1  0.25317499  0.99681060  0.49866283  1
  Li  Li3  1  0.75114147  0.50420513  0.99886812  1
  Li  Li4  1  0.24835462  0.49678367  0.00040835  1
  Li  Li5  1  0.74857687  0.99940100  0.50397466  1
  Li  Li6  1  0.00958034  0.25144391  0.23895637  1
  Li  Li7  1  0.50405794  0.75500997  0.75787485  1
  Li  Li8  1  0.49982121  0.99978282  0.99695837  1
  Mn  Mn9  1  0.00335172  0.00169655  0.99869223  1
  Mn  Mn10  1  0.74276026  0.24656451  0.75427748  1
  Co  Co11  1  0.49763529  0.50007796  0.49820972  1
  Co  Co12  1  0.74702032  0.75467230  0.24027910  1
  Co  Co13  1  0.25006239  0.24759843  0.75336320  1
  Co  Co14  1  0.25823161  0.75456794  0.24255314  1
  Co  Co15  1  0.99678060  0.50387833  0.50005677  1
  O  O16  1  0.65174054  0.23697265  0.98372796  1
  O  O17  1  0.13847453  0.73671781  0.49708856  1
  O  O18  1  0.38419795  0.97953009  0.25556195  1
  O  O19  1  0.88624666  0.47448381  0.74729823  1
  O  O20  1  0.38906039  0.47023979  0.74998099  1
  O  O21  1  0.88548012  0.00056551  0.22946457  1
  O  O22  1  0.12693551  0.23487106  0.98465715  1
  O  O23  1  0.63998528  0.73083839  0.49930125  1
  O  O24  1  0.35310324  0.26631128  0.51753266  1
  O  O25  1  0.88282202  0.76479521  0.00358468  1
  O  O26  1  0.10786651  0.02073643  0.76201539  1
  O  O27  1  0.61988395  0.50744526  0.25631860  1
  O  O28  1  0.11291285  0.51823242  0.25686888  1
  O  O29  1  0.61370813  0.02716597  0.74853882  1
  O  O30  1  0.85895904  0.25867942  0.51885138  1
  O  O31  1  0.34974450  0.76423533  0.00469516  1
