# generated using pymatgen
data_Li9Mn2Co5O16
_symmetry_space_group_name_H-M   'P 1'
_cell_length_a   5.13808052
_cell_length_b   5.81753312
_cell_length_c   10.08852275
_cell_angle_alpha   90.70064147
_cell_angle_beta   80.34575982
_cell_angle_gamma   107.36631267
_symmetry_Int_Tables_number   1
_chemical_formula_structural   Li9Mn2Co5O16
_chemical_formula_sum   'Li9 Mn2 Co5 O16'
_cell_volume   283.50401916
_cell_formula_units_Z   1
loop_
 _symmetry_equiv_pos_site_id
 _symmetry_equiv_pos_as_xyz
  1  'x, y, z'
loop_
 _atom_site_type_symbol
 _atom_site_label
 _atom_site_symmetry_multiplicity
 _atom_site_fract_x
 _atom_site_fract_y
 _atom_site_fract_z
 _atom_site_occupancy
  Li  Li0  1  0.50174344  0.12964230  0.12789533  1
  Li  Li1  1  0.50039010  0.87153515  0.37672132  1
  Li  Li2  1  0.49847975  0.63139937  0.62540948  1
  Li  Li3  1  0.50250655  0.38621847  0.87039792  1
  Li  Li4  1  0.50297277  0.62197473  0.12542682  1
  Li  Li5  1  0.49849183  0.37690548  0.37834142  1
  Li  Li6  1  0.49921599  0.11948326  0.62572279  1
  Li  Li7  1  0.49383001  0.86204331  0.86780219  1
  Li  Li8  1  -0.00000529  0.74487849  0.75079441  1
  Mn  Mn9  1  0.99825548  0.99626506  0.99586243  1
  Mn  Mn10  1  0.00374818  0.25454539  0.75101507  1
  Co  Co11  1  0.99833155  0.74981250  0.25107092  1
  Co  Co12  1  0.00149778  0.50715912  0.50771312  1
  Co  Co13  1  0.00022477  0.50380164  0.99708468  1
  Co  Co14  1  0.99846818  0.25499831  0.25309943  1
  Co  Co15  1  0.99533649  0.98993368  0.50752373  1
  O  O16  1  0.21445590  0.30616953  0.06053668  1
  O  O17  1  0.22691671  0.05149985  0.31440619  1
  O  O18  1  0.23889558  0.80202212  0.55497950  1
  O  O19  1  0.22473782  0.54343988  0.81931092  1
  O  O20  1  0.22119414  0.81263935  0.05373064  1
  O  O21  1  0.23587535  0.55848060  0.30936377  1
  O  O22  1  0.23290085  0.30584617  0.57628987  1
  O  O23  1  0.22001133  0.06867691  0.82091480  1
  O  O24  1  0.77249977  0.94941611  0.17712399  1
  O  O25  1  0.76383848  0.68556066  0.43633287  1
  O  O26  1  0.77168581  0.42071726  0.69066945  1
  O  O27  1  0.78193140  0.19328732  0.93465141  1
  O  O28  1  0.77730071  0.45257620  0.17830537  1
  O  O29  1  0.77603898  0.19879615  0.43326303  1
  O  O30  1  0.77295524  0.95588972  0.68303626  1
  O  O31  1  0.77527434  0.69438590  0.94520417  1
