# generated using pymatgen
data_Li9Mn2Co5O16
_symmetry_space_group_name_H-M   'P 1'
_cell_length_a   5.07178163
_cell_length_b   5.12657473
_cell_length_c   11.58060904
_cell_angle_alpha   89.42458763
_cell_angle_beta   89.24959776
_cell_angle_gamma   109.46062217
_symmetry_Int_Tables_number   1
_chemical_formula_structural   Li9Mn2Co5O16
_chemical_formula_sum   'Li9 Mn2 Co5 O16'
_cell_volume   283.84641789
_cell_formula_units_Z   1
loop_
 _symmetry_equiv_pos_site_id
 _symmetry_equiv_pos_as_xyz
  1  'x, y, z'
loop_
 _atom_site_type_symbol
 _atom_site_label
 _atom_site_symmetry_multiplicity
 _atom_site_fract_x
 _atom_site_fract_y
 _atom_site_fract_z
 _atom_site_occupancy
  Li  Li0  1  0.99264388  0.49338943  0.12152937  1
  Li  Li1  1  0.50150965  0.50284945  0.24278906  1
  Li  Li2  1  0.99840383  0.49851155  0.37063701  1
  Li  Li3  1  0.49783000  0.49978784  0.50101540  1
  Li  Li4  1  -0.00014784  0.50056691  0.62755978  1
  Li  Li5  1  0.49991424  0.49908877  0.75128851  1
  Li  Li6  1  0.00572475  0.50289484  0.87710742  1
  Li  Li7  1  0.50303865  0.49807640  0.00511401  1
  Li  Li8  1  0.50023874  -0.00013078  0.12594655  1
  Mn  Mn9  1  0.00266656  0.00585872  0.00603394  1
  Mn  Mn10  1  0.49638912  0.99612161  0.36741659  1
  Co  Co11  1  -0.00004053  0.00020032  0.24862584  1
  Co  Co12  1  0.99610888  0.99410455  0.49950078  1
  Co  Co13  1  0.49578560  0.99586844  0.62779673  1
  Co  Co14  1  0.00088597  0.00489599  0.75096835  1
  Co  Co15  1  0.50228036  0.00335007  0.88298655  1
  O  O16  1  0.76620534  0.23019184  0.99710548  1
  O  O17  1  0.22210609  0.22892170  0.12480406  1
  O  O18  1  0.75064840  0.22260839  0.25741305  1
  O  O19  1  0.24258744  0.21433149  0.37030646  1
  O  O20  1  0.72808236  0.21916667  0.49762737  1
  O  O21  1  0.23646683  0.23270658  0.62552519  1
  O  O22  1  0.73991750  0.22907417  0.75085443  1
  O  O23  1  0.24221660  0.23503694  0.88036150  1
  O  O24  1  0.24847894  0.77851668  0.25711618  1
  O  O25  1  0.74277960  0.77661211  0.37042893  1
  O  O26  1  0.25727799  0.77202840  0.49421784  1
  O  O27  1  0.76150596  0.76551444  0.62393567  1
  O  O28  1  0.26223350  0.76925065  0.74526981  1
  O  O29  1  0.77265449  0.77697215  0.87946066  1
  O  O30  1  0.24920315  0.77851477  0.99291778  1
  O  O31  1  0.78440395  0.77511888  0.12633670  1
