# generated using pymatgen
data_BaBeSi
_symmetry_space_group_name_H-M   'P 1'
_cell_length_a   4.12722590
_cell_length_b   4.12727358
_cell_length_c   4.92962298
_cell_angle_alpha   90.00000000
_cell_angle_beta   90.00000000
_cell_angle_gamma   59.99717323
_symmetry_Int_Tables_number   1
_chemical_formula_structural   BaBeSi
_chemical_formula_sum   'Ba1 Be1 Si1'
_cell_volume   72.71993195
_cell_formula_units_Z   1
loop_
 _symmetry_equiv_pos_site_id
 _symmetry_equiv_pos_as_xyz
  1  'x, y, z'
loop_
 _atom_site_type_symbol
 _atom_site_label
 _atom_site_symmetry_multiplicity
 _atom_site_fract_x
 _atom_site_fract_y
 _atom_site_fract_z
 _atom_site_occupancy
  Ba  Ba0  1  0.99999377  0.00000377  -0.00000000  1
  Be  Be1  1  0.66661975  0.66667244  0.50000000  1
  Si  Si2  1  0.33328648  0.33332378  0.50000000  1
