# generated using pymatgen
data_Li9Mn2Co5O16
_symmetry_space_group_name_H-M   'P 1'
_cell_length_a   5.10716850
_cell_length_b   10.08279475
_cell_length_c   5.82253235
_cell_angle_alpha   89.35472049
_cell_angle_beta   105.98714646
_cell_angle_gamma   80.72712432
_symmetry_Int_Tables_number   1
_chemical_formula_structural   Li9Mn2Co5O16
_chemical_formula_sum   'Li9 Mn2 Co5 O16'
_cell_volume   283.97603501
_cell_formula_units_Z   1
loop_
 _symmetry_equiv_pos_site_id
 _symmetry_equiv_pos_as_xyz
  1  'x, y, z'
loop_
 _atom_site_type_symbol
 _atom_site_label
 _atom_site_symmetry_multiplicity
 _atom_site_fract_x
 _atom_site_fract_y
 _atom_site_fract_z
 _atom_site_occupancy
  Li  Li0  1  0.50510804  0.12518032  0.12500047  1
  Li  Li1  1  0.49887875  0.12800933  0.62478305  1
  Li  Li2  1  0.49804469  0.37738607  0.37602032  1
  Li  Li3  1  0.50062460  0.37728132  0.87431770  1
  Li  Li4  1  0.50063671  0.62545298  0.62052612  1
  Li  Li5  1  0.49854154  0.62553103  0.13351379  1
  Li  Li6  1  0.49732553  0.87108052  0.87666453  1
  Li  Li7  1  0.49898877  0.86800152  0.36791354  1
  Li  Li8  1  0.00046707  0.75086273  0.25530100  1
  Mn  Mn9  1  0.99862555  0.99614719  0.00367128  1
  Mn  Mn10  1  0.00337708  0.75099701  0.74647393  1
  Co  Co11  1  0.99920669  0.99736101  0.49643840  1
  Co  Co12  1  0.99790920  0.25097640  0.24986811  1
  Co  Co13  1  0.99906274  0.25332906  0.74465416  1
  Co  Co14  1  0.00333973  0.50727793  0.49238559  1
  Co  Co15  1  0.99382397  0.50763154  0.00726325  1
  O  O16  1  0.21318760  0.06161019  0.80146971  1
  O  O17  1  0.22206310  0.05327136  0.30066065  1
  O  O18  1  0.22573127  0.31401071  0.06306691  1
  O  O19  1  0.23724649  0.31015888  0.55919612  1
  O  O20  1  0.23843485  0.55585705  0.31948951  1
  O  O21  1  0.23251751  0.57623815  0.81034719  1
  O  O22  1  0.22148184  0.82075627  0.57037969  1
  O  O23  1  0.22260732  0.82031032  0.04223285  1
  O  O24  1  0.77743394  0.17865884  0.43414714  1
  O  O25  1  0.77270222  0.17643574  0.93765387  1
  O  O26  1  0.77821344  0.43185675  0.69020265  1
  O  O27  1  0.76203237  0.43622505  0.19430248  1
  O  O28  1  0.77693282  0.68214098  0.93065995  1
  O  O29  1  0.76784312  0.69038283  0.46234268  1
  O  O30  1  0.77597968  0.94486082  0.19151399  1
  O  O31  1  0.78163175  0.93472008  0.69753937  1
