# generated using pymatgen
data_Li9Mn2Co5O16
_symmetry_space_group_name_H-M   'P 1'
_cell_length_a   5.79225240
_cell_length_b   6.59754278
_cell_length_c   7.73569438
_cell_angle_alpha   89.50349537
_cell_angle_beta   101.35141187
_cell_angle_gamma   102.58594387
_symmetry_Int_Tables_number   1
_chemical_formula_structural   Li9Mn2Co5O16
_chemical_formula_sum   'Li9 Mn2 Co5 O16'
_cell_volume   282.68837795
_cell_formula_units_Z   1
loop_
 _symmetry_equiv_pos_site_id
 _symmetry_equiv_pos_as_xyz
  1  'x, y, z'
loop_
 _atom_site_type_symbol
 _atom_site_label
 _atom_site_symmetry_multiplicity
 _atom_site_fract_x
 _atom_site_fract_y
 _atom_site_fract_z
 _atom_site_occupancy
  Li  Li0  1  0.37225652  0.37608138  0.12667571  1
  Li  Li1  1  0.61345119  0.11542035  0.37653682  1
  Li  Li2  1  0.62246563  0.63210405  0.87404232  1
  Li  Li3  1  0.88031257  0.38154349  0.12663767  1
  Li  Li4  1  0.87303127  0.87309508  0.61952501  1
  Li  Li5  1  0.13332517  0.62803127  0.88056484  1
  Li  Li6  1  0.13293664  0.12008349  0.38113083  1
  Li  Li7  1  0.37216179  0.87100221  0.61539781  1
  Li  Li8  1  0.25299875  0.75546628  0.24985387  1
  Mn  Mn9  1  0.00561281  0.99594383  0.00418187  1
  Mn  Mn10  1  0.74712486  0.75193177  0.24826295  1
  Co  Co11  1  0.49530839  0.50854878  0.49403594  1
  Co  Co12  1  0.74384829  0.24655372  0.74578750  1
  Co  Co13  1  0.49812122  0.99602151  0.00192611  1
  Co  Co14  1  0.00708439  0.51009985  0.49596497  1
  Co  Co15  1  0.24967810  0.25196647  0.74962057  1
  O  O16  1  0.30640742  0.05866080  0.16605377  1
  O  O17  1  0.57371333  0.80442530  0.42719027  1
  O  O18  1  0.54890053  0.28496768  0.92890269  1
  O  O19  1  0.80577230  0.04438352  0.17406146  1
  O  O20  1  0.80630501  0.54707178  0.67391426  1
  O  O21  1  0.04987464  0.28983169  0.93556251  1
  O  O22  1  0.04263492  0.80405338  0.42827164  1
  O  O23  1  0.31224687  0.55289381  0.68617591  1
  O  O24  1  0.45686567  0.70897700  0.06970558  1
  O  O25  1  0.69269522  0.46449001  0.30595184  1
  O  O26  1  0.69606189  0.94750655  0.83142496  1
  O  O27  1  0.93214731  0.71083802  0.06835281  1
  O  O28  1  0.94885851  0.19609269  0.57710961  1
  O  O29  1  0.19139932  0.94252269  0.83431623  1
  O  O30  1  0.19060903  0.43615540  0.33144705  1
  O  O31  1  0.44579045  0.19323617  0.57141460  1
