# generated using pymatgen
data_Li9Mn2Co5O16
_symmetry_space_group_name_H-M   'P 1'
_cell_length_a   4.97284119
_cell_length_b   5.88044098
_cell_length_c   9.77857025
_cell_angle_alpha   81.39151765
_cell_angle_beta   86.19227293
_cell_angle_gamma   89.97334132
_symmetry_Int_Tables_number   1
_chemical_formula_structural   Li9Mn2Co5O16
_chemical_formula_sum   'Li9 Mn2 Co5 O16'
_cell_volume   282.09126016
_cell_formula_units_Z   1
loop_
 _symmetry_equiv_pos_site_id
 _symmetry_equiv_pos_as_xyz
  1  'x, y, z'
loop_
 _atom_site_type_symbol
 _atom_site_label
 _atom_site_symmetry_multiplicity
 _atom_site_fract_x
 _atom_site_fract_y
 _atom_site_fract_z
 _atom_site_occupancy
  Li  Li0  1  0.63241461  0.93560789  0.24720521  1
  Li  Li1  1  0.36526144  0.56451627  0.75495996  1
  Li  Li2  1  0.12188730  0.19534431  0.24870090  1
  Li  Li3  1  0.12360059  0.68145123  0.24563144  1
  Li  Li4  1  0.87801442  0.31805913  0.75204861  1
  Li  Li5  1  0.63342838  0.44051834  0.24597380  1
  Li  Li6  1  0.36962152  0.05786796  0.75247403  1
  Li  Li7  1  0.87725335  0.80675818  0.75276932  1
  Li  Li8  1  0.99903763  0.50412866  0.00016251  1
  Mn  Mn9  1  0.99982032  0.99429598  0.00006746  1
  Mn  Mn10  1  0.49992241  0.25973142  0.00000259  1
  Co  Co11  1  0.74963908  0.62517988  0.49982603  1
  Co  Co12  1  0.25023608  0.87514077  0.49960284  1
  Co  Co13  1  0.74973653  0.12480815  0.49984178  1
  Co  Co14  1  0.49954236  0.74756620  0.00006402  1
  Co  Co15  1  0.25107356  0.37449814  0.50054870  1
  O  O16  1  0.80890907  0.20565342  0.11017916  1
  O  O17  1  0.55218286  0.84568842  0.61661598  1
  O  O18  1  0.34363467  0.47048970  0.11030409  1
  O  O19  1  0.31519955  0.97315112  0.10793657  1
  O  O20  1  0.05086706  0.59519786  0.61814859  1
  O  O21  1  0.81147253  0.73829253  0.11044663  1
  O  O22  1  0.55243783  0.34576949  0.61652320  1
  O  O23  1  0.05072166  0.09626106  0.61661240  1
  O  O24  1  0.44828218  0.65385112  0.38349125  1
  O  O25  1  0.19160277  0.26050964  0.88993959  1
  O  O26  1  0.94941374  0.90386435  0.38328641  1
  O  O27  1  0.94944461  0.40481808  0.38182966  1
  O  O28  1  0.68393353  0.02749558  0.89227742  1
  O  O29  1  0.44786582  0.15401961  0.38317612  1
  O  O30  1  0.18749424  0.79365397  0.88944053  1
  O  O31  1  0.65604831  0.52581153  0.88991320  1
