# generated using pymatgen
data_Li9Mn2Co5O16
_symmetry_space_group_name_H-M   'P 1'
_cell_length_a   4.99664045
_cell_length_b   9.82175770
_cell_length_c   5.86549324
_cell_angle_alpha   89.84279699
_cell_angle_beta   89.92806257
_cell_angle_gamma   100.54082566
_symmetry_Int_Tables_number   1
_chemical_formula_structural   Li9Mn2Co5O16
_chemical_formula_sum   'Li9 Mn2 Co5 O16'
_cell_volume   282.99462081
_cell_formula_units_Z   1
loop_
 _symmetry_equiv_pos_site_id
 _symmetry_equiv_pos_as_xyz
  1  'x, y, z'
loop_
 _atom_site_type_symbol
 _atom_site_label
 _atom_site_symmetry_multiplicity
 _atom_site_fract_x
 _atom_site_fract_y
 _atom_site_fract_z
 _atom_site_occupancy
  Li  Li0  1  0.75568971  0.24723669  0.00261749  1
  Li  Li1  1  0.75448929  0.75269553  0.25519978  1
  Li  Li2  1  0.75521104  0.24601651  0.49782643  1
  Li  Li3  1  0.24584136  0.24560585  0.25763511  1
  Li  Li4  1  0.24356570  0.75495600  0.49706217  1
  Li  Li5  1  0.24531123  0.24854400  0.74182621  1
  Li  Li6  1  0.75447585  0.75236409  0.74368849  1
  Li  Li7  1  0.24697509  0.75239649  0.00407931  1
  Li  Li8  1  -0.00096786  0.00033177  0.49619477  1
  Mn  Mn9  1  -0.00011831  0.00035816  0.00658085  1
  Mn  Mn10  1  0.50010797  -0.00035170  0.73922186  1
  Co  Co11  1  -0.00140922  0.49990441  0.25031622  1
  Co  Co12  1  0.00200411  0.50060680  0.74968498  1
  Co  Co13  1  0.50122773  0.50014945  0.49991099  1
  Co  Co14  1  0.49874743  0.49933695  0.00050223  1
  Co  Co15  1  0.49986876  0.00008166  0.25222884  1
  O  O16  1  0.86238221  0.11046299  0.76619570  1
  O  O17  1  0.86040664  0.61529663  0.00218429  1
  O  O18  1  0.86564958  0.11058749  0.23461959  1
  O  O19  1  0.36736459  0.10840485  0.99938019  1
  O  O20  1  0.36471658  0.61497751  0.25352954  1
  O  O21  1  0.39850950  0.11088960  0.50112869  1
  O  O22  1  0.86632163  0.61863640  0.50030181  1
  O  O23  1  0.36102310  0.61628359  0.75076379  1
  O  O24  1  0.63631632  0.38335206  0.24979935  1
  O  O25  1  0.60163051  0.88892706  0.50165410  1
  O  O26  1  0.63876825  0.38550215  0.74653958  1
  O  O27  1  0.13394732  0.38257436  0.49836361  1
  O  O28  1  0.13780649  0.88952782  0.76647234  1
  O  O29  1  0.13980772  0.38340579  0.99945209  1
  O  O30  1  0.63100192  0.89192848  0.00053446  1
  O  O31  1  0.13332776  0.88901054  0.23450514  1
