# generated using pymatgen
data_Li9Mn2Co5O16
_symmetry_space_group_name_H-M   'P 1'
_cell_length_a   5.79700229
_cell_length_b   6.57915908
_cell_length_c   7.71111712
_cell_angle_alpha   93.71882211
_cell_angle_beta   99.51621189
_cell_angle_gamma   77.26850421
_symmetry_Int_Tables_number   1
_chemical_formula_structural   Li9Mn2Co5O16
_chemical_formula_sum   'Li9 Mn2 Co5 O16'
_cell_volume   282.79542554
_cell_formula_units_Z   1
loop_
 _symmetry_equiv_pos_site_id
 _symmetry_equiv_pos_as_xyz
  1  'x, y, z'
loop_
 _atom_site_type_symbol
 _atom_site_label
 _atom_site_symmetry_multiplicity
 _atom_site_fract_x
 _atom_site_fract_y
 _atom_site_fract_z
 _atom_site_occupancy
  Li  Li0  1  0.05791982  0.12109682  0.37553983  1
  Li  Li1  1  0.32126657  0.62689311  0.87009913  1
  Li  Li2  1  0.44523820  0.88065078  0.63492174  1
  Li  Li3  1  0.68318293  0.37426526  0.12343992  1
  Li  Li4  1  0.80295899  0.63193287  0.87788259  1
  Li  Li5  1  0.19365572  0.36623531  0.12012563  1
  Li  Li6  1  0.56585723  0.12260907  0.37079881  1
  Li  Li7  1  0.94349323  0.88007487  0.62829042  1
  Li  Li8  1  0.50624638  0.99913562  0.00198232  1
  Mn  Mn9  1  0.99588937  0.00019938  0.00229240  1
  Mn  Mn10  1  0.37254982  0.75398579  0.24567491  1
  Co  Co11  1  0.24307376  0.49821092  0.49984806  1
  Co  Co12  1  0.74648889  0.49799435  0.50359294  1
  Co  Co13  1  0.62438637  0.24222353  0.75646198  1
  Co  Co14  1  0.86764043  0.75260310  0.24721951  1
  Co  Co15  1  0.13935453  0.23837476  0.75377050  1
  O  O16  1  0.79584086  0.04137320  0.18049455  1
  O  O17  1  0.04021928  0.54622888  0.67969597  1
  O  O18  1  0.14535536  0.79939232  0.41577195  1
  O  O19  1  0.41398024  0.31700022  0.92341924  1
  O  O20  1  0.53652818  0.56217862  0.67464138  1
  O  O21  1  0.91726706  0.28848231  0.94183443  1
  O  O22  1  0.26913588  0.03967896  0.18011780  1
  O  O23  1  0.64232737  0.80601583  0.41291916  1
  O  O24  1  0.35080063  0.19320762  0.56743209  1
  O  O25  1  0.59427242  0.69298641  0.08344729  1
  O  O26  1  0.74144802  0.94323343  0.82486057  1
  O  O27  1  0.95229257  0.46335020  0.32016313  1
  O  O28  1  0.09196459  0.70735476  0.07515075  1
  O  O29  1  0.45214857  0.45884528  0.31594633  1
  O  O30  1  0.84084554  0.20003371  0.57186367  1
  O  O31  1  0.20637420  0.95415271  0.82030099  1
