# generated using pymatgen
data_Li9Mn2Co5O16
_symmetry_space_group_name_H-M   'P 1'
_cell_length_a   5.07663466
_cell_length_b   11.19616085
_cell_length_c   5.14373178
_cell_angle_alpha   98.69162304
_cell_angle_beta   80.30258085
_cell_angle_gamma   93.69120581
_symmetry_Int_Tables_number   1
_chemical_formula_structural   Li9Mn2Co5O16
_chemical_formula_sum   'Li9 Mn2 Co5 O16'
_cell_volume   284.64914489
_cell_formula_units_Z   1
loop_
 _symmetry_equiv_pos_site_id
 _symmetry_equiv_pos_as_xyz
  1  'x, y, z'
loop_
 _atom_site_type_symbol
 _atom_site_label
 _atom_site_symmetry_multiplicity
 _atom_site_fract_x
 _atom_site_fract_y
 _atom_site_fract_z
 _atom_site_occupancy
  Li  Li0  1  0.25558628  0.93542253  0.44326416  1
  Li  Li1  1  0.74193140  0.05877398  0.56524070  1
  Li  Li2  1  0.24868554  0.18662000  0.68738001  1
  Li  Li3  1  0.25265346  0.69547084  0.18679974  1
  Li  Li4  1  0.74588544  0.81701260  0.31578523  1
  Li  Li5  1  0.24927876  0.43506044  0.93655310  1
  Li  Li6  1  0.75151897  0.56342399  0.05921968  1
  Li  Li7  1  0.74991885  0.31108915  0.81298812  1
  Li  Li8  1  0.49996178  0.87421524  0.87353347  1
  Mn  Mn9  1  0.00111698  0.99462996  0.99061078  1
  Mn  Mn10  1  0.50143527  0.63126837  0.63345986  1
  Co  Co11  1  0.49973476  0.11712655  0.11530319  1
  Co  Co12  1  0.00060310  0.24917464  0.24515283  1
  Co  Co13  1  0.50211606  0.37219557  0.37530888  1
  Co  Co14  1  0.00143117  0.49960002  0.50362616  1
  Co  Co15  1  0.00117121  0.75166939  0.75124256  1
  O  O16  1  0.10291954  0.84511633  0.06888436  1
  O  O17  1  0.64032000  0.97916203  0.20743656  1
  O  O18  1  0.11803849  0.09235663  0.31451496  1
  O  O19  1  0.14522234  0.60228987  0.82607755  1
  O  O20  1  0.64251428  0.71496622  0.93595534  1
  O  O21  1  0.11946564  0.34803547  0.58016747  1
  O  O22  1  0.62513959  0.47710162  0.70456961  1
  O  O23  1  0.62446968  0.22654990  0.45560402  1
  O  O24  1  0.35015431  0.03197079  0.80090730  1
  O  O25  1  0.87607356  0.14861114  0.91544548  1
  O  O26  1  0.37305219  0.27758017  0.04961180  1
  O  O27  1  0.36190639  0.77067775  0.54468390  1
  O  O28  1  0.89231877  0.90287252  0.67879725  1
  O  O29  1  0.38181826  0.52996929  0.31115309  1
  O  O30  1  0.86453507  0.65526533  0.44033348  1
  O  O31  1  0.87902288  0.40472068  0.17038935  1
