# generated using pymatgen
data_Li9Mn2Co5O16
_symmetry_space_group_name_H-M   'P 1'
_cell_length_a   5.79179413
_cell_length_b   7.73984292
_cell_length_c   6.62314254
_cell_angle_alpha   94.42040995
_cell_angle_beta   102.76759154
_cell_angle_gamma   78.76196009
_symmetry_Int_Tables_number   1
_chemical_formula_structural   Li9Mn2Co5O16
_chemical_formula_sum   'Li9 Mn2 Co5 O16'
_cell_volume   283.82694079
_cell_formula_units_Z   1
loop_
 _symmetry_equiv_pos_site_id
 _symmetry_equiv_pos_as_xyz
  1  'x, y, z'
loop_
 _atom_site_type_symbol
 _atom_site_label
 _atom_site_symmetry_multiplicity
 _atom_site_fract_x
 _atom_site_fract_y
 _atom_site_fract_z
 _atom_site_occupancy
  Li  Li0  1  0.80262100  0.12478874  0.36587451  1
  Li  Li1  1  0.93130600  0.37519269  0.11821052  1
  Li  Li2  1  0.68138225  0.87325588  0.63025320  1
  Li  Li3  1  0.56323148  0.63361209  0.87938121  1
  Li  Li4  1  0.44403725  0.36999298  0.12237851  1
  Li  Li5  1  0.31891787  0.12332226  0.37619527  1
  Li  Li6  1  0.19914459  0.86917843  0.63407521  1
  Li  Li7  1  0.06053512  0.63070585  0.87658673  1
  Li  Li8  1  0.50036714  0.00059080  0.99449763  1
  Mn  Mn9  1  0.99637770  0.00149725  0.99906029  1
  Mn  Mn10  1  0.13068053  0.24613769  0.75443717  1
  Co  Co11  1  0.24848572  0.50266417  0.49998584  1
  Co  Co12  1  0.37798186  0.75493387  0.24148085  1
  Co  Co13  1  0.62488699  0.24737607  0.75282553  1
  Co  Co14  1  0.74549420  0.50155394  0.49996964  1
  Co  Co15  1  0.86739535  0.75482480  0.24285295  1
  O  O16  1  0.72766455  0.17983386  0.04091066  1
  O  O17  1  0.84584432  0.41801080  0.80166073  1
  O  O18  1  0.59915926  0.91895382  0.31454113  1
  O  O19  1  0.47440903  0.67641390  0.55752464  1
  O  O20  1  0.34583791  0.41504489  0.80685845  1
  O  O21  1  0.20183198  0.18133279  0.04072654  1
  O  O22  1  0.08562562  0.94321586  0.28787546  1
  O  O23  1  0.97704825  0.67456925  0.55273164  1
  O  O24  1  0.90926284  0.07613245  0.70534802  1
  O  O25  1  0.02942811  0.31858133  0.46207867  1
  O  O26  1  0.79717660  0.82275903  0.94527299  1
  O  O27  1  0.65932125  0.56543922  0.19629748  1
  O  O28  1  0.52999942  0.31844815  0.46027967  1
  O  O29  1  0.39966731  0.08356591  0.69194936  1
  O  O30  1  0.26541520  0.82190475  0.94615259  1
  O  O31  1  0.15946329  0.57616648  0.20172691  1
