# generated using pymatgen
data_MnV3Co2(PO4)6
_symmetry_space_group_name_H-M   'P 1'
_cell_length_a   8.50450161
_cell_length_b   8.65165909
_cell_length_c   8.65165949
_cell_angle_alpha   60.00000140
_cell_angle_beta   59.42593583
_cell_angle_gamma   59.42593408
_symmetry_Int_Tables_number   1
_chemical_formula_structural   MnV3Co2(PO4)6
_chemical_formula_sum   'Mn1 V3 Co2 P6 O24'
_cell_volume   446.17919276
_cell_formula_units_Z   1
loop_
 _symmetry_equiv_pos_site_id
 _symmetry_equiv_pos_as_xyz
  1  'x, y, z'
loop_
 _atom_site_type_symbol
 _atom_site_label
 _atom_site_symmetry_multiplicity
 _atom_site_fract_x
 _atom_site_fract_y
 _atom_site_fract_z
 _atom_site_occupancy
  Mn  Mn0  1  0.56805833  0.14398022  0.14398022  1
  V  V1  1  0.06926206  0.64357898  0.64357898  1
  V  V2  1  0.42776552  0.85741183  0.85741183  1
  V  V3  1  0.93177068  0.35607611  0.35607611  1
  Co  Co4  1  0.99288149  0.00237250  0.00237250  1
  Co  Co5  1  0.49817522  0.50060826  0.50060826  1
  P  P6  1  0.24995198  0.24816707  0.54794163  1
  P  P7  1  0.24995198  0.95393933  0.24816707  1
  P  P8  1  0.24995198  0.54794163  0.95393933  1
  P  P9  1  0.75344488  0.45863991  0.04199735  1
  P  P10  1  0.75344488  0.04199735  0.74591785  1
  P  P11  1  0.75344488  0.74591785  0.45863991  1
  O  O12  1  0.06558982  0.12081829  0.30843301  1
  O  O13  1  0.06558982  0.50515888  0.12081829  1
  O  O14  1  0.06558982  0.30843301  0.50515888  1
  O  O15  1  0.22610497  0.08704830  0.74654512  1
  O  O16  1  0.43560845  0.18763666  0.39737692  1
  O  O17  1  0.25658216  0.41227359  0.57262197  1
  O  O18  1  0.22610497  0.94030261  0.08704830  1
  O  O19  1  0.25658216  0.75852227  0.41227359  1
  O  O20  1  0.56622404  0.61919220  0.00236700  1
  O  O21  1  0.25658216  0.57262197  0.75852227  1
  O  O22  1  0.78606338  0.26513579  0.04817316  1
  O  O23  1  0.56622404  0.00236700  0.81221676  1
  O  O24  1  0.43560845  0.97937797  0.18763666  1
  O  O25  1  0.22610497  0.74654512  0.94030261  1
  O  O26  1  0.73154316  0.44698691  0.23850961  1
  O  O27  1  0.43560845  0.39737692  0.97937797  1
  O  O28  1  0.73154316  0.23850961  0.58296032  1
  O  O29  1  0.78606338  0.04817316  0.90062667  1
  O  O30  1  0.73154316  0.58296032  0.44698691  1
  O  O31  1  0.56622404  0.81221676  0.61919220  1
  O  O32  1  0.78606338  0.90062667  0.26513579  1
  O  O33  1  0.93291607  0.66851576  0.51187608  1
  O  O34  1  0.93291607  0.51187608  0.88669209  1
  O  O35  1  0.93291607  0.88669209  0.66851576  1
