# generated using pymatgen
data_Li9Mn2Co5O16
_symmetry_space_group_name_H-M   'P 1'
_cell_length_a   5.15431657
_cell_length_b   6.44397795
_cell_length_c   8.58878201
_cell_angle_alpha   83.03007191
_cell_angle_beta   94.46816542
_cell_angle_gamma   84.00887262
_symmetry_Int_Tables_number   1
_chemical_formula_structural   Li9Mn2Co5O16
_chemical_formula_sum   'Li9 Mn2 Co5 O16'
_cell_volume   280.42789842
_cell_formula_units_Z   1
loop_
 _symmetry_equiv_pos_site_id
 _symmetry_equiv_pos_as_xyz
  1  'x, y, z'
loop_
 _atom_site_type_symbol
 _atom_site_label
 _atom_site_symmetry_multiplicity
 _atom_site_fract_x
 _atom_site_fract_y
 _atom_site_fract_z
 _atom_site_occupancy
  Li  Li0  1  0.25034819  0.55354805  0.06998218  1
  Li  Li1  1  0.75143266  0.94446792  0.43553074  1
  Li  Li2  1  0.24268480  0.31842585  0.81042700  1
  Li  Li3  1  0.75402271  0.43892129  0.93973756  1
  Li  Li4  1  0.24876657  0.81020782  0.31470422  1
  Li  Li5  1  0.74752470  0.18973536  0.67914390  1
  Li  Li6  1  0.75402139  0.67446946  0.19608566  1
  Li  Li7  1  0.24931239  0.06974452  0.55440652  1
  Li  Li8  1  0.49987161  0.37447528  0.37459646  1
  Mn  Mn9  1  0.99995714  0.00044678  0.00172661  1
  Mn  Mn10  1  0.00003606  0.49856897  0.49769004  1
  Co  Co11  1  0.00002216  0.74992078  0.74947461  1
  Co  Co12  1  0.50063063  0.12972516  0.13035921  1
  Co  Co13  1  0.49936679  0.87295532  0.87292771  1
  Co  Co14  1  0.00024519  0.24904798  0.24904261  1
  Co  Co15  1  0.49975747  0.62562781  0.62449564  1
  O  O16  1  0.88984896  0.73122156  0.96126685  1
  O  O17  1  0.35230740  0.10954880  0.32164694  1
  O  O18  1  0.88808267  0.48204651  0.71258873  1
  O  O19  1  0.38651498  0.60873092  0.83630952  1
  O  O20  1  0.89362953  0.97614726  0.21024702  1
  O  O21  1  0.35584304  0.37108687  0.58975327  1
  O  O22  1  0.35817686  0.86808361  0.07686885  1
  O  O23  1  0.89588004  0.23124528  0.46280922  1
  O  O24  1  0.64621049  0.37702394  0.16259277  1
  O  O25  1  0.11146638  0.77030358  0.54060610  1
  O  O26  1  0.64294143  0.12787927  0.92132781  1
  O  O27  1  0.10676655  0.26921688  0.03381786  1
  O  O28  1  0.64579577  0.64441914  0.42547654  1
  O  O29  1  0.11041680  0.01843981  0.78922654  1
  O  O30  1  0.10520259  0.52056079  0.28929644  1
  O  O31  1  0.61291603  0.89375742  0.66583486  1
