# generated using pymatgen
data_Mn3OF8
_symmetry_space_group_name_H-M   'P 1'
_cell_length_a   5.19141757
_cell_length_b   5.20412961
_cell_length_c   27.21969776
_cell_angle_alpha   88.20344892
_cell_angle_beta   90.54317091
_cell_angle_gamma   60.45264839
_symmetry_Int_Tables_number   1
_chemical_formula_structural   Mn3OF8
_chemical_formula_sum   'Mn12 O4 F32'
_cell_volume   639.17330361
_cell_formula_units_Z   4
loop_
 _symmetry_equiv_pos_site_id
 _symmetry_equiv_pos_as_xyz
  1  'x, y, z'
loop_
 _atom_site_type_symbol
 _atom_site_label
 _atom_site_symmetry_multiplicity
 _atom_site_fract_x
 _atom_site_fract_y
 _atom_site_fract_z
 _atom_site_occupancy
  Mn  Mn0  1  0.00673441  0.98421122  0.00149168  1
  Mn  Mn1  1  0.00808714  0.01726939  0.75277067  1
  Mn  Mn2  1  0.00688488  0.98761245  0.25178434  1
  Mn  Mn3  1  0.00707639  0.98681317  0.50135782  1
  Mn  Mn4  1  0.32346829  0.34698781  0.33166609  1
  Mn  Mn5  1  0.32298912  0.31509751  0.83086605  1
  Mn  Mn6  1  0.32780751  0.34912410  0.58158599  1
  Mn  Mn7  1  0.32840394  0.34514302  0.08177005  1
  Mn  Mn8  1  0.66490740  0.66611426  0.41636251  1
  Mn  Mn9  1  0.66785663  0.65230925  0.91633778  1
  Mn  Mn10  1  0.66900595  0.66652365  0.16677062  1
  Mn  Mn11  1  0.67351499  0.67814444  0.66725667  1
  O  O12  1  0.05283087  0.28184086  0.78997141  1
  O  O13  1  0.04574749  0.66795910  0.04244378  1
  O  O14  1  0.04740446  0.67094410  0.54237952  1
  O  O15  1  0.28246307  0.66852710  0.29232271  1
  F  F16  1  0.06045071  0.28429472  0.29144790  1
  F  F17  1  0.01812051  0.39349553  0.12407904  1
  F  F18  1  0.02179389  0.39507242  0.62460708  1
  F  F19  1  0.26844256  0.05092419  0.04100630  1
  F  F20  1  0.27078371  0.04881664  0.54091362  1
  F  F21  1  0.38413647  0.01169153  0.37281304  1
  F  F22  1  0.38460508  0.98516784  0.87509540  1
  F  F23  1  0.26777846  0.68110527  0.79079395  1
  F  F24  1  0.60571474  0.00764599  0.12420248  1
  F  F25  1  0.60779353  0.01358688  0.62441268  1
  F  F26  1  0.68008346  0.05429253  0.29037311  1
  F  F27  1  0.68483640  0.05516128  0.78913470  1
  F  F28  1  0.35421226  0.71754108  0.45600378  1
  F  F29  1  0.35877838  0.71008503  0.95734838  1
  F  F30  1  0.40712942  0.61469007  0.12636192  1
  F  F31  1  0.41560327  0.61815078  0.62788140  1
  F  F32  1  0.59218992  0.39223428  0.37406401  1
  F  F33  1  0.57844732  0.38535101  0.87221114  1
  F  F34  1  0.65074577  0.28372380  0.04249509  1
  F  F35  1  0.64855924  0.28796877  0.54249021  1
  F  F36  1  0.32227832  0.93418125  0.21022271  1
  F  F37  1  0.31873967  0.94901354  0.71161182  1
  F  F38  1  0.73405221  0.33158541  0.70906089  1
  F  F39  1  0.73523798  0.32239504  0.20865312  1
  F  F40  1  0.94849574  0.31969005  0.95905114  1
  F  F41  1  0.94630664  0.31962702  0.45960156  1
  F  F42  1  0.73975479  0.93641961  0.45950808  1
  F  F43  1  0.74393202  0.93366427  0.95955867  1
  F  F44  1  0.97622386  0.61476357  0.37650922  1
  F  F45  1  0.97720900  0.60299982  0.87533413  1
  F  F46  1  0.93114142  0.74109331  0.70869211  1
  F  F47  1  0.93123967  0.71894303  0.20732462  1
