# generated using pymatgen
data_LiVPO5
_symmetry_space_group_name_H-M   'P 1'
_cell_length_a   7.62078641
_cell_length_b   6.02912399
_cell_length_c   7.85604147
_cell_angle_alpha   90.00000000
_cell_angle_beta   90.00000000
_cell_angle_gamma   90.00000000
_symmetry_Int_Tables_number   1
_chemical_formula_structural   LiVPO5
_chemical_formula_sum   'Li4 V4 P4 O20'
_cell_volume   360.95891482
_cell_formula_units_Z   4
loop_
 _symmetry_equiv_pos_site_id
 _symmetry_equiv_pos_as_xyz
  1  'x, y, z'
loop_
 _atom_site_type_symbol
 _atom_site_label
 _atom_site_symmetry_multiplicity
 _atom_site_fract_x
 _atom_site_fract_y
 _atom_site_fract_z
 _atom_site_occupancy
  Li  Li0  1  0.13546592  0.25000000  0.66491834  1
  Li  Li1  1  0.36453408  0.75000000  0.16491834  1
  Li  Li2  1  0.63546592  0.25000000  0.83508166  1
  Li  Li3  1  0.86453408  0.75000000  0.33508166  1
  V  V4  1  -0.00000000  -0.00000000  0.00000000  1
  V  V5  1  -0.00000000  0.50000000  0.00000000  1
  V  V6  1  0.50000000  -0.00000000  0.50000000  1
  V  V7  1  0.50000000  0.50000000  0.50000000  1
  P  P8  1  0.13490203  0.75000000  0.66385160  1
  P  P9  1  0.36509797  0.25000000  0.16385160  1
  P  P10  1  0.63490203  0.75000000  0.83614840  1
  P  P11  1  0.86509797  0.25000000  0.33614840  1
  O  O12  1  0.00404384  0.25000000  0.46863639  1
  O  O13  1  0.11102150  0.75000000  0.08640543  1
  O  O14  1  0.13208411  0.95980453  0.78171478  1
  O  O15  1  0.13208411  0.54019547  0.78171478  1
  O  O16  1  0.17291642  0.25000000  0.07725176  1
  O  O17  1  0.32708358  0.75000000  0.57725176  1
  O  O18  1  0.36791589  0.04019547  0.28171478  1
  O  O19  1  0.36791589  0.45980353  0.28171478  1
  O  O20  1  0.38897850  0.25000000  0.58640543  1
  O  O21  1  0.49595616  0.75000000  0.96863639  1
  O  O22  1  0.50404384  0.25000000  0.03136361  1
  O  O23  1  0.61102150  0.75000000  0.41359457  1
  O  O24  1  0.63208411  0.54019547  0.71828522  1
  O  O25  1  0.63208411  0.95980453  0.71828522  1
  O  O26  1  0.67291642  0.25000000  0.42274824  1
  O  O27  1  0.82708358  0.75000000  0.92274824  1
  O  O28  1  0.86791589  0.04019547  0.21828522  1
  O  O29  1  0.86791589  0.45980353  0.21828522  1
  O  O30  1  0.88897850  0.25000000  0.91359457  1
  O  O31  1  0.99595616  0.75000000  0.53136361  1
