# generated using pymatgen
data_Li9Mn2Co5O16
_symmetry_space_group_name_H-M   'P 1'
_cell_length_a   5.02751128
_cell_length_b   10.14672799
_cell_length_c   5.88532849
_cell_angle_alpha   89.31318609
_cell_angle_beta   73.04195619
_cell_angle_gamma   80.50508592
_symmetry_Int_Tables_number   1
_chemical_formula_structural   Li9Mn2Co5O16
_chemical_formula_sum   'Li9 Mn2 Co5 O16'
_cell_volume   283.03078284
_cell_formula_units_Z   1
loop_
 _symmetry_equiv_pos_site_id
 _symmetry_equiv_pos_as_xyz
  1  'x, y, z'
loop_
 _atom_site_type_symbol
 _atom_site_label
 _atom_site_symmetry_multiplicity
 _atom_site_fract_x
 _atom_site_fract_y
 _atom_site_fract_z
 _atom_site_occupancy
  Li  Li0  1  0.99701891  0.99757671  0.50070775  1
  Li  Li1  1  0.00453308  0.25464072  0.24969271  1
  Li  Li2  1  0.51022418  0.86927627  0.61781442  1
  Li  Li3  1  0.49988940  0.12742271  0.37794622  1
  Li  Li4  1  0.00159839  0.74341288  0.74532588  1
  Li  Li5  1  0.49331441  0.62445322  0.87852447  1
  Li  Li6  1  0.99536993  0.50469187  0.00383341  1
  Li  Li7  1  0.49747986  0.37705499  0.12769295  1
  Li  Li8  1  0.00052176  0.74831183  0.24964988  1
  Mn  Mn9  1  0.00061930  -0.00184049  0.00107750  1
  Mn  Mn10  1  0.49970144  0.87156265  0.12797860  1
  Co  Co11  1  0.99801503  0.25376384  0.74699287  1
  Co  Co12  1  0.00150758  0.50662821  0.49339133  1
  Co  Co13  1  0.50064820  0.12376884  0.87524610  1
  Co  Co14  1  0.49943026  0.37676284  0.62355795  1
  Co  Co15  1  0.50142634  0.62917241  0.37365429  1
  O  O16  1  0.74809083  0.94022091  0.28124238  1
  O  O17  1  0.75649796  0.17377420  0.04099075  1
  O  O18  1  0.27353798  0.81895665  0.41663600  1
  O  O19  1  0.25294530  0.05430763  0.16350860  1
  O  O20  1  0.74189181  0.67894512  0.54932400  1
  O  O21  1  0.25278512  0.55640981  0.68335319  1
  O  O22  1  0.76390159  0.43026553  0.80073853  1
  O  O23  1  0.27305467  0.29739180  0.92152706  1
  O  O24  1  0.24388383  0.06772153  0.71702311  1
  O  O25  1  0.24155976  0.31319867  0.45260874  1
  O  O26  1  0.74681261  0.94542636  0.83583341  1
  O  O27  1  0.73411215  0.18519136  0.58958449  1
  O  O28  1  0.25054464  0.83045182  0.95001512  1
  O  O29  1  0.72299968  0.70194569  0.06564621  1
  O  O30  1  0.25252510  0.56298661  0.21145232  1
  O  O31  1  0.74355891  0.43614683  0.32742976  1
