# generated using pymatgen
data_Li9Mn2Co5O16
_symmetry_space_group_name_H-M   'P 1'
_cell_length_a   4.97713885
_cell_length_b   7.79989530
_cell_length_c   7.77502294
_cell_angle_alpha   81.73790314
_cell_angle_beta   102.32921922
_cell_angle_gamma   78.69921426
_symmetry_Int_Tables_number   1
_chemical_formula_structural   Li9Mn2Co5O16
_chemical_formula_sum   'Li9 Mn2 Co5 O16'
_cell_volume   283.68185415
_cell_formula_units_Z   1
loop_
 _symmetry_equiv_pos_site_id
 _symmetry_equiv_pos_as_xyz
  1  'x, y, z'
loop_
 _atom_site_type_symbol
 _atom_site_label
 _atom_site_symmetry_multiplicity
 _atom_site_fract_x
 _atom_site_fract_y
 _atom_site_fract_z
 _atom_site_occupancy
  Li  Li0  1  0.50286629  0.25464214  0.74129786  1
  Li  Li1  1  0.00270531  0.87892654  0.37987109  1
  Li  Li2  1  0.51356048  0.49558810  0.00497745  1
  Li  Li3  1  0.00159756  0.37532749  0.87643393  1
  Li  Li4  1  0.48921802  0.00647229  0.49945599  1
  Li  Li5  1  0.99895764  0.61214176  0.13196027  1
  Li  Li6  1  0.00388368  0.13193708  0.60948383  1
  Li  Li7  1  0.49824720  0.74301989  0.25632590  1
  Li  Li8  1  0.00288214  0.25095544  0.25154529  1
  Mn  Mn9  1  0.99599726  0.00098431  0.00045706  1
  Mn  Mn10  1  0.49923948  0.12748827  0.12722396  1
  Co  Co11  1  0.50297899  0.62711519  0.62828098  1
  Co  Co12  1  0.49295275  0.87698858  0.87603578  1
  Co  Co13  1  0.00038789  0.49434733  0.49715206  1
  Co  Co14  1  0.99976840  0.75161529  0.74809638  1
  Co  Co15  1  0.50217741  0.36908177  0.37123344  1
  O  O16  1  0.75030661  0.98878664  0.77226996  1
  O  O17  1  0.25212824  0.61967549  0.39352169  1
  O  O18  1  0.75172930  0.22427149  0.00296967  1
  O  O19  1  0.25693066  0.10686946  0.89233339  1
  O  O20  1  0.74785436  0.74083453  0.51611372  1
  O  O21  1  0.27540973  0.35575524  0.12101120  1
  O  O22  1  0.25298296  0.87638018  0.64411995  1
  O  O23  1  0.74067319  0.49515235  0.26151097  1
  O  O24  1  0.25802970  0.51708571  0.73969273  1
  O  O25  1  0.72688063  0.12214536  0.35564455  1
  O  O26  1  0.23404130  0.77088211  0.98993046  1
  O  O27  1  0.72825632  0.64809138  0.86626516  1
  O  O28  1  0.26504160  0.26207506  0.49279509  1
  O  O29  1  0.73754627  0.89185253  0.10749377  1
  O  O30  1  0.76720158  0.38017109  0.61960429  1
  O  O31  1  0.24756707  0.00334093  0.22488912  1
