# generated using pymatgen
data_Li9Mn2Co5O16
_symmetry_space_group_name_H-M   'P 1'
_cell_length_a   5.87656242
_cell_length_b   8.62889497
_cell_length_c   5.82743638
_cell_angle_alpha   70.90799760
_cell_angle_beta   87.21071804
_cell_angle_gamma   88.25166347
_symmetry_Int_Tables_number   1
_chemical_formula_structural   Li9Mn2Co5O16
_chemical_formula_sum   'Li9 Mn2 Co5 O16'
_cell_volume   278.88082399
_cell_formula_units_Z   1
loop_
 _symmetry_equiv_pos_site_id
 _symmetry_equiv_pos_as_xyz
  1  'x, y, z'
loop_
 _atom_site_type_symbol
 _atom_site_label
 _atom_site_symmetry_multiplicity
 _atom_site_fract_x
 _atom_site_fract_y
 _atom_site_fract_z
 _atom_site_occupancy
  Li  Li0  1  0.24973058  0.25536556  0.12671043  1
  Li  Li1  1  0.99720199  0.49569876  0.24387046  1
  Li  Li2  1  0.24982851  0.25417875  0.61940295  1
  Li  Li3  1  0.99717335  0.49631588  0.76075723  1
  Li  Li4  1  0.74729181  0.74408191  0.87536149  1
  Li  Li5  1  0.75059520  0.74711984  0.37953004  1
  Li  Li6  1  0.50430119  0.00508142  0.49129833  1
  Li  Li7  1  0.50268564  0.00288371  0.00603694  1
  Li  Li8  1  0.75120371  0.25384925  0.12857137  1
  Mn  Mn9  1  0.99525997  0.00148364  0.99912689  1
  Mn  Mn10  1  0.75017132  0.25279392  0.62348320  1
  Co  Co11  1  0.50398315  0.49973169  0.24992508  1
  Co  Co12  1  0.25015342  0.74912061  0.37259606  1
  Co  Co13  1  0.99699144  0.00002001  0.49471438  1
  Co  Co14  1  0.50603547  0.49662070  0.76104528  1
  Co  Co15  1  0.24677146  0.74792660  0.87020418  1
  O  O16  1  0.98414499  0.23463492  0.86667873  1
  O  O17  1  0.73299204  0.50129232  0.01723878  1
  O  O18  1  0.99075489  0.23683951  0.39537099  1
  O  O19  1  0.74888505  0.48595528  0.52783917  1
  O  O20  1  0.48697924  0.74021024  0.64351577  1
  O  O21  1  0.48448964  0.74280365  0.14152956  1
  O  O22  1  0.22240408  0.99331974  0.24058909  1
  O  O23  1  0.22259561  0.98739470  0.74410443  1
  O  O24  1  0.52107572  0.25976266  0.39298101  1
  O  O25  1  0.26941411  0.51366997  0.48188359  1
  O  O26  1  0.50821955  0.25930580  0.86094067  1
  O  O27  1  0.25795537  0.51004925  0.98187429  1
  O  O28  1  0.00882443  0.76280215  0.09945319  1
  O  O29  1  0.01366884  0.76242232  0.59916781  1
  O  O30  1  0.77009826  0.00925773  0.75118227  1
  O  O31  1  0.77811998  0.99800751  0.25301432  1
