# generated using pymatgen
data_BaLa2Fe2O5F4
_symmetry_space_group_name_H-M   'P 1'
_cell_length_a   4.02245583
_cell_length_b   4.02717909
_cell_length_c   11.55354596
_cell_angle_alpha   79.96305246
_cell_angle_beta   79.97494595
_cell_angle_gamma   90.00000000
_symmetry_Int_Tables_number   1
_chemical_formula_structural   BaLa2Fe2O5F4
_chemical_formula_sum   'Ba1 La2 Fe2 O5 F4'
_cell_volume   181.39059131
_cell_formula_units_Z   1
loop_
 _symmetry_equiv_pos_site_id
 _symmetry_equiv_pos_as_xyz
  1  'x, y, z'
loop_
 _atom_site_type_symbol
 _atom_site_label
 _atom_site_symmetry_multiplicity
 _atom_site_fract_x
 _atom_site_fract_y
 _atom_site_fract_z
 _atom_site_occupancy
  Ba  Ba0  1  0.50000000  0.50817881  1.00000000  1
  La  La1  1  0.32330139  0.31864985  0.35339723  1
  La  La2  1  0.67669861  0.67204707  0.64660277  1
  Fe  Fe3  1  0.08811153  0.09601265  0.82377694  1
  Fe  Fe4  1  0.91188847  0.91978959  0.17622306  1
  O  O5  1  0.60125550  0.11048534  0.79748900  1
  O  O6  1  0.10070871  0.61279381  0.79858258  1
  O  O7  1  0.39874450  0.90797434  0.20251100  1
  O  O8  1  0.89929129  0.41137639  0.20141742  1
  O  O9  1  0.00000000  0.01061281  1.00000000  1
  F  F10  1  0.25004301  0.76907818  0.49991398  1
  F  F11  1  0.74995699  0.26899216  0.50008602  1
  F  F12  1  0.82088166  0.85088616  0.35823668  1
  F  F13  1  0.17911834  0.20912284  0.64176332  1
