# generated using pymatgen
data_Li9Mn2Co5O16
_symmetry_space_group_name_H-M   'P 1'
_cell_length_a   5.04665756
_cell_length_b   5.84823834
_cell_length_c   10.12268400
_cell_angle_alpha   88.92873708
_cell_angle_beta   99.03755324
_cell_angle_gamma   107.07934196
_symmetry_Int_Tables_number   1
_chemical_formula_structural   Li9Mn2Co5O16
_chemical_formula_sum   'Li9 Mn2 Co5 O16'
_cell_volume   281.92124373
_cell_formula_units_Z   1
loop_
 _symmetry_equiv_pos_site_id
 _symmetry_equiv_pos_as_xyz
  1  'x, y, z'
loop_
 _atom_site_type_symbol
 _atom_site_label
 _atom_site_symmetry_multiplicity
 _atom_site_fract_x
 _atom_site_fract_y
 _atom_site_fract_z
 _atom_site_occupancy
  Li  Li0  1  0.99179855  0.24545052  0.24422520  1
  Li  Li1  1  0.49941005  0.87581472  0.62713869  1
  Li  Li2  1  -0.00316376  0.00062390  0.49629627  1
  Li  Li3  1  0.50008166  0.62614782  0.88139438  1
  Li  Li4  1  0.00431144  0.75005961  0.75363615  1
  Li  Li5  1  0.50659051  0.37731782  0.12336915  1
  Li  Li6  1  0.00671974  0.50471370  0.00229338  1
  Li  Li7  1  0.49697555  0.12104983  0.36857507  1
  Li  Li8  1  0.50059686  0.87473020  0.12609680  1
  Mn  Mn9  1  0.00196750  0.99784338  0.00694925  1
  Mn  Mn10  1  0.49663062  0.62921465  0.36738926  1
  Co  Co11  1  0.00201596  0.25168539  0.75201165  1
  Co  Co12  1  0.99816173  0.49730384  0.49946629  1
  Co  Co13  1  0.50290791  0.11830794  0.88392721  1
  Co  Co14  1  0.99764983  0.75072315  0.24842519  1
  Co  Co15  1  0.49642324  0.37132791  0.62550101  1
  O  O16  1  0.76536104  0.17711844  0.05443254  1
  O  O17  1  0.24348680  0.79196561  0.42609010  1
  O  O18  1  0.74890608  0.91084644  0.31370793  1
  O  O19  1  0.24294812  0.55197634  0.68312591  1
  O  O20  1  0.73026516  0.66758528  0.55210577  1
  O  O21  1  0.24298223  0.29639360  0.93953268  1
  O  O22  1  0.74440235  0.41576279  0.80757674  1
  O  O23  1  0.21949736  0.04275979  0.18053284  1
  O  O24  1  0.25895923  0.33533622  0.43783799  1
  O  O25  1  0.76775683  0.94788511  0.82497416  1
  O  O26  1  0.25346010  0.08274917  0.68685585  1
  O  O27  1  0.78352139  0.70659341  0.06963070  1
  O  O28  1  0.24844701  0.83809149  0.93623996  1
  O  O29  1  0.74266857  0.46181973  0.31327312  1
  O  O30  1  0.24864387  0.57782083  0.20324388  1
  O  O31  1  0.75961647  0.20297837  0.56415187  1
