# generated using pymatgen
data_LiTiCoO4
_symmetry_space_group_name_H-M   'P 1'
_cell_length_a   5.96829163
_cell_length_b   5.96829141
_cell_length_c   5.96829163
_cell_angle_alpha   90.19069329
_cell_angle_beta   119.83655786
_cell_angle_gamma   59.61548124
_symmetry_Int_Tables_number   1
_chemical_formula_structural   LiTiCoO4
_chemical_formula_sum   'Li2 Ti2 Co2 O8'
_cell_volume   150.06997118
_cell_formula_units_Z   2
loop_
 _symmetry_equiv_pos_site_id
 _symmetry_equiv_pos_as_xyz
  1  'x, y, z'
loop_
 _atom_site_type_symbol
 _atom_site_label
 _atom_site_symmetry_multiplicity
 _atom_site_fract_x
 _atom_site_fract_y
 _atom_site_fract_z
 _atom_site_occupancy
  Li  Li0  1  0.75000000  0.12363557  0.62636443  1
  Li  Li1  1  0.25000000  0.87636443  0.37363557  1
  Ti  Ti2  1  0.50000000  -0.00000000  0.00000000  1
  Ti  Ti3  1  0.00000000  0.50000000  0.00000000  1
  Co  Co4  1  0.50000000  0.50000000  0.00000000  1
  Co  Co5  1  0.00000000  0.50000000  0.50000000  1
  O  O6  1  0.53069853  0.74643725  0.78426128  1
  O  O7  1  0.96930147  0.74643725  0.22286422  1
  O  O8  1  0.97344882  0.29278812  0.23376307  1
  O  O9  1  0.52655118  0.73968475  0.23376307  1
  O  O10  1  0.47344882  0.26031525  0.76623693  1
  O  O11  1  0.02655118  0.70721188  0.76623693  1
  O  O12  1  0.03069853  0.25356275  0.77713578  1
  O  O13  1  0.46930147  0.25356275  0.21573872  1
