# generated using pymatgen
data_LiFePO4
_symmetry_space_group_name_H-M   'P 1'
_cell_length_a   7.44643830
_cell_length_b   4.79676250
_cell_length_c   17.97976530
_cell_angle_alpha   90.00000000
_cell_angle_beta   88.99499247
_cell_angle_gamma   90.00000000
_symmetry_Int_Tables_number   1
_chemical_formula_structural   LiFePO4
_chemical_formula_sum   'Li8 Fe8 P8 O32'
_cell_volume   642.11677460
_cell_formula_units_Z   8
loop_
 _symmetry_equiv_pos_site_id
 _symmetry_equiv_pos_as_xyz
  1  'x, y, z'
loop_
 _atom_site_type_symbol
 _atom_site_label
 _atom_site_symmetry_multiplicity
 _atom_site_fract_x
 _atom_site_fract_y
 _atom_site_fract_z
 _atom_site_occupancy
  Li  Li0  1  0.14131267  0.77660956  0.77265656  1
  Li  Li1  1  0.14131267  0.72339044  0.27265656  1
  Li  Li2  1  0.33777913  0.22393336  0.51763750  1
  Li  Li3  1  0.33777913  0.27606664  0.01763750  1
  Li  Li4  1  0.66222087  0.72393336  0.98236250  1
  Li  Li5  1  0.66222087  0.77606664  0.48236250  1
  Li  Li6  1  0.85868733  0.27660956  0.72734344  1
  Li  Li7  1  0.85868733  0.22339044  0.22734344  1
  Fe  Fe8  1  0.03279370  0.74337443  0.60020051  1
  Fe  Fe9  1  0.03279370  0.75662557  0.10020051  1
  Fe  Fe10  1  0.49251485  0.33260732  0.83142012  1
  Fe  Fe11  1  0.49251485  0.16739268  0.33142012  1
  Fe  Fe12  1  0.50748515  0.83260732  0.66857988  1
  Fe  Fe13  1  0.50748515  0.66739268  0.16857988  1
  Fe  Fe14  1  0.96720630  0.24337443  0.89979949  1
  Fe  Fe15  1  0.96720630  0.25662557  0.39979949  1
  P  P16  1  0.24358195  0.34521455  0.67887345  1
  P  P17  1  0.24358195  0.15478545  0.17887345  1
  P  P18  1  0.24619660  0.70511022  0.93106306  1
  P  P19  1  0.24619660  0.79488978  0.43106306  1
  P  P20  1  0.75380340  0.20511022  0.56893694  1
  P  P21  1  0.75380340  0.29488978  0.06893694  1
  P  P22  1  0.75641805  0.84521455  0.82112655  1
  P  P23  1  0.75641805  0.65478545  0.32112655  1
  O  O24  1  0.07070423  0.47538989  0.71114876  1
  O  O25  1  0.07070423  0.02461011  0.21114876  1
  O  O26  1  0.17900386  0.60571125  0.00812920  1
  O  O27  1  0.13488854  0.56548055  0.86848803  1
  O  O28  1  0.25325243  0.45431223  0.59775653  1
  O  O29  1  0.25096375  0.02264856  0.68557109  1
  O  O30  1  0.17900386  0.89428875  0.50812920  1
  O  O31  1  0.13488854  0.93451945  0.36848803  1
  O  O32  1  0.25325243  0.04568777  0.09775653  1
  O  O33  1  0.25096375  0.47735144  0.18557109  1
  O  O34  1  0.24024680  0.02773425  0.92237929  1
  O  O35  1  0.24024680  0.47226575  0.42237929  1
  O  O36  1  0.40992835  0.47045468  0.72209579  1
  O  O37  1  0.40992835  0.02954532  0.22209579  1
  O  O38  1  0.44274455  0.58678134  0.92061382  1
  O  O39  1  0.44274455  0.91321866  0.42061382  1
  O  O40  1  0.55725545  0.08678134  0.57938618  1
  O  O41  1  0.55725545  0.41321866  0.07938618  1
  O  O42  1  0.59007165  0.97045468  0.77790421  1
  O  O43  1  0.59007165  0.52954532  0.27790421  1
  O  O44  1  0.75975320  0.52773425  0.57762071  1
  O  O45  1  0.75975320  0.97226575  0.07762071  1
  O  O46  1  0.74903625  0.52264856  0.81442891  1
  O  O47  1  0.74674757  0.95431223  0.90224347  1
  O  O48  1  0.86511146  0.06548055  0.63151197  1
  O  O49  1  0.82099614  0.10571125  0.49187080  1
  O  O50  1  0.74903625  0.97735144  0.31442891  1
  O  O51  1  0.74674757  0.54568777  0.40224347  1
  O  O52  1  0.86511146  0.43451945  0.13151197  1
  O  O53  1  0.82099614  0.39428875  0.99187080  1
  O  O54  1  0.92929577  0.97538989  0.78885124  1
  O  O55  1  0.92929577  0.52461011  0.28885124  1
