# generated using pymatgen
data_LiMnF4
_symmetry_space_group_name_H-M   'P 1'
_cell_length_a   5.70723318
_cell_length_b   5.70723318
_cell_length_c   5.70723318
_cell_angle_alpha   112.39368567
_cell_angle_beta   112.39368567
_cell_angle_gamma   103.77224714
_symmetry_Int_Tables_number   1
_chemical_formula_structural   LiMnF4
_chemical_formula_sum   'Li2 Mn2 F8'
_cell_volume   142.05748789
_cell_formula_units_Z   2
loop_
 _symmetry_equiv_pos_site_id
 _symmetry_equiv_pos_as_xyz
  1  'x, y, z'
loop_
 _atom_site_type_symbol
 _atom_site_label
 _atom_site_symmetry_multiplicity
 _atom_site_fract_x
 _atom_site_fract_y
 _atom_site_fract_z
 _atom_site_occupancy
  Li  Li0  1  0.62500000  0.37500000  0.25000000  1
  Li  Li1  1  0.37500000  0.62500000  0.75000000  1
  Mn  Mn2  1  0.87500000  0.12500000  0.75000000  1
  Mn  Mn3  1  0.12500000  0.87500000  0.25000000  1
  F  F4  1  0.82118015  0.36265808  0.04147793  1
  F  F5  1  0.22029777  0.17881985  0.04147793  1
  F  F6  1  0.63734192  0.17881985  0.45852207  1
  F  F7  1  0.82118015  0.77970223  0.45852207  1
  F  F8  1  0.17881985  0.22029777  0.54147793  1
  F  F9  1  0.36265808  0.82118015  0.54147793  1
  F  F10  1  0.77970223  0.82118015  0.95852207  1
  F  F11  1  0.17881985  0.63734192  0.95852207  1
