# generated using pymatgen
data_LiMnP2O7
_symmetry_space_group_name_H-M   'P 1'
_cell_length_a   9.81238720
_cell_length_b   9.71437112
_cell_length_c   11.15482369
_cell_angle_alpha   89.58649006
_cell_angle_beta   101.56653559
_cell_angle_gamma   90.04313944
_symmetry_Int_Tables_number   1
_chemical_formula_structural   LiMnP2O7
_chemical_formula_sum   'Li8 Mn8 P16 O56'
_cell_volume   1041.67071195
_cell_formula_units_Z   8
loop_
 _symmetry_equiv_pos_site_id
 _symmetry_equiv_pos_as_xyz
  1  'x, y, z'
loop_
 _atom_site_type_symbol
 _atom_site_label
 _atom_site_symmetry_multiplicity
 _atom_site_fract_x
 _atom_site_fract_y
 _atom_site_fract_z
 _atom_site_occupancy
  Li  Li0  1  0.15117102  0.38071921  0.04423922  1
  Li  Li1  1  0.40494636  0.61143106  0.97387843  1
  Li  Li2  1  0.40479576  0.95927267  0.50370506  1
  Li  Li3  1  0.58369827  0.39545314  0.02538442  1
  Li  Li4  1  0.64634755  0.09232493  0.04816214  1
  Li  Li5  1  0.91568384  0.90723088  0.97781207  1
  Li  Li6  1  0.84817911  0.57831666  0.46919927  1
  Li  Li7  1  0.89354483  0.28383497  0.54578956  1
  Mn  Mn8  1  0.20132525  0.92730775  0.66778970  1
  Mn  Mn9  1  0.25813752  0.21100048  0.82805864  1
  Mn  Mn10  1  0.21048472  0.72508597  0.16147056  1
  Mn  Mn11  1  0.31560404  0.42193572  0.34297392  1
  Mn  Mn12  1  0.70238427  0.57436516  0.67828929  1
  Mn  Mn13  1  0.76825000  0.27889440  0.83133077  1
  Mn  Mn14  1  0.72130789  0.78303506  0.16498889  1
  Mn  Mn15  1  0.81162768  0.06899097  0.33676673  1
  P  P16  1  0.02527073  0.44782998  0.75505010  1
  P  P17  1  0.11546982  0.71807507  0.87666620  1
  P  P18  1  0.06547933  0.92787864  0.24643964  1
  P  P19  1  0.13685268  0.15090708  0.42992808  1
  P  P20  1  0.38257611  0.64365408  0.57282056  1
  P  P21  1  0.43464178  0.42493338  0.75995702  1
  P  P22  1  0.51924095  0.05618565  0.75089761  1
  P  P23  1  0.37827066  0.20558746  0.11692315  1
  P  P24  1  0.61784541  0.79413751  0.88718348  1
  P  P25  1  0.46508915  0.93351269  0.23981097  1
  P  P26  1  0.56190942  0.56453464  0.24251283  1
  P  P27  1  0.63606071  0.34243638  0.42467847  1
  P  P28  1  0.87737963  0.85645720  0.57310292  1
  P  P29  1  0.92696371  0.07706993  0.75748931  1
  P  P30  1  0.87959212  0.28843220  0.11602431  1
  P  P31  1  0.96250235  0.56141546  0.23614492  1
  O  O32  1  0.02277146  0.41335112  0.62529316  1
  O  O33  1  0.03299619  0.85294925  0.56901344  1
  O  O34  1  0.07767712  0.08793853  0.73896047  1
  O  O35  1  0.11530466  0.35287080  0.85381632  1
  O  O36  1  0.09355097  0.59592320  0.77741063  1
  O  O37  1  0.19769034  0.82456713  0.81635692  1
  O  O38  1  0.21423442  0.65420427  0.99340660  1
  O  O39  1  0.01758675  0.26410302  0.08551515  1
  O  O40  1  0.12919141  0.06987854  0.30116798  1
  O  O41  1  0.06854193  0.91860562  0.11193073  1
  O  O42  1  0.10547920  0.55298154  0.19260417  1
  O  O43  1  0.19928732  0.28933769  0.40762352  1
  O  O44  1  0.16321726  0.80983335  0.30729574  1
  O  O45  1  0.22488457  0.05879282  0.52959126  1
  O  O46  1  0.29695035  0.56283841  0.46646533  1
  O  O47  1  0.33617145  0.30712755  0.70342283  1
  O  O48  1  0.33208050  0.78939425  0.58625807  1
  O  O49  1  0.36729265  0.04502150  0.78496751  1
  O  O50  1  0.36893564  0.56537711  0.69814820  1
  O  O51  1  0.42902552  0.43533513  0.89446751  1
  O  O52  1  0.48357336  0.76528283  0.92390461  1
  O  O53  1  0.27008244  0.16564414  0.00141350  1
  O  O54  1  0.31544259  0.32660335  0.17901496  1
  O  O55  1  0.39148465  0.08246698  0.21405100  1
  O  O56  1  0.41547451  0.57175060  0.27505835  1
  O  O57  1  0.37500044  0.83295511  0.15076445  1
  O  O58  1  0.51519860  0.08027855  0.61925618  1
  O  O59  1  0.48882062  0.32917333  0.44198543  1
  O  O60  1  0.54112090  0.64118372  0.57010596  1
  O  O61  1  0.47911171  0.90625854  0.37216731  1
  O  O62  1  0.60532116  0.15381561  0.84735540  1
  O  O63  1  0.58422087  0.41310818  0.73484803  1
  O  O64  1  0.59326547  0.90938670  0.78109990  1
  O  O65  1  0.68876533  0.67756144  0.83128637  1
  O  O66  1  0.72296992  0.86313749  0.99888716  1
  O  O67  1  0.52075417  0.23085281  0.09012267  1
  O  O68  1  0.55873608  0.56496458  0.10668296  1
  O  O69  1  0.63197871  0.42284695  0.29504471  1
  O  O70  1  0.60957028  0.94666650  0.19524906  1
  O  O71  1  0.70659784  0.20517414  0.40778425  1
  O  O72  1  0.66229802  0.68138753  0.30013081  1
  O  O73  1  0.73365837  0.42940812  0.52128194  1
  O  O74  1  0.79032520  0.93374191  0.46379522  1
  O  O75  1  0.83423473  0.19793095  0.69167949  1
  O  O76  1  0.82210038  0.71224088  0.59043465  1
  O  O77  1  0.87262496  0.45730935  0.78717904  1
  O  O78  1  0.90269406  0.08111962  0.88728978  1
  O  O79  1  0.86219620  0.93854332  0.69538092  1
  O  O80  1  0.97867816  0.75928959  0.90139934  1
  O  O81  1  0.76577839  0.33276486  0.00054252  1
  O  O82  1  0.81291944  0.16797642  0.17702832  1
  O  O83  1  0.88786594  0.41215907  0.21117413  1
  O  O84  1  0.86917831  0.66139562  0.14557083  1
  O  O85  1  0.91418422  0.92059999  0.27223141  1
  O  O86  1  0.98650783  0.16499226  0.44593076  1
  O  O87  1  0.97255776  0.58705474  0.36829084  1
