# generated using pymatgen
data_LiNb(PO3)4
_symmetry_space_group_name_H-M   'P 1'
_cell_length_a   7.46912432
_cell_length_b   7.46912432
_cell_length_c   10.06436979
_cell_angle_alpha   81.07159313
_cell_angle_beta   70.66241358
_cell_angle_gamma   110.16246591
_symmetry_Int_Tables_number   1
_chemical_formula_structural   LiNb(PO3)4
_chemical_formula_sum   'Li2 Nb2 P8 O24'
_cell_volume   473.77791213
_cell_formula_units_Z   2
loop_
 _symmetry_equiv_pos_site_id
 _symmetry_equiv_pos_as_xyz
  1  'x, y, z'
loop_
 _atom_site_type_symbol
 _atom_site_label
 _atom_site_symmetry_multiplicity
 _atom_site_fract_x
 _atom_site_fract_y
 _atom_site_fract_z
 _atom_site_occupancy
  Li  Li0  1  0.22535869  0.97535869  0.75000000  1
  Li  Li1  1  0.77464131  0.02464131  0.25000000  1
  Nb  Nb2  1  0.00000000  0.50000000  -0.00000000  1
  Nb  Nb3  1  0.00000000  0.00000000  0.50000000  1
  P  P4  1  0.99763153  0.68306401  0.30641259  1
  P  P5  1  0.26854787  0.72713087  0.47434933  1
  P  P6  1  0.70148120  0.74289720  0.02565067  1
  P  P7  1  0.51052340  0.69595588  0.80641259  1
  P  P8  1  0.48947660  0.30404412  0.19358741  1
  P  P9  1  0.29851880  0.25710280  0.97434933  1
  P  P10  1  0.73145213  0.27286913  0.52565067  1
  P  P11  1  0.00236847  0.31693599  0.69358741  1
  O  O12  1  0.04177186  0.64784584  0.15843701  1
  O  O13  1  0.12852619  0.80803660  0.57147903  1
  O  O14  1  0.18877002  0.68280328  0.34515368  1
  O  O15  1  0.49754245  0.83937148  0.40857917  1
  O  O16  1  0.31007938  0.71421317  0.82078568  1
  O  O17  1  0.20737816  0.50251126  0.56778135  1
  O  O18  1  0.12048337  0.29999478  0.07147903  1
  O  O19  1  0.74795064  0.90612262  0.09142083  1
  O  O20  1  0.57029361  0.77515951  0.93221865  1
  O  O21  1  0.69371716  0.79979013  0.65843701  1
  O  O22  1  0.52795597  0.53392370  0.15484632  1
  O  O23  1  0.03499885  0.13086506  0.67921432  1
  O  O24  1  0.96500115  0.86913494  0.32078568  1
  O  O25  1  0.47204403  0.46607630  0.84515368  1
  O  O26  1  0.30628284  0.20020987  0.34156299  1
  O  O27  1  0.42970639  0.22484049  0.06778135  1
  O  O28  1  0.25204936  0.09387738  0.90857917  1
  O  O29  1  0.87951663  0.70000522  0.92852097  1
  O  O30  1  0.79262184  0.49748874  0.43221865  1
  O  O31  1  0.68992062  0.28578683  0.17921432  1
  O  O32  1  0.50245755  0.16062852  0.59142083  1
  O  O33  1  0.81122998  0.31719672  0.65484632  1
  O  O34  1  0.87147381  0.19196340  0.42852097  1
  O  O35  1  0.95822814  0.35215416  0.84156299  1
