# generated using pymatgen
data_Ba2ZrO3F2
_symmetry_space_group_name_H-M   'P 1'
_cell_length_a   4.14931165
_cell_length_b   4.12625122
_cell_length_c   8.77960457
_cell_angle_alpha   76.40892714
_cell_angle_beta   76.33150043
_cell_angle_gamma   90.00000000
_symmetry_Int_Tables_number   1
_chemical_formula_structural   Ba2ZrO3F2
_chemical_formula_sum   'Ba2 Zr1 O3 F2'
_cell_volume   141.72382259
_cell_formula_units_Z   1
loop_
 _symmetry_equiv_pos_site_id
 _symmetry_equiv_pos_as_xyz
  1  'x, y, z'
loop_
 _atom_site_type_symbol
 _atom_site_label
 _atom_site_symmetry_multiplicity
 _atom_site_fract_x
 _atom_site_fract_y
 _atom_site_fract_z
 _atom_site_occupancy
  Ba  Ba0  1  0.36974918  0.36974918  0.26050164  1
  Ba  Ba1  1  0.65260847  0.65260847  0.69478305  1
  Zr  Zr2  1  0.00741273  0.00741273  0.98517454  1
  O  O3  1  0.49064876  0.99064876  0.01870248  1
  O  O4  1  0.98331209  0.48331209  0.03337581  1
  O  O5  1  0.12744607  0.12744607  0.74510786  1
  F  F6  1  0.25530005  0.75530005  0.48939990  1
  F  F7  1  0.86352264  0.86352264  0.27295472  1
