# generated using pymatgen
data_LiMn2F7
_symmetry_space_group_name_H-M   'P 1'
_cell_length_a   8.10370189
_cell_length_b   8.09998610
_cell_length_c   8.30155895
_cell_angle_alpha   90.00000000
_cell_angle_beta   80.22921576
_cell_angle_gamma   90.00000000
_symmetry_Int_Tables_number   1
_chemical_formula_structural   LiMn2F7
_chemical_formula_sum   'Li4 Mn8 F28'
_cell_volume   537.00906650
_cell_formula_units_Z   4
loop_
 _symmetry_equiv_pos_site_id
 _symmetry_equiv_pos_as_xyz
  1  'x, y, z'
loop_
 _atom_site_type_symbol
 _atom_site_label
 _atom_site_symmetry_multiplicity
 _atom_site_fract_x
 _atom_site_fract_y
 _atom_site_fract_z
 _atom_site_occupancy
  Li  Li0  1  0.12778530  0.09164571  0.65197041  1
  Li  Li1  1  0.37221470  0.59164571  0.84802959  1
  Li  Li2  1  0.62778530  0.40835429  0.15197041  1
  Li  Li3  1  0.87221470  0.90835429  0.34802959  1
  Mn  Mn4  1  0.03511771  0.71820769  0.70684479  1
  Mn  Mn5  1  0.30150408  0.38188528  0.41889602  1
  Mn  Mn6  1  0.19849592  0.88188528  0.08110398  1
  Mn  Mn7  1  0.46488229  0.21820769  0.79315521  1
  Mn  Mn8  1  0.53511771  0.78179231  0.20684479  1
  Mn  Mn9  1  0.80150408  0.11811472  0.91889602  1
  Mn  Mn10  1  0.69849592  0.61811472  0.58110398  1
  Mn  Mn11  1  0.96488229  0.28179231  0.29315521  1
  F  F12  1  0.05228884  0.06247042  0.14423963  1
  F  F13  1  0.14484314  0.42347998  0.22933024  1
  F  F14  1  0.05064854  0.76513856  0.22946619  1
  F  F15  1  0.11212064  0.21318767  0.44575406  1
  F  F16  1  0.15187999  0.69240777  0.88736878  1
  F  F17  1  0.19267763  0.86570159  0.61065468  1
  F  F18  1  0.17231911  0.51485851  0.57745515  1
  F  F19  1  0.38787936  0.71318767  0.05424594  1
  F  F20  1  0.44935146  0.26513856  0.27053381  1
  F  F21  1  0.35515686  0.92347998  0.27066976  1
  F  F22  1  0.32768089  0.01485851  0.92254485  1
  F  F23  1  0.30732237  0.36570159  0.88934532  1
  F  F24  1  0.34812001  0.19240777  0.61263122  1
  F  F25  1  0.44771116  0.56247042  0.35576037  1
  F  F26  1  0.55228884  0.43752958  0.64423963  1
  F  F27  1  0.65187999  0.80759223  0.38736878  1
  F  F28  1  0.69267763  0.63429841  0.11065468  1
  F  F29  1  0.67231911  0.98514149  0.07745515  1
  F  F30  1  0.64484314  0.07652002  0.72933024  1
  F  F31  1  0.55064854  0.73486144  0.72946619  1
  F  F32  1  0.61212064  0.28681233  0.94575406  1
  F  F33  1  0.82768089  0.48514149  0.42254485  1
  F  F34  1  0.80732237  0.13429841  0.38934532  1
  F  F35  1  0.84812001  0.30759223  0.11263122  1
  F  F36  1  0.88787936  0.78681233  0.55424594  1
  F  F37  1  0.94935146  0.23486144  0.77053381  1
  F  F38  1  0.85515686  0.57652002  0.77066976  1
  F  F39  1  0.94771116  0.93752958  0.85576037  1
