# generated using pymatgen
data_LiFeF3
_symmetry_space_group_name_H-M   'P 1'
_cell_length_a   7.87495506
_cell_length_b   7.02104162
_cell_length_c   7.23659115
_cell_angle_alpha   90.09398998
_cell_angle_beta   94.44736268
_cell_angle_gamma   102.93816031
_symmetry_Int_Tables_number   1
_chemical_formula_structural   LiFeF3
_chemical_formula_sum   'Li6 Fe6 F18'
_cell_volume   388.70743936
_cell_formula_units_Z   6
loop_
 _symmetry_equiv_pos_site_id
 _symmetry_equiv_pos_as_xyz
  1  'x, y, z'
loop_
 _atom_site_type_symbol
 _atom_site_label
 _atom_site_symmetry_multiplicity
 _atom_site_fract_x
 _atom_site_fract_y
 _atom_site_fract_z
 _atom_site_occupancy
  Li  Li0  1  0.08194956  0.26609139  0.45365017  1
  Li  Li1  1  0.33070180  0.59352652  0.24161030  1
  Li  Li2  1  0.33651710  0.07377365  0.24512192  1
  Li  Li3  1  0.66348290  0.92622635  0.75487808  1
  Li  Li4  1  0.66929820  0.40647348  0.75838970  1
  Li  Li5  1  0.91805044  0.73390861  0.54634983  1
  Fe  Fe6  1  0.03737456  0.76105202  0.03992809  1
  Fe  Fe7  1  0.96262544  0.23894798  0.96007191  1
  Fe  Fe8  1  0.26408758  0.56281209  0.73962400  1
  Fe  Fe9  1  0.27357827  0.07527526  0.74556176  1
  Fe  Fe10  1  0.72642173  0.92472474  0.25443824  1
  Fe  Fe11  1  0.73591242  0.43718691  0.26037600  1
  F  F12  1  0.08316642  0.77814315  0.75171745  1
  F  F13  1  0.07686969  0.26832376  0.70897740  1
  F  F14  1  0.17494794  0.50124988  0.00425002  1
  F  F15  1  0.23099037  0.51958022  0.46462754  1
  F  F16  1  0.26962677  0.81908036  0.18841361  1
  F  F17  1  0.24340985  0.09986552  0.47053080  1
  F  F18  1  0.17661734  0.09396805  0.00688014  1
  F  F19  1  0.42088093  0.85036428  0.76983006  1
  F  F20  1  0.42950258  0.36579637  0.77824761  1
  F  F21  1  0.57049742  0.63420363  0.22175239  1
  F  F22  1  0.57911907  0.14963572  0.23016994  1
  F  F23  1  0.82338266  0.90603195  0.99311986  1
  F  F24  1  0.75659015  0.90013448  0.52946920  1
  F  F25  1  0.73037323  0.18091964  0.81158639  1
  F  F26  1  0.76900963  0.48041978  0.53537246  1
  F  F27  1  0.82505206  0.49875012  0.99574998  1
  F  F28  1  0.92313031  0.73167624  0.29102260  1
  F  F29  1  0.91683358  0.22185685  0.24828255  1
