# generated using pymatgen
data_LiFe7O7F
_symmetry_space_group_name_H-M   'P 1'
_cell_length_a   3.56217226
_cell_length_b   3.64952856
_cell_length_c   17.72954234
_cell_angle_alpha   90.00000035
_cell_angle_beta   89.78344217
_cell_angle_gamma   120.81458036
_symmetry_Int_Tables_number   1
_chemical_formula_structural   LiFe7O7F
_chemical_formula_sum   'Li1 Fe7 O7 F1'
_cell_volume   197.94839747
_cell_formula_units_Z   1
loop_
 _symmetry_equiv_pos_site_id
 _symmetry_equiv_pos_as_xyz
  1  'x, y, z'
loop_
 _atom_site_type_symbol
 _atom_site_label
 _atom_site_symmetry_multiplicity
 _atom_site_fract_x
 _atom_site_fract_y
 _atom_site_fract_z
 _atom_site_occupancy
  Li  Li0  1  0.34110293  0.67060097  0.85898091  1
  Fe  Fe1  1  0.34835649  0.67422824  0.36011811  1
  Fe  Fe2  1  0.34221069  0.67115584  0.10759196  1
  Fe  Fe3  1  0.34179687  0.67094844  0.61329002  1
  Fe  Fe4  1  0.68598305  0.34304202  0.23430123  1
  Fe  Fe5  1  0.66859871  0.33434935  0.73462332  1
  Fe  Fe6  1  0.67310152  0.33660076  0.48594902  1
  Fe  Fe7  1  0.67505978  0.33757989  0.98413288  1
  O  O8  1  0.32964862  0.66487381  0.97963511  1
  O  O9  1  0.34163678  0.67086839  0.23432154  1
  O  O10  1  0.35354907  0.67682504  0.73972890  1
  O  O11  1  0.32863838  0.66436869  0.48734348  1
  O  O12  1  0.64043279  0.32026589  0.36073537  1
  O  O13  1  0.63367424  0.31688712  0.10845383  1
  O  O14  1  0.63672708  0.31841354  0.61372972  1
  F  F15  1  0.65948299  0.32979099  0.85792561  1
