# generated using pymatgen
data_LiCo3NiO8
_symmetry_space_group_name_H-M   'P 1'
_cell_length_a   5.95173510
_cell_length_b   5.67796324
_cell_length_c   5.73275567
_cell_angle_alpha   59.68027819
_cell_angle_beta   61.20980769
_cell_angle_gamma   89.86365024
_symmetry_Int_Tables_number   1
_chemical_formula_structural   LiCo3NiO8
_chemical_formula_sum   'Li1 Co3 Ni1 O8'
_cell_volume   138.94206909
_cell_formula_units_Z   1
loop_
 _symmetry_equiv_pos_site_id
 _symmetry_equiv_pos_as_xyz
  1  'x, y, z'
loop_
 _atom_site_type_symbol
 _atom_site_label
 _atom_site_symmetry_multiplicity
 _atom_site_fract_x
 _atom_site_fract_y
 _atom_site_fract_z
 _atom_site_occupancy
  Li  Li0  1  0.50000000  0.50000000  0.50000000  1
  Co  Co1  1  -0.00000000  0.50000000  0.00000000  1
  Co  Co2  1  -0.00000000  -0.00000000  0.50000000  1
  Co  Co3  1  -0.00000000  0.50000000  0.50000000  1
  Ni  Ni4  1  -0.00000000  -0.00000000  0.00000000  1
  O  O5  1  0.20106218  0.24400559  0.01266478  1
  O  O6  1  0.19115527  0.73488057  0.03698258  1
  O  O7  1  0.20106218  0.24400559  0.54226744  1
  O  O8  1  0.20170086  0.72063045  0.53883384  1
  O  O9  1  0.79829914  0.27936955  0.46116616  1
  O  O10  1  0.79893782  0.75599441  0.45773256  1
  O  O11  1  0.80884473  0.26511943  0.96301742  1
  O  O12  1  0.79893782  0.75599441  0.98733522  1
