# generated using pymatgen
data_Li5Cr(P2O7)2
_symmetry_space_group_name_H-M   'P 1'
_cell_length_a   8.77385864
_cell_length_b   9.24022421
_cell_length_c   6.98920605
_cell_angle_alpha   79.09585496
_cell_angle_beta   110.41915550
_cell_angle_gamma   98.83247046
_symmetry_Int_Tables_number   1
_chemical_formula_structural   Li5Cr(P2O7)2
_chemical_formula_sum   'Li10 Cr2 P8 O28'
_cell_volume   519.07497477
_cell_formula_units_Z   2
loop_
 _symmetry_equiv_pos_site_id
 _symmetry_equiv_pos_as_xyz
  1  'x, y, z'
loop_
 _atom_site_type_symbol
 _atom_site_label
 _atom_site_symmetry_multiplicity
 _atom_site_fract_x
 _atom_site_fract_y
 _atom_site_fract_z
 _atom_site_occupancy
  Li  Li0  1  0.17221180  0.73684157  0.68123668  1
  Li  Li1  1  0.25502192  0.43065487  0.74434201  1
  Li  Li2  1  0.27909587  0.90982416  0.24774178  1
  Li  Li3  1  0.52048880  0.85715332  0.94738724  1
  Li  Li4  1  0.50242380  0.66278064  0.57352286  1
  Li  Li5  1  0.49757620  0.33721936  0.42647714  1
  Li  Li6  1  0.47951120  0.14284668  0.05261276  1
  Li  Li7  1  0.72090413  0.09017584  0.75225822  1
  Li  Li8  1  0.74497808  0.56934513  0.25565799  1
  Li  Li9  1  0.82778820  0.26315843  0.31876332  1
  Cr  Cr10  1  0.14256517  0.25432037  0.13045744  1
  Cr  Cr11  1  0.85743483  0.74567963  0.86954256  1
  P  P12  1  0.09572243  0.03444785  0.81875616  1
  P  P13  1  0.09991498  0.55185773  0.29267315  1
  P  P14  1  0.33860669  0.05148548  0.59802041  1
  P  P15  1  0.37903637  0.56983121  0.13428983  1
  P  P16  1  0.62096363  0.43016879  0.86571017  1
  P  P17  1  0.66139331  0.94851452  0.40197959  1
  P  P18  1  0.90008502  0.44814227  0.70732685  1
  P  P19  1  0.90427757  0.96555215  0.18124384  1
  O  O20  1  0.05444294  0.37297954  0.84376774  1
  O  O21  1  0.07979861  0.86256430  0.86294694  1
  O  O22  1  0.06366530  0.90278557  0.25433539  1
  O  O23  1  0.07508486  0.38541979  0.27510808  1
  O  O24  1  0.22552807  0.10702070  0.00388686  1
  O  O25  1  0.16242817  0.58028495  0.51426279  1
  O  O26  1  0.17449574  0.07871447  0.63747678  1
  O  O27  1  0.37078874  0.65886524  0.92586219  1
  O  O28  1  0.33355950  0.89045071  0.57290432  1
  O  O29  1  0.24161816  0.63091839  0.19761768  1
  O  O30  1  0.32414518  0.16384059  0.39904328  1
  O  O31  1  0.33597347  0.40066417  0.12781732  1
  O  O32  1  0.48826756  0.08743494  0.78472643  1
  O  O33  1  0.46008501  0.41217566  0.68883596  1
  O  O34  1  0.53991499  0.58782434  0.31116404  1
  O  O35  1  0.51173244  0.91256506  0.21527357  1
  O  O36  1  0.66402653  0.59933583  0.87218268  1
  O  O37  1  0.67585482  0.83615941  0.60095672  1
  O  O38  1  0.75838184  0.36908161  0.80238232  1
  O  O39  1  0.66644050  0.10954929  0.42709568  1
  O  O40  1  0.62921126  0.34113476  0.07413781  1
  O  O41  1  0.82550426  0.92128553  0.36252322  1
  O  O42  1  0.83757183  0.41971505  0.48573721  1
  O  O43  1  0.77447193  0.89297930  0.99611314  1
  O  O44  1  0.92491514  0.61458021  0.72489192  1
  O  O45  1  0.93633470  0.09721443  0.74566461  1
  O  O46  1  0.92020139  0.13743570  0.13705306  1
  O  O47  1  0.94555706  0.62702046  0.15623226  1
