# generated using pymatgen
data_Li6V9(PO4)8
_symmetry_space_group_name_H-M   'P 1'
_cell_length_a   9.06956372
_cell_length_b   8.85687432
_cell_length_c   8.97440769
_cell_angle_alpha   101.37247797
_cell_angle_beta   100.01094645
_cell_angle_gamma   109.99164974
_symmetry_Int_Tables_number   1
_chemical_formula_structural   Li6V9(PO4)8
_chemical_formula_sum   'Li6 V9 P8 O32'
_cell_volume   640.98003761
_cell_formula_units_Z   1
loop_
 _symmetry_equiv_pos_site_id
 _symmetry_equiv_pos_as_xyz
  1  'x, y, z'
loop_
 _atom_site_type_symbol
 _atom_site_label
 _atom_site_symmetry_multiplicity
 _atom_site_fract_x
 _atom_site_fract_y
 _atom_site_fract_z
 _atom_site_occupancy
  Li  Li0  1  0.99227290  0.87379006  0.63634286  1
  Li  Li1  1  0.27708819  0.76704957  0.03094116  1
  Li  Li2  1  0.34242833  0.30414312  0.29937203  1
  Li  Li3  1  0.65757167  0.69585688  0.70062797  1
  Li  Li4  1  0.72291181  0.23295043  0.96905884  1
  Li  Li5  1  0.00772710  0.12620994  0.36365714  1
  V  V6  1  0.00000000  0.50000000  0.50000000  1
  V  V7  1  0.06028976  0.29563753  0.79252603  1
  V  V8  1  0.43660874  0.87720302  0.70602554  1
  V  V9  1  0.00000000  0.00000000  0.00000000  1
  V  V10  1  0.45096025  0.70194660  0.32231849  1
  V  V11  1  0.50000000  0.50000000  0.00000000  1
  V  V12  1  0.54903975  0.29805340  0.67768151  1
  V  V13  1  0.56339126  0.12279698  0.29397446  1
  V  V14  1  0.93971024  0.70436247  0.20747397  1
  P  P15  1  0.27833958  0.97524360  0.39542944  1
  P  P16  1  0.09126125  0.39273585  0.15581002  1
  P  P17  1  0.29122792  0.48095314  0.66049208  1
  P  P18  1  0.34140441  0.11822323  0.94835682  1
  P  P19  1  0.65859559  0.88177677  0.05164318  1
  P  P20  1  0.70877208  0.51904686  0.33950792  1
  P  P21  1  0.90873875  0.60726415  0.84418998  1
  P  P22  1  0.72166042  0.02475640  0.60457056  1
  O  O23  1  0.11260388  0.96037013  0.30040173  1
  O  O24  1  0.03569798  0.68753399  0.00739148  1
  O  O25  1  0.03774676  0.50854212  0.26956481  1
  O  O26  1  0.32872286  0.93725707  0.89036384  1
  O  O27  1  0.25898356  0.91379092  0.54096357  1
  O  O28  1  0.26245616  0.62608503  0.60467780  1
  O  O29  1  0.13037086  0.32268185  0.56801452  1
  O  O30  1  0.09972835  0.24108483  0.21682001  1
  O  O31  1  0.29571092  0.49996951  0.83839041  1
  O  O32  1  0.35435732  0.88259707  0.28184143  1
  O  O33  1  0.17221332  0.12573955  0.88708190  1
  O  O34  1  0.26387394  0.49535782  0.14158359  1
  O  O35  1  0.60757006  0.82481728  0.87007335  1
  O  O36  1  0.59651570  0.83733298  0.55554555  1
  O  O37  1  0.45049281  0.47361893  0.63365002  1
  O  O38  1  0.46732989  0.24546326  0.88597115  1
  O  O39  1  0.53267011  0.75453674  0.11402885  1
  O  O40  1  0.54950719  0.52638107  0.36634998  1
  O  O41  1  0.40348430  0.16266602  0.44445445  1
  O  O42  1  0.39242994  0.17518272  0.12992665  1
  O  O43  1  0.73612606  0.50464218  0.85841641  1
  O  O44  1  0.82778668  0.87426045  0.11291810  1
  O  O45  1  0.64564268  0.11740293  0.71815857  1
  O  O46  1  0.70428908  0.50003049  0.16160959  1
  O  O47  1  0.90027165  0.75891517  0.78317999  1
  O  O48  1  0.86962914  0.67731815  0.43198548  1
  O  O49  1  0.73754384  0.37391497  0.39532220  1
  O  O50  1  0.74101644  0.08620908  0.45903643  1
  O  O51  1  0.67127714  0.06274293  0.10963616  1
  O  O52  1  0.96225324  0.49145788  0.73043519  1
  O  O53  1  0.96430202  0.31246601  0.99260852  1
  O  O54  1  0.88739612  0.03962987  0.69959827  1
