# generated using pymatgen
data_Li6FeSn3(PO4)6
_symmetry_space_group_name_H-M   'P 1'
_cell_length_a   8.61403906
_cell_length_b   8.62678878
_cell_length_c   8.62006653
_cell_angle_alpha   64.33987839
_cell_angle_beta   64.19961942
_cell_angle_gamma   64.47102394
_symmetry_Int_Tables_number   1
_chemical_formula_structural   Li6FeSn3(PO4)6
_chemical_formula_sum   'Li6 Fe1 Sn3 P6 O24'
_cell_volume   496.08802565
_cell_formula_units_Z   1
loop_
 _symmetry_equiv_pos_site_id
 _symmetry_equiv_pos_as_xyz
  1  'x, y, z'
loop_
 _atom_site_type_symbol
 _atom_site_label
 _atom_site_symmetry_multiplicity
 _atom_site_fract_x
 _atom_site_fract_y
 _atom_site_fract_z
 _atom_site_occupancy
  Li  Li0  1  0.01663562  0.98931718  0.97987598  1
  Li  Li1  1  0.74555393  0.15563491  0.37631566  1
  Li  Li2  1  0.47695241  0.52435511  0.52006554  1
  Li  Li3  1  0.21678323  0.86204955  0.68259775  1
  Li  Li4  1  0.68736156  0.21442060  0.86416927  1
  Li  Li5  1  0.86240036  0.68406010  0.21229242  1
  Fe  Fe6  1  0.84133368  0.84016464  0.83785406  1
  Sn  Sn7  1  0.14636364  0.14756940  0.14421139  1
  Sn  Sn8  1  0.36062913  0.36265862  0.35449658  1
  Sn  Sn9  1  0.66432496  0.66002255  0.66399091  1
  P  P10  1  0.07171714  0.74513517  0.41995460  1
  P  P11  1  0.41975129  0.06942879  0.74474350  1
  P  P12  1  0.74834115  0.42620187  0.06575098  1
  P  P13  1  0.24207505  0.55451260  0.96026478  1
  P  P14  1  0.56066627  0.96645895  0.24210046  1
  P  P15  1  0.95614303  0.23957874  0.54928718  1
  O  O16  1  0.12241757  0.30265105  0.48685681  1
  O  O17  1  0.31997558  0.51754708  0.10925021  1
  O  O18  1  0.09863530  0.90501579  0.24031963  1
  O  O19  1  0.54994082  0.11253163  0.31328386  1
  O  O20  1  0.26088267  0.59785866  0.42229784  1
  O  O21  1  0.00629067  0.80477105  0.58811412  1
  O  O22  1  0.23935771  0.10141054  0.90284658  1
  O  O23  1  0.42732334  0.25711073  0.59224592  1
  O  O24  1  0.60497403  0.41748386  0.26153810  1
  O  O25  1  0.16974508  0.39800407  0.01220969  1
  O  O26  1  0.08267194  0.73353603  0.95387025  1
  O  O27  1  0.38473603  0.03628168  0.19413237  1
  O  O28  1  0.59037615  0.00748494  0.79887380  1
  O  O29  1  0.89934889  0.23933913  0.10177319  1
  O  O30  1  0.80544242  0.59260377  0.00822288  1
  O  O31  1  0.38331812  0.57745509  0.76847916  1
  O  O32  1  0.58214037  0.77502298  0.37940694  1
  O  O33  1  0.73044114  0.95889808  0.07139727  1
  O  O34  1  0.96800675  0.18276103  0.39405483  1
  O  O35  1  0.76970475  0.38283312  0.58929828  1
  O  O36  1  0.40347830  0.94019529  0.67816929  1
  O  O37  1  0.96125948  0.07602398  0.72424582  1
  O  O38  1  0.68076940  0.41431237  0.93512907  1
  O  O39  1  0.94173304  0.67629927  0.40701105  1
