# generated using pymatgen
data_LiV(CO3)2
_symmetry_space_group_name_H-M   'P 1'
_cell_length_a   7.95260787
_cell_length_b   8.02957968
_cell_length_c   5.35915264
_cell_angle_alpha   90.25198396
_cell_angle_beta   90.00000000
_cell_angle_gamma   119.68339997
_symmetry_Int_Tables_number   1
_chemical_formula_structural   LiV(CO3)2
_chemical_formula_sum   'Li3 V3 C6 O18'
_cell_volume   297.30367030
_cell_formula_units_Z   3
loop_
 _symmetry_equiv_pos_site_id
 _symmetry_equiv_pos_as_xyz
  1  'x, y, z'
loop_
 _atom_site_type_symbol
 _atom_site_label
 _atom_site_symmetry_multiplicity
 _atom_site_fract_x
 _atom_site_fract_y
 _atom_site_fract_z
 _atom_site_occupancy
  Li  Li0  1  -0.00043907  0.33389214  0.49958641  1
  Li  Li1  1  0.66566879  0.66610786  0.50041359  1
  Li  Li2  1  0.33265418  0.00000000  0.50000000  1
  V  V3  1  0.99278187  0.66742974  0.00146652  1
  V  V4  1  0.32535213  0.33257026  0.99853348  1
  V  V5  1  0.66040848  0.00000000  0.00000000  1
  C  C6  1  0.33594814  0.66648882  0.24838936  1
  C  C7  1  0.33470011  0.66984237  0.77357649  1
  C  C8  1  0.00051358  0.00081704  0.23832628  1
  C  C9  1  -0.00030346  -0.00081704  0.76167372  1
  C  C10  1  0.66945933  0.33351118  0.75161064  1
  C  C11  1  0.66485774  0.33015763  0.22642351  1
  O  O12  1  0.09130957  0.90379266  0.76113883  1
  O  O13  1  0.22829682  0.74603839  0.24512797  1
  O  O14  1  0.14768448  0.57793506  0.78103721  1
  O  O15  1  0.09821696  0.18665743  0.75902067  1
  O  O16  1  0.42931175  0.85816165  0.77103761  1
  O  O17  1  0.25480403  0.47935582  0.24914765  1
  O  O18  1  0.52248490  0.76888205  0.25231790  1
  O  O19  1  0.18751691  0.09620734  0.23886117  1
  O  O20  1  0.42852494  0.57686246  0.77079493  1
  O  O21  1  0.48225843  0.25396161  0.75487203  1
  O  O22  1  0.56974943  0.42206494  0.21896279  1
  O  O23  1  0.81182528  0.90903378  0.76701047  1
  O  O24  1  0.91155953  0.81334257  0.24097933  1
  O  O25  1  0.57115110  0.14183835  0.22896239  1
  O  O26  1  0.77544821  0.52064418  0.75085235  1
  O  O27  1  0.75360185  0.23111795  0.74768210  1
  O  O28  1  0.85166248  0.42313754  0.22920507  1
  O  O29  1  0.90279150  0.09096622  0.23298953  1
