# generated using pymatgen
data_Li5Fe6P5O24
_symmetry_space_group_name_H-M   'P 1'
_cell_length_a   6.85825450
_cell_length_b   10.75574408
_cell_length_c   6.50359295
_cell_angle_alpha   72.70069673
_cell_angle_beta   90.17997264
_cell_angle_gamma   110.68220201
_symmetry_Int_Tables_number   1
_chemical_formula_structural   Li5Fe6P5O24
_chemical_formula_sum   'Li5 Fe6 P5 O24'
_cell_volume   425.72465341
_cell_formula_units_Z   1
loop_
 _symmetry_equiv_pos_site_id
 _symmetry_equiv_pos_as_xyz
  1  'x, y, z'
loop_
 _atom_site_type_symbol
 _atom_site_label
 _atom_site_symmetry_multiplicity
 _atom_site_fract_x
 _atom_site_fract_y
 _atom_site_fract_z
 _atom_site_occupancy
  Li  Li0  1  0.75087845  0.51599423  0.24595750  1
  Li  Li1  1  0.49985509  0.02008117  0.46850824  1
  Li  Li2  1  0.25017498  0.47519920  0.24075634  1
  Li  Li3  1  0.53136525  0.03490119  0.98464227  1
  Li  Li4  1  0.99398580  0.98161115  0.51587201  1
  Fe  Fe5  1  0.86367568  0.24311924  0.11111303  1
  Fe  Fe6  1  0.37015107  0.24368701  0.18677107  1
  Fe  Fe7  1  0.10429380  0.75391937  0.37011278  1
  Fe  Fe8  1  0.39053904  0.24392569  0.61544249  1
  Fe  Fe9  1  0.21236249  0.45728885  0.76765836  1
  Fe  Fe10  1  0.64707781  0.75637464  0.87557048  1
  P  P11  1  0.00672805  0.00110101  0.00368615  1
  P  P12  1  0.87639963  0.25556067  0.52089159  1
  P  P13  1  0.50980184  0.74712606  0.38016586  1
  P  P14  1  0.74610862  0.50884213  0.74921848  1
  P  P15  1  0.23997374  0.74979372  0.87393678  1
  O  O16  1  0.85647034  0.07532098  0.02648262  1
  O  O17  1  0.17169104  0.32833437  0.04847558  1
  O  O18  1  0.57530957  0.17633763  0.13264363  1
  O  O19  1  0.10267388  0.71542776  0.08534201  1
  O  O20  1  0.90406173  0.37891580  0.30821343  1
  O  O21  1  0.86021999  0.12874449  0.44240418  1
  O  O22  1  0.28111824  0.10646559  0.47116128  1
  O  O23  1  0.46341321  0.38426878  0.33206678  1
  O  O24  1  0.61344689  0.72017235  0.19755622  1
  O  O25  1  0.01950667  0.91130874  0.23919508  1
  O  O26  1  0.42033705  0.86654538  0.29620084  1
  O  O27  1  0.08428566  0.30258772  0.62907078  1
  O  O28  1  0.67179603  0.21397200  0.66706095  1
  O  O29  1  0.30099381  0.61136504  0.47729642  1
  O  O30  1  0.83936571  0.59060652  0.50860409  1
  O  O31  1  0.51194262  0.41054416  0.75377221  1
  O  O32  1  0.23511891  0.10161785  0.91132414  1
  O  O33  1  0.65320012  0.78175274  0.55336247  1
  O  O34  1  0.12879861  0.77517589  0.66933475  1
  O  O35  1  0.89579888  0.42955441  0.84469962  1
  O  O36  1  0.73264590  0.59359144  0.90108376  1
  O  O37  1  0.31574897  0.62098600  0.90570016  1
  O  O38  1  0.45458835  0.87530124  0.83864842  1
  O  O39  1  0.91409649  0.91257879  0.84999615  1
