# generated using pymatgen
data_K5Te2Mo6H18NO36
_symmetry_space_group_name_H-M   'P 1'
_cell_length_a   10.21055145
_cell_length_b   10.91311021
_cell_length_c   19.76006488
_cell_angle_alpha   98.63511742
_cell_angle_beta   75.02703024
_cell_angle_gamma   117.89231545
_symmetry_Int_Tables_number   1
_chemical_formula_structural   K5Te2Mo6H18NO36
_chemical_formula_sum   'K10 Te4 Mo12 H36 N2 O72'
_cell_volume   1878.87213891
_cell_formula_units_Z   2
loop_
 _symmetry_equiv_pos_site_id
 _symmetry_equiv_pos_as_xyz
  1  'x, y, z'
loop_
 _atom_site_type_symbol
 _atom_site_label
 _atom_site_symmetry_multiplicity
 _atom_site_fract_x
 _atom_site_fract_y
 _atom_site_fract_z
 _atom_site_occupancy
  K  K0  1  0.40199306  0.64796678  0.87481319  1
  K  K1  1  0.12999544  0.85940530  0.60356133  1
  K  K2  1  0.62584854  0.35940530  0.10356133  1
  K  K3  1  0.87116054  0.14796678  0.37481319  1
  K  K4  1  0.29691239  0.51349090  0.22110935  1
  K  K5  1  0.50812899  0.99197835  0.27792876  1
  K  K6  1  0.70592060  0.49197835  0.77792876  1
  K  K7  1  0.49546916  0.01349090  0.72110935  1
  K  K8  1  0.10665043  0.66030465  0.03737080  1
  K  K9  1  0.01628342  0.16030465  0.53737080  1
  Te  Te10  1  0.49762935  0.99785822  0.99819479  1
  Te  Te11  1  0.00203408  0.49785822  0.49819479  1
  Te  Te12  1  0.99965235  0.99917236  0.00078730  1
  Te  Te13  1  0.49873271  0.49917236  0.50078730  1
  Mo  Mo14  1  0.03173210  0.88830881  0.82914483  1
  Mo  Mo15  1  0.47626500  0.61221215  0.66982407  1
  Mo  Mo16  1  0.96612307  0.11221215  0.16982407  1
  Mo  Mo17  1  0.52743188  0.38830881  0.32914483  1
  Mo  Mo18  1  0.23287940  0.32624023  0.04188487  1
  Mo  Mo19  1  0.45404017  0.17723879  0.45787993  1
  Mo  Mo20  1  0.76531869  0.67723879  0.95787993  1
  Mo  Mo21  1  0.55147595  0.82624023  0.54188487  1
  Mo  Mo22  1  0.27564364  0.21424184  0.87420782  1
  Mo  Mo23  1  0.44123743  0.28978160  0.62567245  1
  Mo  Mo24  1  0.72287172  0.78978160  0.12567245  1
  Mo  Mo25  1  0.56439038  0.71424184  0.37420782  1
  H  H26  1  0.88776026  0.36617953  0.28160337  1
  H  H27  1  0.30726312  0.13151851  0.21883342  1
  H  H28  1  0.10542197  0.63151851  0.71883342  1
  H  H29  1  0.69681591  0.86617953  0.78160337  1
  H  H30  1  0.47769661  0.94487872  0.87518483  1
  H  H31  1  0.92221888  0.55255130  0.62164232  1
  H  H32  1  0.50869010  0.05255130  0.12164232  1
  H  H33  1  0.09199728  0.44487872  0.37518483  1
  H  H34  1  0.05368991  0.63009264  0.87482622  1
  H  H35  1  0.80487716  0.88078012  0.62279056  1
  H  H36  1  0.95311240  0.38078012  0.12279056  1
  H  H37  1  0.20157651  0.13009264  0.37482622  1
  H  H38  1  0.45996899  0.20118752  0.97421811  1
  H  H39  1  0.73881431  0.29103494  0.52355899  1
  H  H40  1  0.52866165  0.79103494  0.02355899  1
  H  H41  1  0.26700041  0.70118752  0.47421811  1
  H  H42  1  0.19775169  0.73430051  0.20366858  1
  H  H43  1  0.09412077  0.76437649  0.33116705  1
  H  H44  1  0.83908868  0.26437649  0.83116705  1
  H  H45  1  0.83288024  0.23430051  0.70366858  1
  H  H46  1  0.33953212  0.75519171  0.14487790  1
  H  H47  1  0.21640501  0.74902576  0.35568113  1
  H  H48  1  0.67693962  0.24902576  0.85568113  1
  H  H49  1  0.77078170  0.25519171  0.64487790  1
  H  H50  1  0.07543963  0.49851562  0.84534102  1
  H  H51  1  0.89795018  0.97951144  0.67659083  1
  H  H52  1  0.90497043  0.47951144  0.17659083  1
  H  H53  1  0.07773497  0.99851562  0.34534102  1
  H  H54  1  0.74857339  0.98718154  0.94398406  1
  H  H55  1  0.20910983  0.51354414  0.55563088  1
  H  H56  1  0.24880342  0.01354414  0.05563088  1
  H  H57  1  0.79462408  0.48718154  0.44398406  1
  H  H58  1  0.94171480  0.48086062  0.33881308  1
  H  H59  1  0.28662262  0.01155033  0.16343286  1
  H  H60  1  0.06149486  0.51155033  0.66343286  1
  H  H61  1  0.70033273  0.98086062  0.83881308  1
  N  N62  1  0.93660426  0.72457810  0.24526097  1
  N  N63  1  0.04271287  0.22457810  0.74526097  1
  O  O64  1  0.10962912  0.57788007  0.87770676  1
  O  O65  1  0.91000731  0.94550117  0.62799998  1
  O  O66  1  0.90749388  0.44550117  0.12799998  1
  O  O67  1  0.09054419  0.07788007  0.37770676  1
  O  O68  1  0.39753893  0.92434617  0.91819456  1
  O  O69  1  0.89527656  0.56626936  0.57978550  1
  O  O70  1  0.59120731  0.06626936  0.07978550  1
  O  O71  1  0.10861268  0.42434617  0.41819456  1
  O  O72  1  0.97948311  0.43174949  0.29865595  1
  O  O73  1  0.34380668  0.06173118  0.20006569  1
  O  O74  1  0.01785881  0.56173118  0.70006569  1
  O  O75  1  0.65361043  0.93174949  0.79865595  1
  O  O76  1  0.29990500  0.37082458  0.84888803  1
  O  O77  1  0.28276866  0.13208180  0.64802681  1
  O  O78  1  0.70128633  0.63208180  0.14802681  1
  O  O79  1  0.72203156  0.87082458  0.34888803  1
  O  O80  1  0.24422453  0.47519748  0.01365421  1
  O  O81  1  0.28666677  0.03094072  0.48736575  1
  O  O82  1  0.75690820  0.53094072  0.98736575  1
  O  O83  1  0.71731874  0.97519748  0.51365421  1
  O  O84  1  0.17802874  0.86340691  0.77010075  1
  O  O85  1  0.58655926  0.63867962  0.73038558  1
  O  O86  1  0.82173478  0.13867962  0.23038558  1
  O  O87  1  0.41527742  0.36340691  0.27010075  1
  O  O88  1  0.86320847  0.91234292  0.93560869  1
  O  O89  1  0.38499416  0.58791600  0.56452690  1
  O  O90  1  0.13839494  0.08791600  0.06452690  1
  O  O91  1  0.61352576  0.41234292  0.43560869  1
  O  O92  1  0.89022160  0.84090784  0.78241465  1
  O  O93  1  0.33691055  0.66187197  0.71517957  1
  O  O94  1  0.10978185  0.16187197  0.21517957  1
  O  O95  1  0.66827159  0.34090784  0.28241465  1
  O  O96  1  0.35689301  0.27438919  0.95986323  1
  O  O97  1  0.54874385  0.23151860  0.53925498  1
  O  O98  1  0.64351977  0.73151860  0.03925498  1
  O  O99  1  0.45763295  0.77438919  0.45986323  1
  O  O100  1  0.07455881  0.18686461  0.96962543  1
  O  O101  1  0.35175294  0.31212333  0.52967483  1
  O  O102  1  0.93069557  0.81212333  0.02967483  1
  O  O103  1  0.64268037  0.68686461  0.46962543  1
  O  O104  1  0.94926263  0.72056830  0.88242002  1
  O  O105  1  0.61621938  0.77941013  0.61554738  1
  O  O106  1  0.04764337  0.27941013  0.11554738  1
  O  O107  1  0.38888565  0.22056830  0.38242002  1
  O  O108  1  0.15636494  0.99232447  0.91975637  1
  O  O109  1  0.58554314  0.50885238  0.57943463  1
  O  O110  1  0.84387461  0.00885238  0.07943463  1
  O  O111  1  0.41620316  0.49232447  0.41975637  1
  O  O112  1  0.36393889  0.38082584  0.09573103  1
  O  O113  1  0.58065298  0.11836257  0.40387693  1
  O  O114  1  0.63383266  0.61836257  0.90387693  1
  O  O115  1  0.42115593  0.88082584  0.59573103  1
  O  O116  1  0.23017582  0.69596267  0.15826193  1
  O  O117  1  0.19950787  0.78139028  0.31654609  1
  O  O118  1  0.76533632  0.28139028  0.81654609  1
  O  O119  1  0.80752492  0.19596267  0.65826193  1
  O  O120  1  0.54496375  0.18793843  0.98312638  1
  O  O121  1  0.84670492  0.30505406  0.51000607  1
  O  O122  1  0.44834308  0.80505406  0.01000607  1
  O  O123  1  0.15984830  0.68793843  0.48312638  1
  O  O124  1  0.11424960  0.08910215  0.82624639  1
  O  O125  1  0.35440325  0.41163870  0.67539968  1
  O  O126  1  0.88183577  0.91163870  0.17539968  1
  O  O127  1  0.64860615  0.58910215  0.32624639  1
  O  O128  1  0.43127681  0.19033532  0.82442303  1
  O  O129  1  0.56915930  0.30872952  0.67578554  1
  O  O130  1  0.56378468  0.80872952  0.17578554  1
  O  O131  1  0.43463548  0.69033532  0.32442303  1
  O  O132  1  0.69483412  0.03962080  0.93576732  1
  O  O133  1  0.09584681  0.45308180  0.55960768  1
  O  O134  1  0.29762731  0.95308180  0.05960768  1
  O  O135  1  0.90901935  0.53962080  0.43576732  1
