# generated using pymatgen
data_Li4V3Ni(PO4)4
_symmetry_space_group_name_H-M   'P 1'
_cell_length_a   4.75658625
_cell_length_b   10.42929174
_cell_length_c   6.07463437
_cell_angle_alpha   90.00000000
_cell_angle_beta   90.00000000
_cell_angle_gamma   90.08813459
_symmetry_Int_Tables_number   1
_chemical_formula_structural   Li4V3Ni(PO4)4
_chemical_formula_sum   'Li4 V3 Ni1 P4 O16'
_cell_volume   301.34904641
_cell_formula_units_Z   1
loop_
 _symmetry_equiv_pos_site_id
 _symmetry_equiv_pos_as_xyz
  1  'x, y, z'
loop_
 _atom_site_type_symbol
 _atom_site_label
 _atom_site_symmetry_multiplicity
 _atom_site_fract_x
 _atom_site_fract_y
 _atom_site_fract_z
 _atom_site_occupancy
  Li  Li0  1  0.00021946  0.99801330  0.99924020  1
  Li  Li1  1  0.00021946  0.99801330  0.50075980  1
  Li  Li2  1  0.49960862  0.50115938  0.49940277  1
  Li  Li3  1  0.49960862  0.50115938  0.00059723  1
  V  V4  1  0.48474795  0.22509353  0.75000000  1
  V  V5  1  0.51729254  0.77464104  0.25000000  1
  V  V6  1  0.98348397  0.27642011  0.25000000  1
  Ni  Ni7  1  0.01605069  0.72367322  0.75000000  1
  P  P8  1  0.08187201  0.59414128  0.25000000  1
  P  P9  1  0.41322641  0.09174855  0.25000000  1
  P  P10  1  0.58816220  0.90364665  0.75000000  1
  P  P11  1  0.91594676  0.41131525  0.75000000  1
  O  O12  1  0.20924001  0.45671846  0.25000000  1
  O  O13  1  0.21467685  0.66471815  0.04466151  1
  O  O14  1  0.21467685  0.66471815  0.45533849  1
  O  O15  1  0.23874848  0.40527348  0.75000000  1
  O  O16  1  0.26478996  0.89707853  0.75000000  1
  O  O17  1  0.27669999  0.16193682  0.04664513  1
  O  O18  1  0.27669999  0.16193682  0.45335487  1
  O  O19  1  0.29150630  0.95397708  0.25000000  1
  O  O20  1  0.70525296  0.04314532  0.75000000  1
  O  O21  1  0.72920075  0.83424205  0.54831249  1
  O  O22  1  0.72920075  0.83424205  0.95168751  1
  O  O23  1  0.73629162  0.09604120  0.25000000  1
  O  O24  1  0.75933189  0.59478891  0.25000000  1
  O  O25  1  0.77762591  0.34102283  0.54722003  1
  O  O26  1  0.77762591  0.34102283  0.95277997  1
  O  O27  1  0.79799110  0.55011235  0.75000000  1
