# generated using pymatgen
data_LiCu3(SiO3)2
_symmetry_space_group_name_H-M   'P 1'
_cell_length_a   5.90468163
_cell_length_b   4.83890520
_cell_length_c   4.84287436
_cell_angle_alpha   59.97269511
_cell_angle_beta   74.16123393
_cell_angle_gamma   82.15014829
_symmetry_Int_Tables_number   1
_chemical_formula_structural   LiCu3(SiO3)2
_chemical_formula_sum   'Li1 Cu3 Si2 O6'
_cell_volume   115.25189996
_cell_formula_units_Z   1
loop_
 _symmetry_equiv_pos_site_id
 _symmetry_equiv_pos_as_xyz
  1  'x, y, z'
loop_
 _atom_site_type_symbol
 _atom_site_label
 _atom_site_symmetry_multiplicity
 _atom_site_fract_x
 _atom_site_fract_y
 _atom_site_fract_z
 _atom_site_occupancy
  Li  Li0  1  0.50000001  0.33333256  0.83333345  1
  Cu  Cu1  1  0.00000001  0.99562317  0.00218758  1
  Cu  Cu2  1  0.00000014  0.33333320  0.33333326  1
  Cu  Cu3  1  0.00000004  0.67104766  0.66447763  1
  Si  Si4  1  0.49999997  0.99996528  0.50001713  1
  Si  Si5  1  0.49999997  0.66670045  0.16664981  1
  O  O6  1  0.66903119  0.96425718  0.14699361  1
  O  O7  1  0.33004792  0.33333279  0.26084879  1
  O  O8  1  0.66995195  0.33333289  0.40581818  1
  O  O9  1  0.33096894  0.96425758  0.88874898  1
  O  O10  1  0.33096799  0.70240834  0.51967375  1
  O  O11  1  0.66903185  0.70240791  0.77791782  1
