# generated using pymatgen
data_Li9Mn5O12
_symmetry_space_group_name_H-M   'P 1'
_cell_length_a   6.52817274
_cell_length_b   6.52814287
_cell_length_c   12.57544187
_cell_angle_alpha   101.81128791
_cell_angle_beta   78.19119694
_cell_angle_gamma   78.25867963
_symmetry_Int_Tables_number   1
_chemical_formula_structural   Li9Mn5O12
_chemical_formula_sum   'Li18 Mn10 O24'
_cell_volume   496.35062733
_cell_formula_units_Z   2
loop_
 _symmetry_equiv_pos_site_id
 _symmetry_equiv_pos_as_xyz
  1  'x, y, z'
loop_
 _atom_site_type_symbol
 _atom_site_label
 _atom_site_symmetry_multiplicity
 _atom_site_fract_x
 _atom_site_fract_y
 _atom_site_fract_z
 _atom_site_occupancy
  Li  Li0  1  0.54174548  0.20841765  0.91663819  1
  Li  Li1  1  0.74100419  0.00116001  0.57274948  1
  Li  Li2  1  0.91270849  0.41352867  0.75439740  1
  Li  Li3  1  0.33456317  0.40758476  0.76059775  1
  Li  Li4  1  0.65720707  0.32380812  0.66666365  1
  Li  Li5  1  0.54164973  0.20829849  0.41668103  1
  Li  Li6  1  0.42616386  0.09269773  0.16666257  1
  Li  Li7  1  0.74894024  0.00948876  0.07280449  1
  Li  Li8  1  0.17059842  0.00326148  0.07888592  1
  Li  Li9  1  0.08242669  0.34010727  0.89781506  1
  Li  Li10  1  0.74671477  0.57936618  0.57888738  1
  Li  Li11  1  0.34269859  0.41547452  0.26055658  1
  Li  Li12  1  0.04173846  0.70840550  0.91670669  1
  Li  Li13  1  0.00082611  0.07660029  0.93538182  1
  Li  Li14  1  0.40986216  0.66760463  0.39791697  1
  Li  Li15  1  0.04159100  0.70812000  0.41663736  1
  Li  Li16  1  0.67335161  0.74924241  0.43545714  1
  Li  Li17  1  0.33647113  0.83727777  0.25446236  1
  Mn  Mn18  1  0.22637094  0.06344551  0.58457947  1
  Mn  Mn19  1  0.04176540  0.20839381  0.41665100  1
  Mn  Mn20  1  0.85694840  0.35327561  0.24877544  1
  Mn  Mn21  1  0.21058346  0.53763912  0.58223080  1
  Mn  Mn22  1  0.54168377  0.70836715  0.91667764  1
  Mn  Mn23  1  0.68651175  0.52358796  0.08458193  1
  Mn  Mn24  1  0.21235816  0.53948726  0.08224713  1
  Mn  Mn25  1  0.87094936  0.87717147  0.75110500  1
  Mn  Mn26  1  0.39674832  0.89301844  0.74876179  1
  Mn  Mn27  1  0.87288715  0.87909008  0.25109931  1
  O  O28  1  0.63392248  0.09602422  0.74209324  1
  O  O29  1  0.14430318  0.12138954  0.75176002  1
  O  O30  1  0.65390553  0.11611644  0.24213488  1
  O  O31  1  0.12147580  0.13839216  0.25009709  1
  O  O32  1  0.96184128  0.27823499  0.58322574  1
  O  O33  1  0.42941538  0.30059436  0.59124255  1
  O  O34  1  0.78093665  0.47861893  0.92241765  1
  O  O35  1  0.29539885  0.47429623  0.92152110  1
  O  O36  1  0.81213649  0.44779078  0.41090962  1
  O  O37  1  0.27569364  0.45455437  0.42152970  1
  O  O38  1  0.93879418  0.29508301  0.08158892  1
  O  O39  1  0.61158891  0.62847182  0.75009375  1
  O  O40  1  0.10131595  0.62633005  0.74663299  1
  O  O41  1  0.44935521  0.32049512  0.09121895  1
  O  O42  1  0.78783293  0.94227212  0.91181598  1
  O  O43  1  0.30225031  0.93788029  0.91089441  1
  O  O44  1  0.62845917  0.60561430  0.25176685  1
  O  O45  1  0.12364718  0.64865345  0.24662236  1
  O  O46  1  0.95967763  0.76791575  0.58671282  1
  O  O47  1  0.45474404  0.81099854  0.58157170  1
  O  O48  1  0.98209381  0.79041349  0.08672999  1
  O  O49  1  0.47168579  0.78807383  0.08323630  1
  O  O50  1  0.80769555  0.96214849  0.41182803  1
  O  O51  1  0.27136220  0.96905104  0.42242302  1
