# generated using pymatgen
data_Li2MnF4
_symmetry_space_group_name_H-M   'P 1'
_cell_length_a   5.40368781
_cell_length_b   5.40368781
_cell_length_c   5.93489215
_cell_angle_alpha   90.00000000
_cell_angle_beta   90.00000000
_cell_angle_gamma   113.37226069
_symmetry_Int_Tables_number   1
_chemical_formula_structural   Li2MnF4
_chemical_formula_sum   'Li4 Mn2 F8'
_cell_volume   159.07826320
_cell_formula_units_Z   2
loop_
 _symmetry_equiv_pos_site_id
 _symmetry_equiv_pos_as_xyz
  1  'x, y, z'
loop_
 _atom_site_type_symbol
 _atom_site_label
 _atom_site_symmetry_multiplicity
 _atom_site_fract_x
 _atom_site_fract_y
 _atom_site_fract_z
 _atom_site_occupancy
  Li  Li0  1  0.49625527  0.99625527  0.25000000  1
  Li  Li1  1  0.00374473  0.50374473  0.75000000  1
  Li  Li2  1  0.99625527  0.49625527  0.25000000  1
  Li  Li3  1  0.50374473  0.00374473  0.75000000  1
  Mn  Mn4  1  0.50000000  0.50000000  0.50000000  1
  Mn  Mn5  1  -0.00000000  0.00000000  -0.00000000  1
  F  F6  1  0.23676989  0.76323011  -0.00000000  1
  F  F7  1  0.26323011  0.73676989  0.50000000  1
  F  F8  1  0.75028033  0.75028033  0.25053731  1
  F  F9  1  0.25028033  0.25028033  0.24946269  1
  F  F10  1  0.24971967  0.24971967  0.74946269  1
  F  F11  1  0.74971967  0.74971967  0.75053731  1
  F  F12  1  0.73676989  0.26323011  0.50000000  1
  F  F13  1  0.76323011  0.23676989  -0.00000000  1
