# generated using pymatgen
data_Li4Nb3Fe3(SnO8)2
_symmetry_space_group_name_H-M   'P 1'
_cell_length_a   6.19591798
_cell_length_b   6.13343693
_cell_length_c   10.02095759
_cell_angle_alpha   90.03808890
_cell_angle_beta   89.17731537
_cell_angle_gamma   119.66359168
_symmetry_Int_Tables_number   1
_chemical_formula_structural   Li4Nb3Fe3(SnO8)2
_chemical_formula_sum   'Li4 Nb3 Fe3 Sn2 O16'
_cell_volume   330.86814722
_cell_formula_units_Z   1
loop_
 _symmetry_equiv_pos_site_id
 _symmetry_equiv_pos_as_xyz
  1  'x, y, z'
loop_
 _atom_site_type_symbol
 _atom_site_label
 _atom_site_symmetry_multiplicity
 _atom_site_fract_x
 _atom_site_fract_y
 _atom_site_fract_z
 _atom_site_occupancy
  Li  Li0  1  0.33987023  0.66988866  0.90437964  1
  Li  Li1  1  0.00624093  0.00309911  0.99722018  1
  Li  Li2  1  0.01473632  0.00751899  0.48225083  1
  Li  Li3  1  0.68092093  0.34058918  0.38904873  1
  Nb  Nb4  1  0.65008234  0.82523502  0.21774207  1
  Nb  Nb5  1  0.82540191  0.65125541  0.71406021  1
  Nb  Nb6  1  0.82435518  0.17395465  0.71365737  1
  Fe  Fe7  1  0.17230764  0.82928301  0.21127858  1
  Fe  Fe8  1  0.17231766  0.34297316  0.21125440  1
  Fe  Fe9  1  0.33660650  0.16793075  0.71386319  1
  Sn  Sn10  1  0.31803581  0.65877651  0.48296790  1
  Sn  Sn11  1  0.65182857  0.32578554  0.00270334  1
  O  O12  1  0.14827621  0.82367984  0.60106001  1
  O  O13  1  0.04359656  0.52189062  0.34321452  1
  O  O14  1  0.36900252  0.68430723  0.09498952  1
  O  O15  1  0.97799004  0.98898551  0.30244176  1
  O  O16  1  0.98308114  0.99152991  0.80933604  1
  O  O17  1  0.14727926  0.32486430  0.60104657  1
  O  O18  1  0.50162090  0.96930831  0.35044603  1
  O  O19  1  0.50171441  0.53228302  0.35026400  1
  O  O20  1  0.31624815  0.15804989  0.09360707  1
  O  O21  1  0.66077755  0.83037307  0.60722948  1
  O  O22  1  0.53589299  0.48928980  0.83953078  1
  O  O23  1  0.53692618  0.04612459  0.84039680  1
  O  O24  1  0.68009138  0.34056030  0.59358719  1
  O  O25  1  0.81818758  0.66462707  0.09854755  1
  O  O26  1  0.96843827  0.48451905  0.84294222  1
  O  O27  1  0.81817383  0.15361851  0.09877501  1
