# generated using pymatgen
data_Li3Fe8(BO3)8
_symmetry_space_group_name_H-M   'P 1'
_cell_length_a   5.24555515
_cell_length_b   9.15339335
_cell_length_c   10.02392899
_cell_angle_alpha   91.39247175
_cell_angle_beta   90.68028942
_cell_angle_gamma   88.74397583
_symmetry_Int_Tables_number   1
_chemical_formula_structural   Li3Fe8(BO3)8
_chemical_formula_sum   'Li3 Fe8 B8 O24'
_cell_volume   481.00653405
_cell_formula_units_Z   1
loop_
 _symmetry_equiv_pos_site_id
 _symmetry_equiv_pos_as_xyz
  1  'x, y, z'
loop_
 _atom_site_type_symbol
 _atom_site_label
 _atom_site_symmetry_multiplicity
 _atom_site_fract_x
 _atom_site_fract_y
 _atom_site_fract_z
 _atom_site_occupancy
  Li  Li0  1  0.67324667  0.67305746  0.41446978  1
  Li  Li1  1  0.66955508  0.67602490  0.91104849  1
  Li  Li2  1  0.17238973  0.17210046  0.40622300  1
  Fe  Fe3  1  0.83661587  0.16684679  0.63208500  1
  Fe  Fe4  1  0.83486151  0.49614485  0.13000982  1
  Fe  Fe5  1  0.67425726  0.01164194  0.87769095  1
  Fe  Fe6  1  0.64845861  0.33984516  0.37711636  1
  Fe  Fe7  1  0.32249541  0.66288247  0.63080378  1
  Fe  Fe8  1  0.33543607  0.99888663  0.12846785  1
  Fe  Fe9  1  0.15370988  0.84109395  0.37449368  1
  Fe  Fe10  1  0.18326396  0.48010126  0.87650615  1
  B  B11  1  0.83462748  0.49904101  0.62614511  1
  B  B12  1  0.83285859  0.17047224  0.12800406  1
  B  B13  1  0.66168471  0.00054667  0.37983402  1
  B  B14  1  0.67397111  0.32865675  0.87688365  1
  B  B15  1  0.33959283  0.00047934  0.62790006  1
  B  B16  1  0.33086137  0.66888927  0.12374396  1
  B  B17  1  0.15749873  0.50206636  0.37860015  1
  B  B18  1  0.17383181  0.83149161  0.87798474  1
  O  O19  1  0.89917185  0.51834141  0.33667158  1
  O  O20  1  0.91172403  0.84445305  0.87657765  1
  O  O21  1  0.82721309  0.20317950  0.83592973  1
  O  O22  1  0.78383524  0.12766197  0.42678088  1
  O  O23  1  0.77990859  0.86737657  0.37961573  1
  O  O24  1  0.80195865  0.45551225  0.92134321  1
  O  O25  1  0.67871382  0.62162035  0.61934043  1
  O  O26  1  0.67457334  0.06098164  0.07438425  1
  O  O27  1  0.74263550  0.36340097  0.58763312  1
  O  O28  1  0.72112055  0.30253996  0.16804279  1
  O  O29  1  0.59132941  0.65211623  0.11241874  1
  O  O30  1  0.58950867  0.01358931  0.67922302  1
  O  O31  1  0.40790576  0.01686261  0.33349101  1
  O  O32  1  0.42189850  0.31857339  0.87140972  1
  O  O33  1  0.30493458  0.70366808  0.83546482  1
  O  O34  1  0.28570254  0.62927027  0.42185465  1
  O  O35  1  0.27491430  0.36893403  0.37858364  1
  O  O36  1  0.32604760  0.94671429  0.92484632  1
  O  O37  1  0.17253766  0.55522160  0.08735541  1
  O  O38  1  0.18899335  0.12226212  0.61030198  1
  O  O39  1  0.25392209  0.86447903  0.58769298  1
  O  O40  1  0.22718604  0.80284716  0.16605303  1
  O  O41  1  0.08590737  0.14560021  0.14230327  1
  O  O42  1  0.08673779  0.51086891  0.66529243  1
