# generated using pymatgen
data_BMoWC
_symmetry_space_group_name_H-M   'P 1'
_cell_length_a   3.07803297
_cell_length_b   3.12949847
_cell_length_c   8.89361245
_cell_angle_alpha   79.86658562
_cell_angle_beta   90.00000000
_cell_angle_gamma   90.00000000
_symmetry_Int_Tables_number   1
_chemical_formula_structural   BMoWC
_chemical_formula_sum   'B2 Mo2 W2 C2'
_cell_volume   84.33311522
_cell_formula_units_Z   2
loop_
 _symmetry_equiv_pos_site_id
 _symmetry_equiv_pos_as_xyz
  1  'x, y, z'
loop_
 _atom_site_type_symbol
 _atom_site_label
 _atom_site_symmetry_multiplicity
 _atom_site_fract_x
 _atom_site_fract_y
 _atom_site_fract_z
 _atom_site_occupancy
  B  B0  1  0.25000000  0.52835074  0.94329852  1
  B  B1  1  0.75000000  0.47164926  0.05670148  1
  Mo  Mo2  1  0.25000000  0.68478658  0.63042684  1
  Mo  Mo3  1  0.75000000  0.31521342  0.36957316  1
  W  W4  1  0.25000000  0.92793024  0.14413952  1
  W  W5  1  0.75000000  0.07206976  0.85586048  1
  C  C6  1  0.25000000  0.80858663  0.38282673  1
  C  C7  1  0.75000000  0.19141337  0.61717327  1
