# generated using pymatgen
data_Li4Ti3Fe2Co3O16
_symmetry_space_group_name_H-M   'P 1'
_cell_length_a   5.82261026
_cell_length_b   5.92324408
_cell_length_c   9.58366719
_cell_angle_alpha   90.59146305
_cell_angle_beta   89.63577666
_cell_angle_gamma   120.27641387
_symmetry_Int_Tables_number   1
_chemical_formula_structural   Li4Ti3Fe2Co3O16
_chemical_formula_sum   'Li4 Ti3 Fe2 Co3 O16'
_cell_volume   285.43010299
_cell_formula_units_Z   1
loop_
 _symmetry_equiv_pos_site_id
 _symmetry_equiv_pos_as_xyz
  1  'x, y, z'
loop_
 _atom_site_type_symbol
 _atom_site_label
 _atom_site_symmetry_multiplicity
 _atom_site_fract_x
 _atom_site_fract_y
 _atom_site_fract_z
 _atom_site_occupancy
  Li  Li0  1  0.33988334  0.66652934  0.88913203  1
  Li  Li1  1  0.98448150  0.99356639  0.99479224  1
  Li  Li2  1  0.98947972  0.99480947  0.49770209  1
  Li  Li3  1  0.66924238  0.33353333  0.39622193  1
  Ti  Ti4  1  0.17503855  0.83420226  0.21603062  1
  Ti  Ti5  1  0.17320486  0.34011388  0.21540101  1
  Ti  Ti6  1  0.34303155  0.16931950  0.71588184  1
  Fe  Fe7  1  0.33452705  0.67076537  0.49147603  1
  Fe  Fe8  1  0.67599022  0.33697346  0.98902418  1
  Co  Co9  1  0.66042019  0.82942791  0.21100491  1
  Co  Co10  1  0.83145249  0.66146677  0.71463974  1
  Co  Co11  1  0.83142469  0.17023391  0.71173543  1
  O  O12  1  0.16427735  0.84077217  0.60096478  1
  O  O13  1  0.03500706  0.51947104  0.33420075  1
  O  O14  1  0.33596783  0.66651136  0.10382715  1
  O  O15  1  0.98926008  0.99581693  0.30941673  1
  O  O16  1  0.99746257  0.01150064  0.80875926  1
  O  O17  1  0.15541682  0.32393436  0.60367821  1
  O  O18  1  0.47507085  0.96429847  0.33948091  1
  O  O19  1  0.47419764  0.51134605  0.34270142  1
  O  O20  1  0.32842994  0.16262369  0.10174626  1
  O  O21  1  0.67321376  0.85168029  0.60779429  1
  O  O22  1  0.52040387  0.47878523  0.83828911  1
  O  O23  1  0.52417361  0.03722219  0.83475448  1
  O  O24  1  0.66787470  0.32528509  0.60427841  1
  O  O25  1  0.84305897  0.67260838  0.10018234  1
  O  O26  1  0.96495083  0.46670113  0.83229193  1
  O  O27  1  0.84305857  0.17080040  0.10243690  1
