# generated using pymatgen
data_Li4Fe3TeO8
_symmetry_space_group_name_H-M   'P 1'
_cell_length_a   10.35718059
_cell_length_b   10.35849351
_cell_length_c   14.58222146
_cell_angle_alpha   20.29081255
_cell_angle_beta   20.29033445
_cell_angle_gamma   34.95565938
_symmetry_Int_Tables_number   1
_chemical_formula_structural   Li4Fe3TeO8
_chemical_formula_sum   'Li4 Fe3 Te1 O8'
_cell_volume   162.91447873
_cell_formula_units_Z   1
loop_
 _symmetry_equiv_pos_site_id
 _symmetry_equiv_pos_as_xyz
  1  'x, y, z'
loop_
 _atom_site_type_symbol
 _atom_site_label
 _atom_site_symmetry_multiplicity
 _atom_site_fract_x
 _atom_site_fract_y
 _atom_site_fract_z
 _atom_site_occupancy
  Li  Li0  1  -0.00000157  -0.00000785  0.50000555  1
  Li  Li1  1  0.00000533  0.49999629  0.49999990  1
  Li  Li2  1  0.50001251  0.00001835  0.49997761  1
  Li  Li3  1  0.49999584  0.50001210  0.49999666  1
  Fe  Fe4  1  0.00000684  0.49998943  0.00000240  1
  Fe  Fe5  1  0.49999979  0.00000148  0.00000486  1
  Fe  Fe6  1  0.50000635  0.49999453  -0.00000682  1
  Te  Te7  1  -0.00009242  0.00006383  0.00001972  1
  O  O8  1  0.99907658  0.99923373  0.26329836  1
  O  O9  1  -0.00169931  0.55151799  0.22177481  1
  O  O10  1  0.55132548  0.99794603  0.22203764  1
  O  O11  1  0.00089882  0.00077903  0.73670818  1
  O  O12  1  0.44784632  0.44795470  0.32485622  1
  O  O13  1  0.00170630  0.44843426  0.77824223  1
  O  O14  1  0.44873952  0.00202148  0.77795078  1
  O  O15  1  0.55217461  0.55204464  0.67513289  1
