# generated using pymatgen
data_Li2VOF3
_symmetry_space_group_name_H-M   'P 1'
_cell_length_a   7.84572342
_cell_length_b   7.84374788
_cell_length_c   10.98105487
_cell_angle_alpha   102.99172896
_cell_angle_beta   68.97045980
_cell_angle_gamma   79.86162672
_symmetry_Int_Tables_number   1
_chemical_formula_structural   Li2VOF3
_chemical_formula_sum   'Li16 V8 O8 F24'
_cell_volume   589.62915320
_cell_formula_units_Z   8
loop_
 _symmetry_equiv_pos_site_id
 _symmetry_equiv_pos_as_xyz
  1  'x, y, z'
loop_
 _atom_site_type_symbol
 _atom_site_label
 _atom_site_symmetry_multiplicity
 _atom_site_fract_x
 _atom_site_fract_y
 _atom_site_fract_z
 _atom_site_occupancy
  Li  Li0  1  0.26660016  0.21860249  0.93706655  1
  Li  Li1  1  0.15476461  0.58451269  0.95789285  1
  Li  Li2  1  0.64283217  0.07853846  0.96186889  1
  Li  Li3  1  0.77207022  0.71649367  0.95795790  1
  Li  Li4  1  0.28476460  0.44908606  0.68241627  1
  Li  Li5  1  0.13968832  0.08646044  0.46404701  1
  Li  Li6  1  0.12422086  0.84990882  0.71460414  1
  Li  Li7  1  0.62549571  0.35233418  0.71438375  1
  Li  Li8  1  0.76450265  0.21842227  0.43766736  1
  Li  Li9  1  0.26517178  0.71738322  0.43555640  1
  Li  Li10  1  0.78730943  0.94702069  0.68643241  1
  Li  Li11  1  0.12704637  0.35272651  0.21193376  1
  Li  Li12  1  0.63911556  0.58821262  0.46494477  1
  Li  Li13  1  0.78470096  0.45311791  0.19135729  1
  Li  Li14  1  0.28359087  0.95056984  0.18700860  1
  Li  Li15  1  0.61784285  0.85363061  0.22295047  1
  V  V16  1  0.47718356  0.00803459  0.50673079  1
  V  V17  1  0.00465896  0.23216716  0.75561926  1
  V  V18  1  0.50859331  0.73142695  0.75566817  1
  V  V19  1  0.50537477  0.23065492  0.25401795  1
  V  V20  1  0.97922618  0.50557924  0.50261254  1
  V  V21  1  0.98022412  0.00747263  0.00516999  1
  V  V22  1  0.48196809  0.50577240  0.00651260  1
  V  V23  1  0.00353741  0.73176132  0.25266638  1
  O  O24  1  0.21819980  0.03311639  0.61366180  1
  O  O25  1  0.92449524  0.07808762  0.86262511  1
  O  O26  1  0.42952629  0.57866484  0.86339267  1
  O  O27  1  0.42020809  0.08234284  0.36494885  1
  O  O28  1  0.72025082  0.53257136  0.61175120  1
  O  O29  1  0.71988114  0.03110029  0.11325397  1
  O  O30  1  0.21935809  0.53428978  0.11161333  1
  O  O31  1  0.92130922  0.57797920  0.35984979  1
  F  F32  1  0.16666174  0.35228888  0.84030840  1
  F  F33  1  0.51844827  0.24110207  0.89184002  1
  F  F34  1  0.08309154  0.39794725  0.62794652  1
  F  F35  1  0.77536596  0.45963376  0.88463773  1
  F  F36  1  0.27550601  0.96035321  0.88117702  1
  F  F37  1  0.01440143  0.75044563  0.59001991  1
  F  F38  1  0.51244473  0.25267949  0.59327457  1
  F  F39  1  0.67019165  0.84440057  0.84346849  1
  F  F40  1  0.85322635  0.15494917  0.64151509  1
  F  F41  1  0.35605261  0.65586692  0.64097837  1
  F  F42  1  0.02385965  0.74167475  0.89026724  1
  F  F43  1  0.27138967  0.45933836  0.37731401  1
  F  F44  1  0.58601509  0.89836360  0.62894739  1
  F  F45  1  0.01137025  0.25448730  0.09223627  1
  F  F46  1  0.15979403  0.85247026  0.34275903  1
  F  F47  1  0.65995913  0.35325286  0.34449006  1
  F  F48  1  0.35491465  0.15422769  0.13915405  1
  F  F49  1  0.01606482  0.24073031  0.38915358  1
  F  F50  1  0.51587613  0.74343061  0.38974838  1
  F  F51  1  0.58373942  0.40072619  0.13245463  1
  F  F52  1  0.08352772  0.90120909  0.13023141  1
  F  F53  1  0.77009494  0.95972053  0.37807022  1
  F  F54  1  0.50941841  0.75240299  0.09832680  1
  F  F55  1  0.85057258  0.65736349  0.13756999  1
