# generated using pymatgen
data_Li2VO2F
_symmetry_space_group_name_H-M   'P 1'
_cell_length_a   3.03182078
_cell_length_b   6.00190344
_cell_length_c   6.45705015
_cell_angle_alpha   77.06366474
_cell_angle_beta   76.48136142
_cell_angle_gamma   90.24440299
_symmetry_Int_Tables_number   1
_chemical_formula_structural   Li2VO2F
_chemical_formula_sum   'Li4 V2 O4 F2'
_cell_volume   111.14331052
_cell_formula_units_Z   2
loop_
 _symmetry_equiv_pos_site_id
 _symmetry_equiv_pos_as_xyz
  1  'x, y, z'
loop_
 _atom_site_type_symbol
 _atom_site_label
 _atom_site_symmetry_multiplicity
 _atom_site_fract_x
 _atom_site_fract_y
 _atom_site_fract_z
 _atom_site_occupancy
  Li  Li0  1  0.00869769  0.51783829  0.98564572  1
  Li  Li1  1  0.33261763  0.67807845  0.33006353  1
  Li  Li2  1  0.65731760  0.33816049  0.68427589  1
  Li  Li3  1  0.66565175  0.82132269  0.67058898  1
  V  V4  1  0.99828167  0.99512350  0.98414561  1
  V  V5  1  0.33858608  0.14646407  0.34505401  1
  O  O6  1  0.46987772  0.23331433  0.01582395  1
  O  O7  1  0.51405312  0.76419731  0.99910907  1
  O  O8  1  0.82631978  0.92960982  0.32913622  1
  O  O9  1  0.17049812  0.08998106  0.66184787  1
  F  F10  1  0.84589424  0.40594415  0.33725179  1
  F  F11  1  0.17220460  0.57996684  0.65705737  1
