# generated using pymatgen
data_Li4Mn3NbO8
_symmetry_space_group_name_H-M   'P 1'
_cell_length_a   10.42182537
_cell_length_b   10.42893201
_cell_length_c   14.68139214
_cell_angle_alpha   20.13156674
_cell_angle_beta   20.11748199
_cell_angle_gamma   34.67531997
_symmetry_Int_Tables_number   1
_chemical_formula_structural   Li4Mn3NbO8
_chemical_formula_sum   'Li4 Mn3 Nb1 O8'
_cell_volume   163.54910333
_cell_formula_units_Z   1
loop_
 _symmetry_equiv_pos_site_id
 _symmetry_equiv_pos_as_xyz
  1  'x, y, z'
loop_
 _atom_site_type_symbol
 _atom_site_label
 _atom_site_symmetry_multiplicity
 _atom_site_fract_x
 _atom_site_fract_y
 _atom_site_fract_z
 _atom_site_occupancy
  Li  Li0  1  -0.00000017  0.00000024  0.49999912  1
  Li  Li1  1  0.00000071  0.49999999  0.49999931  1
  Li  Li2  1  0.49999952  -0.00000003  0.50000046  1
  Li  Li3  1  0.50000074  0.50000097  0.49999836  1
  Mn  Mn4  1  -0.00000035  0.49999565  0.00000317  1
  Mn  Mn5  1  0.50000011  0.00000105  -0.00000083  1
  Mn  Mn6  1  0.50000204  0.50000289  0.99999636  1
  Nb  Nb7  1  0.99999746  0.99999909  0.00000266  1
  O  O8  1  0.99543719  0.97998043  0.27916769  1
  O  O9  1  0.00107959  0.53518964  0.22825262  1
  O  O10  1  0.53623288  0.00415711  0.22598555  1
  O  O11  1  0.00456380  0.02002163  0.72083040  1
  O  O12  1  0.46321666  0.46740009  0.29928978  1
  O  O13  1  0.99892285  0.46481116  0.77174594  1
  O  O14  1  0.46376699  0.99584392  0.77401455  1
  O  O15  1  0.53677999  0.53259618  0.70071587  1
