# generated using pymatgen
data_Li4V3Cu(PO4)4
_symmetry_space_group_name_H-M   'P 1'
_cell_length_a   4.75603642
_cell_length_b   10.41345816
_cell_length_c   6.08992044
_cell_angle_alpha   90.00000000
_cell_angle_beta   90.00000000
_cell_angle_gamma   90.37936811
_symmetry_Int_Tables_number   1
_chemical_formula_structural   Li4V3Cu(PO4)4
_chemical_formula_sum   'Li4 V3 Cu1 P4 O16'
_cell_volume   301.60757673
_cell_formula_units_Z   1
loop_
 _symmetry_equiv_pos_site_id
 _symmetry_equiv_pos_as_xyz
  1  'x, y, z'
loop_
 _atom_site_type_symbol
 _atom_site_label
 _atom_site_symmetry_multiplicity
 _atom_site_fract_x
 _atom_site_fract_y
 _atom_site_fract_z
 _atom_site_occupancy
  Li  Li0  1  0.00204523  0.99583864  0.99339708  1
  Li  Li1  1  0.00204523  0.99583864  0.50660292  1
  Li  Li2  1  0.50035299  0.50236818  0.50360234  1
  Li  Li3  1  0.50035299  0.50236818  0.99639766  1
  V  V4  1  0.48496963  0.22283592  0.75000000  1
  V  V5  1  0.51653964  0.77798932  0.25000000  1
  V  V6  1  0.98268378  0.27490118  0.25000000  1
  Cu  Cu7  1  0.04082149  0.71416773  0.75000000  1
  P  P8  1  0.08741590  0.59588091  0.25000000  1
  P  P9  1  0.41378412  0.09112597  0.25000000  1
  P  P10  1  0.57812664  0.90598990  0.75000000  1
  P  P11  1  0.91605441  0.40827234  0.75000000  1
  O  O12  1  0.20408333  0.45736927  0.25000000  1
  O  O13  1  0.23062393  0.66823360  0.05148394  1
  O  O14  1  0.23062393  0.66823360  0.44851606  1
  O  O15  1  0.23835078  0.40318181  0.75000000  1
  O  O16  1  0.25522625  0.90548831  0.75000000  1
  O  O17  1  0.27681885  0.16083042  0.04758644  1
  O  O18  1  0.27681885  0.16083042  0.45241356  1
  O  O19  1  0.29116458  0.95202037  0.25000000  1
  O  O20  1  0.71124511  0.04309135  0.75000000  1
  O  O21  1  0.70302451  0.83762246  0.54109451  1
  O  O22  1  0.70302451  0.83762246  0.95890549  1
  O  O23  1  0.73552184  0.09524101  0.25000000  1
  O  O24  1  0.76491773  0.60124423  0.25000000  1
  O  O25  1  0.77818755  0.33759242  0.54704741  1
  O  O26  1  0.77818755  0.33759242  0.95295259  1
  O  O27  1  0.79699064  0.54622895  0.75000000  1
