# generated using pymatgen
data_FeOF
_symmetry_space_group_name_H-M   'P 1'
_cell_length_a   14.18934525
_cell_length_b   14.24142153
_cell_length_c   3.09626431
_cell_angle_alpha   90.00000000
_cell_angle_beta   90.00000000
_cell_angle_gamma   90.01672157
_symmetry_Int_Tables_number   1
_chemical_formula_structural   FeOF
_chemical_formula_sum   'Fe18 O18 F18'
_cell_volume   625.68206359
_cell_formula_units_Z   18
loop_
 _symmetry_equiv_pos_site_id
 _symmetry_equiv_pos_as_xyz
  1  'x, y, z'
loop_
 _atom_site_type_symbol
 _atom_site_label
 _atom_site_symmetry_multiplicity
 _atom_site_fract_x
 _atom_site_fract_y
 _atom_site_fract_z
 _atom_site_occupancy
  Fe  Fe0  1  0.01377832  0.99839135  0.00000000  1
  Fe  Fe1  1  0.00108370  0.33302101  0.00000000  1
  Fe  Fe2  1  0.01245451  0.66263844  -0.00000000  1
  Fe  Fe3  1  0.16810597  0.15058146  0.50000000  1
  Fe  Fe4  1  0.17206373  0.51653846  0.50000000  1
  Fe  Fe5  1  0.15281005  0.82940170  0.50000000  1
  Fe  Fe6  1  0.33873255  0.00382214  -0.00000000  1
  Fe  Fe7  1  0.34533228  0.33116736  0.00000000  1
  Fe  Fe8  1  0.33852826  0.65767116  0.00000000  1
  Fe  Fe9  1  0.48558690  0.49860770  0.50000000  1
  Fe  Fe10  1  0.48717950  0.16413935  0.50000000  1
  Fe  Fe11  1  0.50100607  0.85077247  0.50000000  1
  Fe  Fe12  1  0.67285230  0.99158040  -0.00000000  1
  Fe  Fe13  1  0.67943058  0.33134551  -0.00000000  1
  Fe  Fe14  1  0.67759436  0.66603212  -0.00000000  1
  Fe  Fe15  1  0.81527732  0.15901698  0.50000000  1
  Fe  Fe16  1  0.81794512  0.50030805  0.50000000  1
  Fe  Fe17  1  0.82110544  0.83184731  0.50000000  1
  O  O18  1  0.06179215  0.59728297  0.50000000  1
  O  O19  1  0.06475619  0.93579090  0.50000000  1
  O  O20  1  0.09883396  0.10641511  0.00000000  1
  O  O21  1  0.10189318  0.76509798  0.00000000  1
  O  O22  1  0.23356180  0.56752412  0.00000000  1
  O  O23  1  0.27034337  0.06156550  0.50000000  1
  O  O24  1  0.39690341  0.26911455  0.50000000  1
  O  O25  1  0.40166820  0.60659371  0.50000000  1
  O  O26  1  0.39385605  0.93433464  0.50000000  1
  O  O27  1  0.43893928  0.10079944  0.00000000  1
  O  O28  1  0.43317220  0.43671418  0.00000000  1
  O  O29  1  0.56566607  0.89996789  -0.00000000  1
  O  O30  1  0.73317506  0.26929443  0.50000000  1
  O  O31  1  0.72961487  0.60353132  0.50000000  1
  O  O32  1  0.73361093  0.93554159  0.50000000  1
  O  O33  1  0.76501229  0.09878353  0.00000000  1
  O  O34  1  0.76932667  0.43611338  0.00000000  1
  O  O35  1  0.76937185  0.76815651  -0.00000000  1
  F  F36  1  0.07108558  0.26900585  0.50000000  1
  F  F37  1  0.10357693  0.43417316  -0.00000000  1
  F  F38  1  0.22960624  0.23485552  0.00000000  1
  F  F39  1  0.23014019  0.89215062  -0.00000000  1
  F  F40  1  0.27039782  0.73567118  0.50000000  1
  F  F41  1  0.26255349  0.39725318  0.50000000  1
  F  F42  1  0.43566418  0.76955352  -0.00000000  1
  F  F43  1  0.56662628  0.23547715  0.00000000  1
  F  F44  1  0.56568098  0.56495410  0.00000000  1
  F  F45  1  0.60288820  0.06947379  0.50000000  1
  F  F46  1  0.60154141  0.39973968  0.50000000  1
  F  F47  1  0.59652180  0.73014307  0.50000000  1
  F  F48  1  0.90074464  0.22998162  0.00000000  1
  F  F49  1  0.89772054  0.56682966  -0.00000000  1
  F  F50  1  0.90066029  0.89847996  0.00000000  1
  F  F51  1  0.93299446  0.06611473  0.50000000  1
  F  F52  1  0.93495060  0.40391476  0.50000000  1
  F  F53  1  0.93428087  0.73272374  0.50000000  1
