# generated using pymatgen
data_Li2Cu2C2O7
_symmetry_space_group_name_H-M   'P 1'
_cell_length_a   10.11020748
_cell_length_b   5.68754308
_cell_length_c   10.10751467
_cell_angle_alpha   90.00000000
_cell_angle_beta   111.80043769
_cell_angle_gamma   90.00000000
_symmetry_Int_Tables_number   1
_chemical_formula_structural   Li2Cu2C2O7
_chemical_formula_sum   'Li8 Cu8 C8 O28'
_cell_volume   539.63871545
_cell_formula_units_Z   4
loop_
 _symmetry_equiv_pos_site_id
 _symmetry_equiv_pos_as_xyz
  1  'x, y, z'
loop_
 _atom_site_type_symbol
 _atom_site_label
 _atom_site_symmetry_multiplicity
 _atom_site_fract_x
 _atom_site_fract_y
 _atom_site_fract_z
 _atom_site_occupancy
  Li  Li0  1  0.37717682  0.71609989  0.97366082  1
  Li  Li1  1  0.51900378  0.06387465  0.75151997  1
  Li  Li2  1  0.48099622  0.56387465  0.74848003  1
  Li  Li3  1  0.37717682  0.78390011  0.47366082  1
  Li  Li4  1  0.62282318  0.21609989  0.52633918  1
  Li  Li5  1  0.51900378  0.43612535  0.25151997  1
  Li  Li6  1  0.48099622  0.93612535  0.24848003  1
  Li  Li7  1  0.62282318  0.28390011  0.02633918  1
  Cu  Cu8  1  0.02513361  0.63502118  0.78159190  1
  Cu  Cu9  1  0.02513361  0.86497882  0.28159190  1
  Cu  Cu10  1  0.11474145  0.33407676  0.52743174  1
  Cu  Cu11  1  0.11474145  0.16592324  0.02743174  1
  Cu  Cu12  1  0.88525855  0.83407676  0.97256826  1
  Cu  Cu13  1  0.88525855  0.66592324  0.47256826  1
  Cu  Cu14  1  0.97486639  0.13502118  0.71840810  1
  Cu  Cu15  1  0.97486639  0.36497882  0.21840810  1
  C  C16  1  0.36450237  0.24893164  0.96125005  1
  C  C17  1  0.22169333  0.87002324  0.68690270  1
  C  C18  1  0.36450237  0.25106836  0.46125005  1
  C  C19  1  0.22169333  0.62997676  0.18690270  1
  C  C20  1  0.77830667  0.37002324  0.81309730  1
  C  C21  1  0.63549763  0.74893164  0.53874995  1
  C  C22  1  0.77830667  0.12997676  0.31309730  1
  C  C23  1  0.63549763  0.75106836  0.03874995  1
  O  O24  1  0.01744331  0.92130190  0.88558345  1
  O  O25  1  0.22603766  0.25762233  0.92129129  1
  O  O26  1  0.21318307  0.72679950  0.78385596  1
  O  O27  1  0.01744331  0.57869810  0.38558345  1
  O  O28  1  0.12295540  0.03356691  0.63848408  1
  O  O29  1  0.42158620  0.32628979  0.87489295  1
  O  O30  1  0.22603766  0.24237767  0.42129029  1
  O  O31  1  0.32256453  0.84974625  0.64190004  1
  O  O32  1  0.21318307  0.77320050  0.28385596  1
  O  O33  1  0.12295540  0.46643309  0.13848408  1
  O  O34  1  0.44523726  0.33069468  0.58523678  1
  O  O35  1  0.55476274  0.83069468  0.91476322  1
  O  O36  1  0.42158620  0.17371121  0.37489295  1
  O  O37  1  0.32256453  0.65025375  0.14190004  1
  O  O38  1  0.67743547  0.34974625  0.85809996  1
  O  O39  1  0.57841280  0.82628879  0.62510705  1
  O  O40  1  0.44523726  0.16930532  0.08523678  1
  O  O41  1  0.55476274  0.66930532  0.41476322  1
  O  O42  1  0.87704460  0.53356691  0.86151592  1
  O  O43  1  0.78681693  0.22679950  0.71614404  1
  O  O44  1  0.67743547  0.15025375  0.35809996  1
  O  O45  1  0.77396234  0.75762233  0.57870871  1
  O  O46  1  0.57841280  0.67371121  0.12510705  1
  O  O47  1  0.87704460  0.96643309  0.36151592  1
  O  O48  1  0.98255669  0.42130190  0.61441655  1
  O  O49  1  0.78681693  0.27320050  0.21614404  1
  O  O50  1  0.77396234  0.74237767  0.07870971  1
  O  O51  1  0.98255669  0.07869810  0.11441655  1
