# generated using pymatgen
data_Fe10O11F9
_symmetry_space_group_name_H-M   'P 1'
_cell_length_a   4.70465341
_cell_length_b   4.70197469
_cell_length_c   15.50166768
_cell_angle_alpha   90.16525790
_cell_angle_beta   89.72581087
_cell_angle_gamma   90.41432250
_symmetry_Int_Tables_number   1
_chemical_formula_structural   Fe10O11F9
_chemical_formula_sum   'Fe10 O11 F9'
_cell_volume   342.90060589
_cell_formula_units_Z   1
loop_
 _symmetry_equiv_pos_site_id
 _symmetry_equiv_pos_as_xyz
  1  'x, y, z'
loop_
 _atom_site_type_symbol
 _atom_site_label
 _atom_site_symmetry_multiplicity
 _atom_site_fract_x
 _atom_site_fract_y
 _atom_site_fract_z
 _atom_site_occupancy
  Fe  Fe0  1  0.03424134  0.01086060  0.00451965  1
  Fe  Fe1  1  0.97051070  0.97272268  0.18874253  1
  Fe  Fe2  1  0.01053762  0.99060408  0.40414899  1
  Fe  Fe3  1  0.04203150  0.99744068  0.60162799  1
  Fe  Fe4  1  0.03831886  0.99356887  0.80223368  1
  Fe  Fe5  1  0.50292144  0.49502676  0.10140961  1
  Fe  Fe6  1  0.46991252  0.50527821  0.49373367  1
  Fe  Fe7  1  0.51315556  0.50717728  0.30564523  1
  Fe  Fe8  1  0.46242819  0.49354948  0.69829847  1
  Fe  Fe9  1  0.46031543  0.50064498  0.90070256  1
  O  O10  1  0.20176712  0.79463998  0.10070618  1
  O  O11  1  0.19150496  0.81066329  0.49960639  1
  O  O12  1  0.19735882  0.80939063  0.70120455  1
  O  O13  1  0.19573157  0.81591361  0.90326910  1
  O  O14  1  0.31730044  0.31496170  0.00398285  1
  O  O15  1  0.29948795  0.30067459  0.39497597  1
  O  O16  1  0.30844380  0.31303210  0.59705629  1
  O  O17  1  0.30415311  0.31181768  0.80052478  1
  O  O18  1  0.68135140  0.67482450  0.20099326  1
  O  O19  1  0.69939475  0.69969159  0.39936426  1
  O  O20  1  0.80177305  0.19448644  0.09799206  1
  F  F21  1  0.18729260  0.80295224  0.29620640  1
  F  F22  1  0.29347550  0.28947262  0.20432178  1
  F  F23  1  0.70250967  0.70268301  0.99720663  1
  F  F24  1  0.69974923  0.70492434  0.60130219  1
  F  F25  1  0.69799711  0.70248263  0.80057808  1
  F  F26  1  0.80224818  0.20116714  0.50208123  1
  F  F27  1  0.80713802  0.18216017  0.29758169  1
  F  F28  1  0.80355912  0.20587898  0.89944675  1
  F  F29  1  0.80339046  0.20130614  0.70053416  1
