# generated using pymatgen
data_Fe6O5F7
_symmetry_space_group_name_H-M   'P 1'
_cell_length_a   4.77148163
_cell_length_b   4.77148163
_cell_length_c   9.32644808
_cell_angle_alpha   90.21262299
_cell_angle_beta   90.21262299
_cell_angle_gamma   92.25595241
_symmetry_Int_Tables_number   1
_chemical_formula_structural   Fe6O5F7
_chemical_formula_sum   'Fe6 O5 F7'
_cell_volume   212.16797649
_cell_formula_units_Z   1
loop_
 _symmetry_equiv_pos_site_id
 _symmetry_equiv_pos_as_xyz
  1  'x, y, z'
loop_
 _atom_site_type_symbol
 _atom_site_label
 _atom_site_symmetry_multiplicity
 _atom_site_fract_x
 _atom_site_fract_y
 _atom_site_fract_z
 _atom_site_occupancy
  Fe  Fe0  1  0.99884924  0.00115076  0.00000000  1
  Fe  Fe1  1  0.97964636  0.95881423  0.34050432  1
  Fe  Fe2  1  0.04118577  0.02035364  0.65949568  1
  Fe  Fe3  1  0.51626271  0.50792146  0.15514431  1
  Fe  Fe4  1  0.49207854  0.48373729  0.84485569  1
  Fe  Fe5  1  0.47227164  0.52772836  0.50000000  1
  O  O6  1  0.18905558  0.81094442  0.50000000  1
  O  O7  1  0.30820377  0.30159998  0.00474147  1
  O  O8  1  0.31856568  0.31912612  0.66499443  1
  O  O9  1  0.69840002  0.69179623  0.99525853  1
  O  O10  1  0.68087388  0.68143432  0.33500557  1
  F  F11  1  0.19900055  0.79319024  0.18050225  1
  F  F12  1  0.20680976  0.80099945  0.81949775  1
  F  F13  1  0.28583396  0.29216390  0.33431098  1
  F  F14  1  0.70783610  0.71416604  0.66568902  1
  F  F15  1  0.79859183  0.19356035  0.18533473  1
  F  F16  1  0.80643965  0.20140817  0.81466527  1
  F  F17  1  0.80009296  0.19990704  0.50000000  1
