# generated using pymatgen
data_Fe5O3F7
_symmetry_space_group_name_H-M   'P 1'
_cell_length_a   4.78275833
_cell_length_b   4.79130429
_cell_length_c   15.80558021
_cell_angle_alpha   90.19050343
_cell_angle_beta   90.17716425
_cell_angle_gamma   92.17349271
_symmetry_Int_Tables_number   1
_chemical_formula_structural   Fe5O3F7
_chemical_formula_sum   'Fe10 O6 F14'
_cell_volume   361.93070077
_cell_formula_units_Z   2
loop_
 _symmetry_equiv_pos_site_id
 _symmetry_equiv_pos_as_xyz
  1  'x, y, z'
loop_
 _atom_site_type_symbol
 _atom_site_label
 _atom_site_symmetry_multiplicity
 _atom_site_fract_x
 _atom_site_fract_y
 _atom_site_fract_z
 _atom_site_occupancy
  Fe  Fe0  1  0.00701966  0.00612684  0.99959096  1
  Fe  Fe1  1  0.97383604  0.97368943  0.20149905  1
  Fe  Fe2  1  0.02044552  0.02280124  0.40190188  1
  Fe  Fe3  1  0.03319816  0.99955216  0.60636367  1
  Fe  Fe4  1  0.00271974  0.99217515  0.79428706  1
  Fe  Fe5  1  0.51563345  0.51533094  0.09721510  1
  Fe  Fe6  1  0.47888025  0.46930186  0.49918065  1
  Fe  Fe7  1  0.49891090  0.49959788  0.29979747  1
  Fe  Fe8  1  0.47121295  0.51125398  0.69439496  1
  Fe  Fe9  1  0.50204149  0.49914490  0.91222979  1
  O  O10  1  0.18769513  0.80716167  0.69677888  1
  O  O11  1  0.30416889  0.30204627  0.00288375  1
  O  O12  1  0.32292779  0.32115188  0.39540769  1
  O  O13  1  0.29892216  0.29884336  0.59167645  1
  O  O14  1  0.70739825  0.70515461  0.00060226  1
  O  O15  1  0.67256208  0.67281770  0.19883715  1
  F  F16  1  0.19838644  0.80172908  0.09501207  1
  F  F17  1  0.20608236  0.79285173  0.29969557  1
  F  F18  1  0.20485804  0.79753990  0.50268689  1
  F  F19  1  0.20321494  0.80117431  0.90493602  1
  F  F20  1  0.29068441  0.29051901  0.19759798  1
  F  F21  1  0.30530504  0.30683740  0.81314537  1
  F  F22  1  0.70623607  0.70499427  0.39895933  1
  F  F23  1  0.70679081  0.70969221  0.58720081  1
  F  F24  1  0.68851248  0.68703792  0.81078612  1
  F  F25  1  0.80227530  0.19784012  0.09487411  1
  F  F26  1  0.80069835  0.20067292  0.50415972  1
  F  F27  1  0.79264428  0.20668171  0.29950309  1
  F  F28  1  0.80514334  0.19833390  0.90302305  1
  F  F29  1  0.79159666  0.20794566  0.69577409  1
