# generated using pymatgen
data_Al4Bi8Te8(BrCl3)5
_symmetry_space_group_name_H-M   'P 1'
_cell_length_a   8.34491225
_cell_length_b   15.00836822
_cell_length_c   15.47959271
_cell_angle_alpha   88.16302957
_cell_angle_beta   107.43842010
_cell_angle_gamma   69.40225896
_symmetry_Int_Tables_number   1
_chemical_formula_structural   Al4Bi8Te8(BrCl3)5
_chemical_formula_sum   'Al4 Bi8 Te8 Br5 Cl15'
_cell_volume   1710.73456872
_cell_formula_units_Z   1
loop_
 _symmetry_equiv_pos_site_id
 _symmetry_equiv_pos_as_xyz
  1  'x, y, z'
loop_
 _atom_site_type_symbol
 _atom_site_label
 _atom_site_symmetry_multiplicity
 _atom_site_fract_x
 _atom_site_fract_y
 _atom_site_fract_z
 _atom_site_occupancy
  Al  Al0  1  0.67770169  0.04555250  0.14482347  1
  Al  Al1  1  0.17263142  0.04635747  0.64360588  1
  Al  Al2  1  0.82727630  0.95361714  0.35647428  1
  Al  Al3  1  0.33082181  0.95234187  0.85452881  1
  Bi  Bi4  1  0.76248550  0.57253592  0.38532387  1
  Bi  Bi5  1  0.26434398  0.57168779  0.88586038  1
  Bi  Bi6  1  0.74017578  0.42843207  0.11463447  1
  Bi  Bi7  1  0.23783680  0.42817882  0.61495086  1
  Bi  Bi8  1  0.23438227  0.40903344  0.11438239  1
  Bi  Bi9  1  0.73338117  0.40881922  0.61431236  1
  Bi  Bi10  1  0.26700223  0.59235564  0.38634523  1
  Bi  Bi11  1  0.76830548  0.59256121  0.88629039  1
  Te  Te12  1  0.08608951  0.61499431  0.03263982  1
  Te  Te13  1  0.58523638  0.61459175  0.53278547  1
  Te  Te14  1  0.41573146  0.38640818  0.46769163  1
  Te  Te15  1  0.91714288  0.38666992  0.96726531  1
  Te  Te16  1  0.52239868  0.65449012  0.99368612  1
  Te  Te17  1  0.02023222  0.65553952  0.49280911  1
  Te  Te18  1  0.97996838  0.34516522  0.50779864  1
  Te  Te19  1  0.48226076  0.34481163  0.00825350  1
  Br  Br20  1  0.95884084  0.55468947  0.23948211  1
  Br  Br21  1  0.46093742  0.55275249  0.74021533  1
  Br  Br22  1  0.54303272  0.44713607  0.26025494  1
  Br  Br23  1  0.04227741  0.44696292  0.76076286  1
  Br  Br24  1  0.87248591  0.05744414  0.07634873  1
  Cl  Cl25  1  0.77669251  0.89343220  0.22165608  1
  Cl  Cl26  1  0.27624322  0.89351862  0.71905963  1
  Cl  Cl27  1  0.72366737  0.10590136  0.28005525  1
  Cl  Cl28  1  0.22729512  0.10505313  0.77933609  1
  Cl  Cl29  1  0.02453831  0.27742470  0.20609682  1
  Cl  Cl30  1  0.51429142  0.27508961  0.70605449  1
  Cl  Cl31  1  0.48581517  0.72531956  0.29397315  1
  Cl  Cl32  1  0.98636438  0.72387626  0.79347893  1
  Cl  Cl33  1  0.39789600  0.09397133  0.07485426  1
  Cl  Cl34  1  0.89162674  0.09547412  0.57752007  1
  Cl  Cl35  1  0.10770127  0.90516890  0.42394508  1
  Cl  Cl36  1  0.61195053  0.90283952  0.92085990  1
  Cl  Cl37  1  0.34892605  0.05809262  0.57697675  1
  Cl  Cl38  1  0.64945387  0.94255677  0.42248702  1
  Cl  Cl39  1  0.15565905  0.94025244  0.92162051  1
