# generated using pymatgen
data_FeOF
_symmetry_space_group_name_H-M   'P 1'
_cell_length_a   14.21941333
_cell_length_b   14.27360822
_cell_length_c   3.10488448
_cell_angle_alpha   90.00000000
_cell_angle_beta   90.00000000
_cell_angle_gamma   90.24193645
_symmetry_Int_Tables_number   1
_chemical_formula_structural   FeOF
_chemical_formula_sum   'Fe18 O18 F18'
_cell_volume   630.16898607
_cell_formula_units_Z   18
loop_
 _symmetry_equiv_pos_site_id
 _symmetry_equiv_pos_as_xyz
  1  'x, y, z'
loop_
 _atom_site_type_symbol
 _atom_site_label
 _atom_site_symmetry_multiplicity
 _atom_site_fract_x
 _atom_site_fract_y
 _atom_site_fract_z
 _atom_site_occupancy
  Fe  Fe0  1  0.01192224  0.99601971  0.00000000  1
  Fe  Fe1  1  0.01244470  0.33350315  0.00000000  1
  Fe  Fe2  1  0.00083742  0.66458733  -0.00000000  1
  Fe  Fe3  1  0.15112720  0.16570726  0.50000000  1
  Fe  Fe4  1  0.14988188  0.50220186  0.50000000  1
  Fe  Fe5  1  0.14839494  0.82633083  0.50000000  1
  Fe  Fe6  1  0.34121648  0.99191318  0.00000000  1
  Fe  Fe7  1  0.34368604  0.33346919  -0.00000000  1
  Fe  Fe8  1  0.34479456  0.66394283  0.00000000  1
  Fe  Fe9  1  0.48793506  0.49898220  0.50000000  1
  Fe  Fe10  1  0.50070805  0.18630551  0.50000000  1
  Fe  Fe11  1  0.48795413  0.82947418  0.50000000  1
  Fe  Fe12  1  0.67213078  0.00417102  0.00000000  1
  Fe  Fe13  1  0.67285738  0.32395910  -0.00000000  1
  Fe  Fe14  1  0.67932010  0.66518775  0.00000000  1
  Fe  Fe15  1  0.82194233  0.16507276  0.50000000  1
  Fe  Fe16  1  0.83643382  0.51635639  0.50000000  1
  Fe  Fe17  1  0.83588427  0.81305471  0.50000000  1
  O  O18  1  0.06272424  0.26810874  0.50000000  1
  O  O19  1  0.06590334  0.60381478  0.50000000  1
  O  O20  1  0.06316899  0.93457087  0.50000000  1
  O  O21  1  0.10317556  0.10004979  0.00000000  1
  O  O22  1  0.10242942  0.43472898  -0.00000000  1
  O  O23  1  0.10439522  0.76505110  -0.00000000  1
  O  O24  1  0.39299614  0.26650098  0.50000000  1
  O  O25  1  0.39931997  0.60292032  0.50000000  1
  O  O26  1  0.40240624  0.93904694  0.50000000  1
  O  O27  1  0.43705000  0.43369196  0.00000000  1
  O  O28  1  0.43475655  0.77052949  -0.00000000  1
  O  O29  1  0.56673544  0.23306418  -0.00000000  1
  O  O30  1  0.73563366  0.27023469  0.50000000  1
  O  O31  1  0.72796135  0.60139132  0.50000000  1
  O  O32  1  0.76659203  0.09994944  -0.00000000  1
  O  O33  1  0.76449264  0.77240163  -0.00000000  1
  O  O34  1  0.89942461  0.56274126  0.00000000  1
  O  O35  1  0.93836618  0.73130693  0.50000000  1
  F  F36  1  0.23142671  0.23223689  -0.00000000  1
  F  F37  1  0.23453304  0.56621188  -0.00000000  1
  F  F38  1  0.23363291  0.90067125  0.00000000  1
  F  F39  1  0.27281858  0.06606047  0.50000000  1
  F  F40  1  0.27004949  0.73345625  0.50000000  1
  F  F41  1  0.26839485  0.39908770  0.50000000  1
  F  F42  1  0.43590030  0.10280473  -0.00000000  1
  F  F43  1  0.56508608  0.56665464  0.00000000  1
  F  F44  1  0.57067348  0.90036042  0.00000000  1
  F  F45  1  0.59620785  0.06160736  0.50000000  1
  F  F46  1  0.60501581  0.40209273  0.50000000  1
  F  F47  1  0.59890244  0.73494327  0.50000000  1
  F  F48  1  0.73029294  0.93491597  0.50000000  1
  F  F49  1  0.76560770  0.43538535  0.00000000  1
  F  F50  1  0.89834192  0.22885566  0.00000000  1
  F  F51  1  0.89311853  0.90396435  -0.00000000  1
  F  F52  1  0.93346533  0.06725321  0.50000000  1
  F  F53  1  0.92952510  0.39309455  0.50000000  1
