# generated using pymatgen
data_FeOF
_symmetry_space_group_name_H-M   'P 1'
_cell_length_a   14.13318058
_cell_length_b   14.13554172
_cell_length_c   3.08859647
_cell_angle_alpha   90.00000000
_cell_angle_beta   90.00000000
_cell_angle_gamma   89.89986980
_symmetry_Int_Tables_number   1
_chemical_formula_structural   FeOF
_chemical_formula_sum   'Fe18 O18 F18'
_cell_volume   617.03936629
_cell_formula_units_Z   18
loop_
 _symmetry_equiv_pos_site_id
 _symmetry_equiv_pos_as_xyz
  1  'x, y, z'
loop_
 _atom_site_type_symbol
 _atom_site_label
 _atom_site_symmetry_multiplicity
 _atom_site_fract_x
 _atom_site_fract_y
 _atom_site_fract_z
 _atom_site_occupancy
  Fe  Fe0  1  0.98600484  0.00644974  0.00000000  1
  Fe  Fe1  1  0.01216175  0.32938165  -0.00000000  1
  Fe  Fe2  1  0.01413343  0.65904260  -0.00000000  1
  Fe  Fe3  1  0.16763580  0.17865454  0.50000000  1
  Fe  Fe4  1  0.15980649  0.48851131  0.50000000  1
  Fe  Fe5  1  0.15491201  0.82777245  0.50000000  1
  Fe  Fe6  1  0.34614523  0.00035295  0.00000000  1
  Fe  Fe7  1  0.32448947  0.33234460  0.00000000  1
  Fe  Fe8  1  0.33942420  0.66822018  0.00000000  1
  Fe  Fe9  1  0.51477491  0.50023125  0.50000000  1
  Fe  Fe10  1  0.48323741  0.17159869  0.50000000  1
  Fe  Fe11  1  0.48719001  0.83081274  0.50000000  1
  Fe  Fe12  1  0.67881499  0.99885558  0.00000000  1
  Fe  Fe13  1  0.66606388  0.34447979  -0.00000000  1
  Fe  Fe14  1  0.67055988  0.65484355  0.00000000  1
  Fe  Fe15  1  0.83014708  0.15708184  0.50000000  1
  Fe  Fe16  1  0.82314245  0.49670656  0.50000000  1
  Fe  Fe17  1  0.83732712  0.84542018  0.50000000  1
  O  O18  1  0.06024241  0.26317442  0.50000000  1
  O  O19  1  0.07016405  0.60028855  0.50000000  1
  O  O20  1  0.09917415  0.43420955  -0.00000000  1
  O  O21  1  0.09917031  0.77051812  0.00000000  1
  O  O22  1  0.23071529  0.22854140  -0.00000000  1
  O  O23  1  0.26883661  0.40226031  0.50000000  1
  O  O24  1  0.39780634  0.27628252  0.50000000  1
  O  O25  1  0.39526068  0.93267936  0.50000000  1
  O  O26  1  0.43374184  0.10383448  0.00000000  1
  O  O27  1  0.43596435  0.76321745  0.00000000  1
  O  O28  1  0.56226581  0.57035328  -0.00000000  1
  O  O29  1  0.59993925  0.39421445  0.50000000  1
  O  O30  1  0.73594754  0.60422189  0.50000000  1
  O  O31  1  0.73018328  0.93238952  0.50000000  1
  O  O32  1  0.76586936  0.10484530  0.00000000  1
  O  O33  1  0.77182349  0.43193420  0.00000000  1
  O  O34  1  0.90415763  0.89613257  -0.00000000  1
  O  O35  1  0.93723749  0.07096318  0.50000000  1
  F  F36  1  0.06948999  0.94036058  0.50000000  1
  F  F37  1  0.10288841  0.09566786  0.00000000  1
  F  F38  1  0.23553805  0.57216878  -0.00000000  1
  F  F39  1  0.22816585  0.89675483  -0.00000000  1
  F  F40  1  0.26316888  0.05975794  0.50000000  1
  F  F41  1  0.26760455  0.73444109  0.50000000  1
  F  F42  1  0.39564975  0.59479771  0.50000000  1
  F  F43  1  0.43597045  0.44145986  -0.00000000  1
  F  F44  1  0.57150252  0.22772131  -0.00000000  1
  F  F45  1  0.56308564  0.89851348  -0.00000000  1
  F  F46  1  0.60018594  0.06309609  0.50000000  1
  F  F47  1  0.60558306  0.73852037  0.50000000  1
  F  F48  1  0.73312037  0.26819435  0.50000000  1
  F  F49  1  0.76961809  0.76830674  0.00000000  1
  F  F50  1  0.89407308  0.23831619  -0.00000000  1
  F  F51  1  0.90193957  0.56379155  -0.00000000  1
  F  F52  1  0.93532829  0.39949572  0.50000000  1
  F  F53  1  0.93261767  0.72781582  0.50000000  1
