# generated using pymatgen
data_Fe3OF5
_symmetry_space_group_name_H-M   'P 1'
_cell_length_a   7.46157994
_cell_length_b   5.78709087
_cell_length_c   5.78709087
_cell_angle_alpha   72.69364339
_cell_angle_beta   74.14299430
_cell_angle_gamma   74.14299430
_symmetry_Int_Tables_number   1
_chemical_formula_structural   Fe3OF5
_chemical_formula_sum   'Fe6 O2 F10'
_cell_volume   224.43074189
_cell_formula_units_Z   2
loop_
 _symmetry_equiv_pos_site_id
 _symmetry_equiv_pos_as_xyz
  1  'x, y, z'
loop_
 _atom_site_type_symbol
 _atom_site_label
 _atom_site_symmetry_multiplicity
 _atom_site_fract_x
 _atom_site_fract_y
 _atom_site_fract_z
 _atom_site_occupancy
  Fe  Fe0  1  0.85468187  0.67433306  0.67433306  1
  Fe  Fe1  1  0.65021081  0.34122049  0.34122049  1
  Fe  Fe2  1  0.31756954  0.65600765  0.65600765  1
  Fe  Fe3  1  0.17600833  0.33507378  0.33507378  1
  Fe  Fe4  1  0.49536320  0.99934548  0.99934548  1
  Fe  Fe5  1  0.99758169  0.99537344  0.99537344  1
  O  O6  1  0.02861537  0.76975989  0.76975989  1
  O  O7  1  0.38919145  0.42097636  0.42097636  1
  F  F8  1  0.67633770  0.02339780  0.62743144  1
  F  F9  1  0.33461150  0.36188166  0.96345204  1
  F  F10  1  0.30119932  0.89622484  0.89622484  1
  F  F11  1  0.94818450  0.24493563  0.24493563  1
  F  F12  1  0.65450220  0.55873230  0.55873230  1
  F  F13  1  0.69132138  0.11280632  0.11280632  1
  F  F14  1  0.33461150  0.96345204  0.36188166  1
  F  F15  1  0.67633770  0.62743144  0.02339780  1
  F  F16  1  0.98683648  0.31343463  0.70561318  1
  F  F17  1  0.98683648  0.70561318  0.31343463  1
