# generated using pymatgen
data_Fe5(OF4)2
_symmetry_space_group_name_H-M   'P 1'
_cell_length_a   4.79388190
_cell_length_b   13.70455482
_cell_length_c   5.75322631
_cell_angle_alpha   100.88156370
_cell_angle_beta   90.00000000
_cell_angle_gamma   90.00000000
_symmetry_Int_Tables_number   1
_chemical_formula_structural   Fe5(OF4)2
_chemical_formula_sum   'Fe10 O4 F16'
_cell_volume   371.17937510
_cell_formula_units_Z   2
loop_
 _symmetry_equiv_pos_site_id
 _symmetry_equiv_pos_as_xyz
  1  'x, y, z'
loop_
 _atom_site_type_symbol
 _atom_site_label
 _atom_site_symmetry_multiplicity
 _atom_site_fract_x
 _atom_site_fract_y
 _atom_site_fract_z
 _atom_site_occupancy
  Fe  Fe0  1  0.48462752  0.01092145  0.50760227  1
  Fe  Fe1  1  0.49751783  0.39600158  0.28520224  1
  Fe  Fe2  1  0.46833951  0.21084393  0.88537865  1
  Fe  Fe3  1  0.51430619  0.59951332  0.69361253  1
  Fe  Fe4  1  0.51827070  0.80338362  0.10183172  1
  Fe  Fe5  1  0.01430619  0.40048668  0.80638747  1
  Fe  Fe6  1  0.96833951  0.78915607  0.61462135  1
  Fe  Fe7  1  0.01827070  0.19661638  0.39816828  1
  Fe  Fe8  1  0.99751783  0.60399842  0.21479776  1
  Fe  Fe9  1  0.98462752  0.98907855  0.99239773  1
  O  O10  1  0.81475206  0.86664955  0.91874395  1
  O  O11  1  0.79628026  0.67038777  0.52366545  1
  O  O12  1  0.29628026  0.32961223  0.97633455  1
  O  O13  1  0.31475206  0.13335045  0.58125605  1
  F  F14  1  0.79232408  0.25286123  0.71219216  1
  F  F15  1  0.79875996  0.05076065  0.30323587  1
  F  F16  1  0.80455395  0.46122459  0.12496487  1
  F  F17  1  0.71123476  0.05767074  0.80970879  1
  F  F18  1  0.70143696  0.45349293  0.61766119  1
  F  F19  1  0.69874090  0.66386389  0.02769714  1
  F  F20  1  0.70023951  0.87802313  0.44273435  1
  F  F21  1  0.69861482  0.23858192  0.19444519  1
  F  F22  1  0.29232408  0.74713877  0.78780784  1
  F  F23  1  0.29875996  0.94923935  0.19676413  1
  F  F24  1  0.30455395  0.53877541  0.37503513  1
  F  F25  1  0.20023951  0.12197687  0.05726565  1
  F  F26  1  0.21123476  0.94232926  0.69029121  1
  F  F27  1  0.20143696  0.54650707  0.88233881  1
  F  F28  1  0.19874090  0.33613611  0.47230286  1
  F  F29  1  0.19861482  0.76141808  0.30555481  1
