# generated using pymatgen
data_AgSb3PbS6
_symmetry_space_group_name_H-M   'P 1'
_cell_length_a   5.10872680
_cell_length_b   11.12757559
_cell_length_c   12.33908768
_cell_angle_alpha   112.51479052
_cell_angle_beta   90.00000000
_cell_angle_gamma   90.00000000
_symmetry_Int_Tables_number   1
_chemical_formula_structural   AgSb3PbS6
_chemical_formula_sum   'Ag2 Sb6 Pb2 S12'
_cell_volume   647.98532921
_cell_formula_units_Z   2
loop_
 _symmetry_equiv_pos_site_id
 _symmetry_equiv_pos_as_xyz
  1  'x, y, z'
loop_
 _atom_site_type_symbol
 _atom_site_label
 _atom_site_symmetry_multiplicity
 _atom_site_fract_x
 _atom_site_fract_y
 _atom_site_fract_z
 _atom_site_occupancy
  Ag  Ag0  1  0.33769264  0.98879787  0.27126689  1
  Ag  Ag1  1  0.66230736  0.48879787  0.77126689  1
  Sb  Sb2  1  0.74857653  0.70507333  0.09676977  1
  Sb  Sb3  1  0.80522081  0.81053165  0.40976882  1
  Sb  Sb4  1  0.38625432  0.49086411  0.21344159  1
  Sb  Sb5  1  0.61374568  0.99086411  0.71344159  1
  Sb  Sb6  1  0.19477919  0.31053165  0.90976882  1
  Sb  Sb7  1  0.25142347  0.20507333  0.59676977  1
  Pb  Pb8  1  0.83683745  0.20589257  0.22956596  1
  Pb  Pb9  1  0.16316255  0.70589257  0.72956596  1
  S  S10  1  0.32209442  0.33138780  0.30100734  1
  S  S11  1  0.67790558  0.83138780  0.80100734  1
  S  S12  1  0.13539736  0.74347004  0.24284933  1
  S  S13  1  0.86460264  0.24347004  0.74284933  1
  S  S14  1  0.31106805  0.08514225  0.88473971  1
  S  S15  1  0.33613938  0.42889838  0.61650705  1
  S  S16  1  0.66386062  0.92889838  0.11650705  1
  S  S17  1  0.68893195  0.58514225  0.38473971  1
  S  S18  1  0.88454694  0.34894544  0.06858210  1
  S  S19  1  0.11545306  0.84894544  0.56858210  1
  S  S20  1  0.99789524  0.61099656  0.91550145  1
  S  S21  1  0.00210476  0.11099656  0.41550145  1
