# generated using pymatgen
data_MgScCu3Se4
_symmetry_space_group_name_H-M   'P 1'
_cell_length_a   5.83712026
_cell_length_b   5.83719189
_cell_length_c   5.83688375
_cell_angle_alpha   90.00037251
_cell_angle_beta   89.99942213
_cell_angle_gamma   90.00062310
_symmetry_Int_Tables_number   1
_chemical_formula_structural   MgScCu3Se4
_chemical_formula_sum   'Mg1 Sc1 Cu3 Se4'
_cell_volume   198.87658559
_cell_formula_units_Z   1
loop_
 _symmetry_equiv_pos_site_id
 _symmetry_equiv_pos_as_xyz
  1  'x, y, z'
loop_
 _atom_site_type_symbol
 _atom_site_label
 _atom_site_symmetry_multiplicity
 _atom_site_fract_x
 _atom_site_fract_y
 _atom_site_fract_z
 _atom_site_occupancy
  Mg  Mg0  1  0.50000080  0.50000164  0.49999558  1
  Sc  Sc1  1  0.00000400  -0.00000230  0.99999936  1
  Cu  Cu2  1  0.99999858  0.50000084  0.00000223  1
  Cu  Cu3  1  0.00000389  0.00000155  0.49999870  1
  Cu  Cu4  1  0.49999812  0.00000024  0.00000073  1
  Se  Se5  1  0.24809699  0.24809510  0.24809060  1
  Se  Se6  1  0.75190143  0.75189971  0.24809514  1
  Se  Se7  1  0.24809619  0.75190441  0.75191232  1
  Se  Se8  1  0.75190000  0.24809882  0.75190533  1
