# generated using pymatgen
data_Fe13(NiO10)2
_symmetry_space_group_name_H-M   'P 1'
_cell_length_a   6.06415577
_cell_length_b   6.06415577
_cell_length_c   24.93259140
_cell_angle_alpha   90.05258747
_cell_angle_beta   96.90479344
_cell_angle_gamma   120.12882792
_symmetry_Int_Tables_number   1
_chemical_formula_structural   Fe13(NiO10)2
_chemical_formula_sum   'Fe26 Ni4 O40'
_cell_volume   785.24282104
_cell_formula_units_Z   2
loop_
 _symmetry_equiv_pos_site_id
 _symmetry_equiv_pos_as_xyz
  1  'x, y, z'
loop_
 _atom_site_type_symbol
 _atom_site_label
 _atom_site_symmetry_multiplicity
 _atom_site_fract_x
 _atom_site_fract_y
 _atom_site_fract_z
 _atom_site_occupancy
  Fe  Fe0  1  0.40087452  0.69930826  0.10205997  1
  Fe  Fe1  1  0.85061984  0.67497828  0.02559812  1
  Fe  Fe2  1  0.19916311  0.60053713  0.29970024  1
  Fe  Fe3  1  0.49740736  0.00242226  0.99982963  1
  Fe  Fe4  1  0.94625673  0.72853075  0.17478748  1
  Fe  Fe5  1  0.90275071  0.20118544  0.10205997  1
  Fe  Fe6  1  0.70060942  0.59897792  0.30049379  1
  Fe  Fe7  1  0.00076165  0.50059799  0.49827844  1
  Fe  Fe8  1  0.20151487  0.09988338  0.30049379  1
  Fe  Fe9  1  0.65385599  0.07265383  0.22650982  1
  Fe  Fe10  1  0.44947100  0.47510116  0.42457216  1
  Fe  Fe11  1  0.24895903  0.87339813  0.62235816  1
  Fe  Fe12  1  0.00177560  0.99591935  0.49769494  1
  Fe  Fe13  1  0.74902457  0.12570203  0.37472660  1
  Fe  Fe14  1  0.54981133  0.52463267  0.57444300  1
  Fe  Fe15  1  0.35111953  0.92332970  0.77444822  1
  Fe  Fe16  1  0.49768146  0.99751680  0.49827844  1
  Fe  Fe17  1  0.80185834  0.90228211  0.70005937  1
  Fe  Fe18  1  0.29777727  0.39820203  0.70005937  1
  Fe  Fe19  1  0.09737514  0.79835515  0.89910576  1
  Fe  Fe20  1  0.04937406  0.27690556  0.82627962  1
  Fe  Fe21  1  0.80060640  0.39944930  0.70005570  1
  Fe  Fe22  1  0.60078302  0.79795378  0.89873680  1
  Fe  Fe23  1  0.89794622  0.20054068  0.59848690  1
  Fe  Fe24  1  0.15023732  0.32613799  0.97637530  1
  Fe  Fe25  1  0.60075060  0.30172961  0.89910576  1
  Ni  Ni26  1  0.10169323  0.79834657  0.40003980  1
  Ni  Ni27  1  0.40083406  0.20014695  0.10098101  1
  Ni  Ni28  1  0.30155816  0.39889616  0.20045432  1
  Ni  Ni29  1  0.70072324  0.59952557  0.80024881  1
  O  O30  1  0.22187083  0.85369926  0.05119740  1
  O  O31  1  0.69009217  0.86243913  0.05253130  1
  O  O32  1  0.10451530  0.54276279  0.14727810  1
  O  O33  1  0.99556535  0.75688058  0.25244593  1
  O  O34  1  0.19991643  0.35545826  0.05537569  1
  O  O35  1  0.58278120  0.54641516  0.14737023  1
  O  O36  1  0.10095507  0.06459003  0.14737023  1
  O  O37  1  0.38529655  0.95194014  0.34748048  1
  O  O38  1  0.01601471  0.24852713  0.25074081  1
  O  O39  1  0.50221368  0.73472610  0.25074081  1
  O  O40  1  0.69749814  0.32932657  0.05119740  1
  O  O41  1  0.29490675  0.65350419  0.44841094  1
  O  O42  1  0.18801513  0.85526526  0.54328139  1
  O  O43  1  0.60068049  0.04542685  0.14610734  1
  O  O44  1  0.40320963  0.44167280  0.34488242  1
  O  O45  1  0.49417679  0.25751265  0.25168944  1
  O  O46  1  0.90555505  0.94047352  0.34602857  1
  O  O47  1  0.89554034  0.46218392  0.34748048  1
  O  O48  1  0.71626159  0.86847089  0.55120382  1
  O  O49  1  0.18273293  0.33494123  0.55120382  1
  O  O50  1  0.81192345  0.66446543  0.45078250  1
  O  O51  1  0.08779993  0.52038331  0.65423495  1
  O  O52  1  0.28631707  0.13885905  0.45078250  1
  O  O53  1  0.08534953  0.06849319  0.65384272  1
  O  O54  1  0.50661546  0.74007719  0.74669265  1
  O  O55  1  0.60329399  0.55242942  0.65572341  1
  O  O56  1  0.70924305  0.34405417  0.55329622  1
  O  O57  1  0.40780731  0.94372374  0.85153105  1
  O  O58  1  0.80697937  0.14523761  0.45221697  1
  O  O59  1  0.98241399  0.74169825  0.74692361  1
  O  O60  1  0.50522436  0.26450862  0.74692361  1
  O  O61  1  0.31888896  0.66864260  0.95096650  1
  O  O62  1  0.63385164  0.06643602  0.65423495  1
  O  O63  1  0.88500182  0.93823621  0.85128665  1
  O  O64  1  0.41305045  0.46628483  0.85128665  1
  O  O65  1  0.79260506  0.65632981  0.94893487  1
  O  O66  1  0.89379091  0.45629836  0.85008927  1
  O  O67  1  0.99762116  0.24897914  0.74660030  1
  O  O68  1  0.30892671  0.14341654  0.95234425  1
  O  O69  1  0.78232390  0.13207754  0.95096650  1
