# generated using pymatgen
data_Ge7H18O23
_symmetry_space_group_name_H-M   'P 1'
_cell_length_a   7.83679385
_cell_length_b   7.71431979
_cell_length_c   7.83254812
_cell_angle_alpha   87.10443967
_cell_angle_beta   90.31505777
_cell_angle_gamma   89.48116261
_symmetry_Int_Tables_number   1
_chemical_formula_structural   Ge7H18O23
_chemical_formula_sum   'Ge7 H18 O23'
_cell_volume   472.88852170
_cell_formula_units_Z   1
loop_
 _symmetry_equiv_pos_site_id
 _symmetry_equiv_pos_as_xyz
  1  'x, y, z'
loop_
 _atom_site_type_symbol
 _atom_site_label
 _atom_site_symmetry_multiplicity
 _atom_site_fract_x
 _atom_site_fract_y
 _atom_site_fract_z
 _atom_site_occupancy
  Ge  Ge0  1  0.87018351  0.84098029  0.12590593  1
  Ge  Ge1  1  0.88343563  0.13139036  0.86360098  1
  Ge  Ge2  1  0.14566646  0.84453556  0.86613385  1
  Ge  Ge3  1  0.15119748  0.11016982  0.14066986  1
  Ge  Ge4  1  0.00296395  0.98883178  0.51190818  1
  Ge  Ge5  1  0.00512700  0.48031669  0.01024670  1
  Ge  Ge6  1  0.49987811  0.97617277  0.99961299  1
  H  H7  1  0.59221464  0.08368225  0.72611620  1
  H  H8  1  0.52018303  0.10612130  0.42695548  1
  H  H9  1  0.41139668  0.96145212  0.52689753  1
  H  H10  1  0.03487921  0.48349431  0.38350110  1
  H  H11  1  0.96941825  0.37229962  0.54722542  1
  H  H12  1  0.34798525  0.55248723  0.98700274  1
  H  H13  1  0.53910805  0.63321599  0.04399281  1
  H  H14  1  0.49228017  0.44092651  0.12928958  1
  H  H15  1  0.28700725  0.71042706  0.36360388  1
  H  H16  1  0.47320816  0.73663543  0.30086747  1
  H  H17  1  0.59012271  0.65310146  0.61964147  1
  H  H18  1  0.80312643  0.76163413  0.45764437  1
  H  H19  1  0.75827844  0.55781428  0.68769186  1
  H  H20  1  0.56020426  0.44479220  0.39124362  1
  H  H21  1  0.70570059  0.36119933  0.28792453  1
  H  H22  1  0.19094482  0.41053715  0.55540591  1
  H  H23  1  0.29558863  0.33501494  0.74287059  1
  H  H24  1  0.35721542  0.23662875  0.57879933  1
  O  O25  1  0.12112127  0.86382321  0.12693246  1
  O  O26  1  0.89781319  0.86187877  0.88079613  1
  O  O27  1  0.86850894  0.09027037  0.10681683  1
  O  O28  1  0.12677042  0.10749317  0.88742179  1
  O  O29  1  0.85641813  0.86005262  0.38525086  1
  O  O30  1  0.88755049  0.60182957  0.15745378  1
  O  O31  1  0.62847786  0.81922195  0.11546433  1
  O  O32  1  0.88399275  0.14265629  0.62470408  1
  O  O33  1  0.87014242  0.37298607  0.86778392  1
  O  O34  1  0.62924054  0.10824199  0.84636044  1
  O  O35  1  0.13465990  0.84646213  0.63243624  1
  O  O36  1  0.16626443  0.60292337  0.90091791  1
  O  O37  1  0.38062468  0.85459104  0.86181329  1
  O  O38  1  0.13614404  0.10327268  0.37318778  1
  O  O39  1  0.13449657  0.34558097  0.14318693  1
  O  O40  1  0.38867623  0.10671175  0.13523635  1
  O  O41  1  0.47969693  0.06646330  0.54065897  1
  O  O42  1  0.04794027  0.46702153  0.50890415  1
  O  O43  1  0.47393176  0.52289329  0.02278133  1
  O  O44  1  0.40542208  0.68483700  0.39539594  1
  O  O45  1  0.70443000  0.61635072  0.58664677  1
  O  O46  1  0.58261221  0.35809502  0.30594883  1
  O  O47  1  0.31840078  0.35348585  0.62046150  1
