# generated using pymatgen
data_CsSbPO4F3
_symmetry_space_group_name_H-M   'P 1'
_cell_length_a   10.25145428
_cell_length_b   12.88647514
_cell_length_c   5.74839783
_cell_angle_alpha   90.00000000
_cell_angle_beta   90.00000000
_cell_angle_gamma   110.38176860
_symmetry_Int_Tables_number   1
_chemical_formula_structural   CsSbPO4F3
_chemical_formula_sum   'Cs4 Sb4 P4 O16 F12'
_cell_volume   711.84932277
_cell_formula_units_Z   4
loop_
 _symmetry_equiv_pos_site_id
 _symmetry_equiv_pos_as_xyz
  1  'x, y, z'
loop_
 _atom_site_type_symbol
 _atom_site_label
 _atom_site_symmetry_multiplicity
 _atom_site_fract_x
 _atom_site_fract_y
 _atom_site_fract_z
 _atom_site_occupancy
  Cs  Cs0  1  0.65575908  0.86583178  0.25707959  1
  Cs  Cs1  1  0.34424092  0.63416822  0.75707959  1
  Cs  Cs2  1  0.34424092  0.13416822  0.74292041  1
  Cs  Cs3  1  0.65575908  0.36583178  0.24292041  1
  Sb  Sb4  1  0.21914828  0.86271931  0.22710920  1
  Sb  Sb5  1  0.78085172  0.63728069  0.72710920  1
  Sb  Sb6  1  0.78085172  0.13728069  0.77289080  1
  Sb  Sb7  1  0.21914828  0.36271931  0.27289080  1
  P  P8  1  0.92550770  0.67630754  0.23051734  1
  P  P9  1  0.07449230  0.82369246  0.73051734  1
  P  P10  1  0.07449230  0.32369246  0.76948266  1
  P  P11  1  0.92550770  0.17630754  0.26948266  1
  O  O12  1  0.86623069  0.59574995  0.01481557  1
  O  O13  1  0.13376931  0.90425005  0.51481557  1
  O  O14  1  0.13376931  0.40425005  0.98518443  1
  O  O15  1  0.86623069  0.09574995  0.48518443  1
  O  O16  1  0.87195633  0.59465424  0.44731970  1
  O  O17  1  0.12804367  0.90534576  0.94731970  1
  O  O18  1  0.12804367  0.40534576  0.55268030  1
  O  O19  1  0.87195633  0.09465424  0.05268030  1
  O  O20  1  0.09050604  0.70494038  0.22643958  1
  O  O21  1  0.90949396  0.79505962  0.72643958  1
  O  O22  1  0.90949396  0.29505962  0.77356042  1
  O  O23  1  0.09050604  0.20494038  0.27356042  1
  O  O24  1  0.88887735  0.77790050  0.23504743  1
  O  O25  1  0.11112265  0.72209950  0.73504743  1
  O  O26  1  0.11112265  0.22209950  0.76495257  1
  O  O27  1  0.88887735  0.27790050  0.26495257  1
  F  F28  1  0.33263878  0.51859327  0.26344349  1
  F  F29  1  0.66736122  0.98140673  0.76344349  1
  F  F30  1  0.66736122  0.48140673  0.73655651  1
  F  F31  1  0.33263878  0.01859327  0.23655651  1
  F  F32  1  0.35123826  0.84424094  0.00287384  1
  F  F33  1  0.64876174  0.65575906  0.50287384  1
  F  F34  1  0.64876174  0.15575906  0.99712616  1
  F  F35  1  0.35123826  0.34424094  0.49712616  1
  F  F36  1  0.34609747  0.82603267  0.43446254  1
  F  F37  1  0.65390253  0.67396733  0.93446254  1
  F  F38  1  0.65390253  0.17396733  0.56553746  1
  F  F39  1  0.34609747  0.32603267  0.06553746  1
