# generated using pymatgen
data_Rb
_symmetry_space_group_name_H-M   'P 1'
_cell_length_a   9.41957320
_cell_length_b   12.16045861
_cell_length_c   12.16503289
_cell_angle_alpha   43.32067028
_cell_angle_beta   53.28412674
_cell_angle_gamma   55.57096472
_symmetry_Int_Tables_number   1
_chemical_formula_structural   Rb
_chemical_formula_sum   Rb8
_cell_volume   744.49455521
_cell_formula_units_Z   8
loop_
 _symmetry_equiv_pos_site_id
 _symmetry_equiv_pos_as_xyz
  1  'x, y, z'
loop_
 _atom_site_type_symbol
 _atom_site_label
 _atom_site_symmetry_multiplicity
 _atom_site_fract_x
 _atom_site_fract_y
 _atom_site_fract_z
 _atom_site_occupancy
  Rb  Rb0  1  0.43942697  0.61128462  0.15465827  1
  Rb  Rb1  1  0.96145749  0.02515017  0.19254890  1
  Rb  Rb2  1  0.66956569  0.10545089  0.62524423  1
  Rb  Rb3  1  0.45119463  0.21950532  0.02989951  1
  Rb  Rb4  1  0.44492921  0.72655417  0.54000608  1
  Rb  Rb5  1  0.94396750  0.54652844  0.72723371  1
  Rb  Rb6  1  0.14104882  0.15087247  0.61934745  1
  Rb  Rb7  1  0.94694969  0.63561891  0.11483584  1
