# generated using pymatgen
data_La2CuO4
_symmetry_space_group_name_H-M   'P 1'
_cell_length_a   5.38758699
_cell_length_b   5.40022266
_cell_length_c   7.11164387
_cell_angle_alpha   90.00000000
_cell_angle_beta   112.25852458
_cell_angle_gamma   90.00000000
_symmetry_Int_Tables_number   1
_chemical_formula_structural   La2CuO4
_chemical_formula_sum   'La4 Cu2 O8'
_cell_volume   191.48949413
_cell_formula_units_Z   2
loop_
 _symmetry_equiv_pos_site_id
 _symmetry_equiv_pos_as_xyz
  1  'x, y, z'
loop_
 _atom_site_type_symbol
 _atom_site_label
 _atom_site_symmetry_multiplicity
 _atom_site_fract_x
 _atom_site_fract_y
 _atom_site_fract_z
 _atom_site_occupancy
  La  La0  1  0.36108671  0.00487478  0.72217342  1
  La  La1  1  0.13891329  0.50487478  0.27782658  1
  La  La2  1  0.86108671  0.49512522  0.72217342  1
  La  La3  1  0.63891329  0.99512522  0.27782658  1
  Cu  Cu4  1  0.00000000  0.00000000  0.00000000  1
  Cu  Cu5  1  0.50000000  0.50000000  0.00000000  1
  O  O6  1  0.18564348  0.98570879  0.37128696  1
  O  O7  1  0.24925191  0.75000000  0.99850382  1
  O  O8  1  0.75074809  0.25000000  0.00149618  1
  O  O9  1  0.31435652  0.48570879  0.62871304  1
  O  O10  1  0.81435652  0.01429121  0.62871304  1
  O  O11  1  0.25074809  0.25000000  0.00149618  1
  O  O12  1  0.74925191  0.75000000  0.99850382  1
  O  O13  1  0.68564348  0.51429121  0.37128696  1
