# generated using pymatgen
data_Sr2CaMoO6
_symmetry_space_group_name_H-M   'P 1'
_cell_length_a   5.89186266
_cell_length_b   5.95305879
_cell_length_c   8.35322898
_cell_angle_alpha   90.00000000
_cell_angle_beta   90.00000000
_cell_angle_gamma   90.00000000
_symmetry_Int_Tables_number   1
_chemical_formula_structural   Sr2CaMoO6
_chemical_formula_sum   'Sr4 Ca2 Mo2 O12'
_cell_volume   292.98620526
_cell_formula_units_Z   2
loop_
 _symmetry_equiv_pos_site_id
 _symmetry_equiv_pos_as_xyz
  1  'x, y, z'
loop_
 _atom_site_type_symbol
 _atom_site_label
 _atom_site_symmetry_multiplicity
 _atom_site_fract_x
 _atom_site_fract_y
 _atom_site_fract_z
 _atom_site_occupancy
  Sr  Sr0  1  0.00000000  0.51932301  0.25435618  1
  Sr  Sr1  1  0.50000000  0.98986904  0.24858784  1
  Sr  Sr2  1  0.00000000  0.51932301  0.74564382  1
  Sr  Sr3  1  0.50000000  0.98986904  0.75141216  1
  Ca  Ca4  1  0.50000000  0.47327880  0.00000000  1
  Ca  Ca5  1  0.00000000  0.99748345  0.50000000  1
  Mo  Mo6  1  0.00000000  0.97068879  -0.00000000  1
  Mo  Mo7  1  0.50000000  0.49044283  0.50000000  1
  O  O8  1  0.50000000  0.48205571  0.73183198  1
  O  O9  1  0.26462125  0.26372296  0.50000000  1
  O  O10  1  0.00000000  0.95887220  0.23232121  1
  O  O11  1  0.00000000  0.95887220  0.76767879  1
  O  O12  1  0.73537875  0.26372296  0.50000000  1
  O  O13  1  0.22187472  0.72329229  0.00000000  1
  O  O14  1  0.73030838  0.72561348  0.50000000  1
  O  O15  1  0.77812528  0.72329229  -0.00000000  1
  O  O16  1  0.75451262  0.18130438  0.00000000  1
  O  O17  1  0.26969162  0.72561348  0.50000000  1
  O  O18  1  0.50000000  0.48205571  0.26816802  1
  O  O19  1  0.24548738  0.18130438  0.00000000  1
