# generated using pymatgen
data_Li4CO4
_symmetry_space_group_name_H-M   'P 1'
_cell_length_a   3.18334876
_cell_length_b   5.45692449
_cell_length_c   5.45692455
_cell_angle_alpha   89.99459707
_cell_angle_beta   87.30443384
_cell_angle_gamma   87.30443446
_symmetry_Int_Tables_number   1
_chemical_formula_structural   Li4CO4
_chemical_formula_sum   'Li4 C1 O4'
_cell_volume   94.58396736
_cell_formula_units_Z   1
loop_
 _symmetry_equiv_pos_site_id
 _symmetry_equiv_pos_as_xyz
  1  'x, y, z'
loop_
 _atom_site_type_symbol
 _atom_site_label
 _atom_site_symmetry_multiplicity
 _atom_site_fract_x
 _atom_site_fract_y
 _atom_site_fract_z
 _atom_site_occupancy
  Li  Li0  1  0.07243066  0.35756204  0.35756204  1
  Li  Li1  1  0.56411932  0.28191728  0.76577843  1
  Li  Li2  1  0.03321439  0.66545761  0.66545761  1
  Li  Li3  1  0.56411932  0.76577843  0.28191728  1
  C  C4  1  0.97868130  0.05292213  0.05292213  1
  O  O5  1  0.80425595  0.90613566  0.90613566  1
  O  O6  1  0.55107793  0.51019565  0.51019565  1
  O  O7  1  0.05536607  0.98512359  0.27682761  1
  O  O8  1  0.05536607  0.27682761  0.98512360  1
