# generated using pymatgen
data_Al8P8H22C14N4O33F2
_symmetry_space_group_name_H-M   'P 1'
_cell_length_a   13.02167072
_cell_length_b   13.02167072
_cell_length_c   14.49261955
_cell_angle_alpha   82.57015084
_cell_angle_beta   82.57015084
_cell_angle_gamma   64.98145835
_symmetry_Int_Tables_number   1
_chemical_formula_structural   Al8P8H22C14N4O33F2
_chemical_formula_sum   'Al16 P16 H44 C28 N8 O66 F4'
_cell_volume   2200.52253130
_cell_formula_units_Z   2
loop_
 _symmetry_equiv_pos_site_id
 _symmetry_equiv_pos_as_xyz
  1  'x, y, z'
loop_
 _atom_site_type_symbol
 _atom_site_label
 _atom_site_symmetry_multiplicity
 _atom_site_fract_x
 _atom_site_fract_y
 _atom_site_fract_z
 _atom_site_occupancy
  Al  Al0  1  0.95890199  0.36435706  0.59058844  1
  Al  Al1  1  0.63564294  0.04109801  0.90941156  1
  Al  Al2  1  0.04109801  0.63564294  0.40941156  1
  Al  Al3  1  0.36435706  0.95890199  0.09058844  1
  Al  Al4  1  0.35282482  0.13693681  0.43951410  1
  Al  Al5  1  0.86306319  0.64717518  0.06048590  1
  Al  Al6  1  0.64717518  0.86306319  0.56048590  1
  Al  Al7  1  0.13693681  0.35282482  0.93951410  1
  Al  Al8  1  0.18637850  0.98363893  0.48933535  1
  Al  Al9  1  0.01636107  0.81362150  0.01066465  1
  Al  Al10  1  0.81362150  0.01636107  0.51066465  1
  Al  Al11  1  0.98363893  0.18637850  0.98933535  1
  Al  Al12  1  0.05052514  0.26806805  0.30326277  1
  Al  Al13  1  0.73193195  0.94947486  0.19673723  1
  Al  Al14  1  0.94947486  0.73193195  0.69673723  1
  Al  Al15  1  0.26806805  0.05052514  0.80326277  1
  P  P16  1  0.27226577  0.04388861  0.29392031  1
  P  P17  1  0.95611139  0.72773423  0.20607969  1
  P  P18  1  0.72773423  0.95611139  0.70607969  1
  P  P19  1  0.04388861  0.27226577  0.79392031  1
  P  P20  1  0.38726040  0.95683615  0.60515149  1
  P  P21  1  0.04316385  0.61273960  0.89484851  1
  P  P22  1  0.61273960  0.04316385  0.39484851  1
  P  P23  1  0.95683615  0.38726040  0.10515149  1
  P  P24  1  0.93934656  0.17888773  0.48571018  1
  P  P25  1  0.82111227  0.06065344  0.01428982  1
  P  P26  1  0.06065344  0.82111227  0.51428982  1
  P  P27  1  0.17888773  0.93934656  0.98571018  1
  P  P28  1  0.15079395  0.37333217  0.43624803  1
  P  P29  1  0.62666783  0.84920605  0.06375197  1
  P  P30  1  0.84920605  0.62666783  0.56375197  1
  P  P31  1  0.37333217  0.15079395  0.93624803  1
  H  H32  1  0.24852257  0.41624691  0.73353203  1
  H  H33  1  0.58375309  0.75147743  0.76646797  1
  H  H34  1  0.75147743  0.58375309  0.26646797  1
  H  H35  1  0.41624691  0.24852257  0.23353203  1
  H  H36  1  0.56520514  0.23455156  0.69653829  1
  H  H37  1  0.76544844  0.43479486  0.80346171  1
  H  H38  1  0.43479486  0.76544844  0.30346171  1
  H  H39  1  0.23455156  0.56520514  0.19653829  1
  H  H40  1  0.26124839  0.58232932  0.64732868  1
  H  H41  1  0.41767068  0.73875161  0.85267132  1
  H  H42  1  0.73875161  0.41767068  0.35267132  1
  H  H43  1  0.58232932  0.26124839  0.14732868  1
  H  H44  1  0.45829510  0.18702172  0.68745466  1
  H  H45  1  0.81297828  0.54170490  0.81254534  1
  H  H46  1  0.54170490  0.81297828  0.31254534  1
  H  H47  1  0.18702172  0.45829510  0.18745466  1
  H  H48  1  0.66294244  0.52496205  0.59710502  1
  H  H49  1  0.47503795  0.33705756  0.90289498  1
  H  H50  1  0.33705756  0.47503795  0.40289498  1
  H  H51  1  0.52496205  0.66294244  0.09710502  1
  H  H52  1  0.51045238  0.70863801  0.59846439  1
  H  H53  1  0.29136199  0.48954762  0.90153561  1
  H  H54  1  0.48954762  0.29136199  0.40153561  1
  H  H55  1  0.70863801  0.51045238  0.09846439  1
  H  H56  1  0.62228304  0.35376306  0.62157982  1
  H  H57  1  0.64623694  0.37771696  0.87842018  1
  H  H58  1  0.37771696  0.64623694  0.37842018  1
  H  H59  1  0.35376306  0.62228304  0.12157982  1
  H  H60  1  0.53187985  0.22084419  0.58436959  1
  H  H61  1  0.77915581  0.46812015  0.91563041  1
  H  H62  1  0.46812015  0.77915581  0.41563041  1
  H  H63  1  0.22084419  0.53187985  0.08436959  1
  H  H64  1  0.28458406  0.29699743  0.66837143  1
  H  H65  1  0.70300257  0.71541594  0.83162857  1
  H  H66  1  0.71541594  0.70300257  0.33162857  1
  H  H67  1  0.29699743  0.28458406  0.16837143  1
  H  H68  1  0.31871865  0.74245470  0.61693098  1
  H  H69  1  0.25754530  0.68128135  0.88306902  1
  H  H70  1  0.68128135  0.25754530  0.38306902  1
  H  H71  1  0.74245470  0.31871865  0.11693098  1
  H  H72  1  0.24147103  0.43495330  0.60985119  1
  H  H73  1  0.56504670  0.75852897  0.89014881  1
  H  H74  1  0.75852897  0.56504670  0.39014881  1
  H  H75  1  0.43495330  0.24147103  0.10985119  1
  C  C76  1  0.38097683  0.65454141  0.62109103  1
  C  C77  1  0.34545859  0.61902317  0.87890897  1
  C  C78  1  0.61902317  0.34545859  0.37890897  1
  C  C79  1  0.65454141  0.38097683  0.12109103  1
  C  C80  1  0.57630679  0.53116176  0.60858220  1
  C  C81  1  0.46883824  0.42369321  0.89141780  1
  C  C82  1  0.42369321  0.46883824  0.39141780  1
  C  C83  1  0.53116176  0.57630679  0.10858220  1
  C  C84  1  0.28925492  0.37887797  0.66732491  1
  C  C85  1  0.62112203  0.71074508  0.83267509  1
  C  C86  1  0.71074508  0.62112203  0.33267509  1
  C  C87  1  0.37887797  0.28925492  0.16732491  1
  C  C88  1  0.43639437  0.45061354  0.63861931  1
  C  C89  1  0.54938646  0.56360563  0.86138069  1
  C  C90  1  0.56360563  0.54938646  0.36138069  1
  C  C91  1  0.45061354  0.43639437  0.13861931  1
  C  C92  1  0.49597104  0.24505490  0.65534842  1
  C  C93  1  0.75494510  0.50402896  0.84465158  1
  C  C94  1  0.50402896  0.75494510  0.34465158  1
  C  C95  1  0.24505490  0.49597104  0.15534842  1
  C  C96  1  0.55194208  0.43737162  0.62301653  1
  C  C97  1  0.56262838  0.44805792  0.87698347  1
  C  C98  1  0.44805792  0.56262838  0.37698347  1
  C  C99  1  0.43737162  0.55194208  0.12301653  1
  C  C100  1  0.35116827  0.56441769  0.63676224  1
  C  C101  1  0.43558231  0.64883173  0.86323776  1
  C  C102  1  0.64883173  0.43558231  0.36323776  1
  C  C103  1  0.56441769  0.35116827  0.13676224  1
  N  N104  1  0.40858951  0.36135674  0.65391275  1
  N  N105  1  0.63864326  0.59141049  0.84608725  1
  N  N106  1  0.59141049  0.63864326  0.34608725  1
  N  N107  1  0.36135674  0.40858951  0.15391275  1
  N  N108  1  0.49193955  0.63778834  0.60771281  1
  N  N109  1  0.36221166  0.50806045  0.89228719  1
  N  N110  1  0.50806045  0.36221166  0.39228719  1
  N  N111  1  0.63778834  0.49193955  0.10771281  1
  O  O112  1  0.39380937  0.06552332  0.55349739  1
  O  O113  1  0.93447668  0.60619063  0.94650261  1
  O  O114  1  0.60619063  0.93447668  0.44650261  1
  O  O115  1  0.06552332  0.39380937  0.05349739  1
  O  O116  1  0.27747693  0.29031300  0.43516700  1
  O  O117  1  0.70968700  0.72252307  0.06483300  1
  O  O118  1  0.72252307  0.70968700  0.56483300  1
  O  O119  1  0.29031300  0.27747693  0.93516700  1
  O  O120  1  0.08727478  0.36024724  0.53146152  1
  O  O121  1  0.63975276  0.91272522  0.96853848  1
  O  O122  1  0.91272522  0.63975276  0.46853848  1
  O  O123  1  0.36024724  0.08727478  0.03146152  1
  O  O124  1  0.85255139  0.50542961  0.57833788  1
  O  O125  1  0.49457039  0.14744861  0.92166212  1
  O  O126  1  0.14744861  0.49457039  0.42166212  1
  O  O127  1  0.50542961  0.85255139  0.07833788  1
  O  O128  1  0.83860465  0.14670723  0.49022326  1
  O  O129  1  0.85329277  0.16139535  0.00977674  1
  O  O130  1  0.16139535  0.85329277  0.50977674  1
  O  O131  1  0.14670723  0.83860465  0.99022326  1
  O  O132  1  0.90493613  0.28102518  0.54548045  1
  O  O133  1  0.71897482  0.09506387  0.95451955  1
  O  O134  1  0.09506387  0.71897482  0.45451955  1
  O  O135  1  0.28102518  0.90493613  0.04548045  1
  O  O136  1  0.96409389  0.21978162  0.38277321  1
  O  O137  1  0.78021838  0.03590611  0.11722679  1
  O  O138  1  0.03590611  0.78021838  0.61722679  1
  O  O139  1  0.21978162  0.96409389  0.88277321  1
  O  O140  1  0.50607083  0.85537418  0.59499575  1
  O  O141  1  0.14462582  0.49392917  0.90500425  1
  O  O142  1  0.49392917  0.14462582  0.40500425  1
  O  O143  1  0.85537418  0.50607083  0.09499575  1
  O  O144  1  0.30154703  0.92470745  0.56474032  1
  O  O145  1  0.07529255  0.69845297  0.93525968  1
  O  O146  1  0.69845297  0.07529255  0.43525968  1
  O  O147  1  0.92470745  0.30154703  0.06474032  1
  O  O148  1  0.09280321  0.35701680  0.35651456  1
  O  O149  1  0.64298320  0.90719679  0.14348544  1
  O  O150  1  0.90719679  0.64298320  0.64348544  1
  O  O151  1  0.35701680  0.09280321  0.85651456  1
  O  O152  1  0.22931449  0.96983821  0.36638641  1
  O  O153  1  0.03016179  0.77068551  0.13361359  1
  O  O154  1  0.77068551  0.03016179  0.63361359  1
  O  O155  1  0.96983821  0.22931449  0.86638641  1
  O  O156  1  0.17227062  0.15466160  0.26077075  1
  O  O157  1  0.84533840  0.82772938  0.23922925  1
  O  O158  1  0.82772938  0.84533840  0.73922925  1
  O  O159  1  0.15466160  0.17227062  0.76077075  1
  O  O160  1  0.97334060  0.35175890  0.21002032  1
  O  O161  1  0.64824110  0.02665940  0.28997968  1
  O  O162  1  0.02665940  0.64824110  0.78997968  1
  O  O163  1  0.35175890  0.97334060  0.71002032  1
  O  O164  1  0.04419253  0.07887952  0.52249785  1
  O  O165  1  0.92112048  0.95580747  0.97750215  1
  O  O166  1  0.95580747  0.92112048  0.47750215  1
  O  O167  1  0.07887952  0.04419253  0.02249785  1
  O  O168  1  0.36120633  0.07239219  0.33353629  1
  O  O169  1  0.92760781  0.63879367  0.16646371  1
  O  O170  1  0.63879367  0.92760781  0.66646371  1
  O  O171  1  0.07239219  0.36120633  0.83353629  1
  O  O172  1  0.97513661  0.33012090  0.70915070  1
  O  O173  1  0.66987910  0.02486339  0.79084930  1
  O  O174  1  0.02486339  0.66987910  0.29084930  1
  O  O175  1  0.33012090  0.97513661  0.20915070  1
  O  O176  1  0.91290598  0.08709402  0.75000000  1
  O  O177  1  0.08709402  0.91290598  0.25000000  1
  F  F178  1  0.21458109  0.12204640  0.47224927  1
  F  F179  1  0.87795360  0.78541891  0.02775073  1
  F  F180  1  0.78541891  0.87795360  0.52775073  1
  F  F181  1  0.12204640  0.21458109  0.97224927  1
