# generated using pymatgen
data_CdSn
_symmetry_space_group_name_H-M   'P 1'
_cell_length_a   3.33995356
_cell_length_b   3.33996158
_cell_length_c   5.41377063
_cell_angle_alpha   90.10964426
_cell_angle_beta   89.88987095
_cell_angle_gamma   119.79504579
_symmetry_Int_Tables_number   1
_chemical_formula_structural   CdSn
_chemical_formula_sum   'Cd1 Sn1'
_cell_volume   52.40883977
_cell_formula_units_Z   1
loop_
 _symmetry_equiv_pos_site_id
 _symmetry_equiv_pos_as_xyz
  1  'x, y, z'
loop_
 _atom_site_type_symbol
 _atom_site_label
 _atom_site_symmetry_multiplicity
 _atom_site_fract_x
 _atom_site_fract_y
 _atom_site_fract_z
 _atom_site_occupancy
  Cd  Cd0  1  0.66667507  0.33332192  0.74998897  1
  Sn  Sn1  1  0.33332393  0.66667708  0.25001203  1
