# generated using pymatgen
data_Mg16Al12H
_symmetry_space_group_name_H-M   'P 1'
_cell_length_a   9.07073398
_cell_length_b   9.06015596
_cell_length_c   9.10495425
_cell_angle_alpha   109.52343560
_cell_angle_beta   109.57033615
_cell_angle_gamma   109.14301824
_symmetry_Int_Tables_number   1
_chemical_formula_structural   Mg16Al12H
_chemical_formula_sum   'Mg16 Al12 H1'
_cell_volume   577.26193309
_cell_formula_units_Z   1
loop_
 _symmetry_equiv_pos_site_id
 _symmetry_equiv_pos_as_xyz
  1  'x, y, z'
loop_
 _atom_site_type_symbol
 _atom_site_label
 _atom_site_symmetry_multiplicity
 _atom_site_fract_x
 _atom_site_fract_y
 _atom_site_fract_z
 _atom_site_occupancy
  Mg  Mg0  1  0.56396842  0.26039478  0.00000000  1
  Mg  Mg1  1  0.98699020  0.32585823  1.00000000  1
  Mg  Mg2  1  0.01323490  0.98274799  0.00000000  1
  Mg  Mg3  1  0.30510311  0.58135411  -0.00000000  1
  Mg  Mg4  1  0.67093228  0.66143416  0.27801988  1
  Mg  Mg5  1  0.57612263  0.98339213  0.29276312  1
  Mg  Mg6  1  0.99648945  0.58492809  0.31957972  1
  Mg  Mg7  1  0.98734690  0.97904562  0.33962988  1
  Mg  Mg8  1  0.39400021  0.70155296  0.40099517  1
  Mg  Mg9  1  0.70929554  0.38752588  0.40395620  1
  Mg  Mg10  1  0.30533934  0.98356968  0.59604280  1
  Mg  Mg11  1  0.99300604  0.30055879  0.59900583  1
  Mg  Mg12  1  0.64771502  0.63941474  0.66036812  1
  Mg  Mg13  1  0.67690973  0.26534738  0.68042028  1
  Mg  Mg14  1  0.28336052  0.69062901  0.70723588  1
  Mg  Mg15  1  0.39291341  0.38341428  0.72198112  1
  Al  Al16  1  0.80377889  0.60464981  1.00000000  1
  Al  Al17  1  0.63487631  0.80107445  1.00000000  1
  Al  Al18  1  0.35355837  0.35006340  0.18370460  1
  Al  Al19  1  0.17704080  0.80260460  0.18484739  1
  Al  Al20  1  0.81916866  0.17020919  0.18768577  1
  Al  Al21  1  0.35787300  0.16809427  0.37084711  1
  Al  Al22  1  0.18050821  0.36218720  0.38062834  1
  Al  Al23  1  0.79987986  0.98155886  0.61937066  1
  Al  Al24  1  0.98702588  0.79724716  0.62915289  1
  Al  Al25  1  0.63148289  0.98252242  0.81231423  1
  Al  Al26  1  0.99219341  0.61775921  0.81515261  1
  Al  Al27  1  0.16985377  0.16635779  0.81629540  1
  H  H28  1  0.59002924  0.48450380  -0.00000000  1
