# generated using pymatgen
data_CsUVO6
_symmetry_space_group_name_H-M   'P 1'
_cell_length_a   9.81499262
_cell_length_b   10.96495240
_cell_length_c   7.16241810
_cell_angle_alpha   90.00000000
_cell_angle_beta   89.96353798
_cell_angle_gamma   90.00000000
_symmetry_Int_Tables_number   1
_chemical_formula_structural   CsUVO6
_chemical_formula_sum   'Cs4 U4 V4 O24'
_cell_volume   770.82591808
_cell_formula_units_Z   4
loop_
 _symmetry_equiv_pos_site_id
 _symmetry_equiv_pos_as_xyz
  1  'x, y, z'
loop_
 _atom_site_type_symbol
 _atom_site_label
 _atom_site_symmetry_multiplicity
 _atom_site_fract_x
 _atom_site_fract_y
 _atom_site_fract_z
 _atom_site_occupancy
  Cs  Cs0  1  0.77522597  0.26035692  0.47580285  1
  Cs  Cs1  1  0.72477403  0.76035692  0.52419715  1
  Cs  Cs2  1  0.22477403  0.73964308  0.52419715  1
  Cs  Cs3  1  0.27522597  0.23964308  0.47580285  1
  U  U4  1  0.69473977  0.50067567  0.99593303  1
  U  U5  1  0.80526023  0.00067567  0.00406697  1
  U  U6  1  0.30526023  0.49932433  0.00406697  1
  U  U7  1  0.19473977  0.99932433  0.99593303  1
  V  V8  1  0.50880452  0.21050514  0.96623358  1
  V  V9  1  0.99119548  0.71050514  0.03376642  1
  V  V10  1  0.49119548  0.78949486  0.03376642  1
  V  V11  1  0.00880452  0.28949486  0.96623358  1
  O  O12  1  0.68846566  0.46570942  0.74655600  1
  O  O13  1  0.81153434  0.96570942  0.25344400  1
  O  O14  1  0.31153434  0.53429058  0.25344400  1
  O  O15  1  0.18846566  0.03429058  0.74655600  1
  O  O16  1  0.65723967  0.14885261  0.06814830  1
  O  O17  1  0.84276033  0.64885261  0.93185170  1
  O  O18  1  0.34276033  0.85114739  0.93185170  1
  O  O19  1  0.15723967  0.35114739  0.06814830  1
  O  O20  1  0.50017908  0.37070216  0.03652445  1
  O  O21  1  0.99982092  0.87070216  0.96347555  1
  O  O22  1  0.49982092  0.62929784  0.96347555  1
  O  O23  1  0.00017908  0.12929784  0.03652445  1
  O  O24  1  0.51910603  0.20050006  0.73578884  1
  O  O25  1  0.98089397  0.70050006  0.26421116  1
  O  O26  1  0.48089397  0.79949994  0.26421116  1
  O  O27  1  0.01910603  0.29949994  0.73578884  1
  O  O28  1  0.86262633  0.36622713  0.04677969  1
  O  O29  1  0.63737367  0.86622713  0.95322031  1
  O  O30  1  0.13737367  0.63377287  0.95322031  1
  O  O31  1  0.36262633  0.13377287  0.04677969  1
  O  O32  1  0.80391737  0.03529499  0.75453455  1
  O  O33  1  0.69608263  0.53529499  0.24546545  1
  O  O34  1  0.19608263  0.96470501  0.24546545  1
  O  O35  1  0.30391737  0.46470501  0.75453455  1
