# generated using pymatgen
data_Mn2Bi3O7
_symmetry_space_group_name_H-M   'P 1'
_cell_length_a   5.80217036
_cell_length_b   5.83317917
_cell_length_c   10.69191737
_cell_angle_alpha   105.83002663
_cell_angle_beta   90.00000000
_cell_angle_gamma   90.00000000
_symmetry_Int_Tables_number   1
_chemical_formula_structural   Mn2Bi3O7
_chemical_formula_sum   'Mn4 Bi6 O14'
_cell_volume   348.14518405
_cell_formula_units_Z   2
loop_
 _symmetry_equiv_pos_site_id
 _symmetry_equiv_pos_as_xyz
  1  'x, y, z'
loop_
 _atom_site_type_symbol
 _atom_site_label
 _atom_site_symmetry_multiplicity
 _atom_site_fract_x
 _atom_site_fract_y
 _atom_site_fract_z
 _atom_site_occupancy
  Mn  Mn0  1  0.00813525  0.36843112  0.21157465  1
  Mn  Mn1  1  0.00813525  0.15685647  0.78842535  1
  Mn  Mn2  1  0.50813525  0.63156888  0.78842535  1
  Mn  Mn3  1  0.50813525  0.84314353  0.21157465  1
  Bi  Bi4  1  0.41663918  0.16065487  0.00000000  1
  Bi  Bi5  1  0.91663918  0.83934513  1.00000000  1
  Bi  Bi6  1  0.03220967  0.95724009  0.36980757  1
  Bi  Bi7  1  0.03220967  0.58743251  0.63019243  1
  Bi  Bi8  1  0.53220967  0.04275991  0.63019243  1
  Bi  Bi9  1  0.53220967  0.41256749  0.36980757  1
  O  O10  1  0.53185411  0.78847457  1.00000000  1
  O  O11  1  0.03185411  0.21152543  0.00000000  1
  O  O12  1  0.42973768  0.05874917  0.42764512  1
  O  O13  1  0.42973768  0.63110405  0.57235488  1
  O  O14  1  0.92973768  0.94125083  0.57235488  1
  O  O15  1  0.92973768  0.36889595  0.42764512  1
  O  O16  1  0.25417431  0.62406970  0.24502235  1
  O  O17  1  0.25417431  0.37904736  0.75497765  1
  O  O18  1  0.75417431  0.37593030  0.75497765  1
  O  O19  1  0.75417431  0.62095264  0.24502235  1
  O  O20  1  0.28649643  0.11811832  0.19094804  1
  O  O21  1  0.28649643  0.92717028  0.80905196  1
  O  O22  1  0.78649643  0.88188168  0.80905196  1
  O  O23  1  0.78649643  0.07282972  0.19094804  1
