# generated using pymatgen
data_Rb2O3
_symmetry_space_group_name_H-M   'P 1'
_cell_length_a   8.19649244
_cell_length_b   8.19649244
_cell_length_c   8.19649244
_cell_angle_alpha   101.39626493
_cell_angle_beta   113.65342300
_cell_angle_gamma   113.65342300
_symmetry_Int_Tables_number   1
_chemical_formula_structural   Rb2O3
_chemical_formula_sum   'Rb8 O12'
_cell_volume   417.71086622
_cell_formula_units_Z   4
loop_
 _symmetry_equiv_pos_site_id
 _symmetry_equiv_pos_as_xyz
  1  'x, y, z'
loop_
 _atom_site_type_symbol
 _atom_site_label
 _atom_site_symmetry_multiplicity
 _atom_site_fract_x
 _atom_site_fract_y
 _atom_site_fract_z
 _atom_site_occupancy
  Rb  Rb0  1  0.14850437  0.65364669  0.89783793  1
  Rb  Rb1  1  0.74419124  0.09635331  0.74485768  1
  Rb  Rb2  1  0.85149563  0.74933356  0.50514232  1
  Rb  Rb3  1  0.25580876  0.00066644  0.35216207  1
  Rb  Rb4  1  0.75580876  0.10216207  0.25066644  1
  Rb  Rb5  1  0.64850437  0.64783793  0.90364669  1
  Rb  Rb6  1  0.24419124  0.49485768  0.34635331  1
  Rb  Rb7  1  0.35149563  0.25514232  -0.00066644  1
  O  O8  1  0.50000000  0.82035253  0.32035253  1
  O  O9  1  -0.00000000  0.92964747  0.92964747  1
  O  O10  1  0.50000000  0.67964747  0.17964747  1
  O  O11  1  -0.00000000  0.07035253  0.07035253  1
  O  O12  1  0.90218362  0.56512903  0.21245442  1
  O  O13  1  0.14732539  0.18487097  0.58705459  1
  O  O14  1  0.09781638  0.31027080  0.66294541  1
  O  O15  1  0.85267461  0.43972920  0.03754558  1
  O  O16  1  0.35267461  0.78754558  0.68972920  1
  O  O17  1  0.40218362  0.96245442  0.81512903  1
  O  O18  1  0.64732539  0.33705459  0.43487097  1
  O  O19  1  0.59781638  0.41294541  0.56027080  1
