# generated using pymatgen
data_SrNb2CuClO7
_symmetry_space_group_name_H-M   'P 1'
_cell_length_a   7.91663603
_cell_length_b   7.91643680
_cell_length_c   11.66231277
_cell_angle_alpha   89.99997142
_cell_angle_beta   89.99994810
_cell_angle_gamma   90.00042947
_symmetry_Int_Tables_number   1
_chemical_formula_structural   SrNb2CuClO7
_chemical_formula_sum   'Sr4 Nb8 Cu4 Cl4 O28'
_cell_volume   730.89520388
_cell_formula_units_Z   4
loop_
 _symmetry_equiv_pos_site_id
 _symmetry_equiv_pos_as_xyz
  1  'x, y, z'
loop_
 _atom_site_type_symbol
 _atom_site_label
 _atom_site_symmetry_multiplicity
 _atom_site_fract_x
 _atom_site_fract_y
 _atom_site_fract_z
 _atom_site_occupancy
  Sr  Sr0  1  0.50001072  0.00000430  -0.00000071  1
  Sr  Sr1  1  0.50000901  0.49998967  0.00000015  1
  Sr  Sr2  1  0.99999131  0.99999797  -0.00000176  1
  Sr  Sr3  1  0.99998409  0.49999880  -0.00000021  1
  Nb  Nb4  1  0.24999887  0.25000130  0.81190268  1
  Nb  Nb5  1  0.24999959  0.75000203  0.81190975  1
  Nb  Nb6  1  0.75000212  0.25000070  0.81190802  1
  Nb  Nb7  1  0.75000006  0.75000072  0.81190072  1
  Nb  Nb8  1  0.24999968  0.24999970  0.18809814  1
  Nb  Nb9  1  0.24999973  0.75000049  0.18809184  1
  Nb  Nb10  1  0.75000055  0.24999924  0.18809254  1
  Nb  Nb11  1  0.75000288  0.75000100  0.18810098  1
  Cu  Cu12  1  0.24999877  0.24999836  0.49999936  1
  Cu  Cu13  1  0.24999782  0.74999805  0.50000014  1
  Cu  Cu14  1  0.74999809  0.24999709  0.49999863  1
  Cu  Cu15  1  0.74999749  0.74999858  0.49999982  1
  Cl  Cl16  1  0.00001962  0.00003456  0.50000200  1
  Cl  Cl17  1  0.00001948  0.49996765  0.50000146  1
  Cl  Cl18  1  0.49998495  0.00003383  0.50000141  1
  Cl  Cl19  1  0.49998506  0.49996721  0.50000213  1
  O  O20  1  -0.00000133  0.25000248  0.15914559  1
  O  O21  1  -0.00000079  0.75000120  0.15914339  1
  O  O22  1  0.49999918  0.24999874  0.15914817  1
  O  O23  1  0.49999746  0.75000016  0.15914512  1
  O  O24  1  0.25000056  0.24999972  0.65375898  1
  O  O25  1  0.25000062  0.75000011  0.65377784  1
  O  O26  1  0.75000066  0.24999948  0.65378322  1
  O  O27  1  0.75000119  0.75000071  0.65379064  1
  O  O28  1  -0.00000079  0.25000168  0.84085328  1
  O  O29  1  0.00000287  0.74999908  0.84085503  1
  O  O30  1  0.50000025  0.25000139  0.84085387  1
  O  O31  1  0.50000046  0.75000457  0.84085415  1
  O  O32  1  0.25000109  0.25000087  0.34624175  1
  O  O33  1  0.25000117  0.75000095  0.34622268  1
  O  O34  1  0.75000003  0.25000167  0.34621712  1
  O  O35  1  0.75000121  0.75000049  0.34620992  1
  O  O36  1  0.25000056  0.50000029  0.15907766  1
  O  O37  1  0.24999759  -0.00000102  0.15907546  1
  O  O38  1  0.74999801  0.49999795  0.15908096  1
  O  O39  1  0.74999937  0.00000177  0.15908157  1
  O  O40  1  0.25000121  -0.00000018  0.84092359  1
  O  O41  1  0.25000320  0.50000080  0.84092225  1
  O  O42  1  0.75000220  0.00000252  0.84091993  1
  O  O43  1  0.75000033  0.49999836  0.84091769  1
  O  O44  1  0.24999792  0.24999919  0.00000038  1
  O  O45  1  0.25000114  0.74999547  0.00000064  1
  O  O46  1  0.74999774  0.25000022  0.00000015  1
  O  O47  1  0.75000099  0.74999607  -0.00000010  1
