# generated using pymatgen
data_SmMg5
_symmetry_space_group_name_H-M   'P 1'
_cell_length_a   3.25014769
_cell_length_b   7.15941929
_cell_length_c   6.77742385
_cell_angle_alpha   76.77144575
_cell_angle_beta   90.00000000
_cell_angle_gamma   103.11958457
_symmetry_Int_Tables_number   1
_chemical_formula_structural   SmMg5
_chemical_formula_sum   'Sm1 Mg5'
_cell_volume   149.28863370
_cell_formula_units_Z   1
loop_
 _symmetry_equiv_pos_site_id
 _symmetry_equiv_pos_as_xyz
  1  'x, y, z'
loop_
 _atom_site_type_symbol
 _atom_site_label
 _atom_site_symmetry_multiplicity
 _atom_site_fract_x
 _atom_site_fract_y
 _atom_site_fract_z
 _atom_site_occupancy
  Sm  Sm0  1  0.36213592  0.72427083  0.77612171  1
  Mg  Mg1  1  0.03542956  0.07085913  0.94993610  1
  Mg  Mg2  1  0.69230807  0.38461813  0.12111459  1
  Mg  Mg3  1  0.36017950  0.72035800  0.27761696  1
  Mg  Mg4  1  0.03083843  0.06167586  0.43083730  1
  Mg  Mg5  1  0.68577552  0.37155204  0.61104034  1
