# generated using pymatgen
data_Mg16TiAl12
_symmetry_space_group_name_H-M   'P 1'
_cell_length_a   9.06175031
_cell_length_b   9.06174921
_cell_length_c   9.06175031
_cell_angle_alpha   109.47121716
_cell_angle_beta   109.47121943
_cell_angle_gamma   109.47121716
_symmetry_Int_Tables_number   1
_chemical_formula_structural   Mg16TiAl12
_chemical_formula_sum   'Mg16 Ti1 Al12'
_cell_volume   572.81498988
_cell_formula_units_Z   1
loop_
 _symmetry_equiv_pos_site_id
 _symmetry_equiv_pos_as_xyz
  1  'x, y, z'
loop_
 _atom_site_type_symbol
 _atom_site_label
 _atom_site_symmetry_multiplicity
 _atom_site_fract_x
 _atom_site_fract_y
 _atom_site_fract_z
 _atom_site_occupancy
  Mg  Mg0  1  0.99999900  0.34322344  0.99999900  1
  Mg  Mg1  1  0.34322344  0.99999900  0.99999900  1
  Mg  Mg2  1  0.60214707  0.31688660  1.00000000  1
  Mg  Mg3  1  0.31688660  0.60214707  1.00000000  1
  Mg  Mg4  1  0.68311340  0.68311240  0.28526047  1
  Mg  Mg5  1  1.00000000  0.60214707  0.31688660  1
  Mg  Mg6  1  0.60214707  1.00000000  0.31688660  1
  Mg  Mg7  1  0.99999900  0.99999900  0.34322344  1
  Mg  Mg8  1  0.71473953  0.39785393  0.39785393  1
  Mg  Mg9  1  0.39785393  0.71473953  0.39785393  1
  Mg  Mg10  1  1.00000000  0.31688660  0.60214707  1
  Mg  Mg11  1  0.31688660  1.00000000  0.60214707  1
  Mg  Mg12  1  0.65677456  0.65677456  0.65677456  1
  Mg  Mg13  1  0.68311340  0.28525947  0.68311340  1
  Mg  Mg14  1  0.28526047  0.68311240  0.68311340  1
  Mg  Mg15  1  0.39785393  0.39785393  0.71473953  1
  Ti  Ti16  1  -0.00000000  0.00000000  0.00000000  1
  Al  Al17  1  0.63639210  0.81578501  1.00000000  1
  Al  Al18  1  0.81578301  0.63639210  1.00000000  1
  Al  Al19  1  0.36360890  0.36360890  0.17939191  1
  Al  Al20  1  0.82060609  0.18421599  0.18421599  1
  Al  Al21  1  0.18421599  0.82060609  0.18421599  1
  Al  Al22  1  0.36360890  0.17939191  0.36360890  1
  Al  Al23  1  0.17939191  0.36360890  0.36360890  1
  Al  Al24  1  0.81578401  1.00000000  0.63639110  1
  Al  Al25  1  1.00000000  0.81578501  0.63639210  1
  Al  Al26  1  1.00000000  0.63639210  0.81578301  1
  Al  Al27  1  0.63639110  1.00000000  0.81578401  1
  Al  Al28  1  0.18421599  0.18421599  0.82060609  1
