# generated using pymatgen
data_MgSi(HO)6
_symmetry_space_group_name_H-M   'P 1'
_cell_length_a   5.14130221
_cell_length_b   5.23670352
_cell_length_c   7.39010187
_cell_angle_alpha   90.00000000
_cell_angle_beta   89.91165472
_cell_angle_gamma   90.00000000
_symmetry_Int_Tables_number   1
_chemical_formula_structural   MgSi(HO)6
_chemical_formula_sum   'Mg2 Si2 H12 O12'
_cell_volume   198.96698942
_cell_formula_units_Z   2
loop_
 _symmetry_equiv_pos_site_id
 _symmetry_equiv_pos_as_xyz
  1  'x, y, z'
loop_
 _atom_site_type_symbol
 _atom_site_label
 _atom_site_symmetry_multiplicity
 _atom_site_fract_x
 _atom_site_fract_y
 _atom_site_fract_z
 _atom_site_occupancy
  Mg  Mg0  1  0.25252687  0.99958242  0.75100775  1
  Mg  Mg1  1  0.74747313  0.49958242  0.24899225  1
  Si  Si2  1  0.74871162  0.49822442  0.75060158  1
  Si  Si3  1  0.25128838  0.99822442  0.24939842  1
  H  H4  1  0.51029608  0.63502019  0.50754633  1
  H  H5  1  0.48970392  0.13502019  0.49245367  1
  H  H6  1  0.00639562  0.88028253  0.01048192  1
  H  H7  1  0.99360438  0.38028253  0.98951808  1
  H  H8  1  0.72507036  0.05147290  0.76765630  1
  H  H9  1  0.27492964  0.55147290  0.23234370  1
  H  H10  1  0.18937863  0.46232562  0.71641842  1
  H  H11  1  0.81062137  0.96232562  0.28358158  1
  H  H12  1  0.08969370  0.31590755  0.44053915  1
  H  H13  1  0.91030630  0.81590755  0.55946085  1
  H  H14  1  0.56619500  0.15446831  0.04876778  1
  H  H15  1  0.43380500  0.65446831  0.95123222  1
  O  O16  1  0.62601605  0.48515331  0.52131449  1
  O  O17  1  0.37398395  0.98515331  0.47868551  1
  O  O18  1  0.12882959  0.02526095  0.02060292  1
  O  O19  1  0.87117041  0.52526095  0.97939708  1
  O  O20  1  0.09113110  0.30231221  0.30570996  1
  O  O21  1  0.90886890  0.80231221  0.69429004  1
  O  O22  1  0.54605673  0.15772047  0.18292401  1
  O  O23  1  0.45394327  0.65772047  0.81707599  1
  O  O24  1  0.04974063  0.33862603  0.68442972  1
  O  O25  1  0.95025937  0.83862603  0.31557028  1
  O  O26  1  0.60212746  0.19264310  0.80152449  1
  O  O27  1  0.39787254  0.69264310  0.19847551  1
