# generated using pymatgen
data_La3InFeS7
_symmetry_space_group_name_H-M   'P 1'
_cell_length_a   6.39291950
_cell_length_b   10.07033988
_cell_length_c   10.05595854
_cell_angle_alpha   119.97948586
_cell_angle_beta   90.00000000
_cell_angle_gamma   90.00000000
_symmetry_Int_Tables_number   1
_chemical_formula_structural   La3InFeS7
_chemical_formula_sum   'La6 In2 Fe2 S14'
_cell_volume   560.77314588
_cell_formula_units_Z   2
loop_
 _symmetry_equiv_pos_site_id
 _symmetry_equiv_pos_as_xyz
  1  'x, y, z'
loop_
 _atom_site_type_symbol
 _atom_site_label
 _atom_site_symmetry_multiplicity
 _atom_site_fract_x
 _atom_site_fract_y
 _atom_site_fract_z
 _atom_site_occupancy
  La  La0  1  0.32000480  0.84896430  0.21916657  1
  La  La1  1  0.31996468  0.78100317  0.63000851  1
  La  La2  1  0.31998076  0.37011600  0.15091907  1
  La  La3  1  0.82000480  0.15103570  0.78083343  1
  La  La4  1  0.81996468  0.21899683  0.36999149  1
  La  La5  1  0.81998076  0.62988400  0.84908093  1
  In  In6  1  0.38448884  0.33310728  0.66626177  1
  In  In7  1  0.88448884  0.66689272  0.33373823  1
  Fe  Fe8  1  0.46875982  0.99980229  0.99986060  1
  Fe  Fe9  1  0.96875982  0.00019771  0.00013940  1
  S  S10  1  0.21681701  0.11863755  0.20392350  1
  S  S11  1  0.21650119  0.79720515  0.91536149  1
  S  S12  1  0.21664494  0.08521124  0.88156779  1
  S  S13  1  0.71681701  0.88136245  0.79607650  1
  S  S14  1  0.71650119  0.20279485  0.08463851  1
  S  S15  1  0.71664494  0.91478876  0.11843221  1
  S  S16  1  0.05254307  0.56606082  0.07937858  1
  S  S17  1  0.05327960  0.92084306  0.48687333  1
  S  S18  1  0.05310895  0.51312625  0.43387698  1
  S  S19  1  0.55254307  0.43393918  0.92062142  1
  S  S20  1  0.55327960  0.07915694  0.51312667  1
  S  S21  1  0.55310895  0.48687375  0.56612302  1
  S  S22  1  0.00753635  0.33359590  0.66682795  1
  S  S23  1  0.50753635  0.66640410  0.33317205  1
