# generated using pymatgen
data_AgH2CS2N
_symmetry_space_group_name_H-M   'P 1'
_cell_length_a   8.06013927
_cell_length_b   8.06013927
_cell_length_c   8.49656879
_cell_angle_alpha   118.31490693
_cell_angle_beta   118.31490693
_cell_angle_gamma   90.00000000
_symmetry_Int_Tables_number   1
_chemical_formula_structural   AgH2CS2N
_chemical_formula_sum   'Ag4 H8 C4 S8 N4'
_cell_volume   409.38155862
_cell_formula_units_Z   4
loop_
 _symmetry_equiv_pos_site_id
 _symmetry_equiv_pos_as_xyz
  1  'x, y, z'
loop_
 _atom_site_type_symbol
 _atom_site_label
 _atom_site_symmetry_multiplicity
 _atom_site_fract_x
 _atom_site_fract_y
 _atom_site_fract_z
 _atom_site_occupancy
  Ag  Ag0  1  0.09601236  0.59601236  0.19202472  1
  Ag  Ag1  1  0.65398764  0.65398764  0.30797528  1
  Ag  Ag2  1  0.40398764  0.90398764  0.80797528  1
  Ag  Ag3  1  0.34601236  0.34601236  0.69202472  1
  H  H4  1  0.00817296  0.57490203  0.82946799  1
  H  H5  1  0.74182704  0.99543404  0.67053201  1
  H  H6  1  0.82129503  0.25456596  0.82946799  1
  H  H7  1  0.92870497  0.67509797  0.67053201  1
  H  H8  1  0.74543404  0.99182704  0.17053201  1
  H  H9  1  0.00456596  0.07129503  0.32946799  1
  H  H10  1  0.42509797  0.17870497  0.17053201  1
  H  H11  1  0.32490203  0.25817296  0.32946799  1
  C  C12  1  0.73841521  0.62500000  0.75000000  1
  C  C13  1  0.01158479  0.12500000  0.75000000  1
  C  C14  1  0.87500000  0.26158479  0.25000000  1
  C  C15  1  0.37500000  0.98841521  0.25000000  1
  S  S16  1  0.71179527  0.55254215  0.90042876  1
  S  S17  1  0.03820473  0.90211338  0.59957124  1
  S  S18  1  0.18863349  0.34788662  0.90042876  1
  S  S19  1  0.56136651  0.69745785  0.59957124  1
  S  S20  1  0.65211338  0.28820473  0.09957124  1
  S  S21  1  0.09788662  0.43863349  0.40042876  1
  S  S22  1  0.44745785  0.81136651  0.09957124  1
  S  S23  1  0.30254215  0.96179527  0.40042876  1
  N  N24  1  0.90332951  0.62500000  0.75000000  1
  N  N25  1  0.84667049  0.12500000  0.75000000  1
  N  N26  1  0.87500000  0.09667049  0.25000000  1
  N  N27  1  0.37500000  0.15332951  0.25000000  1
