# generated using pymatgen
data_CdIO4
_symmetry_space_group_name_H-M   'P 1'
_cell_length_a   4.93088568
_cell_length_b   6.93372794
_cell_length_c   11.12414957
_cell_angle_alpha   90.00000000
_cell_angle_beta   90.00000000
_cell_angle_gamma   90.00000000
_symmetry_Int_Tables_number   1
_chemical_formula_structural   CdIO4
_chemical_formula_sum   'Cd4 I4 O16'
_cell_volume   380.32821966
_cell_formula_units_Z   4
loop_
 _symmetry_equiv_pos_site_id
 _symmetry_equiv_pos_as_xyz
  1  'x, y, z'
loop_
 _atom_site_type_symbol
 _atom_site_label
 _atom_site_symmetry_multiplicity
 _atom_site_fract_x
 _atom_site_fract_y
 _atom_site_fract_z
 _atom_site_occupancy
  Cd  Cd0  1  0.50000000  0.50000000  -0.00000000  1
  Cd  Cd1  1  0.00000000  -0.00000000  0.50000000  1
  Cd  Cd2  1  0.50000000  0.00000000  -0.00000000  1
  Cd  Cd3  1  0.00000000  0.50000000  0.50000000  1
  I  I4  1  0.51519319  0.75000000  0.71368719  1
  I  I5  1  0.98480681  0.75000000  0.21368719  1
  I  I6  1  0.48480681  0.25000000  0.28631281  1
  I  I7  1  0.01519319  0.25000000  0.78631281  1
  O  O8  1  0.73047778  0.54550048  0.66918823  1
  O  O9  1  0.76952222  0.95449952  0.16918823  1
  O  O10  1  0.26952222  0.04550048  0.33081177  1
  O  O11  1  0.23047778  0.45449952  0.83081177  1
  O  O12  1  0.26952222  0.45449952  0.33081177  1
  O  O13  1  0.23047778  0.04550048  0.83081177  1
  O  O14  1  0.73047778  0.95449952  0.66918823  1
  O  O15  1  0.76952222  0.54550048  0.16918823  1
  O  O16  1  0.29061210  0.75000000  0.57072394  1
  O  O17  1  0.20938790  0.75000000  0.07072394  1
  O  O18  1  0.70938790  0.25000000  0.42927606  1
  O  O19  1  0.79061210  0.25000000  0.92927606  1
  O  O20  1  0.64533961  0.75000000  0.88296918  1
  O  O21  1  0.85466039  0.75000000  0.38296918  1
  O  O22  1  0.35466039  0.25000000  0.11703082  1
  O  O23  1  0.14533961  0.25000000  0.61703082  1
