# generated using pymatgen
data_Mo2Ru
_symmetry_space_group_name_H-M   'P 1'
_cell_length_a   4.97738717
_cell_length_b   9.63780130
_cell_length_c   9.63780130
_cell_angle_alpha   90.00000000
_cell_angle_beta   90.00000000
_cell_angle_gamma   90.00000000
_symmetry_Int_Tables_number   1
_chemical_formula_structural   Mo2Ru
_chemical_formula_sum   'Mo20 Ru10'
_cell_volume   462.33562671
_cell_formula_units_Z   10
loop_
 _symmetry_equiv_pos_site_id
 _symmetry_equiv_pos_as_xyz
  1  'x, y, z'
loop_
 _atom_site_type_symbol
 _atom_site_label
 _atom_site_symmetry_multiplicity
 _atom_site_fract_x
 _atom_site_fract_y
 _atom_site_fract_z
 _atom_site_occupancy
  Mo  Mo0  1  0.50000000  0.10760801  0.89239199  1
  Mo  Mo1  1  0.50000000  0.89239199  0.10760801  1
  Mo  Mo2  1  0.00000000  0.39239199  0.39239199  1
  Mo  Mo3  1  0.00000000  0.60760801  0.60760801  1
  Mo  Mo4  1  0.50000000  0.37041495  0.96045781  1
  Mo  Mo5  1  0.50000000  0.62958505  0.03954219  1
  Mo  Mo6  1  0.00000000  0.12958505  0.46045781  1
  Mo  Mo7  1  0.00000000  0.87041495  0.53954219  1
  Mo  Mo8  1  0.50000000  0.96045781  0.37041495  1
  Mo  Mo9  1  0.50000000  0.03954219  0.62958505  1
  Mo  Mo10  1  0.00000000  0.46045781  0.12958505  1
  Mo  Mo11  1  0.00000000  0.53954219  0.87041495  1
  Mo  Mo12  1  0.24393769  0.32234113  0.67765887  1
  Mo  Mo13  1  0.24393769  0.67765887  0.32234113  1
  Mo  Mo14  1  0.74393769  0.17765887  0.17765887  1
  Mo  Mo15  1  0.74393769  0.82234113  0.82234113  1
  Mo  Mo16  1  0.75606231  0.67765887  0.32234113  1
  Mo  Mo17  1  0.75606231  0.32234113  0.67765887  1
  Mo  Mo18  1  0.25606231  0.82234113  0.82234113  1
  Mo  Mo19  1  0.25606231  0.17765887  0.17765887  1
  Ru  Ru20  1  0.50000000  0.50000000  0.50000000  1
  Ru  Ru21  1  0.00000000  -0.00000000  0.00000000  1
  Ru  Ru22  1  0.50000000  0.43337105  0.23449170  1
  Ru  Ru23  1  0.50000000  0.56662895  0.76550830  1
  Ru  Ru24  1  0.00000000  0.06662895  0.73449170  1
  Ru  Ru25  1  0.00000000  0.93337105  0.26550830  1
  Ru  Ru26  1  0.50000000  0.23449170  0.43337105  1
  Ru  Ru27  1  0.50000000  0.76550830  0.56662895  1
  Ru  Ru28  1  0.00000000  0.73449170  0.06662895  1
  Ru  Ru29  1  0.00000000  0.26550830  0.93337105  1
