# generated using pymatgen
data_Dy3GaFeSe7
_symmetry_space_group_name_H-M   'P 1'
_cell_length_a   6.41806468
_cell_length_b   9.96598102
_cell_length_c   9.97143067
_cell_angle_alpha   119.86809689
_cell_angle_beta   90.00000000
_cell_angle_gamma   90.00000000
_symmetry_Int_Tables_number   1
_chemical_formula_structural   Dy3GaFeSe7
_chemical_formula_sum   'Dy6 Ga2 Fe2 Se14'
_cell_volume   553.08000423
_cell_formula_units_Z   2
loop_
 _symmetry_equiv_pos_site_id
 _symmetry_equiv_pos_as_xyz
  1  'x, y, z'
loop_
 _atom_site_type_symbol
 _atom_site_label
 _atom_site_symmetry_multiplicity
 _atom_site_fract_x
 _atom_site_fract_y
 _atom_site_fract_z
 _atom_site_occupancy
  Dy  Dy0  1  0.82143671  0.15748742  0.78542352  1
  Dy  Dy1  1  0.82188394  0.21465409  0.37248056  1
  Dy  Dy2  1  0.82179177  0.62758344  0.84193022  1
  Dy  Dy3  1  0.32143671  0.84251258  0.21457648  1
  Dy  Dy4  1  0.32188394  0.78534591  0.62751944  1
  Dy  Dy5  1  0.32179177  0.37241656  0.15806978  1
  Ga  Ga6  1  0.89818935  0.66665736  0.33331572  1
  Ga  Ga7  1  0.39818935  0.33334264  0.66668428  1
  Fe  Fe8  1  0.49262735  0.00001717  0.99977278  1
  Fe  Fe9  1  0.99262735  0.99998283  0.00022722  1
  Se  Se10  1  0.55340007  0.43782746  0.91976885  1
  Se  Se11  1  0.55331569  0.08015786  0.51857739  1
  Se  Se12  1  0.55375582  0.48193539  0.56194179  1
  Se  Se13  1  0.05340007  0.56217254  0.08023115  1
  Se  Se14  1  0.05331569  0.91984214  0.48142261  1
  Se  Se15  1  0.05375582  0.51806461  0.43805821  1
  Se  Se16  1  0.52387826  0.66665877  0.33311557  1
  Se  Se17  1  0.02387826  0.33334123  0.66688443  1
  Se  Se18  1  0.73678710  0.86950261  0.76860494  1
  Se  Se19  1  0.73667375  0.22998902  0.10012542  1
  Se  Se20  1  0.73686020  0.90011227  0.12906761  1
  Se  Se21  1  0.23678710  0.13049739  0.23139506  1
  Se  Se22  1  0.23667375  0.77001098  0.89987458  1
  Se  Se23  1  0.23686020  0.09988773  0.87093239  1
