# generated using pymatgen
data_YCO4
_symmetry_space_group_name_H-M   'P 1'
_cell_length_a   4.88992108
_cell_length_b   7.17071550
_cell_length_c   8.73356145
_cell_angle_alpha   90.00000000
_cell_angle_beta   90.00000000
_cell_angle_gamma   90.00000000
_symmetry_Int_Tables_number   1
_chemical_formula_structural   YCO4
_chemical_formula_sum   'Y4 C4 O16'
_cell_volume   306.23563257
_cell_formula_units_Z   4
loop_
 _symmetry_equiv_pos_site_id
 _symmetry_equiv_pos_as_xyz
  1  'x, y, z'
loop_
 _atom_site_type_symbol
 _atom_site_label
 _atom_site_symmetry_multiplicity
 _atom_site_fract_x
 _atom_site_fract_y
 _atom_site_fract_z
 _atom_site_occupancy
  Y  Y0  1  0.27295320  0.12708135  0.58864933  1
  Y  Y1  1  0.72704680  0.37291865  0.08864933  1
  Y  Y2  1  0.22704680  0.62708135  0.41135067  1
  Y  Y3  1  0.77295320  0.87291865  0.91135067  1
  C  C4  1  0.25665856  0.20228031  0.92352840  1
  C  C5  1  0.74334144  0.29771969  0.42352840  1
  C  C6  1  0.24334144  0.70228031  0.07647160  1
  C  C7  1  0.75665856  0.79771969  0.57647160  1
  O  O8  1  0.21695470  0.93902378  0.38917851  1
  O  O9  1  0.78304530  0.56097622  0.88917851  1
  O  O10  1  0.28304530  0.43902378  0.61082149  1
  O  O11  1  0.71695470  0.06097622  0.11082149  1
  O  O12  1  0.78701490  0.19735566  0.54218343  1
  O  O13  1  0.21298510  0.30264434  0.04218343  1
  O  O14  1  0.71298510  0.69735566  0.45781657  1
  O  O15  1  0.28701490  0.80264434  0.95781657  1
  O  O16  1  0.01026980  0.82965520  0.61836858  1
  O  O17  1  0.98973020  0.67034480  0.11836858  1
  O  O18  1  0.48973020  0.32965520  0.38163142  1
  O  O19  1  0.51026980  0.17034480  0.88163142  1
  O  O20  1  0.56375348  0.86352994  0.66265162  1
  O  O21  1  0.43624652  0.63647006  0.16265162  1
  O  O22  1  0.93624652  0.36352994  0.33734838  1
  O  O23  1  0.06375348  0.13647006  0.83734838  1
