# generated using pymatgen
data_Ba8CuSi16
_symmetry_space_group_name_H-M   'P 1'
_cell_length_a   7.20924042
_cell_length_b   8.43367760
_cell_length_c   12.16464267
_cell_angle_alpha   88.74892317
_cell_angle_beta   91.69090349
_cell_angle_gamma   95.47394782
_symmetry_Int_Tables_number   1
_chemical_formula_structural   Ba8CuSi16
_chemical_formula_sum   'Ba8 Cu1 Si16'
_cell_volume   735.78732994
_cell_formula_units_Z   1
loop_
 _symmetry_equiv_pos_site_id
 _symmetry_equiv_pos_as_xyz
  1  'x, y, z'
loop_
 _atom_site_type_symbol
 _atom_site_label
 _atom_site_symmetry_multiplicity
 _atom_site_fract_x
 _atom_site_fract_y
 _atom_site_fract_z
 _atom_site_occupancy
  Ba  Ba0  1  0.76878617  0.01613775  0.29933097  1
  Ba  Ba1  1  0.26409381  0.51086334  0.78859704  1
  Ba  Ba2  1  0.27102487  0.00261233  0.70670282  1
  Ba  Ba3  1  0.67601041  0.51872465  0.23124261  1
  Ba  Ba4  1  0.74227604  0.19632983  0.90643270  1
  Ba  Ba5  1  0.22360434  0.33656107  0.42706460  1
  Ba  Ba6  1  0.29370955  0.77179790  0.09464675  1
  Ba  Ba7  1  0.71171911  0.70567716  0.57953250  1
  Cu  Cu8  1  0.03024410  0.96887761  0.97655520  1
  Si  Si9  1  0.71797418  0.56870577  0.91362439  1
  Si  Si10  1  0.23106471  0.94541660  0.42879259  1
  Si  Si11  1  0.27216414  0.38386559  0.07492630  1
  Si  Si12  1  0.69249706  0.09961395  0.57839451  1
  Si  Si13  1  0.75749810  0.80871185  0.02696735  1
  Si  Si14  1  0.21838126  0.69204698  0.53294594  1
  Si  Si15  1  0.28424638  0.16442953  0.94870784  1
  Si  Si16  1  0.72939423  0.33626330  0.47523469  1
  Si  Si17  1  0.91630793  0.79023464  0.84014703  1
  Si  Si18  1  0.05671897  0.70072924  0.36032648  1
  Si  Si19  1  0.46111745  0.17084648  0.12604727  1
  Si  Si20  1  0.57486080  0.32576638  0.64600060  1
  Si  Si21  1  0.13398558  0.11105778  0.13576950  1
  Si  Si22  1  0.99276553  0.33381995  0.17936433  1
  Si  Si23  1  0.58680285  0.81358641  0.85503453  1
  Si  Si24  1  0.39275245  0.72732390  0.36761145  1
