# generated using pymatgen
data_Yb(SbSe2)2
_symmetry_space_group_name_H-M   'P 1'
_cell_length_a   4.06504704
_cell_length_b   12.29711477
_cell_length_c   15.16818123
_cell_angle_alpha   90.00000000
_cell_angle_beta   90.00000000
_cell_angle_gamma   90.00000000
_symmetry_Int_Tables_number   1
_chemical_formula_structural   Yb(SbSe2)2
_chemical_formula_sum   'Yb4 Sb8 Se16'
_cell_volume   758.23235213
_cell_formula_units_Z   4
loop_
 _symmetry_equiv_pos_site_id
 _symmetry_equiv_pos_as_xyz
  1  'x, y, z'
loop_
 _atom_site_type_symbol
 _atom_site_label
 _atom_site_symmetry_multiplicity
 _atom_site_fract_x
 _atom_site_fract_y
 _atom_site_fract_z
 _atom_site_occupancy
  Yb  Yb0  1  0.75000000  0.25863042  0.16166347  1
  Yb  Yb1  1  0.75000000  0.75863042  0.33833653  1
  Yb  Yb2  1  0.25000000  0.74136958  0.83833653  1
  Yb  Yb3  1  0.25000000  0.24136958  0.66166347  1
  Sb  Sb4  1  0.75000000  0.42533620  0.90037115  1
  Sb  Sb5  1  0.75000000  0.92533620  0.59962885  1
  Sb  Sb6  1  0.25000000  0.57466380  0.09962885  1
  Sb  Sb7  1  0.25000000  0.07466380  0.40037115  1
  Sb  Sb8  1  0.75000000  0.42694784  0.38560482  1
  Sb  Sb9  1  0.75000000  0.92694784  0.11439518  1
  Sb  Sb10  1  0.25000000  0.57305216  0.61439518  1
  Sb  Sb11  1  0.25000000  0.07305216  0.88560482  1
  Se  Se12  1  0.75000000  0.14288442  0.53134342  1
  Se  Se13  1  0.75000000  0.64288442  0.96865658  1
  Se  Se14  1  0.25000000  0.85711558  0.46865658  1
  Se  Se15  1  0.25000000  0.35711558  0.03134342  1
  Se  Se16  1  0.75000000  0.21971683  0.80837047  1
  Se  Se17  1  0.75000000  0.71971683  0.69162953  1
  Se  Se18  1  0.25000000  0.78028317  0.19162953  1
  Se  Se19  1  0.25000000  0.28028317  0.30837047  1
  Se  Se20  1  0.75000000  0.41405098  0.58480093  1
  Se  Se21  1  0.75000000  0.91405098  0.91519907  1
  Se  Se22  1  0.25000000  0.58594902  0.41519907  1
  Se  Se23  1  0.25000000  0.08594902  0.08480093  1
  Se  Se24  1  0.75000000  0.50256007  0.21154406  1
  Se  Se25  1  0.75000000  0.00256007  0.28845594  1
  Se  Se26  1  0.25000000  0.49743993  0.78845594  1
  Se  Se27  1  0.25000000  0.99743993  0.71154406  1
