# generated using pymatgen
data_Pr3Ge13Pt4
_symmetry_space_group_name_H-M   'P 1'
_cell_length_a   9.23712110
_cell_length_b   9.23712110
_cell_length_c   9.26305830
_cell_angle_alpha   90.29199737
_cell_angle_beta   90.29199737
_cell_angle_gamma   90.03445598
_symmetry_Int_Tables_number   1
_chemical_formula_structural   Pr3Ge13Pt4
_chemical_formula_sum   'Pr6 Ge26 Pt8'
_cell_volume   790.34426675
_cell_formula_units_Z   2
loop_
 _symmetry_equiv_pos_site_id
 _symmetry_equiv_pos_as_xyz
  1  'x, y, z'
loop_
 _atom_site_type_symbol
 _atom_site_label
 _atom_site_symmetry_multiplicity
 _atom_site_fract_x
 _atom_site_fract_y
 _atom_site_fract_z
 _atom_site_occupancy
  Pr  Pr0  1  0.00056008  -0.00019254  0.50301338  1
  Pr  Pr1  1  -0.00019254  0.00056008  0.00301338  1
  Pr  Pr2  1  0.50008670  0.25152225  0.25185974  1
  Pr  Pr3  1  0.25152225  0.50008670  0.75185974  1
  Pr  Pr4  1  0.74509472  0.50071221  0.75393968  1
  Pr  Pr5  1  0.50071221  0.74509472  0.25393968  1
  Ge  Ge6  1  0.50229365  0.99757222  0.74976978  1
  Ge  Ge7  1  0.99757222  0.50229365  0.24976978  1
  Ge  Ge8  1  0.82932917  0.84882510  0.25513926  1
  Ge  Ge9  1  0.84882510  0.82932917  0.75513926  1
  Ge  Ge10  1  0.15953323  0.83349004  0.75293373  1
  Ge  Ge11  1  0.83349004  0.15953323  0.25293373  1
  Ge  Ge12  1  0.49856379  0.31257576  0.61483441  1
  Ge  Ge13  1  0.31257576  0.49856379  0.11483441  1
  Ge  Ge14  1  0.99744025  0.61475079  0.50586505  1
  Ge  Ge15  1  0.61475079  0.99744025  0.00586505  1
  Ge  Ge16  1  0.33154548  0.00021316  0.10075037  1
  Ge  Ge17  1  0.00021316  0.33154548  0.60075037  1
  Ge  Ge18  1  0.73966061  0.49790259  0.14160123  1
  Ge  Ge19  1  0.49790259  0.73966061  0.64160123  1
  Ge  Ge20  1  0.33464531  0.99868889  0.40976427  1
  Ge  Ge21  1  0.99868889  0.33464531  0.90976427  1
  Ge  Ge22  1  0.12812611  0.78703560  0.25285018  1
  Ge  Ge23  1  0.78703560  0.12812611  0.75285018  1
  Ge  Ge24  1  0.00325458  0.62182779  0.98624508  1
  Ge  Ge25  1  0.62182779  0.00325458  0.48624508  1
  Ge  Ge26  1  0.49806659  0.33738831  0.91788645  1
  Ge  Ge27  1  0.33738831  0.49806659  0.41788645  1
  Ge  Ge28  1  0.25003314  0.11464615  0.75352362  1
  Ge  Ge29  1  0.11464615  0.25003314  0.25352362  1
  Ge  Ge30  1  0.65349584  0.50308128  0.42318407  1
  Ge  Ge31  1  0.50308128  0.65349584  0.92318407  1
  Pt  Pt32  1  0.74945239  0.25115708  0.50369378  1
  Pt  Pt33  1  0.25115708  0.74945239  0.00369378  1
  Pt  Pt34  1  0.25175978  0.74747385  0.50286759  1
  Pt  Pt35  1  0.74747385  0.25175978  0.00286759  1
  Pt  Pt36  1  0.24797509  0.24511538  0.50186053  1
  Pt  Pt37  1  0.24511538  0.24797509  0.00186053  1
  Pt  Pt38  1  0.75290687  0.75039074  0.00671779  1
  Pt  Pt39  1  0.75039074  0.75290687  0.50671779  1
