# generated using pymatgen
data_Cs2TlCl5O
_symmetry_space_group_name_H-M   'P 1'
_cell_length_a   7.60648113
_cell_length_b   11.53687014
_cell_length_c   14.66119236
_cell_angle_alpha   90.00000000
_cell_angle_beta   90.00000000
_cell_angle_gamma   90.00000000
_symmetry_Int_Tables_number   1
_chemical_formula_structural   Cs2TlCl5O
_chemical_formula_sum   'Cs8 Tl4 Cl20 O4'
_cell_volume   1286.59271591
_cell_formula_units_Z   4
loop_
 _symmetry_equiv_pos_site_id
 _symmetry_equiv_pos_as_xyz
  1  'x, y, z'
loop_
 _atom_site_type_symbol
 _atom_site_label
 _atom_site_symmetry_multiplicity
 _atom_site_fract_x
 _atom_site_fract_y
 _atom_site_fract_z
 _atom_site_occupancy
  Cs  Cs0  1  0.78761966  0.00955064  0.13031216  1
  Cs  Cs1  1  0.71238034  0.49044936  0.63031216  1
  Cs  Cs2  1  0.21238034  0.50955064  0.86968784  1
  Cs  Cs3  1  0.28761966  0.99044936  0.36968784  1
  Cs  Cs4  1  0.21238034  0.99044936  0.86968784  1
  Cs  Cs5  1  0.28761966  0.50955064  0.36968784  1
  Cs  Cs6  1  0.78761966  0.49044936  0.13031216  1
  Cs  Cs7  1  0.71238034  0.00955064  0.63031216  1
  Tl  Tl8  1  0.75559557  0.75000000  0.38622335  1
  Tl  Tl9  1  0.74440443  0.75000000  0.88622335  1
  Tl  Tl10  1  0.24440443  0.25000000  0.61377665  1
  Tl  Tl11  1  0.25559557  0.25000000  0.11377665  1
  Cl  Cl12  1  0.53185814  0.75000000  0.51541949  1
  Cl  Cl13  1  0.96814186  0.75000000  0.01541949  1
  Cl  Cl14  1  0.46814186  0.25000000  0.48458051  1
  Cl  Cl15  1  0.03185814  0.25000000  0.98458051  1
  Cl  Cl16  1  0.59079339  0.75000000  0.23479954  1
  Cl  Cl17  1  0.90920661  0.75000000  0.73479954  1
  Cl  Cl18  1  0.40920661  0.25000000  0.76520046  1
  Cl  Cl19  1  0.09079339  0.25000000  0.26520046  1
  Cl  Cl20  1  0.10062767  0.75000000  0.26079794  1
  Cl  Cl21  1  0.39937233  0.75000000  0.76079794  1
  Cl  Cl22  1  0.89937233  0.25000000  0.73920206  1
  Cl  Cl23  1  0.60062767  0.25000000  0.23920206  1
  Cl  Cl24  1  0.77741151  0.97600013  0.38892452  1
  Cl  Cl25  1  0.72258849  0.52399987  0.88892452  1
  Cl  Cl26  1  0.22258849  0.47600013  0.61107548  1
  Cl  Cl27  1  0.27741151  0.02399987  0.11107548  1
  Cl  Cl28  1  0.22258849  0.02399987  0.61107548  1
  Cl  Cl29  1  0.27741151  0.47600013  0.11107548  1
  Cl  Cl30  1  0.77741151  0.52399987  0.38892452  1
  Cl  Cl31  1  0.72258849  0.97600013  0.88892452  1
  O  O32  1  0.05120724  0.75000000  0.37374961  1
  O  O33  1  0.44879276  0.75000000  0.87374961  1
  O  O34  1  0.94879276  0.25000000  0.62625039  1
  O  O35  1  0.55120724  0.25000000  0.12625039  1
