# generated using pymatgen
data_FeAs2H18(C2I)3
_symmetry_space_group_name_H-M   'P 1'
_cell_length_a   11.21595119
_cell_length_b   12.17455965
_cell_length_c   15.89853820
_cell_angle_alpha   90.00000000
_cell_angle_beta   90.00000000
_cell_angle_gamma   90.00000000
_symmetry_Int_Tables_number   1
_chemical_formula_structural   FeAs2H18(C2I)3
_chemical_formula_sum   'Fe4 As8 H72 C24 I12'
_cell_volume   2170.93373431
_cell_formula_units_Z   4
loop_
 _symmetry_equiv_pos_site_id
 _symmetry_equiv_pos_as_xyz
  1  'x, y, z'
loop_
 _atom_site_type_symbol
 _atom_site_label
 _atom_site_symmetry_multiplicity
 _atom_site_fract_x
 _atom_site_fract_y
 _atom_site_fract_z
 _atom_site_occupancy
  Fe  Fe0  1  0.30111619  0.25000000  0.02783019  1
  Fe  Fe1  1  0.80111619  0.25000000  0.47216981  1
  Fe  Fe2  1  0.69888381  0.75000000  0.97216981  1
  Fe  Fe3  1  0.19888381  0.75000000  0.52783019  1
  As  As4  1  0.12042254  0.25000000  0.91698167  1
  As  As5  1  0.62042254  0.25000000  0.58301833  1
  As  As6  1  0.87957746  0.75000000  0.08301833  1
  As  As7  1  0.37957746  0.75000000  0.41698167  1
  As  As8  1  0.48217800  0.25000000  0.13514077  1
  As  As9  1  0.98217800  0.25000000  0.36485923  1
  As  As10  1  0.51782200  0.75000000  0.86485923  1
  As  As11  1  0.01782200  0.75000000  0.63514077  1
  H  H12  1  0.12363393  0.04888358  0.87941289  1
  H  H13  1  0.62363393  0.45111642  0.62058711  1
  H  H14  1  0.87636607  0.54888358  0.12058711  1
  H  H15  1  0.37636607  0.95111642  0.37941289  1
  H  H16  1  0.87636607  0.95111642  0.12058711  1
  H  H17  1  0.37636607  0.54888358  0.37941289  1
  H  H18  1  0.12363393  0.45111642  0.87941289  1
  H  H19  1  0.62363393  0.04888358  0.62058711  1
  H  H20  1  0.04063123  0.12166609  0.80036605  1
  H  H21  1  0.54063123  0.37833391  0.69963395  1
  H  H22  1  0.95936877  0.62166609  0.19963395  1
  H  H23  1  0.45936877  0.87833391  0.30036605  1
  H  H24  1  0.95936877  0.87833391  0.19963395  1
  H  H25  1  0.45936877  0.62166609  0.30036605  1
  H  H26  1  0.04063123  0.37833391  0.80036605  1
  H  H27  1  0.54063123  0.12166609  0.69963395  1
  H  H28  1  0.20071126  0.12684366  0.80147064  1
  H  H29  1  0.70071126  0.37315634  0.69852936  1
  H  H30  1  0.79928874  0.62684366  0.19852936  1
  H  H31  1  0.29928874  0.87315634  0.30147064  1
  H  H32  1  0.79928874  0.87315634  0.19852936  1
  H  H33  1  0.29928874  0.62684366  0.30147064  1
  H  H34  1  0.20071126  0.37315634  0.80147064  1
  H  H35  1  0.70071126  0.12684366  0.69852936  1
  H  H36  1  0.94545999  0.17650591  0.99983377  1
  H  H37  1  0.44545999  0.32349409  0.50016623  1
  H  H38  1  0.05454001  0.67650591  0.00016623  1
  H  H39  1  0.55454001  0.82349409  0.49983377  1
  H  H40  1  0.05454001  0.82349409  0.00016623  1
  H  H41  1  0.55454001  0.67650591  0.49983377  1
  H  H42  1  0.94545999  0.32349409  0.99983377  1
  H  H43  1  0.44545999  0.17650591  0.50016623  1
  H  H44  1  0.88815754  0.25000000  0.91105253  1
  H  H45  1  0.38815754  0.25000000  0.58894747  1
  H  H46  1  0.11184246  0.75000000  0.08894747  1
  H  H47  1  0.61184246  0.75000000  0.41105253  1
  H  H48  1  0.53892475  0.04847857  0.13047593  1
  H  H49  1  0.03892475  0.45152143  0.36952407  1
  H  H50  1  0.46107525  0.54847857  0.86952407  1
  H  H51  1  0.96107525  0.95152143  0.63047593  1
  H  H52  1  0.46107525  0.95152143  0.86952407  1
  H  H53  1  0.96107525  0.54847857  0.63047593  1
  H  H54  1  0.53892475  0.45152143  0.13047593  1
  H  H55  1  0.03892475  0.04847857  0.36952407  1
  H  H56  1  0.63658882  0.12803352  0.06652432  1
  H  H57  1  0.13658882  0.37196648  0.43347568  1
  H  H58  1  0.36341118  0.62803352  0.93347568  1
  H  H59  1  0.86341118  0.87196648  0.56652432  1
  H  H60  1  0.36341118  0.87196648  0.93347568  1
  H  H61  1  0.86341118  0.62803352  0.56652432  1
  H  H62  1  0.63658882  0.37196648  0.06652432  1
  H  H63  1  0.13658882  0.12803352  0.43347568  1
  H  H64  1  0.65672549  0.12564076  0.17893328  1
  H  H65  1  0.15672549  0.37435924  0.32106672  1
  H  H66  1  0.34327451  0.62564076  0.82106672  1
  H  H67  1  0.84327451  0.87435924  0.67893328  1
  H  H68  1  0.34327451  0.87435924  0.82106672  1
  H  H69  1  0.84327451  0.62564076  0.67893328  1
  H  H70  1  0.65672549  0.37435924  0.17893328  1
  H  H71  1  0.15672549  0.12564076  0.32106672  1
  H  H72  1  0.38319756  0.17651026  0.26617124  1
  H  H73  1  0.88319756  0.32348974  0.23382876  1
  H  H74  1  0.61680244  0.67651026  0.73382876  1
  H  H75  1  0.11680244  0.82348974  0.76617124  1
  H  H76  1  0.61680244  0.82348974  0.73382876  1
  H  H77  1  0.11680244  0.67651026  0.76617124  1
  H  H78  1  0.38319756  0.32348974  0.26617124  1
  H  H79  1  0.88319756  0.17651026  0.23382876  1
  H  H80  1  0.51554520  0.25000000  0.29600835  1
  H  H81  1  0.01554520  0.25000000  0.20399165  1
  H  H82  1  0.48445480  0.75000000  0.70399165  1
  H  H83  1  0.98445480  0.75000000  0.79600835  1
  C  C84  1  0.12025145  0.12278471  0.84049101  1
  C  C85  1  0.62025145  0.37721529  0.65950899  1
  C  C86  1  0.87974855  0.62278471  0.15950899  1
  C  C87  1  0.37974855  0.87721529  0.34049101  1
  C  C88  1  0.87974855  0.87721529  0.15950899  1
  C  C89  1  0.37974855  0.62278471  0.34049101  1
  C  C90  1  0.12025145  0.37721529  0.84049101  1
  C  C91  1  0.62025145  0.12278471  0.65950899  1
  C  C92  1  0.95558984  0.25000000  0.96095436  1
  C  C93  1  0.45558984  0.25000000  0.53904564  1
  C  C94  1  0.04441016  0.75000000  0.03904564  1
  C  C95  1  0.54441016  0.75000000  0.46095436  1
  C  C96  1  0.59144344  0.12392894  0.12752950  1
  C  C97  1  0.09144344  0.37607106  0.37247050  1
  C  C98  1  0.40855656  0.62392894  0.87247050  1
  C  C99  1  0.90855656  0.87607106  0.62752950  1
  C  C100  1  0.40855656  0.87607106  0.87247050  1
  C  C101  1  0.90855656  0.62392894  0.62752950  1
  C  C102  1  0.59144344  0.37607106  0.12752950  1
  C  C103  1  0.09144344  0.12392894  0.37247050  1
  C  C104  1  0.43690710  0.25000000  0.25482638  1
  C  C105  1  0.93690710  0.25000000  0.24517362  1
  C  C106  1  0.56309290  0.75000000  0.74517362  1
  C  C107  1  0.06309290  0.75000000  0.75482638  1
  I  I108  1  0.22644121  0.06805336  0.09248340  1
  I  I109  1  0.72644121  0.43194664  0.40751660  1
  I  I110  1  0.77355879  0.56805336  0.90751660  1
  I  I111  1  0.27355879  0.93194664  0.59248340  1
  I  I112  1  0.77355879  0.93194664  0.90751660  1
  I  I113  1  0.27355879  0.56805336  0.59248340  1
  I  I114  1  0.22644121  0.43194664  0.09248340  1
  I  I115  1  0.72644121  0.06805336  0.40751660  1
  I  I116  1  0.44988703  0.25000000  0.90411937  1
  I  I117  1  0.94988703  0.25000000  0.59588063  1
  I  I118  1  0.55011297  0.75000000  0.09588063  1
  I  I119  1  0.05011297  0.75000000  0.40411937  1
