# generated using pymatgen
data_SiO2
_symmetry_space_group_name_H-M   'P 1'
_cell_length_a   10.81340615
_cell_length_b   10.81340615
_cell_length_c   10.81340615
_cell_angle_alpha   59.99999998
_cell_angle_beta   59.99999998
_cell_angle_gamma   59.99999997
_symmetry_Int_Tables_number   1
_chemical_formula_structural   SiO2
_chemical_formula_sum   'Si8 O16'
_cell_volume   894.07211156
_cell_formula_units_Z   8
loop_
 _symmetry_equiv_pos_site_id
 _symmetry_equiv_pos_as_xyz
  1  'x, y, z'
loop_
 _atom_site_type_symbol
 _atom_site_label
 _atom_site_symmetry_multiplicity
 _atom_site_fract_x
 _atom_site_fract_y
 _atom_site_fract_z
 _atom_site_occupancy
  O  O0  1  0.00000000  0.50000000  0.50000000  1
  O  O1  1  0.50000000  0.50000000  0.50000000  1
  O  O2  1  0.50000000  0.00000000  0.50000000  1
  O  O3  1  0.50000000  0.50000000  0.00000000  1
  O  O4  1  0.50206427  0.50206427  0.74793573  1
  O  O5  1  0.25206427  0.25206427  0.49793573  1
  O  O6  1  0.74793573  0.50206427  0.50206427  1
  O  O7  1  0.50206427  0.74793573  0.50206427  1
  O  O8  1  0.74793573  0.74793573  0.50206427  1
  O  O9  1  0.25206427  0.49793573  0.49793573  1
  O  O10  1  0.49793573  0.25206427  0.25206427  1
  O  O11  1  0.25206427  0.49793573  0.25206427  1
  O  O12  1  0.49793573  0.25206427  0.49793573  1
  O  O13  1  0.49793573  0.49793573  0.25206427  1
  O  O14  1  0.50206427  0.74793573  0.74793573  1
  O  O15  1  0.74793573  0.50206427  0.74793573  1
  Si  Si16  1  0.43958231  0.43958231  0.18125308  1
  Si  Si17  1  0.56041769  0.56041769  0.56041769  1
  Si  Si18  1  0.56041769  0.81874692  0.56041769  1
  Si  Si19  1  0.81874692  0.56041769  0.56041769  1
  Si  Si20  1  0.18125308  0.43958231  0.43958231  1
  Si  Si21  1  0.43958231  0.43958231  0.43958231  1
  Si  Si22  1  0.43958231  0.18125308  0.43958231  1
  Si  Si23  1  0.56041769  0.56041769  0.81874692  1
