# generated using pymatgen
data_Sn2Mo15S19
_symmetry_space_group_name_H-M   'P 1'
_cell_length_a   9.42254527
_cell_length_b   9.41538867
_cell_length_c   18.96224266
_cell_angle_alpha   90.00000000
_cell_angle_beta   90.00000000
_cell_angle_gamma   119.99293854
_symmetry_Int_Tables_number   1
_chemical_formula_structural   Sn2Mo15S19
_chemical_formula_sum   'Sn4 Mo30 S38'
_cell_volume   1456.99383888
_cell_formula_units_Z   2
loop_
 _symmetry_equiv_pos_site_id
 _symmetry_equiv_pos_as_xyz
  1  'x, y, z'
loop_
 _atom_site_type_symbol
 _atom_site_label
 _atom_site_symmetry_multiplicity
 _atom_site_fract_x
 _atom_site_fract_y
 _atom_site_fract_z
 _atom_site_occupancy
  Sn  Sn0  1  0.66675812  0.33349592  0.60350862  1
  Sn  Sn1  1  0.33324188  0.66650408  0.10350862  1
  Sn  Sn2  1  0.33324188  0.66650408  0.39649138  1
  Sn  Sn3  1  0.66675812  0.33349592  0.89649138  1
  Mo  Mo4  1  0.15410059  0.98143290  0.56011004  1
  Mo  Mo5  1  0.01856314  0.17271431  0.56011168  1
  Mo  Mo6  1  0.82717371  0.84553577  0.56025077  1
  Mo  Mo7  1  0.84589941  0.01856710  0.06011004  1
  Mo  Mo8  1  0.98143686  0.82728569  0.06011168  1
  Mo  Mo9  1  0.17282629  0.15446423  0.06025077  1
  Mo  Mo10  1  0.84589941  0.01856710  0.43988996  1
  Mo  Mo11  1  0.98143686  0.82728569  0.43988832  1
  Mo  Mo12  1  0.17282629  0.15446423  0.43974923  1
  Mo  Mo13  1  0.15410059  0.98143290  0.93988996  1
  Mo  Mo14  1  0.01856314  0.17271431  0.93988832  1
  Mo  Mo15  1  0.82717371  0.84553577  0.93974923  1
  Mo  Mo16  1  0.17743294  0.68347960  0.63224455  1
  Mo  Mo17  1  0.31655845  0.49404020  0.63219555  1
  Mo  Mo18  1  0.50574504  0.82244607  0.63225605  1
  Mo  Mo19  1  0.82256706  0.31652040  0.13224455  1
  Mo  Mo20  1  0.68344155  0.50595980  0.13219555  1
  Mo  Mo21  1  0.49425496  0.17755393  0.13225605  1
  Mo  Mo22  1  0.82256706  0.31652040  0.36775545  1
  Mo  Mo23  1  0.68344155  0.50595980  0.36780445  1
  Mo  Mo24  1  0.49425496  0.17755393  0.36774395  1
  Mo  Mo25  1  0.17743294  0.68347960  0.86775545  1
  Mo  Mo26  1  0.31655845  0.49404020  0.86780445  1
  Mo  Mo27  1  0.50574504  0.82244607  0.86774395  1
  Mo  Mo28  1  0.34988001  0.84231154  0.75000000  1
  Mo  Mo29  1  0.15768521  0.50753733  0.75000000  1
  Mo  Mo30  1  0.49210741  0.64998833  0.75000000  1
  Mo  Mo31  1  0.65011999  0.15768846  0.25000000  1
  Mo  Mo32  1  0.84231479  0.49246267  0.25000000  1
  Mo  Mo33  1  0.50789259  0.35001167  0.25000000  1
  S  S34  1  0.99972645  0.99958461  0.65819307  1
  S  S35  1  0.00027355  0.00041539  0.15819307  1
  S  S36  1  0.00027355  0.00041539  0.34180693  1
  S  S37  1  0.99972645  0.99958461  0.84180693  1
  S  S38  1  0.66672385  0.33329794  0.03454998  1
  S  S39  1  0.33327615  0.66670206  0.53454998  1
  S  S40  1  0.33327615  0.66670206  0.96545002  1
  S  S41  1  0.66672385  0.33329794  0.46545002  1
  S  S42  1  0.04846769  0.69778127  0.75000000  1
  S  S43  1  0.30225940  0.35061452  0.75000000  1
  S  S44  1  0.64913161  0.95155681  0.75000000  1
  S  S45  1  0.95153231  0.30221873  0.25000000  1
  S  S46  1  0.69774060  0.64938548  0.25000000  1
  S  S47  1  0.35086839  0.04844319  0.25000000  1
  S  S48  1  0.96206654  0.68074338  0.55134203  1
  S  S49  1  0.31898665  0.28126927  0.55126039  1
  S  S50  1  0.71887958  0.03773687  0.55144899  1
  S  S51  1  0.03793346  0.31925662  0.05134203  1
  S  S52  1  0.68101335  0.71873073  0.05126039  1
  S  S53  1  0.28112042  0.96226313  0.05144899  1
  S  S54  1  0.03793346  0.31925662  0.44865797  1
  S  S55  1  0.68101335  0.71873073  0.44873961  1
  S  S56  1  0.28112042  0.96226313  0.44855101  1
  S  S57  1  0.96206654  0.68074338  0.94865797  1
  S  S58  1  0.31898665  0.28126927  0.94873961  1
  S  S59  1  0.71887958  0.03773687  0.94855101  1
  S  S60  1  0.37468264  0.99035187  0.64092846  1
  S  S61  1  0.00965172  0.38462746  0.64087103  1
  S  S62  1  0.61527058  0.62480233  0.64090826  1
  S  S63  1  0.62531736  0.00964813  0.14092846  1
  S  S64  1  0.99034828  0.61537254  0.14087103  1
  S  S65  1  0.38472942  0.37519767  0.14090826  1
  S  S66  1  0.62531736  0.00964813  0.35907154  1
  S  S67  1  0.99034828  0.61537254  0.35912897  1
  S  S68  1  0.38472942  0.37519767  0.35909174  1
  S  S69  1  0.37468264  0.99035187  0.85907154  1
  S  S70  1  0.00965172  0.38462746  0.85912897  1
  S  S71  1  0.61527058  0.62480233  0.85909174  1
