# generated using pymatgen
data_CaCuAsO5
_symmetry_space_group_name_H-M   'P 1'
_cell_length_a   5.69341811
_cell_length_b   7.54884619
_cell_length_c   9.68653879
_cell_angle_alpha   90.00000000
_cell_angle_beta   90.00000000
_cell_angle_gamma   90.00000000
_symmetry_Int_Tables_number   1
_chemical_formula_structural   CaCuAsO5
_chemical_formula_sum   'Ca4 Cu4 As4 O20'
_cell_volume   416.31520898
_cell_formula_units_Z   4
loop_
 _symmetry_equiv_pos_site_id
 _symmetry_equiv_pos_as_xyz
  1  'x, y, z'
loop_
 _atom_site_type_symbol
 _atom_site_label
 _atom_site_symmetry_multiplicity
 _atom_site_fract_x
 _atom_site_fract_y
 _atom_site_fract_z
 _atom_site_occupancy
  Ca  Ca0  1  0.23161816  0.08263451  0.92350875  1
  Ca  Ca1  1  0.76838184  0.41736549  0.42350875  1
  Ca  Ca2  1  0.26838184  0.58263451  0.07649125  1
  Ca  Ca3  1  0.73161816  0.91736549  0.57649125  1
  Cu  Cu4  1  0.49935389  0.00153630  0.25153411  1
  Cu  Cu5  1  0.50064611  0.49846370  0.75153411  1
  Cu  Cu6  1  0.00064611  0.50153630  0.74846589  1
  Cu  Cu7  1  0.99935389  0.99846370  0.24846589  1
  As  As8  1  0.73002578  0.34253835  0.08059993  1
  As  As9  1  0.26997422  0.15746165  0.58059993  1
  As  As10  1  0.76997422  0.84253835  0.91940007  1
  As  As11  1  0.23002578  0.65746165  0.41940007  1
  O  O12  1  0.75065504  0.16022510  0.20400588  1
  O  O13  1  0.24934496  0.33977490  0.70400588  1
  O  O14  1  0.74934496  0.66022510  0.79599412  1
  O  O15  1  0.25065504  0.83977490  0.29599412  1
  O  O16  1  0.65858104  0.51122067  0.18884730  1
  O  O17  1  0.34141896  0.98877933  0.68884730  1
  O  O18  1  0.84141896  0.01122067  0.81115270  1
  O  O19  1  0.15858104  0.48877933  0.31115270  1
  O  O20  1  0.99577957  0.35366903  0.00145594  1
  O  O21  1  0.00422043  0.14633097  0.50145594  1
  O  O22  1  0.50422043  0.85366903  0.99854406  1
  O  O23  1  0.49577957  0.64633097  0.49854406  1
  O  O24  1  0.49922177  0.31821274  0.97065329  1
  O  O25  1  0.50077823  0.18178726  0.47065329  1
  O  O26  1  0.00077823  0.81821274  0.02934671  1
  O  O27  1  0.99922177  0.68178726  0.52934671  1
  O  O28  1  0.24913236  0.11670232  0.17281403  1
  O  O29  1  0.75086764  0.38329768  0.67281403  1
  O  O30  1  0.25086764  0.61670232  0.82718597  1
  O  O31  1  0.74913236  0.88329768  0.32718597  1
