# generated using pymatgen
data_Ca5(SiO5)2
_symmetry_space_group_name_H-M   'P 1'
_cell_length_a   5.11462411
_cell_length_b   9.01878146
_cell_length_c   11.52956310
_cell_angle_alpha   109.21754111
_cell_angle_beta   90.00000000
_cell_angle_gamma   90.00000000
_symmetry_Int_Tables_number   1
_chemical_formula_structural   Ca5(SiO5)2
_chemical_formula_sum   'Ca10 Si4 O20'
_cell_volume   502.19596987
_cell_formula_units_Z   2
loop_
 _symmetry_equiv_pos_site_id
 _symmetry_equiv_pos_as_xyz
  1  'x, y, z'
loop_
 _atom_site_type_symbol
 _atom_site_label
 _atom_site_symmetry_multiplicity
 _atom_site_fract_x
 _atom_site_fract_y
 _atom_site_fract_z
 _atom_site_occupancy
  Ca  Ca0  1  0.50000000  0.00000000  0.50000000  1
  Ca  Ca1  1  0.00000000  0.00000000  0.00000000  1
  Ca  Ca2  1  0.49921451  0.18837524  0.83109773  1
  Ca  Ca3  1  0.99921451  0.81162476  0.66890227  1
  Ca  Ca4  1  0.50078549  0.81162476  0.16890227  1
  Ca  Ca5  1  0.00078549  0.18837524  0.33109773  1
  Ca  Ca6  1  0.49827858  0.41875643  0.61909719  1
  Ca  Ca7  1  0.99827858  0.58124357  0.88090281  1
  Ca  Ca8  1  0.50172142  0.58124357  0.38090281  1
  Ca  Ca9  1  0.00172142  0.41875643  0.11909719  1
  Si  Si10  1  0.06828458  0.20045897  0.64696725  1
  Si  Si11  1  0.56828458  0.79954103  0.85303275  1
  Si  Si12  1  0.93171542  0.79954103  0.35303275  1
  Si  Si13  1  0.43171542  0.20045897  0.14696725  1
  O  O14  1  0.20176493  0.20614088  0.51677010  1
  O  O15  1  0.70176493  0.79385912  0.98322990  1
  O  O16  1  0.79823507  0.79385912  0.48322990  1
  O  O17  1  0.29823507  0.20614088  0.01677010  1
  O  O18  1  0.20086839  0.04406621  0.66953403  1
  O  O19  1  0.70086839  0.95593379  0.83046597  1
  O  O20  1  0.79913161  0.95593379  0.33046597  1
  O  O21  1  0.29913161  0.04406621  0.16953403  1
  O  O22  1  0.19585088  0.35419675  0.75537859  1
  O  O23  1  0.69585088  0.64580325  0.74462141  1
  O  O24  1  0.80414912  0.64580325  0.24462141  1
  O  O25  1  0.30414912  0.35419675  0.25537859  1
  O  O26  1  0.74886419  0.20066282  0.64654550  1
  O  O27  1  0.24886419  0.79933718  0.85345450  1
  O  O28  1  0.25113581  0.79933718  0.35345450  1
  O  O29  1  0.75113581  0.20066282  0.14654550  1
  O  O30  1  0.77067581  0.39281683  0.93885559  1
  O  O31  1  0.27067581  0.60718317  0.56114441  1
  O  O32  1  0.22932419  0.60718317  0.06114441  1
  O  O33  1  0.72932419  0.39281683  0.43885559  1
