# generated using pymatgen
data_CaAl2Si3O10
_symmetry_space_group_name_H-M   'P 1'
_cell_length_a   6.58589717
_cell_length_b   8.91484409
_cell_length_c   9.17853746
_cell_angle_alpha   83.96525096
_cell_angle_beta   73.46399644
_cell_angle_gamma   68.32272594
_symmetry_Int_Tables_number   1
_chemical_formula_structural   CaAl2Si3O10
_chemical_formula_sum   'Ca2 Al4 Si6 O20'
_cell_volume   480.06982840
_cell_formula_units_Z   2
loop_
 _symmetry_equiv_pos_site_id
 _symmetry_equiv_pos_as_xyz
  1  'x, y, z'
loop_
 _atom_site_type_symbol
 _atom_site_label
 _atom_site_symmetry_multiplicity
 _atom_site_fract_x
 _atom_site_fract_y
 _atom_site_fract_z
 _atom_site_occupancy
  Ca  Ca0  1  0.91589095  0.01672050  0.65037000  1
  Ca  Ca1  1  0.68261144  0.48327950  0.15037000  1
  Al  Al2  1  0.21644992  0.44670101  0.29438284  1
  Al  Al3  1  0.41315093  0.05329899  0.79438284  1
  Al  Al4  1  0.01275499  0.55640750  0.71743496  1
  Al  Al5  1  0.31916249  0.94359250  0.21743496  1
  Si  Si6  1  0.75516243  0.47693166  0.49706772  1
  Si  Si7  1  0.98209408  0.02306834  0.99706772  1
  Si  Si8  1  0.49511007  0.22234241  0.05162618  1
  Si  Si9  1  0.46745249  0.27765759  0.55162618  1
  Si  Si10  1  0.72994665  0.78358484  0.96125093  1
  Si  Si11  1  0.26353150  0.71641516  0.46125093  1
  O  O12  1  0.93914724  0.44459904  0.32736005  1
  O  O13  1  0.13374628  0.05540096  0.82736005  1
  O  O14  1  0.83233667  0.52816152  0.62658526  1
  O  O15  1  0.11049819  0.97183848  0.12658526  1
  O  O16  1  0.76433052  0.19495896  0.04528208  1
  O  O17  1  0.70928948  0.30504104  0.54528208  1
  O  O18  1  0.89054013  0.88641986  0.96306867  1
  O  O19  1  0.52695999  0.61358014  0.46306867  1
  O  O20  1  0.08634357  0.72757264  0.63013129  1
  O  O21  1  0.56391621  0.77242736  0.13013129  1
  O  O22  1  0.42090774  0.31859824  0.38583913  1
  O  O23  1  0.48950599  0.18140176  0.88583913  1
  O  O24  1  0.60301568  0.86369137  0.82981769  1
  O  O25  1  0.21670705  0.63630863  0.32981769  1
  O  O26  1  0.39064178  0.11506021  0.18234584  1
  O  O27  1  0.25570198  0.38493979  0.68234584  1
  O  O28  1  0.37617748  0.41343871  0.10161488  1
  O  O29  1  0.53961620  0.08656129  0.60161488  1
  O  O30  1  0.88275106  0.59319778  0.91662248  1
  O  O31  1  0.22594884  0.90680222  0.41662248  1
