# generated using pymatgen
data_PuP2H6CO8
_symmetry_space_group_name_H-M   'P 1'
_cell_length_a   5.33755439
_cell_length_b   8.57338345
_cell_length_c   16.63516099
_cell_angle_alpha   90.00000000
_cell_angle_beta   94.14054010
_cell_angle_gamma   90.00000000
_symmetry_Int_Tables_number   1
_chemical_formula_structural   PuP2H6CO8
_chemical_formula_sum   'Pu4 P8 H24 C4 O32'
_cell_volume   759.25306864
_cell_formula_units_Z   4
loop_
 _symmetry_equiv_pos_site_id
 _symmetry_equiv_pos_as_xyz
  1  'x, y, z'
loop_
 _atom_site_type_symbol
 _atom_site_label
 _atom_site_symmetry_multiplicity
 _atom_site_fract_x
 _atom_site_fract_y
 _atom_site_fract_z
 _atom_site_occupancy
  Pu  Pu0  1  0.34826987  0.35277458  0.13646858  1
  Pu  Pu1  1  0.84826987  0.14722542  0.63646858  1
  Pu  Pu2  1  0.65173013  0.64722542  0.86353142  1
  Pu  Pu3  1  0.15173013  0.85277458  0.36353142  1
  P  P4  1  0.62633153  0.67850228  0.24443035  1
  P  P5  1  0.12633153  0.82149772  0.74443035  1
  P  P6  1  0.37366847  0.32149772  0.75556965  1
  P  P7  1  0.87366847  0.17850228  0.25556965  1
  P  P8  1  0.83443830  0.60662778  0.07895007  1
  P  P9  1  0.33443830  0.89337222  0.57895007  1
  P  P10  1  0.16556170  0.39337222  0.92104993  1
  P  P11  1  0.66556170  0.10662778  0.42104993  1
  H  H12  1  0.52631739  0.78666726  0.11338852  1
  H  H13  1  0.02631739  0.71333274  0.61338852  1
  H  H14  1  0.47368261  0.21333274  0.88661148  1
  H  H15  1  0.97368261  0.28666726  0.38661148  1
  H  H16  1  0.82838554  0.84691255  0.15438193  1
  H  H17  1  0.32838554  0.65308745  0.65438193  1
  H  H18  1  0.17161446  0.15308745  0.84561807  1
  H  H19  1  0.67161446  0.34691255  0.34561807  1
  H  H20  1  0.24954486  0.93145577  0.93791006  1
  H  H21  1  0.74954486  0.56854423  0.43791006  1
  H  H22  1  0.75045514  0.06854423  0.06208994  1
  H  H23  1  0.25045514  0.43145577  0.56208994  1
  H  H24  1  0.19758545  0.78111349  0.98299365  1
  H  H25  1  0.69758545  0.71888651  0.48299365  1
  H  H26  1  0.80241455  0.21888651  0.01700635  1
  H  H27  1  0.30241455  0.28111349  0.51700635  1
  H  H28  1  0.25751503  0.00156290  0.06648834  1
  H  H29  1  0.75751503  0.49843710  0.56648834  1
  H  H30  1  0.74248497  0.99843710  0.93351166  1
  H  H31  1  0.24248497  0.50156290  0.43351166  1
  H  H32  1  0.21869545  0.00591644  0.16067971  1
  H  H33  1  0.71869545  0.49408356  0.66067971  1
  H  H34  1  0.78130455  0.99408356  0.83932029  1
  H  H35  1  0.28130455  0.50591644  0.33932029  1
  C  C36  1  0.70148710  0.74650780  0.14564185  1
  C  C37  1  0.20148710  0.75349220  0.64564185  1
  C  C38  1  0.29851290  0.25349220  0.85435815  1
  C  C39  1  0.79851290  0.24650780  0.35435815  1
  O  O40  1  0.63555705  0.18072411  0.19790770  1
  O  O41  1  0.13555705  0.31927589  0.69790770  1
  O  O42  1  0.36444295  0.81927589  0.80209230  1
  O  O43  1  0.86444295  0.68072411  0.30209230  1
  O  O44  1  0.66293958  0.45948951  0.07678594  1
  O  O45  1  0.16293958  0.04051049  0.57678594  1
  O  O46  1  0.33706042  0.54051049  0.92321406  1
  O  O47  1  0.83706042  0.95948951  0.42321406  1
  O  O48  1  0.10316150  0.56510664  0.11307844  1
  O  O49  1  0.60316150  0.93489336  0.61307844  1
  O  O50  1  0.89683850  0.43489336  0.88692156  1
  O  O51  1  0.39683850  0.06510664  0.38692156  1
  O  O52  1  0.51477369  0.51204939  0.23571286  1
  O  O53  1  0.01477369  0.98795061  0.73571286  1
  O  O54  1  0.48522631  0.48795061  0.76428714  1
  O  O55  1  0.98522631  0.01204939  0.26428714  1
  O  O56  1  0.07543754  0.29265022  0.22726914  1
  O  O57  1  0.57543754  0.20734978  0.72726914  1
  O  O58  1  0.92456246  0.70734978  0.77273086  1
  O  O59  1  0.42456246  0.79265022  0.27273086  1
  O  O60  1  0.19419530  0.06576717  0.11045139  1
  O  O61  1  0.69419530  0.43423283  0.61045139  1
  O  O62  1  0.80580470  0.93423283  0.88954861  1
  O  O63  1  0.30580470  0.56576717  0.38954861  1
  O  O64  1  0.16361254  0.31514632  0.00390237  1
  O  O65  1  0.66361254  0.18485368  0.50390237  1
  O  O66  1  0.83638746  0.68485368  0.99609763  1
  O  O67  1  0.33638746  0.81514632  0.49609763  1
  O  O68  1  0.31565922  0.86945513  0.98388451  1
  O  O69  1  0.81565922  0.63054487  0.48388451  1
  O  O70  1  0.68434078  0.13054487  0.01611549  1
  O  O71  1  0.18434078  0.36945513  0.51611549  1
