# generated using pymatgen
data_Co5P4H12(O8F)2
_symmetry_space_group_name_H-M   'P 1'
_cell_length_a   8.64218726
_cell_length_b   9.97801455
_cell_length_c   10.26868935
_cell_angle_alpha   90.00000000
_cell_angle_beta   114.88528443
_cell_angle_gamma   90.00000000
_symmetry_Int_Tables_number   1
_chemical_formula_structural   Co5P4H12(O8F)2
_chemical_formula_sum   'Co10 P8 H24 O32 F4'
_cell_volume   803.27257858
_cell_formula_units_Z   2
loop_
 _symmetry_equiv_pos_site_id
 _symmetry_equiv_pos_as_xyz
  1  'x, y, z'
loop_
 _atom_site_type_symbol
 _atom_site_label
 _atom_site_symmetry_multiplicity
 _atom_site_fract_x
 _atom_site_fract_y
 _atom_site_fract_z
 _atom_site_occupancy
  Co  Co0  1  0.05247313  0.41992290  0.36082989  1
  Co  Co1  1  0.69164324  0.58007710  0.63917011  1
  Co  Co2  1  0.55247313  0.08007710  0.36082989  1
  Co  Co3  1  0.19164324  0.91992290  0.63917011  1
  Co  Co4  1  0.06759008  0.57456675  0.64781846  1
  Co  Co5  1  0.41977162  0.42543325  0.35218154  1
  Co  Co6  1  0.56759008  0.92543325  0.64781846  1
  Co  Co7  1  0.91977162  0.07456675  0.35218154  1
  Co  Co8  1  0.04786739  0.50000000  -0.00000000  1
  Co  Co9  1  0.54786739  -0.00000000  -0.00000000  1
  P  P10  1  0.82469815  0.31449061  0.54070435  1
  P  P11  1  0.28399380  0.68550939  0.45929565  1
  P  P12  1  0.32469815  0.18550939  0.54070435  1
  P  P13  1  0.78399380  0.81449061  0.45929565  1
  P  P14  1  0.79382659  0.27078563  0.07219056  1
  P  P15  1  0.72163603  0.72921437  0.92780944  1
  P  P16  1  0.29382659  0.22921437  0.07219056  1
  P  P17  1  0.22163603  0.77078563  0.92780944  1
  H  H18  1  0.85509631  0.58636357  0.15641280  1
  H  H19  1  0.69868351  0.41363643  0.84358720  1
  H  H20  1  0.35509631  0.91363643  0.15641280  1
  H  H21  1  0.19868351  0.08636357  0.84358720  1
  H  H22  1  0.76656092  0.57627361  0.26978370  1
  H  H23  1  0.49677722  0.42372639  0.73021630  1
  H  H24  1  0.26656092  0.92372639  0.26978370  1
  H  H25  1  0.99677722  0.07627361  0.73021630  1
  H  H26  1  0.02890911  0.02885341  0.16199368  1
  H  H27  1  0.86691543  0.97114659  0.83800632  1
  H  H28  1  0.52890911  0.47114659  0.16199368  1
  H  H29  1  0.36691543  0.52885341  0.83800632  1
  H  H30  1  0.90047882  0.91133110  0.14148619  1
  H  H31  1  0.75899263  0.08866890  0.85851381  1
  H  H32  1  0.40047882  0.58866890  0.14148619  1
  H  H33  1  0.25899263  0.41133110  0.85851381  1
  H  H34  1  0.65201013  0.33649505  0.07798418  1
  H  H35  1  0.57402595  0.66350495  0.92201582  1
  H  H36  1  0.15201013  0.16350495  0.07798418  1
  H  H37  1  0.07402595  0.83649505  0.92201582  1
  H  H38  1  0.88436841  0.27589286  0.68574371  1
  H  H39  1  0.19862470  0.72410714  0.31425629  1
  H  H40  1  0.38436841  0.22410714  0.68574371  1
  H  H41  1  0.69862470  0.77589286  0.31425629  1
  O  O42  1  0.96872231  0.39425043  0.52602040  1
  O  O43  1  0.44270192  0.60574957  0.47397960  1
  O  O44  1  0.46872231  0.10574957  0.52602040  1
  O  O45  1  0.94270192  0.89425043  0.47397960  1
  O  O46  1  0.84710009  0.53468750  0.23804375  1
  O  O47  1  0.60905634  0.46531250  0.76195625  1
  O  O48  1  0.34710009  0.96531250  0.23804375  1
  O  O49  1  0.10905634  0.03468750  0.76195625  1
  O  O50  1  0.92555684  0.24962628  0.23074150  1
  O  O51  1  0.69481533  0.75037372  0.76925850  1
  O  O52  1  0.42555684  0.25037372  0.23074150  1
  O  O53  1  0.19481533  0.74962628  0.76925850  1
  O  O54  1  0.15700148  0.59711443  0.49094358  1
  O  O55  1  0.66605790  0.40288557  0.50905642  1
  O  O56  1  0.65700148  0.90288557  0.49094358  1
  O  O57  1  0.16605790  0.09711443  0.50905642  1
  O  O58  1  0.28150450  0.31545458  0.44987097  1
  O  O59  1  0.83163353  0.68454542  0.55012903  1
  O  O60  1  0.78150450  0.18454542  0.44987097  1
  O  O61  1  0.33163353  0.81545458  0.55012903  1
  O  O62  1  0.86073544  0.35906473  0.98494376  1
  O  O63  1  0.87579169  0.64093527  0.01505624  1
  O  O64  1  0.36073544  0.14093527  0.98494376  1
  O  O65  1  0.37579169  0.85906473  0.01505624  1
  O  O66  1  0.72488894  0.13854326  0.99207782  1
  O  O67  1  0.73281112  0.86145674  0.00792218  1
  O  O68  1  0.22488894  0.36145674  0.99207782  1
  O  O69  1  0.23281112  0.63854326  0.00792218  1
  O  O70  1  0.00128322  0.96094876  0.21723253  1
  O  O71  1  0.78405070  0.03905124  0.78276747  1
  O  O72  1  0.50128322  0.53905124  0.21723253  1
  O  O73  1  0.28405070  0.46094876  0.78276747  1
  F  F74  1  0.16747452  0.47825674  0.22332357  1
  F  F75  1  0.94415095  0.52174326  0.77667643  1
  F  F76  1  0.66747452  0.02174326  0.22332357  1
  F  F77  1  0.44415095  0.97825674  0.77667643  1
