# generated using pymatgen
data_Zn89(Mo2Au5)2
_symmetry_space_group_name_H-M   'P 1'
_cell_length_a   13.15568170
_cell_length_b   13.15568170
_cell_length_c   13.15568170
_cell_angle_alpha   60.00000000
_cell_angle_beta   60.00000000
_cell_angle_gamma   60.00000000
_symmetry_Int_Tables_number   1
_chemical_formula_structural   Zn89(Mo2Au5)2
_chemical_formula_sum   'Zn89 Mo4 Au10'
_cell_volume   1609.99702570
_cell_formula_units_Z   1
loop_
 _symmetry_equiv_pos_site_id
 _symmetry_equiv_pos_as_xyz
  1  'x, y, z'
loop_
 _atom_site_type_symbol
 _atom_site_label
 _atom_site_symmetry_multiplicity
 _atom_site_fract_x
 _atom_site_fract_y
 _atom_site_fract_z
 _atom_site_occupancy
  Zn  Zn0  1  0.16706794  0.94431069  0.94431069  1
  Zn  Zn1  1  0.94431069  0.16706794  0.94431069  1
  Zn  Zn2  1  0.94431069  0.94431069  0.16706794  1
  Zn  Zn3  1  0.94431069  0.94431069  0.94431069  1
  Zn  Zn4  1  0.18118718  0.81881282  0.81881282  1
  Zn  Zn5  1  0.18118718  0.81881282  0.18118718  1
  Zn  Zn6  1  0.18118718  0.18118718  0.81881282  1
  Zn  Zn7  1  0.81881282  0.18118718  0.18118718  1
  Zn  Zn8  1  0.81881282  0.18118718  0.81881282  1
  Zn  Zn9  1  0.81881282  0.81881282  0.18118718  1
  Zn  Zn10  1  0.33274126  0.71763587  0.97481143  1
  Zn  Zn11  1  0.33274126  0.97481143  0.97481143  1
  Zn  Zn12  1  0.33274126  0.97481143  0.71763587  1
  Zn  Zn13  1  0.71763587  0.33274126  0.97481143  1
  Zn  Zn14  1  0.97481143  0.33274126  0.71763587  1
  Zn  Zn15  1  0.97481143  0.33274126  0.97481143  1
  Zn  Zn16  1  0.97481143  0.97481143  0.33274126  1
  Zn  Zn17  1  0.97481143  0.71763587  0.33274126  1
  Zn  Zn18  1  0.71763587  0.97481143  0.33274126  1
  Zn  Zn19  1  0.97481143  0.97481143  0.71763587  1
  Zn  Zn20  1  0.71763587  0.97481143  0.97481143  1
  Zn  Zn21  1  0.97481143  0.71763587  0.97481143  1
  Zn  Zn22  1  0.14198845  0.35801155  0.35801155  1
  Zn  Zn23  1  0.14198845  0.35801155  0.14198845  1
  Zn  Zn24  1  0.14198845  0.14198845  0.35801155  1
  Zn  Zn25  1  0.35801155  0.14198845  0.14198845  1
  Zn  Zn26  1  0.35801155  0.14198845  0.35801155  1
  Zn  Zn27  1  0.35801155  0.35801155  0.14198845  1
  Zn  Zn28  1  0.98446010  0.56744959  0.22404516  1
  Zn  Zn29  1  0.98446010  0.22404516  0.22404516  1
  Zn  Zn30  1  0.98446010  0.22404516  0.56744959  1
  Zn  Zn31  1  0.56744959  0.98446010  0.22404516  1
  Zn  Zn32  1  0.22404516  0.98446010  0.56744959  1
  Zn  Zn33  1  0.22404516  0.98446010  0.22404516  1
  Zn  Zn34  1  0.22404516  0.22404516  0.98446010  1
  Zn  Zn35  1  0.22404516  0.56744959  0.98446010  1
  Zn  Zn36  1  0.56744959  0.22404516  0.98446010  1
  Zn  Zn37  1  0.22404516  0.22404516  0.56744959  1
  Zn  Zn38  1  0.56744959  0.22404516  0.22404516  1
  Zn  Zn39  1  0.22404516  0.56744959  0.22404516  1
  Zn  Zn40  1  0.50000000  0.50000000  0.50000000  1
  Zn  Zn41  1  0.23354848  0.58881717  0.58881717  1
  Zn  Zn42  1  0.58881717  0.23354848  0.58881717  1
  Zn  Zn43  1  0.58881717  0.58881717  0.23354848  1
  Zn  Zn44  1  0.58881717  0.58881717  0.58881717  1
  Zn  Zn45  1  0.74653480  0.55957572  0.34694474  1
  Zn  Zn46  1  0.74653480  0.34694474  0.34694474  1
  Zn  Zn47  1  0.74653480  0.34694474  0.55957572  1
  Zn  Zn48  1  0.55957572  0.74653480  0.34694474  1
  Zn  Zn49  1  0.34694474  0.74653480  0.55957572  1
  Zn  Zn50  1  0.34694474  0.74653480  0.34694474  1
  Zn  Zn51  1  0.34694474  0.34694474  0.74653480  1
  Zn  Zn52  1  0.34694474  0.55957572  0.74653480  1
  Zn  Zn53  1  0.55957572  0.34694474  0.74653480  1
  Zn  Zn54  1  0.34694474  0.34694474  0.55957572  1
  Zn  Zn55  1  0.55957572  0.34694474  0.34694474  1
  Zn  Zn56  1  0.34694474  0.55957572  0.34694474  1
  Zn  Zn57  1  0.89602251  0.14483495  0.47957127  1
  Zn  Zn58  1  0.89602251  0.47957127  0.47957127  1
  Zn  Zn59  1  0.89602251  0.47957127  0.14483495  1
  Zn  Zn60  1  0.14483495  0.89602251  0.47957127  1
  Zn  Zn61  1  0.47957127  0.89602251  0.14483495  1
  Zn  Zn62  1  0.47957127  0.89602251  0.47957127  1
  Zn  Zn63  1  0.47957127  0.47957127  0.89602251  1
  Zn  Zn64  1  0.47957127  0.14483495  0.89602251  1
  Zn  Zn65  1  0.14483495  0.47957127  0.89602251  1
  Zn  Zn66  1  0.47957127  0.47957127  0.14483495  1
  Zn  Zn67  1  0.14483495  0.47957127  0.47957127  1
  Zn  Zn68  1  0.47957127  0.14483495  0.47957127  1
  Zn  Zn69  1  0.98420112  0.67193296  0.67193296  1
  Zn  Zn70  1  0.67193296  0.98420112  0.67193296  1
  Zn  Zn71  1  0.67193296  0.67193296  0.98420112  1
  Zn  Zn72  1  0.67193296  0.67193296  0.67193296  1
  Zn  Zn73  1  0.51144689  0.82951770  0.82951770  1
  Zn  Zn74  1  0.82951770  0.51144689  0.82951770  1
  Zn  Zn75  1  0.82951770  0.82951770  0.51144689  1
  Zn  Zn76  1  0.82951770  0.82951770  0.82951770  1
  Zn  Zn77  1  0.42524620  0.10244385  0.73615498  1
  Zn  Zn78  1  0.42524620  0.73615498  0.73615498  1
  Zn  Zn79  1  0.42524620  0.73615498  0.10244385  1
  Zn  Zn80  1  0.10244385  0.42524620  0.73615498  1
  Zn  Zn81  1  0.73615498  0.42524620  0.10244385  1
  Zn  Zn82  1  0.73615498  0.42524620  0.73615498  1
  Zn  Zn83  1  0.73615498  0.73615498  0.42524620  1
  Zn  Zn84  1  0.73615498  0.10244385  0.42524620  1
  Zn  Zn85  1  0.10244385  0.73615498  0.42524620  1
  Zn  Zn86  1  0.73615498  0.73615498  0.10244385  1
  Zn  Zn87  1  0.10244385  0.73615498  0.73615498  1
  Zn  Zn88  1  0.73615498  0.10244385  0.73615498  1
  Mo  Mo89  1  0.94312652  0.35229116  0.35229116  1
  Mo  Mo90  1  0.35229116  0.94312652  0.35229116  1
  Mo  Mo91  1  0.35229116  0.35229116  0.94312652  1
  Mo  Mo92  1  0.35229116  0.35229116  0.35229116  1
  Au  Au93  1  0.74010082  0.08663306  0.08663306  1
  Au  Au94  1  0.08663306  0.74010082  0.08663306  1
  Au  Au95  1  0.08663306  0.08663306  0.74010082  1
  Au  Au96  1  0.08663306  0.08663306  0.08663306  1
  Au  Au97  1  0.58257933  0.91742067  0.91742067  1
  Au  Au98  1  0.58257933  0.91742067  0.58257933  1
  Au  Au99  1  0.58257933  0.58257933  0.91742067  1
  Au  Au100  1  0.91742067  0.58257933  0.58257933  1
  Au  Au101  1  0.91742067  0.58257933  0.91742067  1
  Au  Au102  1  0.91742067  0.91742067  0.58257933  1
