# generated using pymatgen
data_La(SeO3)2
_symmetry_space_group_name_H-M   'P 1'
_cell_length_a   7.21092560
_cell_length_b   8.62083649
_cell_length_c   19.33891311
_cell_angle_alpha   90.00000000
_cell_angle_beta   90.00000000
_cell_angle_gamma   90.00000000
_symmetry_Int_Tables_number   1
_chemical_formula_structural   La(SeO3)2
_chemical_formula_sum   'La8 Se16 O48'
_cell_volume   1202.18826617
_cell_formula_units_Z   8
loop_
 _symmetry_equiv_pos_site_id
 _symmetry_equiv_pos_as_xyz
  1  'x, y, z'
loop_
 _atom_site_type_symbol
 _atom_site_label
 _atom_site_symmetry_multiplicity
 _atom_site_fract_x
 _atom_site_fract_y
 _atom_site_fract_z
 _atom_site_occupancy
  La  La0  1  0.41261764  0.65935237  0.58669013  1
  La  La1  1  0.58738236  0.34064763  0.08669013  1
  La  La2  1  0.41261764  0.84064763  0.08669013  1
  La  La3  1  0.58738236  0.15935237  0.58669013  1
  La  La4  1  0.91147339  0.55100061  0.49820816  1
  La  La5  1  0.08852661  0.44899939  0.99820816  1
  La  La6  1  0.91147339  0.94899939  0.99820816  1
  La  La7  1  0.08852661  0.05100061  0.49820816  1
  Se  Se8  1  0.92969283  0.80774152  0.63913047  1
  Se  Se9  1  0.07030717  0.19225848  0.13913047  1
  Se  Se10  1  0.92969283  0.69225848  0.13913047  1
  Se  Se11  1  0.07030717  0.30774152  0.63913047  1
  Se  Se12  1  0.43088720  0.40461293  0.44695318  1
  Se  Se13  1  0.56911280  0.59538707  0.94695318  1
  Se  Se14  1  0.43088720  0.09538707  0.94695318  1
  Se  Se15  1  0.56911280  0.90461293  0.44695318  1
  Se  Se16  1  0.47153183  0.86499961  0.73586031  1
  Se  Se17  1  0.52846817  0.13500039  0.23586031  1
  Se  Se18  1  0.47153183  0.63500039  0.23586031  1
  Se  Se19  1  0.52846817  0.36499961  0.73586031  1
  Se  Se20  1  0.94147972  0.35142129  0.34830385  1
  Se  Se21  1  0.05852028  0.64857871  0.84830385  1
  Se  Se22  1  0.94147972  0.14857871  0.84830385  1
  Se  Se23  1  0.05852028  0.85142129  0.34830385  1
  O  O24  1  0.76206551  0.68607663  0.60430304  1
  O  O25  1  0.23793449  0.31392337  0.10430304  1
  O  O26  1  0.76206551  0.81392337  0.10430304  1
  O  O27  1  0.23793449  0.18607663  0.60430304  1
  O  O28  1  0.86560678  0.99267535  0.61738334  1
  O  O29  1  0.13439322  0.00732465  0.11738334  1
  O  O30  1  0.86560678  0.50732465  0.11738334  1
  O  O31  1  0.13439322  0.49267535  0.61738334  1
  O  O32  1  0.09473590  0.78624677  0.57169341  1
  O  O33  1  0.90526410  0.21375323  0.07169341  1
  O  O34  1  0.09473590  0.71375323  0.07169341  1
  O  O35  1  0.90526410  0.28624677  0.57169341  1
  O  O36  1  0.36800145  0.22013321  0.47017293  1
  O  O37  1  0.63199855  0.77986679  0.97017293  1
  O  O38  1  0.36800145  0.27986679  0.97017293  1
  O  O39  1  0.63199855  0.72013321  0.47017293  1
  O  O40  1  0.59562045  0.42606353  0.51410959  1
  O  O41  1  0.40437955  0.57393647  0.01410959  1
  O  O42  1  0.59562045  0.07393647  0.01410959  1
  O  O43  1  0.40437955  0.92606353  0.51410959  1
  O  O44  1  0.26374912  0.52862641  0.48097330  1
  O  O45  1  0.73625088  0.47137359  0.98097330  1
  O  O46  1  0.26374912  0.97137359  0.98097330  1
  O  O47  1  0.73625088  0.02862641  0.48097330  1
  O  O48  1  0.34895973  0.69700558  0.72508613  1
  O  O49  1  0.65104027  0.30299442  0.22508613  1
  O  O50  1  0.34895973  0.80299442  0.22508613  1
  O  O51  1  0.65104027  0.19700558  0.72508613  1
  O  O52  1  0.47294144  0.92519749  0.65050351  1
  O  O53  1  0.52705856  0.07480251  0.15050351  1
  O  O54  1  0.47294144  0.57480251  0.15050351  1
  O  O55  1  0.52705856  0.42519749  0.65050351  1
  O  O56  1  0.68849570  0.82413440  0.76057197  1
  O  O57  1  0.31150430  0.17586560  0.26057197  1
  O  O58  1  0.68849570  0.67586560  0.26057197  1
  O  O59  1  0.31150430  0.32413440  0.76057197  1
  O  O60  1  0.99127866  0.28162925  0.43055617  1
  O  O61  1  0.00872134  0.71837075  0.93055617  1
  O  O62  1  0.99127866  0.21837075  0.93055617  1
  O  O63  1  0.00872134  0.78162925  0.43055617  1
  O  O64  1  0.79981288  0.49842583  0.37369990  1
  O  O65  1  0.20018712  0.50157417  0.87369990  1
  O  O66  1  0.79981288  0.00157417  0.87369990  1
  O  O67  1  0.20018712  -0.00157417  0.37369990  1
  O  O68  1  0.13256152  0.42880765  0.31240062  1
  O  O69  1  0.86743848  0.57119235  0.81240062  1
  O  O70  1  0.13256152  0.07119235  0.81240062  1
  O  O71  1  0.86743848  0.92880765  0.31240062  1
