# generated using pymatgen
data_Mg2AsO5
_symmetry_space_group_name_H-M   'P 1'
_cell_length_a   6.17021540
_cell_length_b   8.46167955
_cell_length_c   8.42098358
_cell_angle_alpha   90.00000000
_cell_angle_beta   90.00000000
_cell_angle_gamma   90.00000000
_symmetry_Int_Tables_number   1
_chemical_formula_structural   Mg2AsO5
_chemical_formula_sum   'Mg8 As4 O20'
_cell_volume   439.66279874
_cell_formula_units_Z   4
loop_
 _symmetry_equiv_pos_site_id
 _symmetry_equiv_pos_as_xyz
  1  'x, y, z'
loop_
 _atom_site_type_symbol
 _atom_site_label
 _atom_site_symmetry_multiplicity
 _atom_site_fract_x
 _atom_site_fract_y
 _atom_site_fract_z
 _atom_site_occupancy
  Mg  Mg0  1  0.74703193  0.50000000  0.50000000  1
  Mg  Mg1  1  0.75296807  0.00000000  0.00000000  1
  Mg  Mg2  1  0.25296807  0.50000000  0.50000000  1
  Mg  Mg3  1  0.24703193  0.00000000  0.00000000  1
  Mg  Mg4  1  0.50000000  0.64387930  0.12912357  1
  Mg  Mg5  1  0.50000000  0.35612070  0.87087643  1
  Mg  Mg6  1  0.00000000  0.14387930  0.37087643  1
  Mg  Mg7  1  0.00000000  0.85612070  0.62912357  1
  As  As8  1  0.00000000  0.75581446  0.24847381  1
  As  As9  1  0.00000000  0.24418554  0.75152619  1
  As  As10  1  0.50000000  0.25581446  0.25152619  1
  As  As11  1  0.50000000  0.74418554  0.74847381  1
  O  O12  1  0.00000000  0.58333469  0.35731135  1
  O  O13  1  0.00000000  0.41666531  0.64268865  1
  O  O14  1  0.50000000  0.08333469  0.14268865  1
  O  O15  1  0.50000000  0.91666531  0.85731135  1
  O  O16  1  0.50000000  0.58403785  0.35850865  1
  O  O17  1  0.50000000  0.41596215  0.64149135  1
  O  O18  1  0.00000000  0.08403785  0.14149135  1
  O  O19  1  0.00000000  0.91596215  0.85850865  1
  O  O20  1  0.00000000  0.90243852  0.38935443  1
  O  O21  1  0.00000000  0.09756148  0.61064557  1
  O  O22  1  0.50000000  0.40243852  0.11064557  1
  O  O23  1  0.50000000  0.59756148  0.88935443  1
  O  O24  1  0.77497760  0.77675050  0.12970859  1
  O  O25  1  0.77497760  0.22324950  0.87029141  1
  O  O26  1  0.72502240  0.27675050  0.37029141  1
  O  O27  1  0.72502240  0.72324950  0.62970859  1
  O  O28  1  0.22502240  0.22324950  0.87029141  1
  O  O29  1  0.22502240  0.77675050  0.12970859  1
  O  O30  1  0.27497760  0.72324950  0.62970859  1
  O  O31  1  0.27497760  0.27675050  0.37029141  1
