# generated using pymatgen
data_NaPrP2H4CO7
_symmetry_space_group_name_H-M   'P 1'
_cell_length_a   6.76818169
_cell_length_b   6.89017198
_cell_length_c   15.95521808
_cell_angle_alpha   90.00000000
_cell_angle_beta   90.00000000
_cell_angle_gamma   90.84120068
_symmetry_Int_Tables_number   1
_chemical_formula_structural   NaPrP2H4CO7
_chemical_formula_sum   'Na4 Pr4 P8 H16 C4 O28'
_cell_volume   743.97442640
_cell_formula_units_Z   4
loop_
 _symmetry_equiv_pos_site_id
 _symmetry_equiv_pos_as_xyz
  1  'x, y, z'
loop_
 _atom_site_type_symbol
 _atom_site_label
 _atom_site_symmetry_multiplicity
 _atom_site_fract_x
 _atom_site_fract_y
 _atom_site_fract_z
 _atom_site_occupancy
  Na  Na0  1  0.14648239  0.71537820  0.48966514  1
  Na  Na1  1  0.35351761  0.28462180  0.98966514  1
  Na  Na2  1  0.85351761  0.28462180  0.51033486  1
  Na  Na3  1  0.64648239  0.71537820  0.01033486  1
  Pr  Pr4  1  0.59538362  0.83924408  0.60514939  1
  Pr  Pr5  1  0.90461638  0.16075592  0.10514939  1
  Pr  Pr6  1  0.40461638  0.16075592  0.39485061  1
  Pr  Pr7  1  0.09538362  0.83924408  0.89485061  1
  P  P8  1  0.64536784  0.67012248  0.41902840  1
  P  P9  1  0.85463216  0.32987752  0.91902840  1
  P  P10  1  0.35463216  0.32987752  0.58097160  1
  P  P11  1  0.14536784  0.67012248  0.08097160  1
  P  P12  1  0.09809160  0.00291520  0.66060611  1
  P  P13  1  0.40190840  0.99708480  0.16060611  1
  P  P14  1  0.90190840  0.99708480  0.33939389  1
  P  P15  1  0.59809160  0.00291520  0.83939389  1
  H  H16  1  0.93459749  0.69585780  0.71337301  1
  H  H17  1  0.56540251  0.30414220  0.21337301  1
  H  H18  1  0.06540251  0.30414220  0.28662699  1
  H  H19  1  0.43459749  0.69585780  0.78662699  1
  H  H20  1  0.89803767  0.51736099  0.65219270  1
  H  H21  1  0.60196233  0.48263901  0.15219270  1
  H  H22  1  0.10196233  0.48263901  0.34780730  1
  H  H23  1  0.39803767  0.51736099  0.84780730  1
  H  H24  1  0.86454223  0.65437050  0.29980028  1
  H  H25  1  0.63545777  0.34562950  0.79980028  1
  H  H26  1  0.13545777  0.34562950  0.70019972  1
  H  H27  1  0.36454223  0.65437050  0.20019972  1
  H  H28  1  0.65375385  0.79255548  0.27926914  1
  H  H29  1  0.84624615  0.20744452  0.77926914  1
  H  H30  1  0.34624615  0.20744452  0.72073086  1
  H  H31  1  0.15375385  0.79255548  0.22073086  1
  C  C32  1  0.76947240  0.76707228  0.32620162  1
  C  C33  1  0.73052760  0.23292772  0.82620162  1
  C  C34  1  0.23052760  0.23292772  0.67379838  1
  C  C35  1  0.26947240  0.76707228  0.17379838  1
  O  O36  1  0.23549228  0.87231994  0.60963463  1
  O  O37  1  0.26450772  0.12768006  0.10963463  1
  O  O38  1  0.76450772  0.12768006  0.39036537  1
  O  O39  1  0.73549228  0.87231994  0.89036537  1
  O  O40  1  0.90165417  0.04023275  0.61404795  1
  O  O41  1  0.59834583  0.95976725  0.11404795  1
  O  O42  1  0.09834583  0.95976725  0.38595205  1
  O  O43  1  0.40165417  0.04023275  0.88595205  1
  O  O44  1  0.49142064  0.82256291  0.44952406  1
  O  O45  1  0.00857936  0.17743709  0.94952406  1
  O  O46  1  0.50857936  0.17743709  0.55047594  1
  O  O47  1  0.99142064  0.82256291  0.05047594  1
  O  O48  1  0.79862392  0.64631385  0.49077369  1
  O  O49  1  0.70137608  0.35368615  0.99077369  1
  O  O50  1  0.20137608  0.35368615  0.50922631  1
  O  O51  1  0.29862392  0.64631385  0.00922631  1
  O  O52  1  0.54521210  0.48060224  0.39303522  1
  O  O53  1  0.95478790  0.51939776  0.89303522  1
  O  O54  1  0.45478790  0.51939776  0.60696478  1
  O  O55  1  0.04521210  0.48060224  0.10696478  1
  O  O56  1  0.83112272  0.61563051  0.68502283  1
  O  O57  1  0.66887728  0.38436949  0.18502283  1
  O  O58  1  0.16887728  0.38436949  0.31497717  1
  O  O59  1  0.33112272  0.61563051  0.81497717  1
  O  O60  1  0.05625569  0.91622434  0.74857718  1
  O  O61  1  0.44374431  0.08377566  0.24857718  1
  O  O62  1  0.94374431  0.08377566  0.25142282  1
  O  O63  1  0.55625569  0.91622434  0.75142282  1
