# generated using pymatgen
data_YMnSn2
_symmetry_space_group_name_H-M   'P 1'
_cell_length_a   9.01869258
_cell_length_b   10.48597026
_cell_length_c   11.46213837
_cell_angle_alpha   90.00000000
_cell_angle_beta   90.00000000
_cell_angle_gamma   90.00000000
_symmetry_Int_Tables_number   1
_chemical_formula_structural   YMnSn2
_chemical_formula_sum   'Y12 Mn12 Sn24'
_cell_volume   1083.97147046
_cell_formula_units_Z   12
loop_
 _symmetry_equiv_pos_site_id
 _symmetry_equiv_pos_as_xyz
  1  'x, y, z'
loop_
 _atom_site_type_symbol
 _atom_site_label
 _atom_site_symmetry_multiplicity
 _atom_site_fract_x
 _atom_site_fract_y
 _atom_site_fract_z
 _atom_site_occupancy
  Y  Y0  1  0.24399925  0.82859961  0.45239832  1
  Y  Y1  1  0.24399925  0.17140039  0.54760168  1
  Y  Y2  1  0.75600075  0.32859961  0.04760168  1
  Y  Y3  1  0.75600075  0.67140039  0.95239832  1
  Y  Y4  1  0.75600075  0.17140039  0.54760168  1
  Y  Y5  1  0.75600075  0.82859961  0.45239832  1
  Y  Y6  1  0.24399925  0.67140039  0.95239832  1
  Y  Y7  1  0.24399925  0.32859961  0.04760168  1
  Y  Y8  1  0.00000000  0.83545063  0.17962079  1
  Y  Y9  1  -0.00000000  0.16454937  0.82037921  1
  Y  Y10  1  0.00000000  0.33545063  0.32037921  1
  Y  Y11  1  -0.00000000  0.66454937  0.67962079  1
  Mn  Mn12  1  0.24709857  0.58796022  0.25451510  1
  Mn  Mn13  1  0.24709857  0.41203978  0.74548490  1
  Mn  Mn14  1  0.75290143  0.08796022  0.24548490  1
  Mn  Mn15  1  0.75290143  0.91203978  0.75451510  1
  Mn  Mn16  1  0.75290143  0.41203978  0.74548490  1
  Mn  Mn17  1  0.75290143  0.58796022  0.25451510  1
  Mn  Mn18  1  0.24709857  0.91203978  0.75451510  1
  Mn  Mn19  1  0.24709857  0.08796022  0.24548490  1
  Mn  Mn20  1  0.24304533  0.50000000  0.50000000  1
  Mn  Mn21  1  0.75695467  0.00000000  -0.00000000  1
  Mn  Mn22  1  0.75695467  0.50000000  0.50000000  1
  Mn  Mn23  1  0.24304533  0.00000000  -0.00000000  1
  Sn  Sn24  1  0.33859698  0.83803349  0.18095669  1
  Sn  Sn25  1  0.33859698  0.16196651  0.81904331  1
  Sn  Sn26  1  0.66140302  0.33803349  0.31904331  1
  Sn  Sn27  1  0.66140302  0.66196651  0.68095669  1
  Sn  Sn28  1  0.66140302  0.16196651  0.81904331  1
  Sn  Sn29  1  0.66140302  0.83803349  0.18095669  1
  Sn  Sn30  1  0.33859698  0.66196651  0.68095669  1
  Sn  Sn31  1  0.33859698  0.33803349  0.31904331  1
  Sn  Sn32  1  0.50000000  0.54481612  0.12462535  1
  Sn  Sn33  1  0.50000000  0.45518388  0.87537465  1
  Sn  Sn34  1  0.50000000  0.04481612  0.37537465  1
  Sn  Sn35  1  0.50000000  0.95518388  0.62462535  1
  Sn  Sn36  1  0.00000000  0.54087370  0.12224373  1
  Sn  Sn37  1  -0.00000000  0.45912630  0.87775627  1
  Sn  Sn38  1  0.00000000  0.04087370  0.37775627  1
  Sn  Sn39  1  -0.00000000  0.95912630  0.62224373  1
  Sn  Sn40  1  0.50000000  0.62386969  0.40510251  1
  Sn  Sn41  1  0.50000000  0.37613031  0.59489749  1
  Sn  Sn42  1  0.50000000  0.12386969  0.09489749  1
  Sn  Sn43  1  0.50000000  0.87613031  0.90510251  1
  Sn  Sn44  1  -0.00000000  0.62853194  0.39934128  1
  Sn  Sn45  1  -0.00000000  0.37146806  0.60065872  1
  Sn  Sn46  1  0.00000000  0.12853194  0.10065872  1
  Sn  Sn47  1  0.00000000  0.87146806  0.89934128  1
