# generated using pymatgen
data_RbSO4
_symmetry_space_group_name_H-M   'P 1'
_cell_length_a   4.82064474
_cell_length_b   14.58080579
_cell_length_c   14.59419931
_cell_angle_alpha   117.81167133
_cell_angle_beta   90.00000000
_cell_angle_gamma   90.00000000
_symmetry_Int_Tables_number   1
_chemical_formula_structural   RbSO4
_chemical_formula_sum   'Rb8 S8 O32'
_cell_volume   907.31452887
_cell_formula_units_Z   8
loop_
 _symmetry_equiv_pos_site_id
 _symmetry_equiv_pos_as_xyz
  1  'x, y, z'
loop_
 _atom_site_type_symbol
 _atom_site_label
 _atom_site_symmetry_multiplicity
 _atom_site_fract_x
 _atom_site_fract_y
 _atom_site_fract_z
 _atom_site_occupancy
  Rb  Rb0  1  0.35625690  0.20485834  0.08066656  1
  Rb  Rb1  1  0.85625690  0.29514166  0.41933344  1
  Rb  Rb2  1  0.64374310  0.79514166  0.91933344  1
  Rb  Rb3  1  0.14374310  0.70485834  0.58066656  1
  Rb  Rb4  1  0.79558151  0.54417252  0.16799115  1
  Rb  Rb5  1  0.29558151  0.95582748  0.33200885  1
  Rb  Rb6  1  0.20441849  0.45582748  0.83200885  1
  Rb  Rb7  1  0.70441849  0.04417252  0.66799115  1
  S  S8  1  0.29930561  0.45004149  0.32567891  1
  S  S9  1  0.79930561  0.04995851  0.17432109  1
  S  S10  1  0.70069439  0.54995851  0.67432109  1
  S  S11  1  0.20069439  0.95004149  0.82567891  1
  S  S12  1  0.72774468  0.79322422  0.41870865  1
  S  S13  1  0.22774468  0.70677578  0.08129135  1
  S  S14  1  0.27225532  0.20677578  0.58129135  1
  S  S15  1  0.77225532  0.29322422  0.91870865  1
  O  O16  1  0.38748618  0.35064925  0.31990464  1
  O  O17  1  0.88748618  0.14935075  0.18009536  1
  O  O18  1  0.61251382  0.64935075  0.68009536  1
  O  O19  1  0.11251382  0.85064925  0.81990464  1
  O  O20  1  0.46774809  0.54013603  0.40239025  1
  O  O21  1  0.96774809  0.95986397  0.09760975  1
  O  O22  1  0.53225191  0.45986397  0.59760975  1
  O  O23  1  0.03225191  0.04013603  0.90239025  1
  O  O24  1  0.29859303  0.44574947  0.22279263  1
  O  O25  1  0.79859303  0.05425053  0.27720737  1
  O  O26  1  0.70140697  0.55425053  0.77720737  1
  O  O27  1  0.20140697  0.94574947  0.72279263  1
  O  O28  1  0.02033422  0.48123139  0.37786798  1
  O  O29  1  0.52033422  0.01876861  0.12213202  1
  O  O30  1  0.97966578  0.51876861  0.62213202  1
  O  O31  1  0.47966578  0.98123139  0.87786798  1
  O  O32  1  0.80420867  0.89647378  0.43023731  1
  O  O33  1  0.30420867  0.60352622  0.06976269  1
  O  O34  1  0.19579133  0.10352622  0.56976269  1
  O  O35  1  0.69579133  0.39647378  0.93023731  1
  O  O36  1  0.50936934  0.74404210  0.33694715  1
  O  O37  1  0.00936934  0.75595790  0.16305285  1
  O  O38  1  0.49063066  0.25595790  0.66305285  1
  O  O39  1  0.99063066  0.24404210  0.83694715  1
  O  O40  1  0.62426624  0.80262792  0.51862197  1
  O  O41  1  0.12426624  0.69737208  0.98137803  1
  O  O42  1  0.37573376  0.19737208  0.48137803  1
  O  O43  1  0.87573376  0.30262792  0.01862197  1
  O  O44  1  0.97526087  0.72319620  0.38522515  1
  O  O45  1  0.47526087  0.77680380  0.11477485  1
  O  O46  1  0.02473913  0.27680380  0.61477485  1
  O  O47  1  0.52473913  0.22319620  0.88522515  1
