# generated using pymatgen
data_Dy2Al17
_symmetry_space_group_name_H-M   'P 1'
_cell_length_a   8.87644679
_cell_length_b   9.45749101
_cell_length_c   9.45749101
_cell_angle_alpha   119.78744420
_cell_angle_beta   90.00000000
_cell_angle_gamma   90.00000000
_symmetry_Int_Tables_number   1
_chemical_formula_structural   Dy2Al17
_chemical_formula_sum   'Dy4 Al34'
_cell_volume   689.04546089
_cell_formula_units_Z   2
loop_
 _symmetry_equiv_pos_site_id
 _symmetry_equiv_pos_as_xyz
  1  'x, y, z'
loop_
 _atom_site_type_symbol
 _atom_site_label
 _atom_site_symmetry_multiplicity
 _atom_site_fract_x
 _atom_site_fract_y
 _atom_site_fract_z
 _atom_site_occupancy
  Dy  Dy0  1  0.75000000  0.99989991  0.00010009  1
  Dy  Dy1  1  0.25000000  0.00010009  0.99989991  1
  Dy  Dy2  1  0.25000000  0.66659288  0.33340712  1
  Dy  Dy3  1  0.75000000  0.33340712  0.66659288  1
  Al  Al4  1  0.60074983  0.66725457  0.33274543  1
  Al  Al5  1  0.39925017  0.33274543  0.66725457  1
  Al  Al6  1  0.10074983  0.33274543  0.66725457  1
  Al  Al7  1  0.89925017  0.66725457  0.33274543  1
  Al  Al8  1  0.50000000  0.50000000  0.00000000  1
  Al  Al9  1  0.50000000  0.50000000  0.50000000  1
  Al  Al10  1  0.50000000  -0.00000000  0.50000000  1
  Al  Al11  1  0.00000000  0.50000000  0.00000000  1
  Al  Al12  1  0.00000000  0.50000000  0.50000000  1
  Al  Al13  1  0.00000000  -0.00000000  0.50000000  1
  Al  Al14  1  0.75000000  0.67332641  0.03674396  1
  Al  Al15  1  0.75000000  0.36209385  0.32510985  1
  Al  Al16  1  0.75000000  0.96393019  0.63703357  1
  Al  Al17  1  0.75000000  0.36296643  0.03606981  1
  Al  Al18  1  0.75000000  0.96325604  0.32667359  1
  Al  Al19  1  0.75000000  0.67489015  0.63790615  1
  Al  Al20  1  0.25000000  0.32667359  0.96325604  1
  Al  Al21  1  0.25000000  0.63790615  0.67489015  1
  Al  Al22  1  0.25000000  0.03606981  0.36296643  1
  Al  Al23  1  0.25000000  0.63703357  0.96393019  1
  Al  Al24  1  0.25000000  0.03674396  0.67332641  1
  Al  Al25  1  0.25000000  0.32510985  0.36209385  1
  Al  Al26  1  0.47416842  0.83748215  0.67432156  1
  Al  Al27  1  0.47473695  0.83752742  0.16247258  1
  Al  Al28  1  0.47416842  0.32567844  0.16251785  1
  Al  Al29  1  0.52583158  0.16251785  0.32567844  1
  Al  Al30  1  0.52526305  0.16247258  0.83752742  1
  Al  Al31  1  0.52583158  0.67432156  0.83748215  1
  Al  Al32  1  0.97416842  0.16251785  0.32567844  1
  Al  Al33  1  0.97473695  0.16247258  0.83752742  1
  Al  Al34  1  0.97416842  0.67432156  0.83748215  1
  Al  Al35  1  0.02583158  0.83748215  0.67432156  1
  Al  Al36  1  0.02526305  0.83752742  0.16247258  1
  Al  Al37  1  0.02583158  0.32567844  0.16251785  1
