# generated using pymatgen
data_CoH16C4S4(N4Cl)2
_symmetry_space_group_name_H-M   'P 1'
_cell_length_a   9.46317172
_cell_length_b   13.57929733
_cell_length_c   13.57929733
_cell_angle_alpha   90.00000000
_cell_angle_beta   90.00000000
_cell_angle_gamma   90.00000000
_symmetry_Int_Tables_number   1
_chemical_formula_structural   CoH16C4S4(N4Cl)2
_chemical_formula_sum   'Co4 H64 C16 S16 N32 Cl8'
_cell_volume   1744.98346579
_cell_formula_units_Z   4
loop_
 _symmetry_equiv_pos_site_id
 _symmetry_equiv_pos_as_xyz
  1  'x, y, z'
loop_
 _atom_site_type_symbol
 _atom_site_label
 _atom_site_symmetry_multiplicity
 _atom_site_fract_x
 _atom_site_fract_y
 _atom_site_fract_z
 _atom_site_occupancy
  Co  Co0  1  0.50000000  0.50000000  0.50000000  1
  Co  Co1  1  0.50000000  -0.00000000  0.00000000  1
  Co  Co2  1  -0.00000000  -0.00000000  0.50000000  1
  Co  Co3  1  -0.00000000  0.50000000  0.00000000  1
  H  H4  1  0.54830583  0.15327546  0.65071453  1
  H  H5  1  0.54830583  0.34672454  0.84928547  1
  H  H6  1  0.04830583  0.15071453  0.84672454  1
  H  H7  1  0.04830583  0.34928547  0.65327546  1
  H  H8  1  0.45169417  0.84672454  0.34928547  1
  H  H9  1  0.45169417  0.65327546  0.15071453  1
  H  H10  1  0.95169417  0.84928547  0.15327546  1
  H  H11  1  0.95169417  0.65071453  0.34672454  1
  H  H12  1  0.41232357  0.10265811  0.57870232  1
  H  H13  1  0.41232357  0.39734189  0.92129768  1
  H  H14  1  0.91232357  0.07870232  0.89734189  1
  H  H15  1  0.91232357  0.42129768  0.60265811  1
  H  H16  1  0.58767643  0.89734189  0.42129768  1
  H  H17  1  0.58767643  0.60265811  0.07870232  1
  H  H18  1  0.08767643  0.92129768  0.10265811  1
  H  H19  1  0.08767643  0.57870232  0.39734189  1
  H  H20  1  0.25387335  0.20175227  0.50073284  1
  H  H21  1  0.25387335  0.29824773  0.99926716  1
  H  H22  1  0.75387335  0.00073284  0.79824773  1
  H  H23  1  0.75387335  0.49926716  0.70175227  1
  H  H24  1  0.74612665  0.79824773  0.49926716  1
  H  H25  1  0.74612665  0.70175227  0.00073284  1
  H  H26  1  0.24612665  0.99926716  0.20175227  1
  H  H27  1  0.24612665  0.50073284  0.29824773  1
  H  H28  1  0.27625879  0.33050161  0.50065956  1
  H  H29  1  0.27625879  0.16949839  0.99934044  1
  H  H30  1  0.77625879  0.00065956  0.66949839  1
  H  H31  1  0.77625879  0.49934044  0.83050161  1
  H  H32  1  0.72374121  0.66949839  0.49934044  1
  H  H33  1  0.72374121  0.83050161  0.00065956  1
  H  H34  1  0.22374121  0.99934044  0.33050161  1
  H  H35  1  0.22374121  0.50065956  0.16949839  1
  H  H36  1  0.50411204  0.30993340  0.16454298  1
  H  H37  1  0.50411204  0.19006660  0.33545702  1
  H  H38  1  0.00411204  0.66454298  0.69006660  1
  H  H39  1  0.00411204  0.83545702  0.80993340  1
  H  H40  1  0.49588796  0.69006660  0.83545702  1
  H  H41  1  0.49588796  0.80993340  0.66454298  1
  H  H42  1  0.99588796  0.33545702  0.30993340  1
  H  H43  1  0.99588796  0.16454298  0.19006660  1
  H  H44  1  0.62695704  0.38802808  0.10732446  1
  H  H45  1  0.62695704  0.11197192  0.39267554  1
  H  H46  1  0.12695704  0.60732446  0.61197192  1
  H  H47  1  0.12695704  0.89267554  0.88802808  1
  H  H48  1  0.37304296  0.61197192  0.89267554  1
  H  H49  1  0.37304296  0.88802808  0.60732446  1
  H  H50  1  0.87304296  0.39267554  0.38802808  1
  H  H51  1  0.87304296  0.10732446  0.11197192  1
  H  H52  1  0.75255021  0.50395457  0.19601612  1
  H  H53  1  0.75255021  0.99604543  0.30398388  1
  H  H54  1  0.25255021  0.69601612  0.49604543  1
  H  H55  1  0.25255021  0.80398388  0.00395457  1
  H  H56  1  0.24744979  0.49604543  0.80398388  1
  H  H57  1  0.24744979  0.00395457  0.69601612  1
  H  H58  1  0.74744979  0.30398388  0.50395457  1
  H  H59  1  0.74744979  0.19601612  0.99604543  1
  H  H60  1  0.69536968  0.53246757  0.31504071  1
  H  H61  1  0.69536968  0.96753243  0.18495929  1
  H  H62  1  0.19536968  0.81504071  0.46753243  1
  H  H63  1  0.19536968  0.68495929  0.03246757  1
  H  H64  1  0.30463032  0.46753243  0.68495929  1
  H  H65  1  0.30463032  0.03246757  0.81504071  1
  H  H66  1  0.80463032  0.18495929  0.53246757  1
  H  H67  1  0.80463032  0.31504071  0.96753243  1
  C  C68  1  0.42701769  0.25368543  0.57649569  1
  C  C69  1  0.42701769  0.24631457  0.92350431  1
  C  C70  1  0.92701769  0.07649569  0.74631457  1
  C  C71  1  0.92701769  0.42350431  0.75368543  1
  C  C72  1  0.57298231  0.74631457  0.42350431  1
  C  C73  1  0.57298231  0.75368543  0.07649569  1
  C  C74  1  0.07298231  0.92350431  0.25368543  1
  C  C75  1  0.07298231  0.57649569  0.24631457  1
  C  C76  1  0.58899246  0.41861967  0.25261516  1
  C  C77  1  0.58899246  0.08138033  0.24738484  1
  C  C78  1  0.08899246  0.75261516  0.58138033  1
  C  C79  1  0.08899246  0.74738484  0.91861967  1
  C  C80  1  0.41100754  0.58138033  0.74738484  1
  C  C81  1  0.41100754  0.91861967  0.75261516  1
  C  C82  1  0.91100754  0.24738484  0.41861967  1
  C  C83  1  0.91100754  0.25261516  0.08138033  1
  S  S84  1  0.52543386  0.35443029  0.61127129  1
  S  S85  1  0.52543386  0.14556971  0.88872871  1
  S  S86  1  0.02543386  0.11127129  0.64556971  1
  S  S87  1  0.02543386  0.38872871  0.85443029  1
  S  S88  1  0.47456614  0.64556971  0.38872871  1
  S  S89  1  0.47456614  0.85443029  0.11127129  1
  S  S90  1  0.97456614  0.88872871  0.35443029  1
  S  S91  1  0.97456614  0.61127129  0.14556971  1
  S  S92  1  0.48330853  0.39266558  0.35239331  1
  S  S93  1  0.48330853  0.10733442  0.14760669  1
  S  S94  1  0.98330853  0.85239331  0.60733442  1
  S  S95  1  0.98330853  0.64760669  0.89266558  1
  S  S96  1  0.51669147  0.60733442  0.64760669  1
  S  S97  1  0.51669147  0.89266558  0.85239331  1
  S  S98  1  0.01669147  0.14760669  0.39266558  1
  S  S99  1  0.01669147  0.35239331  0.10733442  1
  N  N100  1  0.46707943  0.16286416  0.60325673  1
  N  N101  1  0.46707943  0.33713584  0.89674327  1
  N  N102  1  0.96707943  0.10325673  0.83713584  1
  N  N103  1  0.96707943  0.39674327  0.66286416  1
  N  N104  1  0.53292057  0.83713584  0.39674327  1
  N  N105  1  0.53292057  0.66286416  0.10325673  1
  N  N106  1  0.03292057  0.89674327  0.16286416  1
  N  N107  1  0.03292057  0.60325673  0.33713584  1
  N  N108  1  0.31034037  0.26216721  0.52147097  1
  N  N109  1  0.31034037  0.23783279  0.97852903  1
  N  N110  1  0.81034037  0.02147097  0.73783279  1
  N  N111  1  0.81034037  0.47852903  0.76216721  1
  N  N112  1  0.68965963  0.73783279  0.47852903  1
  N  N113  1  0.68965963  0.76216721  0.02147097  1
  N  N114  1  0.18965963  0.97852903  0.26216721  1
  N  N115  1  0.18965963  0.52147097  0.23783279  1
  N  N116  1  0.57297343  0.36718437  0.16909828  1
  N  N117  1  0.57297343  0.13281563  0.33090172  1
  N  N118  1  0.07297343  0.66909828  0.63281563  1
  N  N119  1  0.07297343  0.83090172  0.86718437  1
  N  N120  1  0.42702657  0.63281563  0.83090172  1
  N  N121  1  0.42702657  0.86718437  0.66909828  1
  N  N122  1  0.92702657  0.33090172  0.36718437  1
  N  N123  1  0.92702657  0.16909828  0.13281563  1
  N  N124  1  0.68762065  0.48915032  0.25436726  1
  N  N125  1  0.68762065  0.01084968  0.24563274  1
  N  N126  1  0.18762065  0.75436726  0.51084968  1
  N  N127  1  0.18762065  0.74563274  0.98915032  1
  N  N128  1  0.31237935  0.51084968  0.74563274  1
  N  N129  1  0.31237935  0.98915032  0.75436726  1
  N  N130  1  0.81237935  0.24563274  0.48915032  1
  N  N131  1  0.81237935  0.25436726  0.01084968  1
  Cl  Cl132  1  0.23143445  0.49109846  0.50111537  1
  Cl  Cl133  1  0.23143445  0.00890154  0.99888463  1
  Cl  Cl134  1  0.73143445  0.00111537  0.50890154  1
  Cl  Cl135  1  0.73143445  0.49888463  0.99109846  1
  Cl  Cl136  1  0.76856555  0.50890154  0.49888463  1
  Cl  Cl137  1  0.76856555  0.99109846  0.00111537  1
  Cl  Cl138  1  0.26856555  0.99888463  0.49109846  1
  Cl  Cl139  1  0.26856555  0.50111537  0.00890154  1
