# generated using pymatgen
data_DyMnSn2
_symmetry_space_group_name_H-M   'P 1'
_cell_length_a   9.04666410
_cell_length_b   10.47286399
_cell_length_c   11.43796037
_cell_angle_alpha   90.00000000
_cell_angle_beta   90.00000000
_cell_angle_gamma   90.00000000
_symmetry_Int_Tables_number   1
_chemical_formula_structural   DyMnSn2
_chemical_formula_sum   'Dy12 Mn12 Sn24'
_cell_volume   1083.68363820
_cell_formula_units_Z   12
loop_
 _symmetry_equiv_pos_site_id
 _symmetry_equiv_pos_as_xyz
  1  'x, y, z'
loop_
 _atom_site_type_symbol
 _atom_site_label
 _atom_site_symmetry_multiplicity
 _atom_site_fract_x
 _atom_site_fract_y
 _atom_site_fract_z
 _atom_site_occupancy
  Dy  Dy0  1  0.24333300  0.82905811  0.45289498  1
  Dy  Dy1  1  0.24333300  0.17094189  0.54710502  1
  Dy  Dy2  1  0.75666700  0.32905811  0.04710502  1
  Dy  Dy3  1  0.75666700  0.67094189  0.95289498  1
  Dy  Dy4  1  0.75666700  0.17094189  0.54710502  1
  Dy  Dy5  1  0.75666700  0.82905811  0.45289498  1
  Dy  Dy6  1  0.24333300  0.67094189  0.95289498  1
  Dy  Dy7  1  0.24333300  0.32905811  0.04710502  1
  Dy  Dy8  1  0.00000000  0.83511070  0.17919348  1
  Dy  Dy9  1  -0.00000000  0.16488930  0.82080652  1
  Dy  Dy10  1  0.00000000  0.33511070  0.32080652  1
  Dy  Dy11  1  -0.00000000  0.66488930  0.67919348  1
  Mn  Mn12  1  0.24692490  0.58836591  0.25373575  1
  Mn  Mn13  1  0.24692490  0.41163409  0.74626425  1
  Mn  Mn14  1  0.75307510  0.08836591  0.24626425  1
  Mn  Mn15  1  0.75307510  0.91163409  0.75373575  1
  Mn  Mn16  1  0.75307510  0.41163409  0.74626425  1
  Mn  Mn17  1  0.75307510  0.58836591  0.25373575  1
  Mn  Mn18  1  0.24692490  0.91163409  0.75373575  1
  Mn  Mn19  1  0.24692490  0.08836591  0.24626425  1
  Mn  Mn20  1  0.24230491  0.50000000  0.50000000  1
  Mn  Mn21  1  0.75769509  0.00000000  0.00000000  1
  Mn  Mn22  1  0.75769509  0.50000000  0.50000000  1
  Mn  Mn23  1  0.24230491  0.00000000  0.00000000  1
  Sn  Sn24  1  0.33843129  0.83810309  0.18103746  1
  Sn  Sn25  1  0.33843129  0.16189691  0.81896254  1
  Sn  Sn26  1  0.66156871  0.33810309  0.31896254  1
  Sn  Sn27  1  0.66156871  0.66189691  0.68103746  1
  Sn  Sn28  1  0.66156871  0.16189691  0.81896254  1
  Sn  Sn29  1  0.66156871  0.83810309  0.18103746  1
  Sn  Sn30  1  0.33843129  0.66189691  0.68103746  1
  Sn  Sn31  1  0.33843129  0.33810309  0.31896254  1
  Sn  Sn32  1  0.50000000  0.54451594  0.12507425  1
  Sn  Sn33  1  0.50000000  0.45548406  0.87492575  1
  Sn  Sn34  1  0.50000000  0.04451594  0.37492575  1
  Sn  Sn35  1  0.50000000  0.95548406  0.62507425  1
  Sn  Sn36  1  0.00000000  0.54062553  0.12235341  1
  Sn  Sn37  1  0.00000000  0.45937447  0.87764659  1
  Sn  Sn38  1  -0.00000000  0.04062553  0.37764659  1
  Sn  Sn39  1  -0.00000000  0.95937447  0.62235341  1
  Sn  Sn40  1  0.50000000  0.62493763  0.40571665  1
  Sn  Sn41  1  0.50000000  0.37506237  0.59428335  1
  Sn  Sn42  1  0.50000000  0.12493763  0.09428335  1
  Sn  Sn43  1  0.50000000  0.87506237  0.90571665  1
  Sn  Sn44  1  -0.00000000  0.62913390  0.39870159  1
  Sn  Sn45  1  -0.00000000  0.37086610  0.60129841  1
  Sn  Sn46  1  -0.00000000  0.12913390  0.10129841  1
  Sn  Sn47  1  -0.00000000  0.87086610  0.89870159  1
