# generated using pymatgen
data_BaTiMn2(SiO5)2
_symmetry_space_group_name_H-M   'P 1'
_cell_length_a   5.40664525
_cell_length_b   6.90965036
_cell_length_c   11.49844168
_cell_angle_alpha   90.00000000
_cell_angle_beta   96.46058190
_cell_angle_gamma   90.00000000
_symmetry_Int_Tables_number   1
_chemical_formula_structural   BaTiMn2(SiO5)2
_chemical_formula_sum   'Ba2 Ti2 Mn4 Si4 O20'
_cell_volume   426.83119490
_cell_formula_units_Z   2
loop_
 _symmetry_equiv_pos_site_id
 _symmetry_equiv_pos_as_xyz
  1  'x, y, z'
loop_
 _atom_site_type_symbol
 _atom_site_label
 _atom_site_symmetry_multiplicity
 _atom_site_fract_x
 _atom_site_fract_y
 _atom_site_fract_z
 _atom_site_occupancy
  Ba  Ba0  1  0.76686173  0.25000000  0.56899935  1
  Ba  Ba1  1  0.23313827  0.75000000  0.43100065  1
  Ti  Ti2  1  0.22904014  0.25000000  0.33626552  1
  Ti  Ti3  1  0.77095986  0.75000000  0.66373448  1
  Mn  Mn4  1  0.50408188  0.25000000  0.00320824  1
  Mn  Mn5  1  0.49591812  0.75000000  0.99679176  1
  Mn  Mn6  1  -0.00000000  0.50000000  -0.00000000  1
  Mn  Mn7  1  -0.00000000  0.00000000  -0.00000000  1
  Si  Si8  1  0.29600303  0.48077740  0.75456045  1
  Si  Si9  1  0.70399697  0.98077740  0.24543955  1
  Si  Si10  1  0.70399697  0.51922260  0.24543955  1
  Si  Si11  1  0.29600303  0.01922260  0.75456045  1
  O  O12  1  0.65871492  0.48805440  0.10139694  1
  O  O13  1  0.34128508  0.98805440  0.89860306  1
  O  O14  1  0.34128508  0.51194560  0.89860306  1
  O  O15  1  0.65871492  0.01194560  0.10139694  1
  O  O16  1  0.80657523  0.25000000  0.93295836  1
  O  O17  1  0.19342477  0.75000000  0.06704164  1
  O  O18  1  0.25144938  0.25000000  0.48739125  1
  O  O19  1  0.74855062  0.75000000  0.51260875  1
  O  O20  1  0.19476460  0.25000000  0.06799408  1
  O  O21  1  0.80523540  0.75000000  0.93200592  1
  O  O22  1  0.28115772  0.25000000  0.73514005  1
  O  O23  1  0.71884228  0.75000000  0.26485995  1
  O  O24  1  0.47821043  0.44661400  0.31547600  1
  O  O25  1  0.52178957  0.94661400  0.68452400  1
  O  O26  1  0.52178957  0.55338600  0.68452400  1
  O  O27  1  0.47821043  0.05338600  0.31547600  1
  O  O28  1  0.97431912  0.44579610  0.30309151  1
  O  O29  1  0.02568088  0.94579610  0.69690849  1
  O  O30  1  0.02568088  0.55420390  0.69690849  1
  O  O31  1  0.97431912  0.05420390  0.30309151  1
